0:0:0
     RDKit          3D

 31 32  0  0  1  0  0  0  0  0999 V2000
    0.2771    0.9708    1.6344 C   0  0  0  0  0  0  0  0  0  0  0  0
    1.0984    2.1420    2.0335 N   0  0  0  0  0  0  0  0  0  0  0  0
    2.5658    1.8966    2.2120 C   0  0  0  0  0  0  0  0  0  0  0  0
    2.9215    1.0490    3.4539 C   0  0  2  0  0  0  0  0  0  0  0  0
    2.7048   -0.3273    3.2429 O   0  0  0  0  0  0  0  0  0  0  0  0
    2.1964    1.4317    4.7212 C   0  0  0  0  0  0  0  0  0  0  0  0
    0.8660    1.5554    4.9587 C   0  0  0  0  0  0  0  0  0  0  0  0
    0.7731    2.0048    6.2549 N   0  0  0  0  0  0  0  0  0  0  0  0
   -0.3883    2.3361    6.9784 C   0  0  0  0  0  0  0  0  0  0  0  0
   -1.6564    2.2899    6.3441 C   0  0  0  0  0  0  0  0  0  0  0  0
   -2.8108    2.6068    7.0756 C   0  0  0  0  0  0  0  0  0  0  0  0
   -2.7192    2.9651    8.4252 C   0  0  0  0  0  0  0  0  0  0  0  0
   -4.1696    3.3337    9.2785 Cl  0  0  0  0  0  0  0  0  0  0  0  0
   -1.4678    3.0234    9.0573 C   0  0  0  0  0  0  0  0  0  0  0  0
   -1.3441    3.4869   10.7166 Cl  0  0  0  0  0  0  0  0  0  0  0  0
   -0.3020    2.7114    8.3405 C   0  0  0  0  0  0  0  0  0  0  0  0
    2.0245    2.1111    6.7895 N   0  0  0  0  0  0  0  0  0  0  0  0
    2.8863    1.7723    5.8718 N   0  0  0  0  0  0  0  0  0  0  0  0
   -0.7746    1.2631    1.4826 H   0  0  0  0  0  0  0  0  0  0  0  0
    0.2630    0.1669    2.3742 H   0  0  0  0  0  0  0  0  0  0  0  0
    0.7243    0.5517    0.7308 H   0  0  0  0  0  0  0  0  0  0  0  0
    0.9416    2.9001    1.3374 H   0  0  0  0  0  0  0  0  0  0  0  0
    3.0246    1.4491    1.3204 H   0  0  0  0  0  0  0  0  0  0  0  0
    3.0011    2.8873    2.3592 H   0  0  0  0  0  0  0  0  0  0  0  0
    3.9931    1.1443    3.5928 H   0  0  0  0  0  0  0  0  0  0  0  0
    1.8635   -0.4615    2.8393 H   0  0  0  0  0  0  0  0  0  0  0  0
   -0.0061    1.3998    4.3303 H   0  0  0  0  0  0  0  0  0  0  0  0
   -1.7967    2.0181    5.3080 H   0  0  0  0  0  0  0  0  0  0  0  0
   -3.7779    2.5721    6.5946 H   0  0  0  0  0  0  0  0  0  0  0  0
    0.6495    2.7623    8.8530 H   0  0  0  0  0  0  0  0  0  0  0  0
    0.7890    2.5343    2.9180 H   0  0  0  0  0  0  0  0  0  0  0  0
  1  2  1  0
  1 19  1  0
  1 20  1  0
  1 21  1  0
  2  3  1  0
  2 22  1  0
  2 31  1  0
  3  4  1  0
  3 23  1  0
  3 24  1  0
  4  5  1  0
  4  6  1  0
  4 25  1  1
  5 26  1  0
  6 18  1  0
  6  7  2  0
  7  8  1  0
  7 27  1  0
  8  9  1  0
  8 17  1  0
  9 16  1  0
  9 10  2  0
 10 11  1  0
 10 28  1  0
 11 12  2  0
 11 29  1  0
 12 13  1  0
 12 14  1  0
 14 15  1  0
 14 16  2  0
 16 30  1  0
 17 18  2  0
M  CHG  1   2   1
M  END
>  <i_m_ct_stereo_status>  (1) 
1

>  <s_m_source_file>  (1) 
/var/tmp/pbs.5083856.sched01/tmp65h_0x39/0ko7nvlt6.sdf

>  <i_m_source_file_index>  (1) 
1

>  <i_lp_mmshare_version>  (1) 
48012

>  <i_f3d_flags>  (1) 
0

>  <s_epik_input>  (1) 
W0NIM11bTkhdW0NIMl1bQ0BIXShbT0hdKWMxW2NIXW4obm4xKS1jMltjSF1bY0hdYyhDbCljKENsKVtjSF0y

>  <s_epik_cmdline>  (1) 
J2VwaWtfcHl0aG9uJywgJy1waHQnLCAnMi4wJywgJy1waCcsICc3LjAnLCAnLXRuJywgJzgnLCAnLW1hJywgJzIwMCcsICctaW1hZScsICc8aW5maWxlLm1hZT4nLCAnLW9tYWUnLCAnPG91dGZpbGUubWFlPic=

>  <r_lp_tautomer_probability>  (1) 
1

>  <r_epik_Ionization_Penalty>  (1) 
0.0146427

>  <r_epik_Ionization_Penalty_Charging>  (1) 
0.0145998

>  <r_epik_Ionization_Penalty_Neutral>  (1) 
4.29252e-05

>  <r_epik_State_Penalty>  (1) 
0.0114284

>  <r_epik_Charging_Adjusted_Penalty>  (1) 
0.0260282

>  <i_epik_Tot_Q>  (1) 
1

>  <i_epik_Tot_abs_Q>  (1) 
1

>  <s_lp_Force_Field>  (1) 
OPLS3e

>  <r_lp_Energy>  (1) 
24.619

>  <b_lp_Chiralities_Consistent>  (1) 
1

>  <s_lp_Variant>  (1) 
0:0-1

>  <s_i_glide_gridfile>  (1) 
pfpi4k_grid

>  <i_i_glide_lignum>  (1) 
1

>  <i_i_glide_rotatable_bonds>  (1) 
5

>  <r_i_docking_score>  (1) 
-3.10381

>  <r_i_glide_ligand_efficiency>  (1) 
-0.172434

>  <r_i_glide_ligand_efficiency_sa>  (1) 
-0.451905

>  <r_i_glide_ligand_efficiency_ln>  (1) 
-0.797819

>  <r_i_glide_gscore>  (1) 
-3.10381

>  <r_i_glide_lipo>  (1) 
-0.342329

>  <r_i_glide_hbond>  (1) 
-0.2

>  <r_i_glide_metal>  (1) 
-0

>  <r_i_glide_rewards>  (1) 
-1.44441

>  <r_i_glide_evdw>  (1) 
-15.5631

>  <r_i_glide_ecoul>  (1) 
-6.04662

>  <r_i_glide_erotb>  (1) 
0.657147

>  <r_i_glide_esite>  (1) 
-0.0890667

>  <r_i_glide_emodel>  (1) 
-24.978

>  <r_i_glide_energy>  (1) 
-21.6097

>  <r_i_glide_einternal>  (1) 
6.03921

>  <r_i_glide_intrahb_reward>  (1) 
-0

>  <i_i_glide_confnum>  (1) 
2

>  <i_i_glide_posenum>  (1) 
25

>  <r_i_glide_eff_state_penalty>  (1) 
0

>  <ligand_id>  (1) 
0

>  <original_smiles>  (1) 
CNCC(O)c1cn(-c2ccc(Cl)c(Cl)c2)nn1

>  <smiles>  (1) 
[H]OC([H])(c1nnn(-c2c([H])c([H])c(Cl)c(Cl)c2[H])c1[H])C([H])([H])[N+]([H])([H])C([H])([H])[H]

$$$$
0:0:1
     RDKit          3D

 31 32  0  0  1  0  0  0  0  0999 V2000
    2.3807    4.0664    2.3897 C   0  0  0  0  0  0  0  0  0  0  0  0
    1.4395    2.9487    2.5415 N   0  0  0  0  0  0  0  0  0  0  0  0
    1.9634    1.6177    2.1511 C   0  0  0  0  0  0  0  0  0  0  0  0
    0.9532    0.5086    2.4850 C   0  0  2  0  0  0  0  0  0  0  0  0
   -0.2135    0.7038    1.6968 O   0  0  0  0  0  0  0  0  0  0  0  0
    0.5169    0.4915    3.9299 C   0  0  0  0  0  0  0  0  0  0  0  0
   -0.2446    1.3904    4.6227 C   0  0  0  0  0  0  0  0  0  0  0  0
   -0.2592    0.9128    5.9168 N   0  0  0  0  0  0  0  0  0  0  0  0
   -0.8861    1.4771    7.0449 C   0  0  0  0  0  0  0  0  0  0  0  0
   -2.0768    2.2180    6.8745 C   0  0  0  0  0  0  0  0  0  0  0  0
   -2.7136    2.7869    7.9922 C   0  0  0  0  0  0  0  0  0  0  0  0
   -2.1631    2.6375    9.2708 C   0  0  0  0  0  0  0  0  0  0  0  0
   -2.9733    3.3823   10.5810 Cl  0  0  0  0  0  0  0  0  0  0  0  0
   -0.9772    1.8998    9.4544 C   0  0  0  0  0  0  0  0  0  0  0  0
   -0.2821    1.6975   11.0216 Cl  0  0  0  0  0  0  0  0  0  0  0  0
   -0.3392    1.3184    8.3427 C   0  0  0  0  0  0  0  0  0  0  0  0
    0.4610   -0.2353    6.0099 N   0  0  0  0  0  0  0  0  0  0  0  0
    0.9289   -0.4909    4.8272 N   0  0  0  0  0  0  0  0  0  0  0  0
    1.9087    4.9925    2.7227 H   0  0  0  0  0  0  0  0  0  0  0  0
    2.5983    4.1786    1.3343 H   0  0  0  0  0  0  0  0  0  0  0  0
    3.3093    3.9026    2.9363 H   0  0  0  0  0  0  0  0  0  0  0  0
    1.1619    2.8825    3.5127 H   0  0  0  0  0  0  0  0  0  0  0  0
    2.1743    1.5915    1.0863 H   0  0  0  0  0  0  0  0  0  0  0  0
    2.9094    1.4258    2.6512 H   0  0  0  0  0  0  0  0  0  0  0  0
    1.4242   -0.4460    2.2268 H   0  0  0  0  0  0  0  0  0  0  0  0
   -0.0326    0.5176    0.7758 H   0  0  0  0  0  0  0  0  0  0  0  0
   -0.7370    2.2995    4.3055 H   0  0  0  0  0  0  0  0  0  0  0  0
   -2.5142    2.3462    5.8938 H   0  0  0  0  0  0  0  0  0  0  0  0
   -3.6367    3.3378    7.8768 H   0  0  0  0  0  0  0  0  0  0  0  0
    0.5796    0.7653    8.4945 H   0  0  0  0  0  0  0  0  0  0  0  0
    0.6411    3.1885    1.9471 H   0  0  0  0  0  0  0  0  0  0  0  0
  1  2  1  0
  1 19  1  0
  1 20  1  0
  1 21  1  0
  2  3  1  0
  2 22  1  0
  2 31  1  0
  3  4  1  0
  3 23  1  0
  3 24  1  0
  4  5  1  0
  4  6  1  0
  4 25  1  6
  5 26  1  0
  6 18  1  0
  6  7  2  0
  7  8  1  0
  7 27  1  0
  8  9  1  0
  8 17  1  0
  9 16  1  0
  9 10  2  0
 10 11  1  0
 10 28  1  0
 11 12  2  0
 11 29  1  0
 12 13  1  0
 12 14  1  0
 14 15  1  0
 14 16  2  0
 16 30  1  0
 17 18  2  0
M  CHG  1   2   1
M  END
>  <i_m_ct_stereo_status>  (2) 
1

>  <s_m_source_file>  (2) 
/var/tmp/pbs.5083856.sched01/tmp65h_0x39/0ko7nvlt6.sdf

>  <i_m_source_file_index>  (2) 
1

>  <i_lp_mmshare_version>  (2) 
48012

>  <i_f3d_flags>  (2) 
0

>  <s_epik_input>  (2) 
W0NIM11bTkhdW0NIMl1bQ0BIXShbT0hdKWMxW2NIXW4obm4xKS1jMltjSF1bY0hdYyhDbCljKENsKVtjSF0y

>  <s_epik_cmdline>  (2) 
J2VwaWtfcHl0aG9uJywgJy1waHQnLCAnMi4wJywgJy1waCcsICc3LjAnLCAnLXRuJywgJzgnLCAnLW1hJywgJzIwMCcsICctaW1hZScsICc8aW5maWxlLm1hZT4nLCAnLW9tYWUnLCAnPG91dGZpbGUubWFlPic=

>  <r_lp_tautomer_probability>  (2) 
1

>  <r_epik_Ionization_Penalty>  (2) 
0.0146427

>  <r_epik_Ionization_Penalty_Charging>  (2) 
0.0145998

>  <r_epik_Ionization_Penalty_Neutral>  (2) 
4.29252e-05

>  <r_epik_State_Penalty>  (2) 
0.0114284

>  <r_epik_Charging_Adjusted_Penalty>  (2) 
0.0260282

>  <i_epik_Tot_Q>  (2) 
1

>  <i_epik_Tot_abs_Q>  (2) 
1

>  <s_lp_Force_Field>  (2) 
OPLS3e

>  <r_lp_Energy>  (2) 
24.619

>  <b_lp_Chiralities_Consistent>  (2) 
1

>  <s_lp_Variant>  (2) 
0:0-1

>  <s_i_glide_gridfile>  (2) 
pfpi4k_grid

>  <i_i_glide_lignum>  (2) 
1

>  <i_i_glide_rotatable_bonds>  (2) 
5

>  <r_i_docking_score>  (2) 
-3.03339

>  <r_i_glide_ligand_efficiency>  (2) 
-0.168522

>  <r_i_glide_ligand_efficiency_sa>  (2) 
-0.441652

>  <r_i_glide_ligand_efficiency_ln>  (2) 
-0.779717

>  <r_i_glide_gscore>  (2) 
-3.03339

>  <r_i_glide_lipo>  (2) 
-0.14201

>  <r_i_glide_hbond>  (2) 
-0.373209

>  <r_i_glide_metal>  (2) 
-0

>  <r_i_glide_rewards>  (2) 
-1.44441

>  <r_i_glide_evdw>  (2) 
-15.688

>  <r_i_glide_ecoul>  (2) 
-5.44768

>  <r_i_glide_erotb>  (2) 
0.657147

>  <r_i_glide_esite>  (2) 
-0.12935

>  <r_i_glide_emodel>  (2) 
-25.3859

>  <r_i_glide_energy>  (2) 
-21.1357

>  <r_i_glide_einternal>  (2) 
4.60931

>  <r_i_glide_intrahb_reward>  (2) 
-0

>  <i_i_glide_confnum>  (2) 
2

>  <i_i_glide_posenum>  (2) 
22

>  <r_i_glide_eff_state_penalty>  (2) 
0

>  <ligand_id>  (2) 
0

>  <original_smiles>  (2) 
CNCC(O)c1cn(-c2ccc(Cl)c(Cl)c2)nn1

>  <smiles>  (2) 
[H]OC([H])(c1nnn(-c2c([H])c([H])c(Cl)c(Cl)c2[H])c1[H])C([H])([H])[N+]([H])([H])C([H])([H])[H]

$$$$
0:0:2
     RDKit          3D

 31 32  0  0  1  0  0  0  0  0999 V2000
   -0.1813    1.3351    2.0732 C   0  0  0  0  0  0  0  0  0  0  0  0
    0.8852    0.3807    1.6840 N   0  0  0  0  0  0  0  0  0  0  0  0
    2.2688    0.9330    1.7034 C   0  0  0  0  0  0  0  0  0  0  0  0
    2.9503    0.8389    3.1043 C   0  0  2  0  0  0  0  0  0  0  0  0
    3.0213   -0.5185    3.4881 O   0  0  0  0  0  0  0  0  0  0  0  0
    2.2532    1.6240    4.2244 C   0  0  0  0  0  0  0  0  0  0  0  0
    1.1824    1.2710    4.9753 C   0  0  0  0  0  0  0  0  0  0  0  0
    0.8562    2.4415    5.6474 N   0  0  0  0  0  0  0  0  0  0  0  0
   -0.2689    2.6834    6.4784 C   0  0  0  0  0  0  0  0  0  0  0  0
   -1.4296    1.8884    6.3923 C   0  0  0  0  0  0  0  0  0  0  0  0
   -2.5062    2.0938    7.2627 C   0  0  0  0  0  0  0  0  0  0  0  0
   -2.4528    3.1232    8.2148 C   0  0  0  0  0  0  0  0  0  0  0  0
   -3.8086    3.3525    9.2790 Cl  0  0  0  0  0  0  0  0  0  0  0  0
   -1.3241    3.9579    8.2870 C   0  0  0  0  0  0  0  0  0  0  0  0
   -1.2366    5.2353    9.4505 Cl  0  0  0  0  0  0  0  0  0  0  0  0
   -0.2474    3.7612    7.4282 C   0  0  0  0  0  0  0  0  0  0  0  0
    1.7879    3.4086    5.3967 N   0  0  0  0  0  0  0  0  0  0  0  0
    2.6383    2.9257    4.5316 N   0  0  0  0  0  0  0  0  0  0  0  0
   -1.1515    0.8434    2.1050 H   0  0  0  0  0  0  0  0  0  0  0  0
   -0.1759    2.2459    1.5020 H   0  0  0  0  0  0  0  0  0  0  0  0
   -0.0793    1.7383    3.0900 H   0  0  0  0  0  0  0  0  0  0  0  0
    0.8818   -0.4607    2.1924 H   0  0  0  0  0  0  0  0  0  0  0  0
    2.8718    0.3512    0.9940 H   0  0  0  0  0  0  0  0  0  0  0  0
    2.2762    1.9423    1.3066 H   0  0  0  0  0  0  0  0  0  0  0  0
    3.9824    1.1916    3.0144 H   0  0  0  0  0  0  0  0  0  0  0  0
    2.1448   -0.8757    3.4970 H   0  0  0  0  0  0  0  0  0  0  0  0
    0.5339    0.4233    4.9589 H   0  0  0  0  0  0  0  0  0  0  0  0
   -1.5095    1.0770    5.6660 H   0  0  0  0  0  0  0  0  0  0  0  0
   -3.3883    1.4563    7.2140 H   0  0  0  0  0  0  0  0  0  0  0  0
    0.6181    4.3812    7.4986 H   0  0  0  0  0  0  0  0  0  0  0  0
    0.6990    0.1486    0.7158 H   0  0  0  0  0  0  0  0  0  0  0  0
  1  2  1  0
  1 19  1  0
  1 20  1  0
  1 21  1  0
  2  3  1  0
  2 22  1  0
  2 31  1  0
  3  4  1  0
  3 23  1  0
  3 24  1  0
  4  5  1  0
  4  6  1  0
  4 25  1  6
  5 26  1  0
  6 18  1  0
  6  7  2  0
  7  8  1  0
  7 27  1  0
  8  9  1  0
  8 17  1  0
  9 16  1  0
  9 10  2  0
 10 11  1  0
 10 28  1  0
 11 12  2  0
 11 29  1  0
 12 13  1  0
 12 14  1  0
 14 15  1  0
 14 16  2  0
 16 30  1  0
 17 18  2  0
M  CHG  1   2   1
M  END
>  <i_m_ct_stereo_status>  (3) 
1

>  <s_m_source_file>  (3) 
/var/tmp/pbs.5083856.sched01/tmp65h_0x39/0ko7nvlt6.sdf

>  <i_m_source_file_index>  (3) 
1

>  <i_lp_mmshare_version>  (3) 
48012

>  <i_f3d_flags>  (3) 
0

>  <s_epik_input>  (3) 
W0NIM11bTkhdW0NIMl1bQ0BIXShbT0hdKWMxW2NIXW4obm4xKS1jMltjSF1bY0hdYyhDbCljKENsKVtjSF0y

>  <s_epik_cmdline>  (3) 
J2VwaWtfcHl0aG9uJywgJy1waHQnLCAnMi4wJywgJy1waCcsICc3LjAnLCAnLXRuJywgJzgnLCAnLW1hJywgJzIwMCcsICctaW1hZScsICc8aW5maWxlLm1hZT4nLCAnLW9tYWUnLCAnPG91dGZpbGUubWFlPic=

>  <r_lp_tautomer_probability>  (3) 
1

>  <r_epik_Ionization_Penalty>  (3) 
0.0146427

>  <r_epik_Ionization_Penalty_Charging>  (3) 
0.0145998

>  <r_epik_Ionization_Penalty_Neutral>  (3) 
4.29252e-05

>  <r_epik_State_Penalty>  (3) 
0.0114284

>  <r_epik_Charging_Adjusted_Penalty>  (3) 
0.0260282

>  <i_epik_Tot_Q>  (3) 
1

>  <i_epik_Tot_abs_Q>  (3) 
1

>  <s_lp_Force_Field>  (3) 
OPLS3e

>  <r_lp_Energy>  (3) 
24.619

>  <b_lp_Chiralities_Consistent>  (3) 
1

>  <s_lp_Variant>  (3) 
0:0-1

>  <s_i_glide_gridfile>  (3) 
pfpi4k_grid

>  <i_i_glide_lignum>  (3) 
1

>  <i_i_glide_rotatable_bonds>  (3) 
5

>  <r_i_docking_score>  (3) 
-2.9079

>  <r_i_glide_ligand_efficiency>  (3) 
-0.16155

>  <r_i_glide_ligand_efficiency_sa>  (3) 
-0.423381

>  <r_i_glide_ligand_efficiency_ln>  (3) 
-0.747462

>  <r_i_glide_gscore>  (3) 
-2.9079

>  <r_i_glide_lipo>  (3) 
-0.178082

>  <r_i_glide_hbond>  (3) 
-0.232099

>  <r_i_glide_metal>  (3) 
-0

>  <r_i_glide_rewards>  (3) 
-1.44441

>  <r_i_glide_evdw>  (3) 
-17.3195

>  <r_i_glide_ecoul>  (3) 
-4.95086

>  <r_i_glide_erotb>  (3) 
0.657147

>  <r_i_glide_esite>  (3) 
-0.101852

>  <r_i_glide_emodel>  (3) 
-25.4766

>  <r_i_glide_energy>  (3) 
-22.2703

>  <r_i_glide_einternal>  (3) 
4.98765

>  <r_i_glide_intrahb_reward>  (3) 
-0

>  <i_i_glide_confnum>  (3) 
2

>  <i_i_glide_posenum>  (3) 
39

>  <r_i_glide_eff_state_penalty>  (3) 
0

>  <ligand_id>  (3) 
0

>  <original_smiles>  (3) 
CNCC(O)c1cn(-c2ccc(Cl)c(Cl)c2)nn1

>  <smiles>  (3) 
[H]OC([H])(c1nnn(-c2c([H])c([H])c(Cl)c(Cl)c2[H])c1[H])C([H])([H])[N+]([H])([H])C([H])([H])[H]

$$$$
0:1:0
     RDKit          3D

 30 31  0  0  1  0  0  0  0  0999 V2000
    3.0582   -2.3467   -3.2195 C   0  0  0  0  0  0  0  0  0  0  0  0
    3.4103   -1.5032   -2.0827 N   0  0  0  0  0  0  0  0  0  0  0  0
    4.4236   -2.1121   -1.2259 C   0  0  0  0  0  0  0  0  0  0  0  0
    4.7757   -1.2270   -0.0198 C   0  0  2  0  0  0  0  0  0  0  0  0
    5.8491   -1.8125    0.6820 O   0  0  0  0  0  0  0  0  0  0  0  0
    3.6403   -1.0757    0.9591 C   0  0  0  0  0  0  0  0  0  0  0  0
    2.9326    0.0430    1.2810 C   0  0  0  0  0  0  0  0  0  0  0  0
    1.9956   -0.3920    2.2015 N   0  0  0  0  0  0  0  0  0  0  0  0
    0.9903    0.3648    2.8719 C   0  0  0  0  0  0  0  0  0  0  0  0
    0.8251    1.7446    2.5946 C   0  0  0  0  0  0  0  0  0  0  0  0
   -0.1513    2.5023    3.2705 C   0  0  0  0  0  0  0  0  0  0  0  0
   -0.9893    1.8998    4.2224 C   0  0  0  0  0  0  0  0  0  0  0  0
   -2.1797    2.8603    5.0267 Cl  0  0  0  0  0  0  0  0  0  0  0  0
   -0.8403    0.5250    4.5029 C   0  0  0  0  0  0  0  0  0  0  0  0
   -1.8350   -0.2585    5.6745 Cl  0  0  0  0  0  0  0  0  0  0  0  0
    0.1418   -0.2343    3.8348 C   0  0  0  0  0  0  0  0  0  0  0  0
    2.1434   -1.7260    2.4225 N   0  0  0  0  0  0  0  0  0  0  0  0
    3.1321   -2.1435    1.6956 N   0  0  0  0  0  0  0  0  0  0  0  0
    2.2923   -1.8762   -3.8375 H   0  0  0  0  0  0  0  0  0  0  0  0
    2.6720   -3.3108   -2.8855 H   0  0  0  0  0  0  0  0  0  0  0  0
    3.9267   -2.5387   -3.8497 H   0  0  0  0  0  0  0  0  0  0  0  0
    2.5573   -1.3226   -1.5391 H   0  0  0  0  0  0  0  0  0  0  0  0
    4.0883   -3.0909   -0.8787 H   0  0  0  0  0  0  0  0  0  0  0  0
    5.3243   -2.2941   -1.8131 H   0  0  0  0  0  0  0  0  0  0  0  0
    5.1111   -0.2558   -0.3776 H   0  0  0  0  0  0  0  0  0  0  0  0
    5.5561   -2.6595    0.9841 H   0  0  0  0  0  0  0  0  0  0  0  0
    3.0096    1.0563    0.9303 H   0  0  0  0  0  0  0  0  0  0  0  0
    1.4331    2.2536    1.8641 H   0  0  0  0  0  0  0  0  0  0  0  0
   -0.2578    3.5514    3.0314 H   0  0  0  0  0  0  0  0  0  0  0  0
    0.2345   -1.2838    4.0804 H   0  0  0  0  0  0  0  0  0  0  0  0
  1  2  1  0
  1 19  1  0
  1 20  1  0
  1 21  1  0
  2  3  1  0
  2 22  1  0
  3  4  1  0
  3 23  1  0
  3 24  1  0
  4  5  1  0
  4  6  1  0
  4 25  1  6
  5 26  1  0
  6 18  1  0
  6  7  2  0
  7  8  1  0
  7 27  1  0
  8  9  1  0
  8 17  1  0
  9 16  1  0
  9 10  2  0
 10 11  1  0
 10 28  1  0
 11 12  2  0
 11 29  1  0
 12 13  1  0
 12 14  1  0
 14 15  1  0
 14 16  2  0
 16 30  1  0
 17 18  2  0
M  END
>  <i_m_ct_stereo_status>  (4) 
1

>  <s_m_source_file>  (4) 
/var/tmp/pbs.5083856.sched01/tmp65h_0x39/0ko7nvlt6.sdf

>  <i_m_source_file_index>  (4) 
2

>  <i_lp_mmshare_version>  (4) 
48012

>  <i_f3d_flags>  (4) 
0

>  <s_epik_input>  (4) 
W0NIM11bTkhdW0NIMl1bQ0BIXShbT0hdKWMxW2NIXW4obm4xKS1jMltjSF1bY0hdYyhDbCljKENsKVtjSF0y

>  <s_epik_cmdline>  (4) 
J2VwaWtfcHl0aG9uJywgJy1waHQnLCAnMi4wJywgJy1waCcsICc3LjAnLCAnLXRuJywgJzgnLCAnLW1hJywgJzIwMCcsICctaW1hZScsICc8aW5maWxlLm1hZT4nLCAnLW9tYWUnLCAnPG91dGZpbGUubWFlPic=

>  <r_lp_tautomer_probability>  (4) 
1

>  <r_epik_Ionization_Penalty>  (4) 
2.20146

>  <r_epik_Ionization_Penalty_Charging>  (4) 
0

>  <r_epik_Ionization_Penalty_Neutral>  (4) 
2.20146

>  <r_epik_State_Penalty>  (4) 
2.34497

>  <r_epik_Charging_Adjusted_Penalty>  (4) 
2.34497

>  <i_epik_Tot_Q>  (4) 
0

>  <i_epik_Tot_abs_Q>  (4) 
0

>  <s_lp_Force_Field>  (4) 
OPLS3e

>  <r_lp_Energy>  (4) 
20.876

>  <b_lp_Chiralities_Consistent>  (4) 
1

>  <s_lp_Variant>  (4) 
0:0-2

>  <s_i_glide_gridfile>  (4) 
pfpi4k_grid

>  <i_i_glide_lignum>  (4) 
2

>  <i_i_glide_rotatable_bonds>  (4) 
5

>  <r_i_docking_score>  (4) 
-2.98112

>  <r_i_glide_ligand_efficiency>  (4) 
-0.165618

>  <r_i_glide_ligand_efficiency_sa>  (4) 
-0.434041

>  <r_i_glide_ligand_efficiency_ln>  (4) 
-0.766282

>  <r_i_glide_gscore>  (4) 
-2.98112

>  <r_i_glide_lipo>  (4) 
-0.0984131

>  <r_i_glide_hbond>  (4) 
-0.16

>  <r_i_glide_metal>  (4) 
-0

>  <r_i_glide_rewards>  (4) 
-1.45129

>  <r_i_glide_evdw>  (4) 
-24.8564

>  <r_i_glide_ecoul>  (4) 
-4.10769

>  <r_i_glide_erotb>  (4) 
0.661171

>  <r_i_glide_esite>  (4) 
-0.0736163

>  <r_i_glide_emodel>  (4) 
-34.6261

>  <r_i_glide_energy>  (4) 
-28.9641

>  <r_i_glide_einternal>  (4) 
0.668067

>  <r_i_glide_intrahb_reward>  (4) 
-0

>  <i_i_glide_confnum>  (4) 
4

>  <i_i_glide_posenum>  (4) 
6

>  <r_i_glide_eff_state_penalty>  (4) 
0

>  <ligand_id>  (4) 
0

>  <original_smiles>  (4) 
CNCC(O)c1cn(-c2ccc(Cl)c(Cl)c2)nn1

>  <smiles>  (4) 
[H]OC([H])(c1nnn(-c2c([H])c([H])c(Cl)c(Cl)c2[H])c1[H])C([H])([H])N([H])C([H])([H])[H]

$$$$
0:1:1
     RDKit          3D

 30 31  0  0  1  0  0  0  0  0999 V2000
    2.6087   -3.2141   -1.3826 C   0  0  0  0  0  0  0  0  0  0  0  0
    2.5676   -4.2443   -0.3387 N   0  0  0  0  0  0  0  0  0  0  0  0
    3.7960   -4.3395    0.4622 C   0  0  0  0  0  0  0  0  0  0  0  0
    4.2572   -2.9886    1.0558 C   0  0  2  0  0  0  0  0  0  0  0  0
    5.4316   -3.1773    1.8207 O   0  0  0  0  0  0  0  0  0  0  0  0
    3.2243   -2.3534    1.9479 C   0  0  0  0  0  0  0  0  0  0  0  0
    2.4050   -1.2937    1.6987 C   0  0  0  0  0  0  0  0  0  0  0  0
    1.6398   -1.1548    2.8414 N   0  0  0  0  0  0  0  0  0  0  0  0
    0.6309   -0.1954    3.1341 C   0  0  0  0  0  0  0  0  0  0  0  0
    0.2759    0.7869    2.1805 C   0  0  0  0  0  0  0  0  0  0  0  0
   -0.7114    1.7444    2.4840 C   0  0  0  0  0  0  0  0  0  0  0  0
   -1.3596    1.7426    3.7250 C   0  0  0  0  0  0  0  0  0  0  0  0
   -2.5605    2.9343    4.0552 Cl  0  0  0  0  0  0  0  0  0  0  0  0
   -1.0161    0.7692    4.6826 C   0  0  0  0  0  0  0  0  0  0  0  0
   -1.7752    0.7414    6.2320 Cl  0  0  0  0  0  0  0  0  0  0  0  0
   -0.0332   -0.1934    4.3880 C   0  0  0  0  0  0  0  0  0  0  0  0
    1.9723   -2.1237    3.7331 N   0  0  0  0  0  0  0  0  0  0  0  0
    2.9158   -2.8379    3.2138 N   0  0  0  0  0  0  0  0  0  0  0  0
    1.6790   -3.1793   -1.9510 H   0  0  0  0  0  0  0  0  0  0  0  0
    3.4294   -3.3990   -2.0729 H   0  0  0  0  0  0  0  0  0  0  0  0
    2.7428   -2.2182   -0.9680 H   0  0  0  0  0  0  0  0  0  0  0  0
    2.4360   -5.1380   -0.8091 H   0  0  0  0  0  0  0  0  0  0  0  0
    3.6572   -5.0634    1.2685 H   0  0  0  0  0  0  0  0  0  0  0  0
    4.5937   -4.7541   -0.1584 H   0  0  0  0  0  0  0  0  0  0  0  0
    4.5497   -2.3076    0.2598 H   0  0  0  0  0  0  0  0  0  0  0  0
    6.0856   -3.5473    1.2493 H   0  0  0  0  0  0  0  0  0  0  0  0
    2.2995   -0.6754    0.8202 H   0  0  0  0  0  0  0  0  0  0  0  0
    0.7419    0.8294    1.2086 H   0  0  0  0  0  0  0  0  0  0  0  0
   -0.9556    2.4915    1.7442 H   0  0  0  0  0  0  0  0  0  0  0  0
    0.2134   -0.9249    5.1440 H   0  0  0  0  0  0  0  0  0  0  0  0
  1  2  1  0
  1 19  1  0
  1 20  1  0
  1 21  1  0
  2  3  1  0
  2 22  1  0
  3  4  1  0
  3 23  1  0
  3 24  1  0
  4  5  1  0
  4  6  1  0
  4 25  1  6
  5 26  1  0
  6 18  1  0
  6  7  2  0
  7  8  1  0
  7 27  1  0
  8  9  1  0
  8 17  1  0
  9 16  1  0
  9 10  2  0
 10 11  1  0
 10 28  1  0
 11 12  2  0
 11 29  1  0
 12 13  1  0
 12 14  1  0
 14 15  1  0
 14 16  2  0
 16 30  1  0
 17 18  2  0
M  END
>  <i_m_ct_stereo_status>  (5) 
1

>  <s_m_source_file>  (5) 
/var/tmp/pbs.5083856.sched01/tmp65h_0x39/0ko7nvlt6.sdf

>  <i_m_source_file_index>  (5) 
2

>  <i_lp_mmshare_version>  (5) 
48012

>  <i_f3d_flags>  (5) 
0

>  <s_epik_input>  (5) 
W0NIM11bTkhdW0NIMl1bQ0BIXShbT0hdKWMxW2NIXW4obm4xKS1jMltjSF1bY0hdYyhDbCljKENsKVtjSF0y

>  <s_epik_cmdline>  (5) 
J2VwaWtfcHl0aG9uJywgJy1waHQnLCAnMi4wJywgJy1waCcsICc3LjAnLCAnLXRuJywgJzgnLCAnLW1hJywgJzIwMCcsICctaW1hZScsICc8aW5maWxlLm1hZT4nLCAnLW9tYWUnLCAnPG91dGZpbGUubWFlPic=

>  <r_lp_tautomer_probability>  (5) 
1

>  <r_epik_Ionization_Penalty>  (5) 
2.20146

>  <r_epik_Ionization_Penalty_Charging>  (5) 
0

>  <r_epik_Ionization_Penalty_Neutral>  (5) 
2.20146

>  <r_epik_State_Penalty>  (5) 
2.34497

>  <r_epik_Charging_Adjusted_Penalty>  (5) 
2.34497

>  <i_epik_Tot_Q>  (5) 
0

>  <i_epik_Tot_abs_Q>  (5) 
0

>  <s_lp_Force_Field>  (5) 
OPLS3e

>  <r_lp_Energy>  (5) 
20.876

>  <b_lp_Chiralities_Consistent>  (5) 
1

>  <s_lp_Variant>  (5) 
0:0-2

>  <s_i_glide_gridfile>  (5) 
pfpi4k_grid

>  <i_i_glide_lignum>  (5) 
2

>  <i_i_glide_rotatable_bonds>  (5) 
5

>  <r_i_docking_score>  (5) 
-2.86146

>  <r_i_glide_ligand_efficiency>  (5) 
-0.15897

>  <r_i_glide_ligand_efficiency_sa>  (5) 
-0.416619

>  <r_i_glide_ligand_efficiency_ln>  (5) 
-0.735523

>  <r_i_glide_gscore>  (5) 
-2.86146

>  <r_i_glide_lipo>  (5) 
-0.0585089

>  <r_i_glide_hbond>  (5) 
-0.22128

>  <r_i_glide_metal>  (5) 
-0

>  <r_i_glide_rewards>  (5) 
-1.45129

>  <r_i_glide_evdw>  (5) 
-20.6586

>  <r_i_glide_ecoul>  (5) 
-4.92492

>  <r_i_glide_erotb>  (5) 
0.661171

>  <r_i_glide_esite>  (5) 
-0.0198855

>  <r_i_glide_emodel>  (5) 
-30.5914

>  <r_i_glide_energy>  (5) 
-25.5835

>  <r_i_glide_einternal>  (5) 
1.18614

>  <r_i_glide_intrahb_reward>  (5) 
-0

>  <i_i_glide_confnum>  (5) 
4

>  <i_i_glide_posenum>  (5) 
1

>  <r_i_glide_eff_state_penalty>  (5) 
0

>  <ligand_id>  (5) 
0

>  <original_smiles>  (5) 
CNCC(O)c1cn(-c2ccc(Cl)c(Cl)c2)nn1

>  <smiles>  (5) 
[H]OC([H])(c1nnn(-c2c([H])c([H])c(Cl)c(Cl)c2[H])c1[H])C([H])([H])N([H])C([H])([H])[H]

$$$$
0:1:2
     RDKit          3D

 30 31  0  0  1  0  0  0  0  0999 V2000
    2.9871   -2.9136   -1.5790 C   0  0  0  0  0  0  0  0  0  0  0  0
    3.5305   -3.4648   -0.3358 N   0  0  0  0  0  0  0  0  0  0  0  0
    4.8758   -2.9794   -0.0005 C   0  0  0  0  0  0  0  0  0  0  0  0
    4.9580   -1.4390    0.1484 C   0  0  2  0  0  0  0  0  0  0  0  0
    6.3001   -1.0614    0.3826 O   0  0  0  0  0  0  0  0  0  0  0  0
    4.1323   -0.9144    1.2960 C   0  0  0  0  0  0  0  0  0  0  0  0
    2.9203   -0.2881    1.2811 C   0  0  0  0  0  0  0  0  0  0  0  0
    2.6136   -0.0490    2.6011 N   0  0  0  0  0  0  0  0  0  0  0  0
    1.4650    0.5925    3.1386 C   0  0  0  0  0  0  0  0  0  0  0  0
    0.7001    1.4735    2.3387 C   0  0  0  0  0  0  0  0  0  0  0  0
   -0.4225    2.1351    2.8812 C   0  0  0  0  0  0  0  0  0  0  0  0
   -0.8022    1.9222    4.2132 C   0  0  0  0  0  0  0  0  0  0  0  0
   -2.1635    2.7670    4.8454 Cl  0  0  0  0  0  0  0  0  0  0  0  0
   -0.0629    1.0309    5.0119 C   0  0  0  0  0  0  0  0  0  0  0  0
   -0.5207    0.7254    6.6469 Cl  0  0  0  0  0  0  0  0  0  0  0  0
    1.0657    0.3734    4.4818 C   0  0  0  0  0  0  0  0  0  0  0  0
    3.5983   -0.5419    3.4000 N   0  0  0  0  0  0  0  0  0  0  0  0
    4.5114   -1.0487    2.6298 N   0  0  0  0  0  0  0  0  0  0  0  0
    1.9905   -3.3045   -1.7847 H   0  0  0  0  0  0  0  0  0  0  0  0
    3.6308   -3.1567   -2.4249 H   0  0  0  0  0  0  0  0  0  0  0  0
    2.8877   -1.8296   -1.5339 H   0  0  0  0  0  0  0  0  0  0  0  0
    3.5614   -4.4776   -0.4180 H   0  0  0  0  0  0  0  0  0  0  0  0
    5.2236   -3.4535    0.9205 H   0  0  0  0  0  0  0  0  0  0  0  0
    5.5786   -3.3042   -0.7689 H   0  0  0  0  0  0  0  0  0  0  0  0
    4.6863   -0.9408   -0.7824 H   0  0  0  0  0  0  0  0  0  0  0  0
    6.5278   -1.3744    1.2474 H   0  0  0  0  0  0  0  0  0  0  0  0
    2.2587   -0.0393    0.4720 H   0  0  0  0  0  0  0  0  0  0  0  0
    0.9718    1.6770    1.3105 H   0  0  0  0  0  0  0  0  0  0  0  0
   -0.9787    2.8190    2.2569 H   0  0  0  0  0  0  0  0  0  0  0  0
    1.6305   -0.3011    5.1097 H   0  0  0  0  0  0  0  0  0  0  0  0
  1  2  1  0
  1 19  1  0
  1 20  1  0
  1 21  1  0
  2  3  1  0
  2 22  1  0
  3  4  1  0
  3 23  1  0
  3 24  1  0
  4  5  1  0
  4  6  1  0
  4 25  1  6
  5 26  1  0
  6 18  1  0
  6  7  2  0
  7  8  1  0
  7 27  1  0
  8  9  1  0
  8 17  1  0
  9 16  1  0
  9 10  2  0
 10 11  1  0
 10 28  1  0
 11 12  2  0
 11 29  1  0
 12 13  1  0
 12 14  1  0
 14 15  1  0
 14 16  2  0
 16 30  1  0
 17 18  2  0
M  END
>  <i_m_ct_stereo_status>  (6) 
1

>  <s_m_source_file>  (6) 
/var/tmp/pbs.5083856.sched01/tmp65h_0x39/0ko7nvlt6.sdf

>  <i_m_source_file_index>  (6) 
2

>  <i_lp_mmshare_version>  (6) 
48012

>  <i_f3d_flags>  (6) 
0

>  <s_epik_input>  (6) 
W0NIM11bTkhdW0NIMl1bQ0BIXShbT0hdKWMxW2NIXW4obm4xKS1jMltjSF1bY0hdYyhDbCljKENsKVtjSF0y

>  <s_epik_cmdline>  (6) 
J2VwaWtfcHl0aG9uJywgJy1waHQnLCAnMi4wJywgJy1waCcsICc3LjAnLCAnLXRuJywgJzgnLCAnLW1hJywgJzIwMCcsICctaW1hZScsICc8aW5maWxlLm1hZT4nLCAnLW9tYWUnLCAnPG91dGZpbGUubWFlPic=

>  <r_lp_tautomer_probability>  (6) 
1

>  <r_epik_Ionization_Penalty>  (6) 
2.20146

>  <r_epik_Ionization_Penalty_Charging>  (6) 
0

>  <r_epik_Ionization_Penalty_Neutral>  (6) 
2.20146

>  <r_epik_State_Penalty>  (6) 
2.34497

>  <r_epik_Charging_Adjusted_Penalty>  (6) 
2.34497

>  <i_epik_Tot_Q>  (6) 
0

>  <i_epik_Tot_abs_Q>  (6) 
0

>  <s_lp_Force_Field>  (6) 
OPLS3e

>  <r_lp_Energy>  (6) 
20.876

>  <b_lp_Chiralities_Consistent>  (6) 
1

>  <s_lp_Variant>  (6) 
0:0-2

>  <s_i_glide_gridfile>  (6) 
pfpi4k_grid

>  <i_i_glide_lignum>  (6) 
2

>  <i_i_glide_rotatable_bonds>  (6) 
5

>  <r_i_docking_score>  (6) 
-2.50042

>  <r_i_glide_ligand_efficiency>  (6) 
-0.138912

>  <r_i_glide_ligand_efficiency_sa>  (6) 
-0.364053

>  <r_i_glide_ligand_efficiency_ln>  (6) 
-0.642721

>  <r_i_glide_gscore>  (6) 
-2.50042

>  <r_i_glide_lipo>  (6) 
-0.062037

>  <r_i_glide_hbond>  (6) 
0

>  <r_i_glide_metal>  (6) 
-0

>  <r_i_glide_rewards>  (6) 
-1.45129

>  <r_i_glide_evdw>  (6) 
-21.6271

>  <r_i_glide_ecoul>  (6) 
-3.73011

>  <r_i_glide_erotb>  (6) 
0.661171

>  <r_i_glide_esite>  (6) 
-0.00739698

>  <r_i_glide_emodel>  (6) 
-29.6305

>  <r_i_glide_energy>  (6) 
-25.3572

>  <r_i_glide_einternal>  (6) 
1.25348

>  <r_i_glide_intrahb_reward>  (6) 
-0

>  <i_i_glide_confnum>  (6) 
4

>  <i_i_glide_posenum>  (6) 
8

>  <r_i_glide_eff_state_penalty>  (6) 
0

>  <ligand_id>  (6) 
0

>  <original_smiles>  (6) 
CNCC(O)c1cn(-c2ccc(Cl)c(Cl)c2)nn1

>  <smiles>  (6) 
[H]OC([H])(c1nnn(-c2c([H])c([H])c(Cl)c(Cl)c2[H])c1[H])C([H])([H])N([H])C([H])([H])[H]

$$$$
1:0:0
     RDKit          3D

 71 77  0  0  1  0  0  0  0  0999 V2000
    5.0805    4.2431    6.2392 C   0  0  0  0  0  0  0  0  0  0  0  0
    3.5468    4.2486    6.1150 C   0  0  0  0  0  0  0  0  0  0  0  0
    3.0485    3.3917    5.0953 O   0  0  0  0  0  0  0  0  0  0  0  0
    3.0585    1.9885    5.3783 C   0  0  2  0  0  0  0  0  0  0  0  0
    2.9020    1.0282    4.1275 C   0  0  1  0  0  0  0  0  0  0  0  0
    2.7475   -0.3942    4.7120 C   0  0  2  0  0  0  0  0  0  0  0  0
    1.5019   -1.1065    4.1719 C   0  0  1  0  0  0  0  0  0  0  0  0
    1.0456   -2.2424    4.9292 O   0  0  0  0  0  0  0  0  0  0  0  0
   -0.2319   -2.4661    5.4749 C   0  0  0  0  0  0  0  0  0  0  0  0
   -0.7434   -1.5775    6.4577 O   0  0  0  0  0  0  0  0  0  0  0  0
   -0.2290   -0.2739    6.5234 C   0  0  2  0  0  0  0  0  0  0  0  0
   -1.0709    0.5387    7.2853 O   0  0  0  0  0  0  0  0  0  0  0  0
   -0.5374    1.7990    7.7251 C   0  0  0  0  0  0  0  0  0  0  0  0
   -1.7262    2.8191    7.7003 C   0  0  0  0  0  0  0  0  0  0  0  0
   -0.3643    1.7658    9.2879 C   0  0  0  0  0  0  0  0  0  0  0  0
    0.7541    2.2440    6.8161 C   0  0  2  0  0  0  0  0  0  0  0  0
    0.3234    3.2208    5.7760 C   0  0  0  0  0  0  0  0  0  0  0  0
   -0.6484    3.0364    4.8836 C   0  0  0  0  0  0  0  0  0  0  0  0
   -1.2062    4.2449    4.1351 C   0  0  0  0  0  0  0  0  0  0  0  0
   -1.2960    1.6760    4.6274 C   0  0  1  0  0  0  0  0  0  0  0  0
   -1.7689    1.7024    3.2483 O   0  0  0  0  0  0  0  0  0  0  0  0
   -0.4304    0.3493    4.9379 C   0  0  2  0  0  0  0  0  0  0  0  0
   -1.5619   -0.3847    4.4762 O   0  0  0  0  0  0  0  0  0  0  0  0
    0.6089    0.0435    3.7874 C   0  0  1  0  0  0  0  0  0  0  0  0
    1.6899    1.0772    3.1637 C   0  0  0  0  0  0  0  0  0  0  0  0
    1.3106    2.4960    2.6950 C   0  0  0  0  0  0  0  0  0  0  0  0
    2.1962    0.4908    1.7992 C   0  0  0  0  0  0  0  0  0  0  0  0
    2.1979    1.4501    6.5416 C   0  0  2  0  0  0  0  0  0  0  0  0
    2.6490    1.3201    7.9990 C   0  0  0  0  0  0  0  0  0  0  0  0
    1.6264    0.4065    8.4769 O   0  0  0  0  0  0  0  0  0  0  0  0
    1.0301   -0.6017    7.5944 C   0  0  2  0  0  0  0  0  0  0  0  0
    2.2826   -1.2111    7.0776 C   0  0  0  0  0  0  0  0  0  0  0  0
    2.6546   -0.0721    6.1671 C   0  0  1  0  0  0  0  0  0  0  0  0
    5.4068    4.9636    7.0013 H   0  0  0  0  0  0  0  0  0  0  0  0
    5.5394    4.5336    5.2975 H   0  0  0  0  0  0  0  0  0  0  0  0
    5.4908    3.2753    6.5368 H   0  0  0  0  0  0  0  0  0  0  0  0
    3.0782    4.0601    7.0815 H   0  0  0  0  0  0  0  0  0  0  0  0
    3.2262    5.2468    5.8292 H   0  0  0  0  0  0  0  0  0  0  0  0
    4.0994    1.8104    5.6458 H   0  0  0  0  0  0  0  0  0  0  0  0
    3.8140    1.1190    3.5455 H   0  0  0  0  0  0  0  0  0  0  0  0
    3.6373   -1.0033    4.5254 H   0  0  0  0  0  0  0  0  0  0  0  0
    1.7924   -1.6104    3.2570 H   0  0  0  0  0  0  0  0  0  0  0  0
   -0.9537   -2.6751    4.6808 H   0  0  0  0  0  0  0  0  0  0  0  0
   -0.1087   -3.3916    6.0194 H   0  0  0  0  0  0  0  0  0  0  0  0
   -1.4040    3.7832    8.0980 H   0  0  0  0  0  0  0  0  0  0  0  0
   -2.5527    2.4715    8.3219 H   0  0  0  0  0  0  0  0  0  0  0  0
   -2.2121    3.0322    6.7608 H   0  0  0  0  0  0  0  0  0  0  0  0
    0.5245    2.3161    9.6076 H   0  0  0  0  0  0  0  0  0  0  0  0
   -0.3062    0.7555    9.6752 H   0  0  0  0  0  0  0  0  0  0  0  0
   -1.1791    2.2041    9.8670 H   0  0  0  0  0  0  0  0  0  0  0  0
    1.0909    3.0379    7.4815 H   0  0  0  0  0  0  0  0  0  0  0  0
    0.7436    4.2145    5.8905 H   0  0  0  0  0  0  0  0  0  0  0  0
   -2.2798    4.3063    4.2858 H   0  0  0  0  0  0  0  0  0  0  0  0
   -0.9952    4.1971    3.0723 H   0  0  0  0  0  0  0  0  0  0  0  0
   -0.7615    5.1671    4.5126 H   0  0  0  0  0  0  0  0  0  0  0  0
   -2.2020    1.6646    5.2198 H   0  0  0  0  0  0  0  0  0  0  0  0
   -2.6999    1.4490    3.1884 H   0  0  0  0  0  0  0  0  0  0  0  0
   -1.8363    0.1076    3.6857 H   0  0  0  0  0  0  0  0  0  0  0  0
    0.0419   -0.2850    2.9174 H   0  0  0  0  0  0  0  0  0  0  0  0
    0.3557    2.5163    2.1745 H   0  0  0  0  0  0  0  0  0  0  0  0
    2.0286    2.9063    1.9826 H   0  0  0  0  0  0  0  0  0  0  0  0
    1.3246    3.2573    3.4588 H   0  0  0  0  0  0  0  0  0  0  0  0
    1.3720    0.3878    1.0990 H   0  0  0  0  0  0  0  0  0  0  0  0
    2.7191   -0.4584    1.8599 H   0  0  0  0  0  0  0  0  0  0  0  0
    2.9296    1.1428    1.3271 H   0  0  0  0  0  0  0  0  0  0  0  0
    3.6333    0.9080    8.1555 H   0  0  0  0  0  0  0  0  0  0  0  0
    2.6378    2.2451    8.5824 H   0  0  0  0  0  0  0  0  0  0  0  0
    0.6138   -1.3136    8.2985 H   0  0  0  0  0  0  0  0  0  0  0  0
    3.0005   -1.3178    7.9079 H   0  0  0  0  0  0  0  0  0  0  0  0
    2.2463   -2.2174    6.7048 H   0  0  0  0  0  0  0  0  0  0  0  0
    3.7158   -0.0989    6.3631 H   0  0  0  0  0  0  0  0  0  0  0  0
  1  2  1  0
  1 34  1  0
  1 35  1  0
  1 36  1  0
  2  3  1  0
  2 37  1  0
  2 38  1  0
  3  4  1  0
  4 28  1  0
  4  5  1  0
  4 39  1  1
  5 25  1  0
  5  6  1  0
  5 40  1  6
  6 33  1  0
  6  7  1  0
  6 41  1  1
  7 24  1  0
  7  8  1  0
  7 42  1  6
  8  9  1  0
  9 10  1  0
  9 43  1  0
  9 44  1  0
 11 10  1  6
 11 22  1  0
 11 31  1  0
 11 12  1  0
 12 13  1  0
 13 14  1  0
 13 15  1  0
 13 16  1  0
 14 45  1  0
 14 46  1  0
 14 47  1  0
 15 48  1  0
 15 49  1  0
 15 50  1  0
 16 17  1  0
 16 28  1  0
 16 51  1  1
 17 18  2  3
 17 52  1  0
 18 19  1  0
 18 20  1  0
 19 53  1  0
 19 54  1  0
 19 55  1  0
 20 21  1  0
 20 22  1  0
 20 56  1  1
 21 57  1  0
 22 23  1  6
 22 24  1  0
 23 58  1  0
 24 25  1  0
 24 59  1  6
 25 26  1  0
 25 27  1  0
 26 60  1  0
 26 61  1  0
 26 62  1  0
 27 63  1  0
 27 64  1  0
 27 65  1  0
 28 33  1  0
 28 29  1  1
 29 30  1  0
 29 66  1  0
 29 67  1  0
 30 31  1  0
 31 32  1  0
 31 68  1  1
 32 33  1  0
 32 69  1  0
 32 70  1  0
 33 71  1  1
M  END
>  <i_m_ct_stereo_status>  (7) 
1

>  <s_m_source_file>  (7) 
/var/tmp/pbs.5083856.sched01/tmp65h_0x39/0ko7nvlt6.sdf

>  <i_m_source_file_index>  (7) 
3

>  <i_lp_mmshare_version>  (7) 
48012

>  <i_f3d_flags>  (7) 
0

>  <s_epik_input>  (7) 
W09IXVtDQEBIXTFDKC9bQ0gzXSk9W0NIXVxbQ0BASF0oQyhPMikoW0NIM10pW0NIM10pW0NAQF0zKFtDQEhdNFtDSDJdW0NASF01T1tDSDJdMylbQ0BIXShPW0NIMl1bQ0gzXSlbQ0BIXShDNihbQ0gzXSlbQ0gzXSlbQ0BASF00W0NAQEhdKE9bQ0gyXU83KVtDQEhdNltDQF0xKFtDQF0yNTcpW09IXQ==

>  <s_epik_cmdline>  (7) 
J2VwaWtfcHl0aG9uJywgJy1waHQnLCAnMi4wJywgJy1waCcsICc3LjAnLCAnLXRuJywgJzgnLCAnLW1hJywgJzIwMCcsICctaW1hZScsICc8aW5maWxlLm1hZT4nLCAnLW9tYWUnLCAnPG91dGZpbGUubWFlPic=

>  <r_lp_tautomer_probability>  (7) 
1

>  <r_epik_Ionization_Penalty>  (7) 
1.82837e-06

>  <r_epik_Ionization_Penalty_Charging>  (7) 
0

>  <r_epik_Ionization_Penalty_Neutral>  (7) 
1.82837e-06

>  <r_epik_State_Penalty>  (7) 
-0

>  <r_epik_Charging_Adjusted_Penalty>  (7) 
0

>  <i_epik_Tot_Q>  (7) 
0

>  <i_epik_Tot_abs_Q>  (7) 
0

>  <s_epik_Chemistry_Notes>  (7) 
This compound contains an acetal/aminal-like group ( X-CH(R)-Y where X, Y are N, S, or O) that may be acid/base labile, releasing an aldehyde.

>  <s_lp_Force_Field>  (7) 
OPLS3e

>  <r_lp_Energy>  (7) 
298.593

>  <b_lp_Chiralities_Consistent>  (7) 
1

>  <s_lp_Variant>  (7) 
1:0-1

>  <s_i_glide_gridfile>  (7) 
pfpi4k_grid

>  <i_i_glide_lignum>  (7) 
3

>  <i_i_glide_rotatable_bonds>  (7) 
4

>  <r_i_docking_score>  (7) 
-2.38414

>  <r_i_glide_ligand_efficiency>  (7) 
-0.0722466

>  <r_i_glide_ligand_efficiency_sa>  (7) 
-0.231734

>  <r_i_glide_ligand_efficiency_ln>  (7) 
-0.53022

>  <r_i_glide_gscore>  (7) 
-2.38414

>  <r_i_glide_lipo>  (7) 
-0.0110995

>  <r_i_glide_hbond>  (7) 
-0.127075

>  <r_i_glide_metal>  (7) 
-0

>  <r_i_glide_rewards>  (7) 
-0.255166

>  <r_i_glide_evdw>  (7) 
-19.0789

>  <r_i_glide_ecoul>  (7) 
-7.14035

>  <r_i_glide_erotb>  (7) 
0.0941461

>  <r_i_glide_esite>  (7) 
-0.0599453

>  <r_i_glide_emodel>  (7) 
-29.0856

>  <r_i_glide_energy>  (7) 
-26.2193

>  <r_i_glide_einternal>  (7) 
1.69484

>  <r_i_glide_intrahb_reward>  (7) 
-0

>  <i_i_glide_confnum>  (7) 
3

>  <i_i_glide_posenum>  (7) 
28

>  <r_i_glide_eff_state_penalty>  (7) 
0

>  <ligand_id>  (7) 
1

>  <original_smiles>  (7) 
CCOC1C2C3C4OCOC56OC(C)(C)C(C=C(C)C(O)C5(O)C4C2(C)C)C12COC6CC32

>  <smiles>  (7) 
[H]OC1([H])C(C([H])([H])[H])=C([H])C2([H])C(C([H])([H])[H])(C([H])([H])[H])OC34OC([H])([H])OC5([H])C6([H])C7([H])C([H])([H])C3([H])OC([H])([H])C27C([H])(OC([H])([H])C([H])([H])[H])C6([H])C(C([H])([H])[H])(C([H])([H])[H])C5([H])C14O[H]

$$$$
1:0:1
     RDKit          3D

 71 77  0  0  1  0  0  0  0  0999 V2000
   -1.3889   -2.0492    5.5970 C   0  0  0  0  0  0  0  0  0  0  0  0
   -0.3926   -1.3434    6.5203 C   0  0  0  0  0  0  0  0  0  0  0  0
   -0.9164   -0.0598    6.8381 O   0  0  0  0  0  0  0  0  0  0  0  0
   -0.0430    0.7861    7.5894 C   0  0  2  0  0  0  0  0  0  0  0  0
   -0.7355    2.0954    8.1916 C   0  0  1  0  0  0  0  0  0  0  0  0
    0.4026    2.9814    8.7387 C   0  0  2  0  0  0  0  0  0  0  0  0
    0.3454    4.4215    8.1870 C   0  0  1  0  0  0  0  0  0  0  0  0
    1.5420    5.2094    8.3157 O   0  0  0  0  0  0  0  0  0  0  0  0
    2.2803    5.8685    7.3153 C   0  0  0  0  0  0  0  0  0  0  0  0
    2.7785    5.1449    6.1875 O   0  0  0  0  0  0  0  0  0  0  0  0
    2.2582    3.8569    5.9181 C   0  0  2  0  0  0  0  0  0  0  0  0
    2.7009    3.4306    4.6579 O   0  0  0  0  0  0  0  0  0  0  0  0
    2.5129    2.0351    4.3528 C   0  0  0  0  0  0  0  0  0  0  0  0
    2.1857    1.9677    2.8177 C   0  0  0  0  0  0  0  0  0  0  0  0
    3.9057    1.3079    4.2786 C   0  0  0  0  0  0  0  0  0  0  0  0
    1.3842    1.3546    5.3217 C   0  0  2  0  0  0  0  0  0  0  0  0
    0.0708    1.2975    4.5951 C   0  0  0  0  0  0  0  0  0  0  0  0
   -0.5510    2.3325    4.0332 C   0  0  0  0  0  0  0  0  0  0  0  0
   -1.6754    2.0680    3.0321 C   0  0  0  0  0  0  0  0  0  0  0  0
   -0.1555    3.7775    4.2847 C   0  0  1  0  0  0  0  0  0  0  0  0
   -1.3459    4.5460    4.0403 O   0  0  0  0  0  0  0  0  0  0  0  0
    0.5785    4.1518    5.6706 C   0  0  2  0  0  0  0  0  0  0  0  0
    0.5571    5.5225    5.2616 O   0  0  0  0  0  0  0  0  0  0  0  0
   -0.4152    4.2389    6.9010 C   0  0  1  0  0  0  0  0  0  0  0  0
   -1.5065    3.1370    7.3292 C   0  0  0  0  0  0  0  0  0  0  0  0
   -2.4959    2.5277    6.3109 C   0  0  0  0  0  0  0  0  0  0  0  0
   -2.5317    3.8389    8.2868 C   0  0  0  0  0  0  0  0  0  0  0  0
    1.3313    1.2170    6.9911 C   0  0  2  0  0  0  0  0  0  0  0  0
    2.6510    0.4818    7.1809 C   0  0  0  0  0  0  0  0  0  0  0  0
    3.5720    1.5303    6.7769 O   0  0  0  0  0  0  0  0  0  0  0  0
    3.2577    2.9621    6.9642 C   0  0  2  0  0  0  0  0  0  0  0  0
    2.9140    2.8976    8.4018 C   0  0  0  0  0  0  0  0  0  0  0  0
    1.5830    2.2059    8.2591 C   0  0  1  0  0  0  0  0  0  0  0  0
   -0.9863   -3.0097    5.2831 H   0  0  0  0  0  0  0  0  0  0  0  0
   -1.5782   -1.4631    4.6964 H   0  0  0  0  0  0  0  0  0  0  0  0
   -2.3513   -2.2153    6.0806 H   0  0  0  0  0  0  0  0  0  0  0  0
   -0.2176   -1.9301    7.4245 H   0  0  0  0  0  0  0  0  0  0  0  0
    0.5618   -1.2773    5.9981 H   0  0  0  0  0  0  0  0  0  0  0  0
    0.1809    0.1683    8.4599 H   0  0  0  0  0  0  0  0  0  0  0  0
   -1.3845    1.7686    9.0035 H   0  0  0  0  0  0  0  0  0  0  0  0
    0.3981    3.0164    9.8295 H   0  0  0  0  0  0  0  0  0  0  0  0
   -0.2849    5.0001    8.8574 H   0  0  0  0  0  0  0  0  0  0  0  0
    1.7760    6.7868    7.0075 H   0  0  0  0  0  0  0  0  0  0  0  0
    3.1860    6.2024    7.8262 H   0  0  0  0  0  0  0  0  0  0  0  0
    2.0966    0.9294    2.4879 H   0  0  0  0  0  0  0  0  0  0  0  0
    2.9793    2.4304    2.2308 H   0  0  0  0  0  0  0  0  0  0  0  0
    1.3039    2.4732    2.4535 H   0  0  0  0  0  0  0  0  0  0  0  0
    3.8757    0.2894    4.6636 H   0  0  0  0  0  0  0  0  0  0  0  0
    4.6894    1.8602    4.7935 H   0  0  0  0  0  0  0  0  0  0  0  0
    4.3166    1.1787    3.2831 H   0  0  0  0  0  0  0  0  0  0  0  0
    1.6214    0.3315    5.0367 H   0  0  0  0  0  0  0  0  0  0  0  0
   -0.2775    0.3111    4.3477 H   0  0  0  0  0  0  0  0  0  0  0  0
   -1.4526    2.5624    2.0870 H   0  0  0  0  0  0  0  0  0  0  0  0
   -2.6396    2.4178    3.3974 H   0  0  0  0  0  0  0  0  0  0  0  0
   -1.7723    1.0033    2.8276 H   0  0  0  0  0  0  0  0  0  0  0  0
    0.4976    4.0830    3.4636 H   0  0  0  0  0  0  0  0  0  0  0  0
   -1.4776    4.4945    3.0999 H   0  0  0  0  0  0  0  0  0  0  0  0
    1.1906    5.9755    5.8054 H   0  0  0  0  0  0  0  0  0  0  0  0
   -1.0061    5.1476    6.7770 H   0  0  0  0  0  0  0  0  0  0  0  0
   -2.8614    3.2648    5.6003 H   0  0  0  0  0  0  0  0  0  0  0  0
   -3.3825    2.1273    6.8000 H   0  0  0  0  0  0  0  0  0  0  0  0
   -2.1300    1.6639    5.7799 H   0  0  0  0  0  0  0  0  0  0  0  0
   -3.0169    4.6750    7.7858 H   0  0  0  0  0  0  0  0  0  0  0  0
   -2.1229    4.2063    9.2235 H   0  0  0  0  0  0  0  0  0  0  0  0
   -3.3235    3.1622    8.6140 H   0  0  0  0  0  0  0  0  0  0  0  0
    2.8611    0.1489    8.1936 H   0  0  0  0  0  0  0  0  0  0  0  0
    2.7772   -0.4130    6.5746 H   0  0  0  0  0  0  0  0  0  0  0  0
    4.2403    3.4277    6.8782 H   0  0  0  0  0  0  0  0  0  0  0  0
    3.6375    2.2532    8.9138 H   0  0  0  0  0  0  0  0  0  0  0  0
    3.0160    3.7931    8.9984 H   0  0  0  0  0  0  0  0  0  0  0  0
    1.6637    1.5461    9.1279 H   0  0  0  0  0  0  0  0  0  0  0  0
  1  2  1  0
  1 34  1  0
  1 35  1  0
  1 36  1  0
  2  3  1  0
  2 37  1  0
  2 38  1  0
  3  4  1  0
  4 28  1  0
  4  5  1  0
  4 39  1  1
  5 25  1  0
  5  6  1  0
  5 40  1  1
  6 33  1  0
  6  7  1  0
  6 41  1  1
  7 24  1  0
  7  8  1  0
  7 42  1  1
  8  9  1  0
  9 10  1  0
  9 43  1  0
  9 44  1  0
 11 10  1  6
 11 22  1  0
 11 31  1  0
 11 12  1  0
 12 13  1  0
 13 14  1  0
 13 15  1  0
 13 16  1  0
 14 45  1  0
 14 46  1  0
 14 47  1  0
 15 48  1  0
 15 49  1  0
 15 50  1  0
 16 17  1  0
 16 28  1  0
 16 51  1  6
 17 18  2  3
 17 52  1  0
 18 19  1  0
 18 20  1  0
 19 53  1  0
 19 54  1  0
 19 55  1  0
 20 21  1  0
 20 22  1  0
 20 56  1  6
 21 57  1  0
 22 23  1  6
 22 24  1  0
 23 58  1  0
 24 25  1  0
 24 59  1  6
 25 26  1  0
 25 27  1  0
 26 60  1  0
 26 61  1  0
 26 62  1  0
 27 63  1  0
 27 64  1  0
 27 65  1  0
 28 33  1  0
 28 29  1  1
 29 30  1  0
 29 66  1  0
 29 67  1  0
 30 31  1  0
 31 32  1  0
 31 68  1  1
 32 33  1  0
 32 69  1  0
 32 70  1  0
 33 71  1  1
M  END
>  <i_m_ct_stereo_status>  (8) 
1

>  <s_m_source_file>  (8) 
/var/tmp/pbs.5083856.sched01/tmp65h_0x39/0ko7nvlt6.sdf

>  <i_m_source_file_index>  (8) 
3

>  <i_lp_mmshare_version>  (8) 
48012

>  <i_f3d_flags>  (8) 
0

>  <s_epik_input>  (8) 
W09IXVtDQEBIXTFDKC9bQ0gzXSk9W0NIXVxbQ0BASF0oQyhPMikoW0NIM10pW0NIM10pW0NAQF0zKFtDQEhdNFtDSDJdW0NASF01T1tDSDJdMylbQ0BIXShPW0NIMl1bQ0gzXSlbQ0BIXShDNihbQ0gzXSlbQ0gzXSlbQ0BASF00W0NAQEhdKE9bQ0gyXU83KVtDQEhdNltDQF0xKFtDQF0yNTcpW09IXQ==

>  <s_epik_cmdline>  (8) 
J2VwaWtfcHl0aG9uJywgJy1waHQnLCAnMi4wJywgJy1waCcsICc3LjAnLCAnLXRuJywgJzgnLCAnLW1hJywgJzIwMCcsICctaW1hZScsICc8aW5maWxlLm1hZT4nLCAnLW9tYWUnLCAnPG91dGZpbGUubWFlPic=

>  <r_lp_tautomer_probability>  (8) 
1

>  <r_epik_Ionization_Penalty>  (8) 
1.82837e-06

>  <r_epik_Ionization_Penalty_Charging>  (8) 
0

>  <r_epik_Ionization_Penalty_Neutral>  (8) 
1.82837e-06

>  <r_epik_State_Penalty>  (8) 
-0

>  <r_epik_Charging_Adjusted_Penalty>  (8) 
0

>  <i_epik_Tot_Q>  (8) 
0

>  <i_epik_Tot_abs_Q>  (8) 
0

>  <s_epik_Chemistry_Notes>  (8) 
This compound contains an acetal/aminal-like group ( X-CH(R)-Y where X, Y are N, S, or O) that may be acid/base labile, releasing an aldehyde.

>  <s_lp_Force_Field>  (8) 
OPLS3e

>  <r_lp_Energy>  (8) 
298.593

>  <b_lp_Chiralities_Consistent>  (8) 
1

>  <s_lp_Variant>  (8) 
1:0-1

>  <s_i_glide_gridfile>  (8) 
pfpi4k_grid

>  <i_i_glide_lignum>  (8) 
3

>  <i_i_glide_rotatable_bonds>  (8) 
4

>  <r_i_docking_score>  (8) 
-2.12641

>  <r_i_glide_ligand_efficiency>  (8) 
-0.0644366

>  <r_i_glide_ligand_efficiency_sa>  (8) 
-0.206683

>  <r_i_glide_ligand_efficiency_ln>  (8) 
-0.472902

>  <r_i_glide_gscore>  (8) 
-2.12641

>  <r_i_glide_lipo>  (8) 
-0.228572

>  <r_i_glide_hbond>  (8) 
-0.109949

>  <r_i_glide_metal>  (8) 
-0

>  <r_i_glide_rewards>  (8) 
-0.255166

>  <r_i_glide_evdw>  (8) 
-18.3451

>  <r_i_glide_ecoul>  (8) 
-4.73073

>  <r_i_glide_erotb>  (8) 
0.0941461

>  <r_i_glide_esite>  (8) 
0

>  <r_i_glide_emodel>  (8) 
-25.7191

>  <r_i_glide_energy>  (8) 
-23.0759

>  <r_i_glide_einternal>  (8) 
0.823201

>  <r_i_glide_intrahb_reward>  (8) 
-0

>  <i_i_glide_confnum>  (8) 
3

>  <i_i_glide_posenum>  (8) 
25

>  <r_i_glide_eff_state_penalty>  (8) 
0

>  <ligand_id>  (8) 
1

>  <original_smiles>  (8) 
CCOC1C2C3C4OCOC56OC(C)(C)C(C=C(C)C(O)C5(O)C4C2(C)C)C12COC6CC32

>  <smiles>  (8) 
[H]OC1([H])C(C([H])([H])[H])=C([H])C2([H])C(C([H])([H])[H])(C([H])([H])[H])OC34OC([H])([H])OC5([H])C6([H])C7([H])C([H])([H])C3([H])OC([H])([H])C27C([H])(OC([H])([H])C([H])([H])[H])C6([H])C(C([H])([H])[H])(C([H])([H])[H])C5([H])C14O[H]

$$$$
1:0:2
     RDKit          3D

 71 77  0  0  1  0  0  0  0  0999 V2000
    0.2737   -2.3127    7.6740 C   0  0  0  0  0  0  0  0  0  0  0  0
   -0.2568   -1.4816    6.5039 C   0  0  0  0  0  0  0  0  0  0  0  0
   -0.8026   -0.2147    6.8710 O   0  0  0  0  0  0  0  0  0  0  0  0
    0.0663    0.6952    7.5546 C   0  0  2  0  0  0  0  0  0  0  0  0
   -0.6029    2.0198    8.1374 C   0  0  1  0  0  0  0  0  0  0  0  0
    0.5571    2.9037    8.6425 C   0  0  2  0  0  0  0  0  0  0  0  0
    0.4953    4.3287    8.0601 C   0  0  1  0  0  0  0  0  0  0  0  0
    1.7093    5.0967    8.1387 O   0  0  0  0  0  0  0  0  0  0  0  0
    2.4118    5.7242    7.0913 C   0  0  0  0  0  0  0  0  0  0  0  0
    2.9249    4.9532    6.0065 O   0  0  0  0  0  0  0  0  0  0  0  0
    2.3669    3.6845    5.7638 C   0  0  2  0  0  0  0  0  0  0  0  0
    2.7702    3.2297    4.5013 O   0  0  0  0  0  0  0  0  0  0  0  0
    2.5738    1.8273    4.2347 C   0  0  0  0  0  0  0  0  0  0  0  0
    2.2064    1.7187    2.7124 C   0  0  0  0  0  0  0  0  0  0  0  0
    3.9643    1.0931    4.1409 C   0  0  0  0  0  0  0  0  0  0  0  0
    1.4609    1.1819    5.2481 C   0  0  2  0  0  0  0  0  0  0  0  0
    0.1301    1.1143    4.5584 C   0  0  0  0  0  0  0  0  0  0  0  0
   -0.5033    2.1352    3.9979 C   0  0  0  0  0  0  0  0  0  0  0  0
   -1.6591    1.8528    3.0367 C   0  0  0  0  0  0  0  0  0  0  0  0
   -0.0884    3.5858    4.1900 C   0  0  1  0  0  0  0  0  0  0  0  0
   -1.2726    4.3667    3.9506 O   0  0  0  0  0  0  0  0  0  0  0  0
    0.6818    4.0001    5.5466 C   0  0  2  0  0  0  0  0  0  0  0  0
    0.6634    5.3612    5.0965 O   0  0  0  0  0  0  0  0  0  0  0  0
   -0.2931    4.1252    6.7906 C   0  0  1  0  0  0  0  0  0  0  0  0
   -1.3867    3.0403    7.2709 C   0  0  0  0  0  0  0  0  0  0  0  0
   -2.3991    2.3985    6.2978 C   0  0  0  0  0  0  0  0  0  0  0  0
   -2.3917    3.7629    8.2372 C   0  0  0  0  0  0  0  0  0  0  0  0
    1.4350    1.0872    6.9210 C   0  0  2  0  0  0  0  0  0  0  0  0
    2.7512    0.3418    7.1047 C   0  0  0  0  0  0  0  0  0  0  0  0
    3.6725    1.3680    6.6469 O   0  0  0  0  0  0  0  0  0  0  0  0
    3.3768    2.8044    6.8088 C   0  0  2  0  0  0  0  0  0  0  0  0
    3.0664    2.7845    8.2579 C   0  0  0  0  0  0  0  0  0  0  0  0
    1.7243    2.1072    8.1592 C   0  0  1  0  0  0  0  0  0  0  0  0
    0.6563   -3.2656    7.3077 H   0  0  0  0  0  0  0  0  0  0  0  0
   -0.4930   -2.5330    8.4113 H   0  0  0  0  0  0  0  0  0  0  0  0
    1.0968   -1.8183    8.1839 H   0  0  0  0  0  0  0  0  0  0  0  0
    0.5419   -1.3869    5.7710 H   0  0  0  0  0  0  0  0  0  0  0  0
   -1.0627   -2.0174    6.0065 H   0  0  0  0  0  0  0  0  0  0  0  0
    0.2739    0.1524    8.4743 H   0  0  0  0  0  0  0  0  0  0  0  0
   -1.2370    1.7211    8.9710 H   0  0  0  0  0  0  0  0  0  0  0  0
    0.5744    2.9601    9.7338 H   0  0  0  0  0  0  0  0  0  0  0  0
   -0.1157    4.9247    8.7327 H   0  0  0  0  0  0  0  0  0  0  0  0
    1.8770    6.6095    6.7411 H   0  0  0  0  0  0  0  0  0  0  0  0
    3.3128    6.0994    7.5740 H   0  0  0  0  0  0  0  0  0  0  0  0
    2.1023    0.6708    2.4200 H   0  0  0  0  0  0  0  0  0  0  0  0
    2.9877    2.1554    2.0893 H   0  0  0  0  0  0  0  0  0  0  0  0
    1.3150    2.2144    2.3574 H   0  0  0  0  0  0  0  0  0  0  0  0
    3.9303    0.0849    4.5572 H   0  0  0  0  0  0  0  0  0  0  0  0
    4.7562    1.6470    4.6378 H   0  0  0  0  0  0  0  0  0  0  0  0
    4.3551    0.9439    3.1378 H   0  0  0  0  0  0  0  0  0  0  0  0
    1.6940    0.1530    4.9788 H   0  0  0  0  0  0  0  0  0  0  0  0
   -0.2351    0.1233    4.3421 H   0  0  0  0  0  0  0  0  0  0  0  0
   -1.4483    2.3325    2.0824 H   0  0  0  0  0  0  0  0  0  0  0  0
   -2.6161    2.2092    3.4123 H   0  0  0  0  0  0  0  0  0  0  0  0
   -1.7584    0.7845    2.8473 H   0  0  0  0  0  0  0  0  0  0  0  0
    0.5426    3.8489    3.3409 H   0  0  0  0  0  0  0  0  0  0  0  0
   -1.4797    4.2365    3.0309 H   0  0  0  0  0  0  0  0  0  0  0  0
    1.1610    5.3912    4.2861 H   0  0  0  0  0  0  0  0  0  0  0  0
   -0.8877    5.0289    6.6479 H   0  0  0  0  0  0  0  0  0  0  0  0
   -2.7815    3.1130    5.5712 H   0  0  0  0  0  0  0  0  0  0  0  0
   -3.2714    2.0095    6.8233 H   0  0  0  0  0  0  0  0  0  0  0  0
   -2.0469    1.5137    5.7909 H   0  0  0  0  0  0  0  0  0  0  0  0
   -2.9017    4.5774    7.7260 H   0  0  0  0  0  0  0  0  0  0  0  0
   -1.9562    4.1530    9.1528 H   0  0  0  0  0  0  0  0  0  0  0  0
   -3.1670    3.0889    8.6063 H   0  0  0  0  0  0  0  0  0  0  0  0
    2.9827    0.0352    8.1188 H   0  0  0  0  0  0  0  0  0  0  0  0
    2.8546   -0.5721    6.5177 H   0  0  0  0  0  0  0  0  0  0  0  0
    4.3617    3.2576    6.6941 H   0  0  0  0  0  0  0  0  0  0  0  0
    3.7945    2.1444    8.7712 H   0  0  0  0  0  0  0  0  0  0  0  0
    3.1862    3.6938    8.8279 H   0  0  0  0  0  0  0  0  0  0  0  0
    1.8231    1.4688    9.0388 H   0  0  0  0  0  0  0  0  0  0  0  0
  1  2  1  0
  1 34  1  0
  1 35  1  0
  1 36  1  0
  2  3  1  0
  2 37  1  0
  2 38  1  0
  3  4  1  0
  4 28  1  0
  4  5  1  0
  4 39  1  1
  5 25  1  0
  5  6  1  0
  5 40  1  1
  6 33  1  0
  6  7  1  0
  6 41  1  1
  7 24  1  0
  7  8  1  0
  7 42  1  1
  8  9  1  0
  9 10  1  0
  9 43  1  0
  9 44  1  0
 11 10  1  6
 11 22  1  0
 11 31  1  0
 11 12  1  0
 12 13  1  0
 13 14  1  0
 13 15  1  0
 13 16  1  0
 14 45  1  0
 14 46  1  0
 14 47  1  0
 15 48  1  0
 15 49  1  0
 15 50  1  0
 16 17  1  0
 16 28  1  0
 16 51  1  6
 17 18  2  3
 17 52  1  0
 18 19  1  0
 18 20  1  0
 19 53  1  0
 19 54  1  0
 19 55  1  0
 20 21  1  0
 20 22  1  0
 20 56  1  6
 21 57  1  0
 22 23  1  6
 22 24  1  0
 23 58  1  0
 24 25  1  0
 24 59  1  6
 25 26  1  0
 25 27  1  0
 26 60  1  0
 26 61  1  0
 26 62  1  0
 27 63  1  0
 27 64  1  0
 27 65  1  0
 28 33  1  0
 28 29  1  6
 29 30  1  0
 29 66  1  0
 29 67  1  0
 30 31  1  0
 31 32  1  0
 31 68  1  1
 32 33  1  0
 32 69  1  0
 32 70  1  0
 33 71  1  1
M  END
>  <i_m_ct_stereo_status>  (9) 
1

>  <s_m_source_file>  (9) 
/var/tmp/pbs.5083856.sched01/tmp65h_0x39/0ko7nvlt6.sdf

>  <i_m_source_file_index>  (9) 
3

>  <i_lp_mmshare_version>  (9) 
48012

>  <i_f3d_flags>  (9) 
0

>  <s_epik_input>  (9) 
W09IXVtDQEBIXTFDKC9bQ0gzXSk9W0NIXVxbQ0BASF0oQyhPMikoW0NIM10pW0NIM10pW0NAQF0zKFtDQEhdNFtDSDJdW0NASF01T1tDSDJdMylbQ0BIXShPW0NIMl1bQ0gzXSlbQ0BIXShDNihbQ0gzXSlbQ0gzXSlbQ0BASF00W0NAQEhdKE9bQ0gyXU83KVtDQEhdNltDQF0xKFtDQF0yNTcpW09IXQ==

>  <s_epik_cmdline>  (9) 
J2VwaWtfcHl0aG9uJywgJy1waHQnLCAnMi4wJywgJy1waCcsICc3LjAnLCAnLXRuJywgJzgnLCAnLW1hJywgJzIwMCcsICctaW1hZScsICc8aW5maWxlLm1hZT4nLCAnLW9tYWUnLCAnPG91dGZpbGUubWFlPic=

>  <r_lp_tautomer_probability>  (9) 
1

>  <r_epik_Ionization_Penalty>  (9) 
1.82837e-06

>  <r_epik_Ionization_Penalty_Charging>  (9) 
0

>  <r_epik_Ionization_Penalty_Neutral>  (9) 
1.82837e-06

>  <r_epik_State_Penalty>  (9) 
-0

>  <r_epik_Charging_Adjusted_Penalty>  (9) 
0

>  <i_epik_Tot_Q>  (9) 
0

>  <i_epik_Tot_abs_Q>  (9) 
0

>  <s_epik_Chemistry_Notes>  (9) 
This compound contains an acetal/aminal-like group ( X-CH(R)-Y where X, Y are N, S, or O) that may be acid/base labile, releasing an aldehyde.

>  <s_lp_Force_Field>  (9) 
OPLS3e

>  <r_lp_Energy>  (9) 
298.593

>  <b_lp_Chiralities_Consistent>  (9) 
1

>  <s_lp_Variant>  (9) 
1:0-1

>  <s_i_glide_gridfile>  (9) 
pfpi4k_grid

>  <i_i_glide_lignum>  (9) 
3

>  <i_i_glide_rotatable_bonds>  (9) 
4

>  <r_i_docking_score>  (9) 
-2.05859

>  <r_i_glide_ligand_efficiency>  (9) 
-0.0623816

>  <r_i_glide_ligand_efficiency_sa>  (9) 
-0.200091

>  <r_i_glide_ligand_efficiency_ln>  (9) 
-0.457821

>  <r_i_glide_gscore>  (9) 
-2.05859

>  <r_i_glide_lipo>  (9) 
-0.20322

>  <r_i_glide_hbond>  (9) 
-0.0897198

>  <r_i_glide_metal>  (9) 
-0

>  <r_i_glide_rewards>  (9) 
-0.255166

>  <r_i_glide_evdw>  (9) 
-17.523

>  <r_i_glide_ecoul>  (9) 
-4.85656

>  <r_i_glide_erotb>  (9) 
0.0941461

>  <r_i_glide_esite>  (9) 
0

>  <r_i_glide_emodel>  (9) 
-24.63

>  <r_i_glide_energy>  (9) 
-22.3796

>  <r_i_glide_einternal>  (9) 
1.98641

>  <r_i_glide_intrahb_reward>  (9) 
-0

>  <i_i_glide_confnum>  (9) 
3

>  <i_i_glide_posenum>  (9) 
36

>  <r_i_glide_eff_state_penalty>  (9) 
0

>  <ligand_id>  (9) 
1

>  <original_smiles>  (9) 
CCOC1C2C3C4OCOC56OC(C)(C)C(C=C(C)C(O)C5(O)C4C2(C)C)C12COC6CC32

>  <smiles>  (9) 
[H]OC1([H])C(C([H])([H])[H])=C([H])C2([H])C(C([H])([H])[H])(C([H])([H])[H])OC34OC([H])([H])OC5([H])C6([H])C7([H])C([H])([H])C3([H])OC([H])([H])C27C([H])(OC([H])([H])C([H])([H])[H])C6([H])C(C([H])([H])[H])(C([H])([H])[H])C5([H])C14O[H]

$$$$
2:0:0
     RDKit          3D

 46 50  0  0  1  0  0  0  0  0999 V2000
   -2.6234    3.0150    3.2461 C   0  0  0  0  0  0  0  0  0  0  0  0
   -1.2581    3.4604    3.7520 C   0  0  0  0  0  0  0  0  0  0  0  0
   -1.1279    4.5091    4.3906 O   0  0  0  0  0  0  0  0  0  0  0  0
   -0.1223    2.5524    3.4618 C   0  0  0  0  0  0  0  0  0  0  0  0
   -0.2481    1.3728    2.8469 N   0  0  0  0  0  0  0  0  0  0  0  0
    0.9885    0.7683    2.7218 C   0  0  0  0  0  0  0  0  0  0  0  0
    1.2451   -0.4413    2.0668 C   0  0  0  0  0  0  0  0  0  0  0  0
    2.5412   -0.9693    1.9522 C   0  0  0  0  0  0  0  0  0  0  0  0
    3.6237   -0.3585    2.6282 C   0  0  0  0  0  0  0  0  0  0  0  0
    4.8975   -0.9773    2.6688 N   0  0  0  0  0  0  0  0  0  0  0  0
    5.4215   -1.9595    1.8051 C   0  0  0  0  0  0  0  0  0  0  0  0
    6.5290   -1.5905    1.1365 N   0  0  0  0  0  0  0  0  0  0  0  0
    7.0839   -2.4954    0.3230 C   0  0  0  0  0  0  0  0  0  0  0  0
    6.6280   -3.7302    0.0668 N   0  0  0  0  0  0  0  0  0  0  0  0
    5.5166   -4.1103    0.7225 C   0  0  0  0  0  0  0  0  0  0  0  0
    4.9217   -5.3751    0.5101 C   0  0  0  0  0  0  0  0  0  0  0  0
    3.7756   -5.7492    1.1333 N   0  0  0  0  0  0  0  0  0  0  0  0
    3.2612   -4.8822    2.0312 C   0  0  0  0  0  0  0  0  0  0  0  0
    2.0159   -5.2118    2.6100 N   0  0  0  0  0  0  0  0  0  0  0  0
    1.3957   -4.3917    3.6456 C   0  0  0  0  0  0  0  0  0  0  0  0
    1.1301   -5.2431    4.8950 C   0  0  0  0  0  0  0  0  0  0  0  0
    0.3376   -6.3719    4.5437 O   0  0  0  0  0  0  0  0  0  0  0  0
    1.0077   -7.2128    3.6072 C   0  0  0  0  0  0  0  0  0  0  0  0
    1.2700   -6.4327    2.3078 C   0  0  0  0  0  0  0  0  0  0  0  0
    3.7847   -3.6905    2.3534 N   0  0  0  0  0  0  0  0  0  0  0  0
    4.8700   -3.2685    1.6671 C   0  0  0  0  0  0  0  0  0  0  0  0
    3.3909    0.8869    3.2698 C   0  0  0  0  0  0  0  0  0  0  0  0
    2.0935    1.4469    3.2958 C   0  0  0  0  0  0  0  0  0  0  0  0
    1.5253    2.9875    3.9731 S   0  0  0  0  0  0  0  0  0  0  0  0
   -2.8979    2.0537    3.6839 H   0  0  0  0  0  0  0  0  0  0  0  0
   -2.6090    2.8947    2.1620 H   0  0  0  0  0  0  0  0  0  0  0  0
   -3.3826    3.7459    3.5104 H   0  0  0  0  0  0  0  0  0  0  0  0
    0.4494   -0.9856    1.6049 H   0  0  0  0  0  0  0  0  0  0  0  0
    2.6175   -1.8774    1.3559 H   0  0  0  0  0  0  0  0  0  0  0  0
    7.9911   -2.2056   -0.1902 H   0  0  0  0  0  0  0  0  0  0  0  0
    5.3604   -6.1066   -0.1528 H   0  0  0  0  0  0  0  0  0  0  0  0
    1.9873   -3.5278    3.9379 H   0  0  0  0  0  0  0  0  0  0  0  0
    0.4563   -3.9840    3.2754 H   0  0  0  0  0  0  0  0  0  0  0  0
    2.0682   -5.5599    5.3514 H   0  0  0  0  0  0  0  0  0  0  0  0
    0.5973   -4.6568    5.6443 H   0  0  0  0  0  0  0  0  0  0  0  0
    1.9427   -7.5850    4.0300 H   0  0  0  0  0  0  0  0  0  0  0  0
    0.3824   -8.0848    3.4080 H   0  0  0  0  0  0  0  0  0  0  0  0
    0.3139   -6.1735    1.8527 H   0  0  0  0  0  0  0  0  0  0  0  0
    1.7729   -7.0859    1.5961 H   0  0  0  0  0  0  0  0  0  0  0  0
    4.2019    1.4451    3.7115 H   0  0  0  0  0  0  0  0  0  0  0  0
    5.5889   -0.5862    3.3059 H   0  0  0  0  0  0  0  0  0  0  0  0
  1  2  1  0
  1 30  1  0
  1 31  1  0
  1 32  1  0
  2  3  2  0
  2  4  1  0
  4 29  1  0
  4  5  2  0
  5  6  1  0
  6 28  2  0
  6  7  1  0
  7  8  2  0
  7 33  1  0
  8  9  1  0
  8 34  1  0
  9 10  1  0
  9 27  2  0
 10 11  1  0
 10 46  1  0
 11 26  1  0
 11 12  2  0
 12 13  1  0
 13 14  2  0
 13 35  1  0
 14 15  1  0
 15 26  2  0
 15 16  1  0
 16 17  2  0
 16 36  1  0
 17 18  1  0
 18 19  1  0
 18 25  2  0
 19 24  1  0
 19 20  1  0
 20 21  1  0
 20 37  1  0
 20 38  1  0
 21 22  1  0
 21 39  1  0
 21 40  1  0
 22 23  1  0
 23 24  1  0
 23 41  1  0
 23 42  1  0
 24 43  1  0
 24 44  1  0
 25 26  1  0
 27 28  1  0
 27 45  1  0
 28 29  1  0
M  END
>  <i_m_ct_stereo_status>  (10) 
1

>  <s_m_source_file>  (10) 
/var/tmp/pbs.5083856.sched01/tmp65h_0x39/0ko7nvlt6.sdf

>  <i_m_source_file_index>  (10) 
5

>  <i_lp_mmshare_version>  (10) 
48012

>  <i_f3d_flags>  (10) 
0

>  <s_epik_input>  (10) 
W0NIM11DKD1PKWMobjEpc2MoYzEyKVtjSF1jKFtjSF1bY0hdMikvTj1jKFxbbkhdW2NIXW4zKWMoYzM0KW5jKG5bY0hdNClONVtDSDJdW0NIMl1PW0NIMl1bQ0gyXTU=

>  <s_epik_cmdline>  (10) 
J2VwaWtfcHl0aG9uJywgJy1waHQnLCAnMi4wJywgJy1waCcsICc3LjAnLCAnLXRuJywgJzgnLCAnLW1hJywgJzIwMCcsICctaW1hZScsICc8aW5maWxlLm1hZT4nLCAnLW9tYWUnLCAnPG91dGZpbGUubWFlPic=

>  <r_lp_tautomer_probability>  (10) 
1

>  <r_epik_Ionization_Penalty>  (10) 
2.30101e-05

>  <r_epik_Ionization_Penalty_Charging>  (10) 
0

>  <r_epik_Ionization_Penalty_Neutral>  (10) 
2.30101e-05

>  <r_epik_State_Penalty>  (10) 
-0

>  <r_epik_Charging_Adjusted_Penalty>  (10) 
0

>  <i_epik_Tot_Q>  (10) 
0

>  <i_epik_Tot_abs_Q>  (10) 
0

>  <s_lp_Force_Field>  (10) 
OPLS3e

>  <r_lp_Energy>  (10) 
50.1834

>  <b_lp_Chiralities_Consistent>  (10) 
1

>  <s_lp_Variant>  (10) 
2:0-1

>  <s_i_glide_gridfile>  (10) 
pfpi4k_grid

>  <i_i_glide_lignum>  (10) 
5

>  <i_i_glide_rotatable_bonds>  (10) 
4

>  <r_i_docking_score>  (10) 
-2.7105

>  <r_i_glide_ligand_efficiency>  (10) 
-0.0934656

>  <r_i_glide_ligand_efficiency_sa>  (10) 
-0.287156

>  <r_i_glide_ligand_efficiency_ln>  (10) 
-0.620636

>  <r_i_glide_gscore>  (10) 
-2.7105

>  <r_i_glide_lipo>  (10) 
-0.279691

>  <r_i_glide_hbond>  (10) 
-0.0361186

>  <r_i_glide_metal>  (10) 
-0

>  <r_i_glide_rewards>  (10) 
-0.789722

>  <r_i_glide_evdw>  (10) 
-31.7826

>  <r_i_glide_ecoul>  (10) 
-1.92144

>  <r_i_glide_erotb>  (10) 
0.355484

>  <r_i_glide_esite>  (10) 
-0.0831076

>  <r_i_glide_emodel>  (10) 
-33.5497

>  <r_i_glide_energy>  (10) 
-33.704

>  <r_i_glide_einternal>  (10) 
8.22736

>  <r_i_glide_intrahb_reward>  (10) 
-0

>  <i_i_glide_confnum>  (10) 
5

>  <i_i_glide_posenum>  (10) 
21

>  <r_i_glide_eff_state_penalty>  (10) 
0

>  <ligand_id>  (10) 
2

>  <original_smiles>  (10) 
CC(=O)c1nc2ccc(N=c3[nH]cnc4cnc(N5CCOCC5)nc34)cc2s1

>  <smiles>  (10) 
[H]c1nc(N([H])c2c([H])c([H])c3nc(C(=O)C([H])([H])[H])sc3c2[H])c2nc(N3C([H])([H])C([H])([H])OC([H])([H])C3([H])[H])nc([H])c2n1

$$$$
2:0:1
     RDKit          3D

 46 50  0  0  1  0  0  0  0  0999 V2000
   -3.0317    3.1007    2.8939 C   0  0  0  0  0  0  0  0  0  0  0  0
   -1.6840    3.5052    3.4781 C   0  0  0  0  0  0  0  0  0  0  0  0
   -1.5792    4.5455    4.1221 O   0  0  0  0  0  0  0  0  0  0  0  0
   -0.5252    2.5862    3.2850 C   0  0  0  0  0  0  0  0  0  0  0  0
    0.6900    2.7661    3.8148 N   0  0  0  0  0  0  0  0  0  0  0  0
    1.5356    1.7397    3.4117 C   0  0  0  0  0  0  0  0  0  0  0  0
    2.8949    1.6063    3.7495 C   0  0  0  0  0  0  0  0  0  0  0  0
    3.6556    0.5174    3.2994 C   0  0  0  0  0  0  0  0  0  0  0  0
    3.0696   -0.4836    2.5048 C   0  0  0  0  0  0  0  0  0  0  0  0
    3.8966   -1.5281    2.0728 N   0  0  0  0  0  0  0  0  0  0  0  0
    3.5246   -2.7839    1.5827 C   0  0  0  0  0  0  0  0  0  0  0  0
    4.0286   -3.1056    0.3749 N   0  0  0  0  0  0  0  0  0  0  0  0
    3.7568   -4.3274   -0.0874 C   0  0  0  0  0  0  0  0  0  0  0  0
    3.0708   -5.2775    0.5483 N   0  0  0  0  0  0  0  0  0  0  0  0
    2.6016   -4.9849    1.7756 C   0  0  0  0  0  0  0  0  0  0  0  0
    1.9023   -5.9216    2.5600 C   0  0  0  0  0  0  0  0  0  0  0  0
    1.4075   -5.6214    3.7800 N   0  0  0  0  0  0  0  0  0  0  0  0
    1.6445   -4.3960    4.2561 C   0  0  0  0  0  0  0  0  0  0  0  0
    1.1226   -4.0942    5.5118 N   0  0  0  0  0  0  0  0  0  0  0  0
    0.7146   -5.1014    6.4915 C   0  0  0  0  0  0  0  0  0  0  0  0
   -0.7427   -4.8662    6.9211 C   0  0  0  0  0  0  0  0  0  0  0  0
   -0.9156   -3.5292    7.3911 O   0  0  0  0  0  0  0  0  0  0  0  0
   -0.5811   -2.5686    6.3934 C   0  0  0  0  0  0  0  0  0  0  0  0
    0.8868   -2.7273    5.9617 C   0  0  0  0  0  0  0  0  0  0  0  0
    2.3064   -3.4361    3.6042 N   0  0  0  0  0  0  0  0  0  0  0  0
    2.7846   -3.7037    2.3651 C   0  0  0  0  0  0  0  0  0  0  0  0
    1.7083   -0.3715    2.1407 C   0  0  0  0  0  0  0  0  0  0  0  0
    0.9527    0.7265    2.5989 C   0  0  0  0  0  0  0  0  0  0  0  0
   -0.7389    1.1193    2.3195 S   0  0  0  0  0  0  0  0  0  0  0  0
   -3.3408    2.1575    3.3354 H   0  0  0  0  0  0  0  0  0  0  0  0
   -2.9688    2.9831    1.8172 H   0  0  0  0  0  0  0  0  0  0  0  0
   -3.7854    3.8544    3.1121 H   0  0  0  0  0  0  0  0  0  0  0  0
    3.3513    2.3648    4.3625 H   0  0  0  0  0  0  0  0  0  0  0  0
    4.7018    0.4595    3.5594 H   0  0  0  0  0  0  0  0  0  0  0  0
    4.1187   -4.5733   -1.0737 H   0  0  0  0  0  0  0  0  0  0  0  0
    1.7139   -6.9235    2.1971 H   0  0  0  0  0  0  0  0  0  0  0  0
    0.8227   -6.1203    6.1198 H   0  0  0  0  0  0  0  0  0  0  0  0
    1.3710   -5.0286    7.3583 H   0  0  0  0  0  0  0  0  0  0  0  0
   -1.4099   -5.0588    6.0828 H   0  0  0  0  0  0  0  0  0  0  0  0
   -1.0224   -5.5611    7.7134 H   0  0  0  0  0  0  0  0  0  0  0  0
   -1.2525   -2.6663    5.5411 H   0  0  0  0  0  0  0  0  0  0  0  0
   -0.7351   -1.5704    6.8019 H   0  0  0  0  0  0  0  0  0  0  0  0
    1.5548   -2.5083    6.7951 H   0  0  0  0  0  0  0  0  0  0  0  0
    1.1028   -1.9964    5.1830 H   0  0  0  0  0  0  0  0  0  0  0  0
    1.2359   -1.0887    1.4883 H   0  0  0  0  0  0  0  0  0  0  0  0
    4.8899   -1.3558    2.0628 H   0  0  0  0  0  0  0  0  0  0  0  0
  1  2  1  0
  1 30  1  0
  1 31  1  0
  1 32  1  0
  2  3  2  0
  2  4  1  0
  4 29  1  0
  4  5  2  0
  5  6  1  0
  6 28  2  0
  6  7  1  0
  7  8  2  0
  7 33  1  0
  8  9  1  0
  8 34  1  0
  9 10  1  0
  9 27  2  0
 10 11  1  0
 10 46  1  0
 11 26  1  0
 11 12  2  0
 12 13  1  0
 13 14  2  0
 13 35  1  0
 14 15  1  0
 15 26  2  0
 15 16  1  0
 16 17  2  0
 16 36  1  0
 17 18  1  0
 18 19  1  0
 18 25  2  0
 19 24  1  0
 19 20  1  0
 20 21  1  0
 20 37  1  0
 20 38  1  0
 21 22  1  0
 21 39  1  0
 21 40  1  0
 22 23  1  0
 23 24  1  0
 23 41  1  0
 23 42  1  0
 24 43  1  0
 24 44  1  0
 25 26  1  0
 27 28  1  0
 27 45  1  0
 28 29  1  0
M  END
>  <i_m_ct_stereo_status>  (11) 
1

>  <s_m_source_file>  (11) 
/var/tmp/pbs.5083856.sched01/tmp65h_0x39/0ko7nvlt6.sdf

>  <i_m_source_file_index>  (11) 
5

>  <i_lp_mmshare_version>  (11) 
48012

>  <i_f3d_flags>  (11) 
0

>  <s_epik_input>  (11) 
W0NIM11DKD1PKWMobjEpc2MoYzEyKVtjSF1jKFtjSF1bY0hdMikvTj1jKFxbbkhdW2NIXW4zKWMoYzM0KW5jKG5bY0hdNClONVtDSDJdW0NIMl1PW0NIMl1bQ0gyXTU=

>  <s_epik_cmdline>  (11) 
J2VwaWtfcHl0aG9uJywgJy1waHQnLCAnMi4wJywgJy1waCcsICc3LjAnLCAnLXRuJywgJzgnLCAnLW1hJywgJzIwMCcsICctaW1hZScsICc8aW5maWxlLm1hZT4nLCAnLW9tYWUnLCAnPG91dGZpbGUubWFlPic=

>  <r_lp_tautomer_probability>  (11) 
1

>  <r_epik_Ionization_Penalty>  (11) 
2.30101e-05

>  <r_epik_Ionization_Penalty_Charging>  (11) 
0

>  <r_epik_Ionization_Penalty_Neutral>  (11) 
2.30101e-05

>  <r_epik_State_Penalty>  (11) 
-0

>  <r_epik_Charging_Adjusted_Penalty>  (11) 
0

>  <i_epik_Tot_Q>  (11) 
0

>  <i_epik_Tot_abs_Q>  (11) 
0

>  <s_lp_Force_Field>  (11) 
OPLS3e

>  <r_lp_Energy>  (11) 
50.1834

>  <b_lp_Chiralities_Consistent>  (11) 
1

>  <s_lp_Variant>  (11) 
2:0-1

>  <s_i_glide_gridfile>  (11) 
pfpi4k_grid

>  <i_i_glide_lignum>  (11) 
5

>  <i_i_glide_rotatable_bonds>  (11) 
4

>  <r_i_docking_score>  (11) 
-2.66896

>  <r_i_glide_ligand_efficiency>  (11) 
-0.0920332

>  <r_i_glide_ligand_efficiency_sa>  (11) 
-0.282755

>  <r_i_glide_ligand_efficiency_ln>  (11) 
-0.611125

>  <r_i_glide_gscore>  (11) 
-2.66896

>  <r_i_glide_lipo>  (11) 
-0.0261265

>  <r_i_glide_hbond>  (11) 
-0.131614

>  <r_i_glide_metal>  (11) 
-0

>  <r_i_glide_rewards>  (11) 
-0.631023

>  <r_i_glide_evdw>  (11) 
-29.4963

>  <r_i_glide_ecoul>  (11) 
-4.46786

>  <r_i_glide_erotb>  (11) 
0.355484

>  <r_i_glide_esite>  (11) 
-0.0906916

>  <r_i_glide_emodel>  (11) 
-35.0705

>  <r_i_glide_energy>  (11) 
-33.9641

>  <r_i_glide_einternal>  (11) 
8.45569

>  <r_i_glide_intrahb_reward>  (11) 
-0

>  <i_i_glide_confnum>  (11) 
2

>  <i_i_glide_posenum>  (11) 
27

>  <r_i_glide_eff_state_penalty>  (11) 
0

>  <ligand_id>  (11) 
2

>  <original_smiles>  (11) 
CC(=O)c1nc2ccc(N=c3[nH]cnc4cnc(N5CCOCC5)nc34)cc2s1

>  <smiles>  (11) 
[H]c1nc(N([H])c2c([H])c([H])c3nc(C(=O)C([H])([H])[H])sc3c2[H])c2nc(N3C([H])([H])C([H])([H])OC([H])([H])C3([H])[H])nc([H])c2n1

$$$$
2:0:2
     RDKit          3D

 46 50  0  0  1  0  0  0  0  0999 V2000
    0.2259    5.2281    4.0799 C   0  0  0  0  0  0  0  0  0  0  0  0
   -0.4236    3.9005    3.7107 C   0  0  0  0  0  0  0  0  0  0  0  0
   -1.6463    3.8144    3.5779 O   0  0  0  0  0  0  0  0  0  0  0  0
    0.4935    2.7354    3.5415 C   0  0  0  0  0  0  0  0  0  0  0  0
    1.7269    2.6595    4.0641 N   0  0  0  0  0  0  0  0  0  0  0  0
    2.3202    1.4524    3.7168 C   0  0  0  0  0  0  0  0  0  0  0  0
    3.6102    1.0236    4.0913 C   0  0  0  0  0  0  0  0  0  0  0  0
    4.1184   -0.2157    3.6737 C   0  0  0  0  0  0  0  0  0  0  0  0
    3.3338   -1.0777    2.8887 C   0  0  0  0  0  0  0  0  0  0  0  0
    3.9131   -2.2911    2.4944 N   0  0  0  0  0  0  0  0  0  0  0  0
    3.2789   -3.4443    2.0247 C   0  0  0  0  0  0  0  0  0  0  0  0
    3.6080   -3.8160    0.7737 N   0  0  0  0  0  0  0  0  0  0  0  0
    3.0699   -4.9443    0.3140 C   0  0  0  0  0  0  0  0  0  0  0  0
    2.2528   -5.7636    0.9806 N   0  0  0  0  0  0  0  0  0  0  0  0
    1.9557   -5.4308    2.2531 C   0  0  0  0  0  0  0  0  0  0  0  0
    1.1421   -6.2348    3.0732 C   0  0  0  0  0  0  0  0  0  0  0  0
    0.8056   -5.8753    4.3297 N   0  0  0  0  0  0  0  0  0  0  0  0
    1.3164   -4.7372    4.8092 C   0  0  0  0  0  0  0  0  0  0  0  0
    0.9522   -4.3750    6.1068 N   0  0  0  0  0  0  0  0  0  0  0  0
   -0.0325   -5.1094    6.9091 C   0  0  0  0  0  0  0  0  0  0  0  0
   -1.1483   -4.1575    7.3650 C   0  0  0  0  0  0  0  0  0  0  0  0
   -0.5864   -3.0550    8.0686 O   0  0  0  0  0  0  0  0  0  0  0  0
    0.3069   -2.3014    7.2509 C   0  0  0  0  0  0  0  0  0  0  0  0
    1.4713   -3.1897    6.7892 C   0  0  0  0  0  0  0  0  0  0  0  0
    2.1170   -3.9138    4.1262 N   0  0  0  0  0  0  0  0  0  0  0  0
    2.4396   -4.2340    2.8492 C   0  0  0  0  0  0  0  0  0  0  0  0
    2.0325   -0.6764    2.4981 C   0  0  0  0  0  0  0  0  0  0  0  0
    1.5328    0.5754    2.9166 C   0  0  0  0  0  0  0  0  0  0  0  0
   -0.0337    1.3307    2.5931 S   0  0  0  0  0  0  0  0  0  0  0  0
    0.9288    5.5282    3.3015 H   0  0  0  0  0  0  0  0  0  0  0  0
    0.7707    5.1439    5.0189 H   0  0  0  0  0  0  0  0  0  0  0  0
   -0.5280    6.0055    4.1785 H   0  0  0  0  0  0  0  0  0  0  0  0
    4.2194    1.6721    4.7008 H   0  0  0  0  0  0  0  0  0  0  0  0
    5.1223   -0.5029    3.9556 H   0  0  0  0  0  0  0  0  0  0  0  0
    3.3111   -5.2168   -0.7013 H   0  0  0  0  0  0  0  0  0  0  0  0
    0.7296   -7.1657    2.7106 H   0  0  0  0  0  0  0  0  0  0  0  0
   -0.4906   -5.9418    6.3741 H   0  0  0  0  0  0  0  0  0  0  0  0
    0.4674   -5.5427    7.7751 H   0  0  0  0  0  0  0  0  0  0  0  0
   -1.7242   -3.7991    6.5108 H   0  0  0  0  0  0  0  0  0  0  0  0
   -1.8469   -4.6806    8.0197 H   0  0  0  0  0  0  0  0  0  0  0  0
   -0.2254   -1.8851    6.3947 H   0  0  0  0  0  0  0  0  0  0  0  0
    0.6880   -1.4584    7.8277 H   0  0  0  0  0  0  0  0  0  0  0  0
    2.0612   -3.5084    7.6477 H   0  0  0  0  0  0  0  0  0  0  0  0
    2.1412   -2.5983    6.1649 H   0  0  0  0  0  0  0  0  0  0  0  0
    1.4203   -1.2920    1.8592 H   0  0  0  0  0  0  0  0  0  0  0  0
    4.9178   -2.3577    2.5447 H   0  0  0  0  0  0  0  0  0  0  0  0
  1  2  1  0
  1 30  1  0
  1 31  1  0
  1 32  1  0
  2  3  2  0
  2  4  1  0
  4 29  1  0
  4  5  2  0
  5  6  1  0
  6 28  2  0
  6  7  1  0
  7  8  2  0
  7 33  1  0
  8  9  1  0
  8 34  1  0
  9 10  1  0
  9 27  2  0
 10 11  1  0
 10 46  1  0
 11 26  1  0
 11 12  2  0
 12 13  1  0
 13 14  2  0
 13 35  1  0
 14 15  1  0
 15 26  2  0
 15 16  1  0
 16 17  2  0
 16 36  1  0
 17 18  1  0
 18 19  1  0
 18 25  2  0
 19 24  1  0
 19 20  1  0
 20 21  1  0
 20 37  1  0
 20 38  1  0
 21 22  1  0
 21 39  1  0
 21 40  1  0
 22 23  1  0
 23 24  1  0
 23 41  1  0
 23 42  1  0
 24 43  1  0
 24 44  1  0
 25 26  1  0
 27 28  1  0
 27 45  1  0
 28 29  1  0
M  END
>  <i_m_ct_stereo_status>  (12) 
1

>  <s_m_source_file>  (12) 
/var/tmp/pbs.5083856.sched01/tmp65h_0x39/0ko7nvlt6.sdf

>  <i_m_source_file_index>  (12) 
5

>  <i_lp_mmshare_version>  (12) 
48012

>  <i_f3d_flags>  (12) 
0

>  <s_epik_input>  (12) 
W0NIM11DKD1PKWMobjEpc2MoYzEyKVtjSF1jKFtjSF1bY0hdMikvTj1jKFxbbkhdW2NIXW4zKWMoYzM0KW5jKG5bY0hdNClONVtDSDJdW0NIMl1PW0NIMl1bQ0gyXTU=

>  <s_epik_cmdline>  (12) 
J2VwaWtfcHl0aG9uJywgJy1waHQnLCAnMi4wJywgJy1waCcsICc3LjAnLCAnLXRuJywgJzgnLCAnLW1hJywgJzIwMCcsICctaW1hZScsICc8aW5maWxlLm1hZT4nLCAnLW9tYWUnLCAnPG91dGZpbGUubWFlPic=

>  <r_lp_tautomer_probability>  (12) 
1

>  <r_epik_Ionization_Penalty>  (12) 
2.30101e-05

>  <r_epik_Ionization_Penalty_Charging>  (12) 
0

>  <r_epik_Ionization_Penalty_Neutral>  (12) 
2.30101e-05

>  <r_epik_State_Penalty>  (12) 
-0

>  <r_epik_Charging_Adjusted_Penalty>  (12) 
0

>  <i_epik_Tot_Q>  (12) 
0

>  <i_epik_Tot_abs_Q>  (12) 
0

>  <s_lp_Force_Field>  (12) 
OPLS3e

>  <r_lp_Energy>  (12) 
50.1834

>  <b_lp_Chiralities_Consistent>  (12) 
1

>  <s_lp_Variant>  (12) 
2:0-1

>  <s_i_glide_gridfile>  (12) 
pfpi4k_grid

>  <i_i_glide_lignum>  (12) 
5

>  <i_i_glide_rotatable_bonds>  (12) 
4

>  <r_i_docking_score>  (12) 
-2.63869

>  <r_i_glide_ligand_efficiency>  (12) 
-0.0909893

>  <r_i_glide_ligand_efficiency_sa>  (12) 
-0.279548

>  <r_i_glide_ligand_efficiency_ln>  (12) 
-0.604193

>  <r_i_glide_gscore>  (12) 
-2.63869

>  <r_i_glide_lipo>  (12) 
-0.0195463

>  <r_i_glide_hbond>  (12) 
-0.113725

>  <r_i_glide_metal>  (12) 
-0

>  <r_i_glide_rewards>  (12) 
-0.631023

>  <r_i_glide_evdw>  (12) 
-27.7218

>  <r_i_glide_ecoul>  (12) 
-4.78921

>  <r_i_glide_erotb>  (12) 
0.355484

>  <r_i_glide_esite>  (12) 
-0.125409

>  <r_i_glide_emodel>  (12) 
-33.2437

>  <r_i_glide_energy>  (12) 
-32.511

>  <r_i_glide_einternal>  (12) 
8.47146

>  <r_i_glide_intrahb_reward>  (12) 
-0

>  <i_i_glide_confnum>  (12) 
4

>  <i_i_glide_posenum>  (12) 
18

>  <r_i_glide_eff_state_penalty>  (12) 
0

>  <ligand_id>  (12) 
2

>  <original_smiles>  (12) 
CC(=O)c1nc2ccc(N=c3[nH]cnc4cnc(N5CCOCC5)nc34)cc2s1

>  <smiles>  (12) 
[H]c1nc(N([H])c2c([H])c([H])c3nc(C(=O)C([H])([H])[H])sc3c2[H])c2nc(N3C([H])([H])C([H])([H])OC([H])([H])C3([H])[H])nc([H])c2n1

$$$$
3:0:0
     RDKit          3D

 66 71  0  0  1  0  0  0  0  0999 V2000
    7.5877    1.6556    6.0850 C   0  0  0  0  0  0  0  0  0  0  0  0
    6.2982    1.0536    5.5189 C   0  0  0  0  0  0  0  0  0  0  0  0
    5.9227   -0.2813    6.1676 C   0  0  0  0  0  0  0  0  0  0  0  0
    4.6440   -0.9002    5.5746 C   0  0  0  0  0  0  0  0  0  0  0  0
    4.7836   -1.2547    4.0625 C   0  0  0  0  0  0  0  0  0  0  0  0
    3.7402   -2.2381    3.4553 C   0  0  1  0  0  0  0  0  0  0  0  0
    2.4352   -1.9181    3.9827 O   0  0  0  0  0  0  0  0  0  0  0  0
    1.6819   -0.7996    3.6910 C   0  0  0  0  0  0  0  0  0  0  0  0
    1.6478   -0.1150    2.4445 C   0  0  0  0  0  0  0  0  0  0  0  0
    0.7613    0.9492    2.2591 C   0  0  0  0  0  0  0  0  0  0  0  0
   -0.1020    1.3398    3.2965 C   0  0  0  0  0  0  0  0  0  0  0  0
   -1.0338    2.4349    3.1361 C   0  0  0  0  0  0  0  0  0  0  0  0
   -1.8317    2.8042    4.1546 C   0  0  0  0  0  0  0  0  0  0  0  0
   -1.7919    2.1120    5.4615 C   0  0  0  0  0  0  0  0  0  0  0  0
   -2.5151    2.4336    6.4026 O   0  0  0  0  0  0  0  0  0  0  0  0
   -0.9218    1.0505    5.5694 O   0  0  0  0  0  0  0  0  0  0  0  0
   -0.0833    0.6745    4.5422 C   0  0  0  0  0  0  0  0  0  0  0  0
    0.8151   -0.3937    4.7317 C   0  0  0  0  0  0  0  0  0  0  0  0
    3.8339   -2.2352    1.8721 C   0  0  0  0  0  0  0  0  0  0  0  0
    2.8578   -3.3161    1.3279 C   0  0  1  0  0  0  0  0  0  0  0  0
    2.7120   -3.6907   -0.1532 C   0  0  1  0  0  0  0  0  0  0  0  0
    4.0125   -3.6621   -0.9903 C   0  0  0  0  0  0  0  0  0  0  0  0
    3.9204   -2.7394   -2.1804 C   0  0  0  0  0  0  0  0  0  0  0  0
    3.8088   -1.3160   -2.1614 C   0  0  0  0  0  0  0  0  0  0  0  0
    3.7456   -0.9123   -3.4614 C   0  0  0  0  0  0  0  0  0  0  0  0
    3.8171   -1.9744   -4.3026 O   0  0  0  0  0  0  0  0  0  0  0  0
    3.9230   -3.0702   -3.5031 C   0  0  0  0  0  0  0  0  0  0  0  0
    2.1730   -5.0259   -0.0474 O   0  0  0  0  0  0  0  0  0  0  0  0
    2.3396   -5.6017    1.1616 C   0  0  0  0  0  0  0  0  0  0  0  0
    1.8886   -6.6861    1.5259 O   0  0  0  0  0  0  0  0  0  0  0  0
    3.1519   -4.6376    2.0052 C   0  0  1  0  0  0  0  0  0  0  0  0
    4.6130   -4.9986    2.1283 C   0  0  0  0  0  0  0  0  0  0  0  0
    5.0405   -4.4651    3.2682 C   0  0  0  0  0  0  0  0  0  0  0  0
    3.8740   -3.7572    3.9333 C   0  0  1  0  0  0  0  0  0  0  0  0
    3.8530   -4.0461    5.4467 C   0  0  0  0  0  0  0  0  0  0  0  0
    2.7483   -4.4595    3.3568 O   0  0  0  0  0  0  0  0  0  0  0  0
    7.8177    2.5996    5.5886 H   0  0  0  0  0  0  0  0  0  0  0  0
    8.4315    0.9820    5.9280 H   0  0  0  0  0  0  0  0  0  0  0  0
    7.4923    1.8455    7.1547 H   0  0  0  0  0  0  0  0  0  0  0  0
    5.4708    1.7538    5.6507 H   0  0  0  0  0  0  0  0  0  0  0  0
    6.4288    0.9174    4.4448 H   0  0  0  0  0  0  0  0  0  0  0  0
    6.7512   -0.9857    6.0828 H   0  0  0  0  0  0  0  0  0  0  0  0
    5.7755   -0.1342    7.2378 H   0  0  0  0  0  0  0  0  0  0  0  0
    4.4278   -1.7664    6.1910 H   0  0  0  0  0  0  0  0  0  0  0  0
    3.8034   -0.2087    5.7133 H   0  0  0  0  0  0  0  0  0  0  0  0
    4.7021   -0.3212    3.5056 H   0  0  0  0  0  0  0  0  0  0  0  0
    5.7991   -1.6196    3.8401 H   0  0  0  0  0  0  0  0  0  0  0  0
    2.1671   -0.3717    1.5661 H   0  0  0  0  0  0  0  0  0  0  0  0
    0.7282    1.4451    1.2977 H   0  0  0  0  0  0  0  0  0  0  0  0
   -1.0592    2.9438    2.1762 H   0  0  0  0  0  0  0  0  0  0  0  0
   -2.5262    3.6240    4.0353 H   0  0  0  0  0  0  0  0  0  0  0  0
    0.8170   -0.9186    5.6789 H   0  0  0  0  0  0  0  0  0  0  0  0
    3.7253   -1.2960    1.3886 H   0  0  0  0  0  0  0  0  0  0  0  0
    4.8640   -2.4970    1.5930 H   0  0  0  0  0  0  0  0  0  0  0  0
    1.8528   -3.0235    1.6490 H   0  0  0  0  0  0  0  0  0  0  0  0
    1.9556   -3.0564   -0.6228 H   0  0  0  0  0  0  0  0  0  0  0  0
    4.8684   -3.3473   -0.3993 H   0  0  0  0  0  0  0  0  0  0  0  0
    4.2619   -4.6627   -1.3364 H   0  0  0  0  0  0  0  0  0  0  0  0
    3.7555   -0.6706   -1.2968 H   0  0  0  0  0  0  0  0  0  0  0  0
    3.6385    0.0563   -3.9382 H   0  0  0  0  0  0  0  0  0  0  0  0
    3.9819   -4.0166   -4.0344 H   0  0  0  0  0  0  0  0  0  0  0  0
    5.1696   -5.5915    1.4159 H   0  0  0  0  0  0  0  0  0  0  0  0
    6.0329   -4.5434    3.6887 H   0  0  0  0  0  0  0  0  0  0  0  0
    4.7472   -3.6584    5.9354 H   0  0  0  0  0  0  0  0  0  0  0  0
    3.7955   -5.1231    5.6529 H   0  0  0  0  0  0  0  0  0  0  0  0
    2.9809   -3.5852    5.9065 H   0  0  0  0  0  0  0  0  0  0  0  0
  1  2  1  0
  1 37  1  0
  1 38  1  0
  1 39  1  0
  2  3  1  0
  2 40  1  0
  2 41  1  0
  3  4  1  0
  3 42  1  0
  3 43  1  0
  4  5  1  0
  4 44  1  0
  4 45  1  0
  5  6  1  0
  5 46  1  0
  5 47  1  0
  6 34  1  0
  6  7  1  6
  6 19  1  0
  7  8  1  0
  8 18  1  0
  8  9  2  0
  9 10  1  0
  9 48  1  0
 10 11  2  0
 10 49  1  0
 11 17  1  0
 11 12  1  0
 12 13  2  0
 12 50  1  0
 13 14  1  0
 13 51  1  0
 14 15  2  0
 14 16  1  0
 16 17  1  0
 17 18  2  0
 18 52  1  0
 19 20  1  0
 19 53  1  0
 19 54  1  0
 20 31  1  0
 20 21  1  0
 20 55  1  1
 21 22  1  0
 21 28  1  0
 21 56  1  6
 22 23  1  0
 22 57  1  0
 22 58  1  0
 23 27  2  0
 23 24  1  0
 24 25  2  0
 24 59  1  0
 25 26  1  0
 25 60  1  0
 26 27  1  0
 27 61  1  0
 28 29  1  0
 29 30  2  0
 31 29  1  6
 31 36  1  0
 31 32  1  0
 32 33  2  0
 32 62  1  0
 33 34  1  0
 33 63  1  0
 34 35  1  1
 34 36  1  0
 35 64  1  0
 35 65  1  0
 35 66  1  0
M  END
>  <i_m_ct_stereo_status>  (13) 
1

>  <s_m_source_file>  (13) 
/var/tmp/pbs.5083856.sched01/tmpylm1lan7/55s0z2_fc.sdf

>  <i_m_source_file_index>  (13) 
1

>  <i_lp_mmshare_version>  (13) 
48012

>  <i_f3d_flags>  (13) 
0

>  <s_epik_input>  (13) 
W2NIXTFbY0hdYyg9TylvYyhjMTIpW2NIXWMoW2NIXVtjSF0yKU9bQ0BdKFtDQF0oTzMpKFtDSDNdKVtDSF09W0NIXTQpKFtDSDJdW0NIMl1bQ0gyXVtDSDJdW0NIM10pW0NIMl1bQ0BIXShbQ0BdMzQ1KVtDQEhdKE9DNT1PKVtDSDJdYzZbY0hdW2NIXW9bY0hdNg==

>  <s_epik_cmdline>  (13) 
J2VwaWtfcHl0aG9uJywgJy1waHQnLCAnMi4wJywgJy1waCcsICc3LjAnLCAnLXRuJywgJzgnLCAnLW1hJywgJzIwMCcsICctaW1hZScsICc8aW5maWxlLm1hZT4nLCAnLW9tYWUnLCAnPG91dGZpbGUubWFlPic=

>  <r_lp_tautomer_probability>  (13) 
1

>  <r_epik_Ionization_Penalty>  (13) 
5.98263e-09

>  <r_epik_Ionization_Penalty_Charging>  (13) 
0

>  <r_epik_Ionization_Penalty_Neutral>  (13) 
5.98263e-09

>  <r_epik_State_Penalty>  (13) 
-0

>  <r_epik_Charging_Adjusted_Penalty>  (13) 
0

>  <i_epik_Tot_Q>  (13) 
0

>  <i_epik_Tot_abs_Q>  (13) 
0

>  <s_epik_Chemistry_Notes>  (13) 
This compound has an ester and may undergo hydrolysis at high or low pH.

>  <s_lp_Force_Field>  (13) 
OPLS3e

>  <r_lp_Energy>  (13) 
64.4441

>  <b_lp_Chiralities_Consistent>  (13) 
1

>  <s_lp_Variant>  (13) 
3:0-1

>  <s_i_glide_gridfile>  (13) 
pfpi4k_grid

>  <i_i_glide_lignum>  (13) 
1

>  <i_i_glide_rotatable_bonds>  (13) 
8

>  <r_i_docking_score>  (13) 
-2.8757

>  <r_i_glide_ligand_efficiency>  (13) 
-0.0798806

>  <r_i_glide_ligand_efficiency_sa>  (13) 
-0.26376

>  <r_i_glide_ligand_efficiency_ln>  (13) 
-0.6274

>  <r_i_glide_gscore>  (13) 
-2.8757

>  <r_i_glide_lipo>  (13) 
-0.677597

>  <r_i_glide_hbond>  (13) 
-0.32792

>  <r_i_glide_metal>  (13) 
-0

>  <r_i_glide_rewards>  (13) 
-0.0644707

>  <r_i_glide_evdw>  (13) 
-37.2484

>  <r_i_glide_ecoul>  (13) 
-3.34808

>  <r_i_glide_erotb>  (13) 
0.592016

>  <r_i_glide_esite>  (13) 
-0.0330958

>  <r_i_glide_emodel>  (13) 
-41.9488

>  <r_i_glide_energy>  (13) 
-40.5965

>  <r_i_glide_einternal>  (13) 
11.1311

>  <r_i_glide_intrahb_reward>  (13) 
-0

>  <i_i_glide_confnum>  (13) 
1

>  <i_i_glide_posenum>  (13) 
19

>  <r_i_glide_eff_state_penalty>  (13) 
0

>  <ligand_id>  (13) 
3

>  <original_smiles>  (13) 
CCCCCC1(Oc2ccc3ccc(=O)oc3c2)CC2C(Cc3ccoc3)OC(=O)C23C=CC1(C)O3

>  <smiles>  (13) 
[H]C1=C([H])C2(C([H])([H])[H])OC13C(=O)OC([H])(C([H])([H])c1c([H])oc([H])c1[H])C3([H])C([H])([H])C2(Oc1c([H])c([H])c2c([H])c([H])c(=O)oc2c1[H])C([H])([H])C([H])([H])C([H])([H])C([H])([H])C([H])([H])[H]

$$$$
3:0:1
     RDKit          3D

 66 71  0  0  1  0  0  0  0  0999 V2000
    5.7775    2.6423    6.8412 C   0  0  0  0  0  0  0  0  0  0  0  0
    4.8300    1.6452    6.1774 C   0  0  0  0  0  0  0  0  0  0  0  0
    4.9908    0.2262    6.7319 C   0  0  0  0  0  0  0  0  0  0  0  0
    4.0641   -0.7879    6.0516 C   0  0  0  0  0  0  0  0  0  0  0  0
    4.3836   -1.0585    4.5515 C   0  0  0  0  0  0  0  0  0  0  0  0
    3.4801   -2.0635    3.7771 C   0  0  1  0  0  0  0  0  0  0  0  0
    2.1004   -1.8935    4.1591 O   0  0  0  0  0  0  0  0  0  0  0  0
    1.3409   -0.7644    3.9171 C   0  0  0  0  0  0  0  0  0  0  0  0
    1.1649   -0.1636    2.6484 C   0  0  0  0  0  0  0  0  0  0  0  0
    0.2899    0.9154    2.4834 C   0  0  0  0  0  0  0  0  0  0  0  0
   -0.4719    1.3591    3.5788 C   0  0  0  0  0  0  0  0  0  0  0  0
   -1.4271    2.4511    3.4516 C   0  0  0  0  0  0  0  0  0  0  0  0
   -2.1423    2.8547    4.5212 C   0  0  0  0  0  0  0  0  0  0  0  0
   -1.9965    2.2101    5.8463 C   0  0  0  0  0  0  0  0  0  0  0  0
   -2.6466    2.5749    6.8209 O   0  0  0  0  0  0  0  0  0  0  0  0
   -1.1128    1.1604    5.9167 O   0  0  0  0  0  0  0  0  0  0  0  0
   -0.3496    0.7509    4.8392 C   0  0  0  0  0  0  0  0  0  0  0  0
    0.5550   -0.3131    4.9996 C   0  0  0  0  0  0  0  0  0  0  0  0
    3.7380   -1.9128    2.2265 C   0  0  0  0  0  0  0  0  0  0  0  0
    2.9194   -3.0128    1.4981 C   0  0  1  0  0  0  0  0  0  0  0  0
    2.9502   -3.2744   -0.0186 C   0  0  1  0  0  0  0  0  0  0  0  0
    4.3164   -3.0961   -0.7203 C   0  0  0  0  0  0  0  0  0  0  0  0
    4.1848   -2.4546   -2.0733 C   0  0  0  0  0  0  0  0  0  0  0  0
    4.1587   -1.0669   -2.3663 C   0  0  0  0  0  0  0  0  0  0  0  0
    4.0185   -0.9504   -3.7209 C   0  0  0  0  0  0  0  0  0  0  0  0
    3.9668   -2.1791   -4.2961 O   0  0  0  0  0  0  0  0  0  0  0  0
    4.0647   -3.0818   -3.2897 C   0  0  0  0  0  0  0  0  0  0  0  0
    2.4970   -4.6380   -0.0746 O   0  0  0  0  0  0  0  0  0  0  0  0
    2.5976   -5.3023    1.0926 C   0  0  0  0  0  0  0  0  0  0  0  0
    2.2024   -6.4359    1.3415 O   0  0  0  0  0  0  0  0  0  0  0  0
    3.2450   -4.3659    2.0899 C   0  0  1  0  0  0  0  0  0  0  0  0
    4.7072   -4.6142    2.3353 C   0  0  0  0  0  0  0  0  0  0  0  0
    4.9768   -4.1566    3.5542 C   0  0  0  0  0  0  0  0  0  0  0  0
    3.7027   -3.5962    4.1510 C   0  0  1  0  0  0  0  0  0  0  0  0
    3.5502   -4.0130    5.6214 C   0  0  0  0  0  0  0  0  0  0  0  0
    2.6972   -4.3160    3.4012 O   0  0  0  0  0  0  0  0  0  0  0  0
    5.6423    3.6337    6.4021 H   0  0  0  0  0  0  0  0  0  0  0  0
    6.8181    2.3452    6.6893 H   0  0  0  0  0  0  0  0  0  0  0  0
    5.5929    2.7110    7.9158 H   0  0  0  0  0  0  0  0  0  0  0  0
    3.7958    1.9672    6.3081 H   0  0  0  0  0  0  0  0  0  0  0  0
    5.0327    1.6587    5.1086 H   0  0  0  0  0  0  0  0  0  0  0  0
    6.0246   -0.1070    6.6529 H   0  0  0  0  0  0  0  0  0  0  0  0
    4.7607    0.2349    7.7975 H   0  0  0  0  0  0  0  0  0  0  0  0
    4.1590   -1.6713    6.6671 H   0  0  0  0  0  0  0  0  0  0  0  0
    3.0325   -0.4505    6.1682 H   0  0  0  0  0  0  0  0  0  0  0  0
    4.2989   -0.1143    4.0125 H   0  0  0  0  0  0  0  0  0  0  0  0
    5.4299   -1.3415    4.4402 H   0  0  0  0  0  0  0  0  0  0  0  0
    1.6167   -0.5266    1.7411 H   0  0  0  0  0  0  0  0  0  0  0  0
    0.1721    1.3654    1.5070 H   0  0  0  0  0  0  0  0  0  0  0  0
   -1.5370    2.9172    2.4837 H   0  0  0  0  0  0  0  0  0  0  0  0
   -2.8512    3.6604    4.4291 H   0  0  0  0  0  0  0  0  0  0  0  0
    0.6343   -0.8000    5.9655 H   0  0  0  0  0  0  0  0  0  0  0  0
    3.5644   -0.9081    1.8427 H   0  0  0  0  0  0  0  0  0  0  0  0
    4.8082   -2.0487    2.0320 H   0  0  0  0  0  0  0  0  0  0  0  0
    1.8676   -2.8205    1.7195 H   0  0  0  0  0  0  0  0  0  0  0  0
    2.2052   -2.6492   -0.5086 H   0  0  0  0  0  0  0  0  0  0  0  0
    4.9675   -2.4393   -0.1468 H   0  0  0  0  0  0  0  0  0  0  0  0
    4.8318   -4.0549   -0.7986 H   0  0  0  0  0  0  0  0  0  0  0  0
    4.2247   -0.2399   -1.6722 H   0  0  0  0  0  0  0  0  0  0  0  0
    3.9503   -0.1159   -4.3966 H   0  0  0  0  0  0  0  0  0  0  0  0
    4.0300   -4.1139   -3.5861 H   0  0  0  0  0  0  0  0  0  0  0  0
    5.3790   -5.1086    1.6509 H   0  0  0  0  0  0  0  0  0  0  0  0
    5.9228   -4.1952    4.0734 H   0  0  0  0  0  0  0  0  0  0  0  0
    4.3799   -3.6688    6.2285 H   0  0  0  0  0  0  0  0  0  0  0  0
    3.5328   -5.1000    5.7237 H   0  0  0  0  0  0  0  0  0  0  0  0
    2.6192   -3.6344    6.0361 H   0  0  0  0  0  0  0  0  0  0  0  0
  1  2  1  0
  1 37  1  0
  1 38  1  0
  1 39  1  0
  2  3  1  0
  2 40  1  0
  2 41  1  0
  3  4  1  0
  3 42  1  0
  3 43  1  0
  4  5  1  0
  4 44  1  0
  4 45  1  0
  5  6  1  0
  5 46  1  0
  5 47  1  0
  6 34  1  0
  6  7  1  6
  6 19  1  0
  7  8  1  0
  8 18  1  0
  8  9  2  0
  9 10  1  0
  9 48  1  0
 10 11  2  0
 10 49  1  0
 11 17  1  0
 11 12  1  0
 12 13  2  0
 12 50  1  0
 13 14  1  0
 13 51  1  0
 14 15  2  0
 14 16  1  0
 16 17  1  0
 17 18  2  0
 18 52  1  0
 19 20  1  0
 19 53  1  0
 19 54  1  0
 20 31  1  0
 20 21  1  0
 20 55  1  1
 21 22  1  0
 21 28  1  0
 21 56  1  6
 22 23  1  0
 22 57  1  0
 22 58  1  0
 23 27  2  0
 23 24  1  0
 24 25  2  0
 24 59  1  0
 25 26  1  0
 25 60  1  0
 26 27  1  0
 27 61  1  0
 28 29  1  0
 29 30  2  0
 31 29  1  6
 31 36  1  0
 31 32  1  0
 32 33  2  0
 32 62  1  0
 33 34  1  0
 33 63  1  0
 34 35  1  1
 34 36  1  0
 35 64  1  0
 35 65  1  0
 35 66  1  0
M  END
>  <i_m_ct_stereo_status>  (14) 
1

>  <s_m_source_file>  (14) 
/var/tmp/pbs.5083856.sched01/tmpylm1lan7/55s0z2_fc.sdf

>  <i_m_source_file_index>  (14) 
1

>  <i_lp_mmshare_version>  (14) 
48012

>  <i_f3d_flags>  (14) 
0

>  <s_epik_input>  (14) 
W2NIXTFbY0hdYyg9TylvYyhjMTIpW2NIXWMoW2NIXVtjSF0yKU9bQ0BdKFtDQF0oTzMpKFtDSDNdKVtDSF09W0NIXTQpKFtDSDJdW0NIMl1bQ0gyXVtDSDJdW0NIM10pW0NIMl1bQ0BIXShbQ0BdMzQ1KVtDQEhdKE9DNT1PKVtDSDJdYzZbY0hdW2NIXW9bY0hdNg==

>  <s_epik_cmdline>  (14) 
J2VwaWtfcHl0aG9uJywgJy1waHQnLCAnMi4wJywgJy1waCcsICc3LjAnLCAnLXRuJywgJzgnLCAnLW1hJywgJzIwMCcsICctaW1hZScsICc8aW5maWxlLm1hZT4nLCAnLW9tYWUnLCAnPG91dGZpbGUubWFlPic=

>  <r_lp_tautomer_probability>  (14) 
1

>  <r_epik_Ionization_Penalty>  (14) 
5.98263e-09

>  <r_epik_Ionization_Penalty_Charging>  (14) 
0

>  <r_epik_Ionization_Penalty_Neutral>  (14) 
5.98263e-09

>  <r_epik_State_Penalty>  (14) 
-0

>  <r_epik_Charging_Adjusted_Penalty>  (14) 
0

>  <i_epik_Tot_Q>  (14) 
0

>  <i_epik_Tot_abs_Q>  (14) 
0

>  <s_epik_Chemistry_Notes>  (14) 
This compound has an ester and may undergo hydrolysis at high or low pH.

>  <s_lp_Force_Field>  (14) 
OPLS3e

>  <r_lp_Energy>  (14) 
64.4441

>  <b_lp_Chiralities_Consistent>  (14) 
1

>  <s_lp_Variant>  (14) 
3:0-1

>  <s_i_glide_gridfile>  (14) 
pfpi4k_grid

>  <i_i_glide_lignum>  (14) 
1

>  <i_i_glide_rotatable_bonds>  (14) 
8

>  <r_i_docking_score>  (14) 
-2.47999

>  <r_i_glide_ligand_efficiency>  (14) 
-0.0688885

>  <r_i_glide_ligand_efficiency_sa>  (14) 
-0.227465

>  <r_i_glide_ligand_efficiency_ln>  (14) 
-0.541066

>  <r_i_glide_gscore>  (14) 
-2.47999

>  <r_i_glide_lipo>  (14) 
-0.430134

>  <r_i_glide_hbond>  (14) 
-0.32

>  <r_i_glide_metal>  (14) 
-0

>  <r_i_glide_rewards>  (14) 
-0.0644707

>  <r_i_glide_evdw>  (14) 
-35.0605

>  <r_i_glide_ecoul>  (14) 
-3.17085

>  <r_i_glide_erotb>  (14) 
0.592016

>  <r_i_glide_esite>  (14) 
-0.0287462

>  <r_i_glide_emodel>  (14) 
-39.1867

>  <r_i_glide_energy>  (14) 
-38.2313

>  <r_i_glide_einternal>  (14) 
10.4594

>  <r_i_glide_intrahb_reward>  (14) 
-0

>  <i_i_glide_confnum>  (14) 
1

>  <i_i_glide_posenum>  (14) 
22

>  <r_i_glide_eff_state_penalty>  (14) 
0

>  <ligand_id>  (14) 
3

>  <original_smiles>  (14) 
CCCCCC1(Oc2ccc3ccc(=O)oc3c2)CC2C(Cc3ccoc3)OC(=O)C23C=CC1(C)O3

>  <smiles>  (14) 
[H]C1=C([H])C2(C([H])([H])[H])OC13C(=O)OC([H])(C([H])([H])c1c([H])oc([H])c1[H])C3([H])C([H])([H])C2(Oc1c([H])c([H])c2c([H])c([H])c(=O)oc2c1[H])C([H])([H])C([H])([H])C([H])([H])C([H])([H])C([H])([H])[H]

$$$$
3:0:2
     RDKit          3D

 66 71  0  0  1  0  0  0  0  0999 V2000
    5.9613   -1.8292   -1.0521 C   0  0  0  0  0  0  0  0  0  0  0  0
    6.4225   -1.6912    0.4052 C   0  0  0  0  0  0  0  0  0  0  0  0
    5.3326   -1.0838    1.2967 C   0  0  0  0  0  0  0  0  0  0  0  0
    5.7800   -0.9385    2.7676 C   0  0  0  0  0  0  0  0  0  0  0  0
    4.7372   -0.2623    3.6828 C   0  0  0  0  0  0  0  0  0  0  0  0
    3.6987   -1.1855    4.3941 C   0  0  1  0  0  0  0  0  0  0  0  0
    2.7527   -0.3461    5.0635 O   0  0  0  0  0  0  0  0  0  0  0  0
    1.7515    0.3840    4.4601 C   0  0  0  0  0  0  0  0  0  0  0  0
    1.5830    0.6229    3.0735 C   0  0  0  0  0  0  0  0  0  0  0  0
    0.4808    1.3623    2.6088 C   0  0  0  0  0  0  0  0  0  0  0  0
   -0.4425    1.8840    3.5315 C   0  0  0  0  0  0  0  0  0  0  0  0
   -1.6001    2.6646    3.1396 C   0  0  0  0  0  0  0  0  0  0  0  0
   -2.4513    3.1576    4.0492 C   0  0  0  0  0  0  0  0  0  0  0  0
   -2.2393    2.9221    5.4979 C   0  0  0  0  0  0  0  0  0  0  0  0
   -3.0024    3.3429    6.3580 O   0  0  0  0  0  0  0  0  0  0  0  0
   -1.1477    2.1865    5.8381 O   0  0  0  0  0  0  0  0  0  0  0  0
   -0.2686    1.6782    4.9112 C   0  0  0  0  0  0  0  0  0  0  0  0
    0.8278    0.9322    5.3659 C   0  0  0  0  0  0  0  0  0  0  0  0
    3.0167   -2.2379    3.4379 C   0  0  0  0  0  0  0  0  0  0  0  0
    2.1490   -3.1929    4.2601 C   0  0  1  0  0  0  0  0  0  0  0  0
    1.4663   -4.4328    3.6680 C   0  0  1  0  0  0  0  0  0  0  0  0
    2.2603   -5.2230    2.5906 C   0  0  0  0  0  0  0  0  0  0  0  0
    1.7459   -6.6294    2.3806 C   0  0  0  0  0  0  0  0  0  0  0  0
    0.5339   -7.2076    2.8656 C   0  0  0  0  0  0  0  0  0  0  0  0
    0.5313   -8.5127    2.4727 C   0  0  0  0  0  0  0  0  0  0  0  0
    1.6511   -8.7940    1.7593 O   0  0  0  0  0  0  0  0  0  0  0  0
    2.3692   -7.6449    1.7037 C   0  0  0  0  0  0  0  0  0  0  0  0
    1.2433   -5.1874    4.8744 O   0  0  0  0  0  0  0  0  0  0  0  0
    2.0104   -4.8292    5.9138 C   0  0  0  0  0  0  0  0  0  0  0  0
    1.9894   -5.2907    7.0498 O   0  0  0  0  0  0  0  0  0  0  0  0
    2.9388   -3.7402    5.4285 C   0  0  1  0  0  0  0  0  0  0  0  0
    4.3435   -4.1992    5.1258 C   0  0  0  0  0  0  0  0  0  0  0  0
    5.1328   -3.1450    5.2795 C   0  0  0  0  0  0  0  0  0  0  0  0
    4.2742   -1.9573    5.6615 C   0  0  1  0  0  0  0  0  0  0  0  0
    4.9371   -1.0989    6.7511 C   0  0  0  0  0  0  0  0  0  0  0  0
    3.1412   -2.6174    6.2740 O   0  0  0  0  0  0  0  0  0  0  0  0
    6.7442   -2.2641   -1.6748 H   0  0  0  0  0  0  0  0  0  0  0  0
    5.6878   -0.8602   -1.4717 H   0  0  0  0  0  0  0  0  0  0  0  0
    5.0850   -2.4755   -1.1291 H   0  0  0  0  0  0  0  0  0  0  0  0
    6.7002   -2.6760    0.7857 H   0  0  0  0  0  0  0  0  0  0  0  0
    7.3212   -1.0750    0.4550 H   0  0  0  0  0  0  0  0  0  0  0  0
    5.0396   -0.1091    0.9031 H   0  0  0  0  0  0  0  0  0  0  0  0
    4.4483   -1.7134    1.2140 H   0  0  0  0  0  0  0  0  0  0  0  0
    6.0906   -1.9050    3.1604 H   0  0  0  0  0  0  0  0  0  0  0  0
    6.6733   -0.3147    2.7943 H   0  0  0  0  0  0  0  0  0  0  0  0
    5.2605    0.3294    4.4358 H   0  0  0  0  0  0  0  0  0  0  0  0
    4.2400    0.4981    3.0872 H   0  0  0  0  0  0  0  0  0  0  0  0
    2.2743    0.2602    2.3345 H   0  0  0  0  0  0  0  0  0  0  0  0
    0.3437    1.5363    1.5526 H   0  0  0  0  0  0  0  0  0  0  0  0
   -1.7617    2.8428    2.0887 H   0  0  0  0  0  0  0  0  0  0  0  0
   -3.3146    3.7289    3.7459 H   0  0  0  0  0  0  0  0  0  0  0  0
    0.9574    0.7741    6.4278 H   0  0  0  0  0  0  0  0  0  0  0  0
    2.4194   -1.7949    2.6504 H   0  0  0  0  0  0  0  0  0  0  0  0
    3.7786   -2.8329    2.9360 H   0  0  0  0  0  0  0  0  0  0  0  0
    1.3389   -2.5856    4.6702 H   0  0  0  0  0  0  0  0  0  0  0  0
    0.5012   -4.1507    3.2486 H   0  0  0  0  0  0  0  0  0  0  0  0
    2.2180   -4.6925    1.6365 H   0  0  0  0  0  0  0  0  0  0  0  0
    3.3180   -5.2899    2.8443 H   0  0  0  0  0  0  0  0  0  0  0  0
   -0.2375   -6.7484    3.4646 H   0  0  0  0  0  0  0  0  0  0  0  0
   -0.1575   -9.3323    2.6119 H   0  0  0  0  0  0  0  0  0  0  0  0
    3.3007   -7.7347    1.1666 H   0  0  0  0  0  0  0  0  0  0  0  0
    4.6319   -5.2104    4.8730 H   0  0  0  0  0  0  0  0  0  0  0  0
    6.2075   -3.1180    5.1790 H   0  0  0  0  0  0  0  0  0  0  0  0
    5.8370   -0.6054    6.3937 H   0  0  0  0  0  0  0  0  0  0  0  0
    5.2222   -1.7120    7.6056 H   0  0  0  0  0  0  0  0  0  0  0  0
    4.2547   -0.3371    7.1208 H   0  0  0  0  0  0  0  0  0  0  0  0
  1  2  1  0
  1 37  1  0
  1 38  1  0
  1 39  1  0
  2  3  1  0
  2 40  1  0
  2 41  1  0
  3  4  1  0
  3 42  1  0
  3 43  1  0
  4  5  1  0
  4 44  1  0
  4 45  1  0
  5  6  1  0
  5 46  1  0
  5 47  1  0
  6 34  1  0
  6  7  1  1
  6 19  1  0
  7  8  1  0
  8 18  1  0
  8  9  2  0
  9 10  1  0
  9 48  1  0
 10 11  2  0
 10 49  1  0
 11 17  1  0
 11 12  1  0
 12 13  2  0
 12 50  1  0
 13 14  1  0
 13 51  1  0
 14 15  2  0
 14 16  1  0
 16 17  1  0
 17 18  2  0
 18 52  1  0
 19 20  1  0
 19 53  1  0
 19 54  1  0
 20 31  1  0
 20 21  1  0
 20 55  1  1
 21 22  1  0
 21 28  1  0
 21 56  1  6
 22 23  1  0
 22 57  1  0
 22 58  1  0
 23 27  2  0
 23 24  1  0
 24 25  2  0
 24 59  1  0
 25 26  1  0
 25 60  1  0
 26 27  1  0
 27 61  1  0
 28 29  1  0
 29 30  2  0
 31 29  1  1
 31 36  1  0
 31 32  1  0
 32 33  2  0
 32 62  1  0
 33 34  1  0
 33 63  1  0
 34 35  1  1
 34 36  1  0
 35 64  1  0
 35 65  1  0
 35 66  1  0
M  END
>  <i_m_ct_stereo_status>  (15) 
1

>  <s_m_source_file>  (15) 
/var/tmp/pbs.5083856.sched01/tmpylm1lan7/55s0z2_fc.sdf

>  <i_m_source_file_index>  (15) 
1

>  <i_lp_mmshare_version>  (15) 
48012

>  <i_f3d_flags>  (15) 
0

>  <s_epik_input>  (15) 
W2NIXTFbY0hdYyg9TylvYyhjMTIpW2NIXWMoW2NIXVtjSF0yKU9bQ0BdKFtDQF0oTzMpKFtDSDNdKVtDSF09W0NIXTQpKFtDSDJdW0NIMl1bQ0gyXVtDSDJdW0NIM10pW0NIMl1bQ0BIXShbQ0BdMzQ1KVtDQEhdKE9DNT1PKVtDSDJdYzZbY0hdW2NIXW9bY0hdNg==

>  <s_epik_cmdline>  (15) 
J2VwaWtfcHl0aG9uJywgJy1waHQnLCAnMi4wJywgJy1waCcsICc3LjAnLCAnLXRuJywgJzgnLCAnLW1hJywgJzIwMCcsICctaW1hZScsICc8aW5maWxlLm1hZT4nLCAnLW9tYWUnLCAnPG91dGZpbGUubWFlPic=

>  <r_lp_tautomer_probability>  (15) 
1

>  <r_epik_Ionization_Penalty>  (15) 
5.98263e-09

>  <r_epik_Ionization_Penalty_Charging>  (15) 
0

>  <r_epik_Ionization_Penalty_Neutral>  (15) 
5.98263e-09

>  <r_epik_State_Penalty>  (15) 
-0

>  <r_epik_Charging_Adjusted_Penalty>  (15) 
0

>  <i_epik_Tot_Q>  (15) 
0

>  <i_epik_Tot_abs_Q>  (15) 
0

>  <s_epik_Chemistry_Notes>  (15) 
This compound has an ester and may undergo hydrolysis at high or low pH.

>  <s_lp_Force_Field>  (15) 
OPLS3e

>  <r_lp_Energy>  (15) 
64.4441

>  <b_lp_Chiralities_Consistent>  (15) 
1

>  <s_lp_Variant>  (15) 
3:0-1

>  <s_i_glide_gridfile>  (15) 
pfpi4k_grid

>  <i_i_glide_lignum>  (15) 
1

>  <i_i_glide_rotatable_bonds>  (15) 
8

>  <r_i_docking_score>  (15) 
-1.66398

>  <r_i_glide_ligand_efficiency>  (15) 
-0.0462215

>  <r_i_glide_ligand_efficiency_sa>  (15) 
-0.15262

>  <r_i_glide_ligand_efficiency_ln>  (15) 
-0.363034

>  <r_i_glide_gscore>  (15) 
-1.66398

>  <r_i_glide_lipo>  (15) 
-0.37603

>  <r_i_glide_hbond>  (15) 
0

>  <r_i_glide_metal>  (15) 
-0

>  <r_i_glide_rewards>  (15) 
-0.0644707

>  <r_i_glide_evdw>  (15) 
-29.3853

>  <r_i_glide_ecoul>  (15) 
-2.30817

>  <r_i_glide_erotb>  (15) 
0.592016

>  <r_i_glide_esite>  (15) 
0

>  <r_i_glide_emodel>  (15) 
-33.4157

>  <r_i_glide_energy>  (15) 
-31.6935

>  <r_i_glide_einternal>  (15) 
4.56757

>  <r_i_glide_intrahb_reward>  (15) 
-0

>  <i_i_glide_confnum>  (15) 
3

>  <i_i_glide_posenum>  (15) 
36

>  <r_i_glide_eff_state_penalty>  (15) 
0

>  <ligand_id>  (15) 
3

>  <original_smiles>  (15) 
CCCCCC1(Oc2ccc3ccc(=O)oc3c2)CC2C(Cc3ccoc3)OC(=O)C23C=CC1(C)O3

>  <smiles>  (15) 
[H]C1=C([H])C2(C([H])([H])[H])OC13C(=O)OC([H])(C([H])([H])c1c([H])oc([H])c1[H])C3([H])C([H])([H])C2(Oc1c([H])c([H])c2c([H])c([H])c(=O)oc2c1[H])C([H])([H])C([H])([H])C([H])([H])C([H])([H])C([H])([H])[H]

$$$$
5:0:0
     RDKit          3D

 38 41  0  0  1  0  0  0  0  0999 V2000
    2.1584   -5.1632    2.6312 C   0  0  0  0  0  0  0  0  0  0  0  0
    3.5112   -4.5961    2.1821 C   0  0  2  0  0  0  0  0  0  0  0  0
    4.3257   -4.0015    3.3433 C   0  0  0  0  0  0  0  0  0  0  0  0
    4.6405   -2.5636    2.9493 C   0  0  0  0  0  0  0  0  0  0  0  0
    4.5435   -2.5223    1.4194 C   0  0  2  0  0  0  0  0  0  0  0  0
    5.7612   -3.0556    0.9153 O   0  0  0  0  0  0  0  0  0  0  0  0
    6.3593   -2.3245   -0.1046 C   0  0  2  0  0  0  0  0  0  0  0  0
    7.6928   -3.0215   -0.3550 C   0  0  0  0  0  0  0  0  0  0  0  0
    6.6552   -1.0133    0.2558 O   0  0  0  0  0  0  0  0  0  0  0  0
    5.5968   -0.4498    1.1992 O   0  0  0  0  0  0  0  0  0  0  0  0
    4.3619   -1.0881    0.9210 C   0  0  1  0  0  0  0  0  0  0  0  0
    3.9535   -0.9748   -0.4266 O   0  0  0  0  0  0  0  0  0  0  0  0
    4.3740   -1.8928   -1.3882 C   0  0  2  0  0  0  0  0  0  0  0  0
    4.2971   -1.0899   -2.6954 C   0  0  0  0  0  0  0  0  0  0  0  0
    3.3514   -3.0566   -1.4729 C   0  0  0  0  0  0  0  0  0  0  0  0
    3.4853   -4.0674   -0.3192 C   0  0  0  0  0  0  0  0  0  0  0  0
    3.3946   -3.4899    1.1053 C   0  0  1  0  0  0  0  0  0  0  0  0
    5.6975   -2.3759   -1.3408 O   0  0  0  0  0  0  0  0  0  0  0  0
    1.5276   -4.3886    3.0665 H   0  0  0  0  0  0  0  0  0  0  0  0
    2.2939   -5.9436    3.3829 H   0  0  0  0  0  0  0  0  0  0  0  0
    1.6283   -5.6081    1.7920 H   0  0  0  0  0  0  0  0  0  0  0  0
    4.1001   -5.4184    1.7752 H   0  0  0  0  0  0  0  0  0  0  0  0
    3.8057   -4.0489    4.3001 H   0  0  0  0  0  0  0  0  0  0  0  0
    5.2574   -4.5584    3.4564 H   0  0  0  0  0  0  0  0  0  0  0  0
    3.8845   -1.9033    3.3871 H   0  0  0  0  0  0  0  0  0  0  0  0
    5.6122   -2.2277    3.3128 H   0  0  0  0  0  0  0  0  0  0  0  0
    8.2605   -2.4886   -1.1260 H   0  0  0  0  0  0  0  0  0  0  0  0
    7.5049   -4.0337   -0.6957 H   0  0  0  0  0  0  0  0  0  0  0  0
    8.2865   -3.0610    0.5654 H   0  0  0  0  0  0  0  0  0  0  0  0
    3.5994   -0.5756    1.5018 H   0  0  0  0  0  0  0  0  0  0  0  0
    4.9741   -0.2390   -2.6265 H   0  0  0  0  0  0  0  0  0  0  0  0
    3.2821   -0.7129   -2.8546 H   0  0  0  0  0  0  0  0  0  0  0  0
    4.5947   -1.7113   -3.5432 H   0  0  0  0  0  0  0  0  0  0  0  0
    2.3393   -2.6539   -1.5213 H   0  0  0  0  0  0  0  0  0  0  0  0
    3.5088   -3.5899   -2.4170 H   0  0  0  0  0  0  0  0  0  0  0  0
    2.6802   -4.7860   -0.4293 H   0  0  0  0  0  0  0  0  0  0  0  0
    4.4043   -4.6448   -0.4473 H   0  0  0  0  0  0  0  0  0  0  0  0
    2.4433   -2.9628    1.2400 H   0  0  0  0  0  0  0  0  0  0  0  0
  1  2  1  0
  1 19  1  0
  1 20  1  0
  1 21  1  0
  2 17  1  0
  2  3  1  0
  2 22  1  6
  3  4  1  0
  3 23  1  0
  3 24  1  0
  5  4  1  1
  4 25  1  0
  4 26  1  0
  5 11  1  0
  5 17  1  0
  5  6  1  0
  6  7  1  0
  7 18  1  0
  7  8  1  6
  7  9  1  0
  8 27  1  0
  8 28  1  0
  8 29  1  0
  9 10  1  0
 10 11  1  0
 11 12  1  0
 11 30  1  1
 12 13  1  0
 13 14  1  6
 13 15  1  0
 13 18  1  0
 14 31  1  0
 14 32  1  0
 14 33  1  0
 15 16  1  0
 15 34  1  0
 15 35  1  0
 16 17  1  0
 16 36  1  0
 16 37  1  0
 17 38  1  6
M  END
>  <i_m_ct_stereo_status>  (16) 
1

>  <s_m_source_file>  (16) 
/var/tmp/pbs.5083856.sched01/tmpylm1lan7/55s0z2_fc.sdf

>  <i_m_source_file_index>  (16) 
3

>  <i_lp_mmshare_version>  (16) 
48012

>  <i_f3d_flags>  (16) 
0

>  <s_epik_input>  (16) 
W0NIMl0xW0NIMl1bQ0BASF0oW0NIM10pW0NAQEhdMltDSDJdW0NIMl1bQ0BdKE8zKShbQ0gzXSlPW0NAQF0oTzQpKFtDSDNdKU9PW0NAQEhdM1tDQEBdMTI0

>  <s_epik_cmdline>  (16) 
J2VwaWtfcHl0aG9uJywgJy1waHQnLCAnMi4wJywgJy1waCcsICc3LjAnLCAnLXRuJywgJzgnLCAnLW1hJywgJzIwMCcsICctaW1hZScsICc8aW5maWxlLm1hZT4nLCAnLW9tYWUnLCAnPG91dGZpbGUubWFlPic=

>  <r_lp_tautomer_probability>  (16) 
1

>  <r_epik_Ionization_Penalty>  (16) 
2.63117e-16

>  <r_epik_Ionization_Penalty_Charging>  (16) 
0

>  <r_epik_Ionization_Penalty_Neutral>  (16) 
2.63117e-16

>  <r_epik_State_Penalty>  (16) 
-0

>  <r_epik_Charging_Adjusted_Penalty>  (16) 
0

>  <i_epik_Tot_Q>  (16) 
0

>  <i_epik_Tot_abs_Q>  (16) 
0

>  <s_epik_Chemistry_Notes>  (16) 
This compound contains an acetal/aminal-like group ( X-CH(R)-Y where X, Y are N, S, or O) that may be acid/base labile, releasing an aldehyde.

>  <s_lp_Force_Field>  (16) 
OPLS3e

>  <r_lp_Energy>  (16) 
10.1815

>  <b_lp_Chiralities_Consistent>  (16) 
1

>  <s_lp_Variant>  (16) 
5:0-1

>  <s_i_glide_gridfile>  (16) 
pfpi4k_grid

>  <i_i_glide_lignum>  (16) 
3

>  <i_i_glide_rotatable_bonds>  (16) 
0

>  <r_i_docking_score>  (16) 
-3.1313

>  <r_i_glide_ligand_efficiency>  (16) 
-0.173961

>  <r_i_glide_ligand_efficiency_sa>  (16) 
-0.455907

>  <r_i_glide_ligand_efficiency_ln>  (16) 
-0.804884

>  <r_i_glide_gscore>  (16) 
-3.1313

>  <r_i_glide_lipo>  (16) 
-0.164965

>  <r_i_glide_hbond>  (16) 
-0.0880058

>  <r_i_glide_metal>  (16) 
-0

>  <r_i_glide_rewards>  (16) 
-1.6937

>  <r_i_glide_evdw>  (16) 
-22.215

>  <r_i_glide_ecoul>  (16) 
-0.239741

>  <r_i_glide_erotb>  (16) 
0

>  <r_i_glide_esite>  (16) 
-0.0379099

>  <r_i_glide_emodel>  (16) 
-26.5835

>  <r_i_glide_energy>  (16) 
-22.4548

>  <r_i_glide_einternal>  (16) 
0

>  <r_i_glide_intrahb_reward>  (16) 
-0

>  <i_i_glide_confnum>  (16) 
1

>  <i_i_glide_posenum>  (16) 
6

>  <r_i_glide_eff_state_penalty>  (16) 
0

>  <ligand_id>  (16) 
5

>  <original_smiles>  (16) 
CC1CCC23OC4(C)OOC2OC(C)(CCC13)O4

>  <smiles>  (16) 
[H]C([H])([H])C12OOC3([H])OC(C([H])([H])[H])(O1)C([H])([H])C([H])([H])C1([H])C([H])(C([H])([H])[H])C([H])([H])C([H])([H])C31O2

$$$$
5:0:1
     RDKit          3D

 38 41  0  0  1  0  0  0  0  0999 V2000
    3.0337   -3.3404   -3.8479 C   0  0  0  0  0  0  0  0  0  0  0  0
    3.2054   -2.4024   -2.6477 C   0  0  2  0  0  0  0  0  0  0  0  0
    4.1342   -1.2198   -2.9514 C   0  0  0  0  0  0  0  0  0  0  0  0
    5.2270   -1.2719   -1.8955 C   0  0  0  0  0  0  0  0  0  0  0  0
    4.6468   -2.0376   -0.7095 C   0  0  2  0  0  0  0  0  0  0  0  0
    3.8445   -1.1129    0.0086 O   0  0  0  0  0  0  0  0  0  0  0  0
    4.0029   -1.1202    1.3906 C   0  0  2  0  0  0  0  0  0  0  0  0
    3.1207    0.0179    1.8844 C   0  0  0  0  0  0  0  0  0  0  0  0
    5.3098   -0.8345    1.7946 O   0  0  0  0  0  0  0  0  0  0  0  0
    6.3174   -1.3983    0.7973 O   0  0  0  0  0  0  0  0  0  0  0  0
    5.7651   -2.5630    0.1977 C   0  0  1  0  0  0  0  0  0  0  0  0
    5.3600   -3.5362    1.1409 O   0  0  0  0  0  0  0  0  0  0  0  0
    4.0775   -3.5087    1.6987 C   0  0  2  0  0  0  0  0  0  0  0  0
    4.2585   -4.2303    3.0406 C   0  0  0  0  0  0  0  0  0  0  0  0
    3.1036   -4.3399    0.8182 C   0  0  0  0  0  0  0  0  0  0  0  0
    2.6495   -3.6069   -0.4568 C   0  0  0  0  0  0  0  0  0  0  0  0
    3.7680   -3.0998   -1.3823 C   0  0  1  0  0  0  0  0  0  0  0  0
    3.5067   -2.2656    2.0296 O   0  0  0  0  0  0  0  0  0  0  0  0
    3.9790   -3.7969   -4.1392 H   0  0  0  0  0  0  0  0  0  0  0  0
    2.6325   -2.8061   -4.7097 H   0  0  0  0  0  0  0  0  0  0  0  0
    2.3268   -4.1321   -3.6114 H   0  0  0  0  0  0  0  0  0  0  0  0
    2.2294   -1.9806   -2.4066 H   0  0  0  0  0  0  0  0  0  0  0  0
    4.5526   -1.2460   -3.9576 H   0  0  0  0  0  0  0  0  0  0  0  0
    3.5794   -0.2841   -2.8551 H   0  0  0  0  0  0  0  0  0  0  0  0
    6.0822   -1.8238   -2.2983 H   0  0  0  0  0  0  0  0  0  0  0  0
    5.5635   -0.2768   -1.6095 H   0  0  0  0  0  0  0  0  0  0  0  0
    3.2221    0.1188    2.9692 H   0  0  0  0  0  0  0  0  0  0  0  0
    2.0820   -0.2044    1.6400 H   0  0  0  0  0  0  0  0  0  0  0  0
    3.4012    0.9593    1.4036 H   0  0  0  0  0  0  0  0  0  0  0  0
    6.5505   -3.0305   -0.3922 H   0  0  0  0  0  0  0  0  0  0  0  0
    4.9771   -3.6808    3.6479 H   0  0  0  0  0  0  0  0  0  0  0  0
    4.6377   -5.2418    2.8801 H   0  0  0  0  0  0  0  0  0  0  0  0
    3.3087   -4.2822    3.5793 H   0  0  0  0  0  0  0  0  0  0  0  0
    3.5565   -5.2987    0.5764 H   0  0  0  0  0  0  0  0  0  0  0  0
    2.2150   -4.5655    1.4180 H   0  0  0  0  0  0  0  0  0  0  0  0
    2.0337   -4.2890   -1.0370 H   0  0  0  0  0  0  0  0  0  0  0  0
    1.9955   -2.7798   -0.1756 H   0  0  0  0  0  0  0  0  0  0  0  0
    4.3993   -3.9380   -1.6963 H   0  0  0  0  0  0  0  0  0  0  0  0
  1  2  1  0
  1 19  1  0
  1 20  1  0
  1 21  1  0
  2 17  1  0
  2  3  1  0
  2 22  1  1
  3  4  1  0
  3 23  1  0
  3 24  1  0
  5  4  1  6
  4 25  1  0
  4 26  1  0
  5 11  1  0
  5 17  1  0
  5  6  1  0
  6  7  1  0
  7 18  1  0
  7  8  1  1
  7  9  1  0
  8 27  1  0
  8 28  1  0
  8 29  1  0
  9 10  1  0
 10 11  1  0
 11 12  1  0
 11 30  1  6
 12 13  1  0
 13 14  1  1
 13 15  1  0
 13 18  1  0
 14 31  1  0
 14 32  1  0
 14 33  1  0
 15 16  1  0
 15 34  1  0
 15 35  1  0
 16 17  1  0
 16 36  1  0
 16 37  1  0
 17 38  1  6
M  END
>  <i_m_ct_stereo_status>  (17) 
1

>  <s_m_source_file>  (17) 
/var/tmp/pbs.5083856.sched01/tmpylm1lan7/55s0z2_fc.sdf

>  <i_m_source_file_index>  (17) 
3

>  <i_lp_mmshare_version>  (17) 
48012

>  <i_f3d_flags>  (17) 
0

>  <s_epik_input>  (17) 
W0NIMl0xW0NIMl1bQ0BASF0oW0NIM10pW0NAQEhdMltDSDJdW0NIMl1bQ0BdKE8zKShbQ0gzXSlPW0NAQF0oTzQpKFtDSDNdKU9PW0NAQEhdM1tDQEBdMTI0

>  <s_epik_cmdline>  (17) 
J2VwaWtfcHl0aG9uJywgJy1waHQnLCAnMi4wJywgJy1waCcsICc3LjAnLCAnLXRuJywgJzgnLCAnLW1hJywgJzIwMCcsICctaW1hZScsICc8aW5maWxlLm1hZT4nLCAnLW9tYWUnLCAnPG91dGZpbGUubWFlPic=

>  <r_lp_tautomer_probability>  (17) 
1

>  <r_epik_Ionization_Penalty>  (17) 
2.63117e-16

>  <r_epik_Ionization_Penalty_Charging>  (17) 
0

>  <r_epik_Ionization_Penalty_Neutral>  (17) 
2.63117e-16

>  <r_epik_State_Penalty>  (17) 
-0

>  <r_epik_Charging_Adjusted_Penalty>  (17) 
0

>  <i_epik_Tot_Q>  (17) 
0

>  <i_epik_Tot_abs_Q>  (17) 
0

>  <s_epik_Chemistry_Notes>  (17) 
This compound contains an acetal/aminal-like group ( X-CH(R)-Y where X, Y are N, S, or O) that may be acid/base labile, releasing an aldehyde.

>  <s_lp_Force_Field>  (17) 
OPLS3e

>  <r_lp_Energy>  (17) 
10.1815

>  <b_lp_Chiralities_Consistent>  (17) 
1

>  <s_lp_Variant>  (17) 
5:0-1

>  <s_i_glide_gridfile>  (17) 
pfpi4k_grid

>  <i_i_glide_lignum>  (17) 
3

>  <i_i_glide_rotatable_bonds>  (17) 
0

>  <r_i_docking_score>  (17) 
-3.06734

>  <r_i_glide_ligand_efficiency>  (17) 
-0.170408

>  <r_i_glide_ligand_efficiency_sa>  (17) 
-0.446595

>  <r_i_glide_ligand_efficiency_ln>  (17) 
-0.788445

>  <r_i_glide_gscore>  (17) 
-3.06734

>  <r_i_glide_lipo>  (17) 
-0.164844

>  <r_i_glide_hbond>  (17) 
0

>  <r_i_glide_metal>  (17) 
-0

>  <r_i_glide_rewards>  (17) 
-1.71748

>  <r_i_glide_evdw>  (17) 
-23.8939

>  <r_i_glide_ecoul>  (17) 
0.0754819

>  <r_i_glide_erotb>  (17) 
0

>  <r_i_glide_esite>  (17) 
-0.00164169

>  <r_i_glide_emodel>  (17) 
-27.9114

>  <r_i_glide_energy>  (17) 
-23.8184

>  <r_i_glide_einternal>  (17) 
0

>  <r_i_glide_intrahb_reward>  (17) 
-0

>  <i_i_glide_confnum>  (17) 
1

>  <i_i_glide_posenum>  (17) 
17

>  <r_i_glide_eff_state_penalty>  (17) 
0

>  <ligand_id>  (17) 
5

>  <original_smiles>  (17) 
CC1CCC23OC4(C)OOC2OC(C)(CCC13)O4

>  <smiles>  (17) 
[H]C([H])([H])C12OOC3([H])OC(C([H])([H])[H])(O1)C([H])([H])C([H])([H])C1([H])C([H])(C([H])([H])[H])C([H])([H])C([H])([H])C31O2

$$$$
5:0:2
     RDKit          3D

 38 41  0  0  1  0  0  0  0  0999 V2000
    3.0600   -2.9211   -3.8314 C   0  0  0  0  0  0  0  0  0  0  0  0
    3.4328   -2.3365   -2.4649 C   0  0  2  0  0  0  0  0  0  0  0  0
    4.6070   -1.3505   -2.5324 C   0  0  0  0  0  0  0  0  0  0  0  0
    5.6524   -1.8756   -1.5576 C   0  0  0  0  0  0  0  0  0  0  0  0
    4.8921   -2.7451   -0.5592 C   0  0  2  0  0  0  0  0  0  0  0  0
    4.3031   -1.8546    0.3788 O   0  0  0  0  0  0  0  0  0  0  0  0
    4.4398   -2.2118    1.7154 C   0  0  2  0  0  0  0  0  0  0  0  0
    3.8334   -1.0494    2.4903 C   0  0  0  0  0  0  0  0  0  0  0  0
    5.7705   -2.3269    2.1181 O   0  0  0  0  0  0  0  0  0  0  0  0
    6.6357   -2.8637    0.9855 O   0  0  0  0  0  0  0  0  0  0  0  0
    5.8448   -3.7031    0.1605 C   0  0  1  0  0  0  0  0  0  0  0  0
    5.2140   -4.7508    0.8749 O   0  0  0  0  0  0  0  0  0  0  0  0
    3.9629   -4.5634    1.4787 C   0  0  2  0  0  0  0  0  0  0  0  0
    3.9606   -5.5931    2.6153 C   0  0  0  0  0  0  0  0  0  0  0  0
    2.8391   -4.9298    0.4794 C   0  0  0  0  0  0  0  0  0  0  0  0
    2.5838   -3.8403   -0.5841 C   0  0  0  0  0  0  0  0  0  0  0  0
    3.8036   -3.4058   -1.4125 C   0  0  1  0  0  0  0  0  0  0  0  0
    3.6871   -3.3312    2.1002 O   0  0  0  0  0  0  0  0  0  0  0  0
    3.8846   -3.4847   -4.2666 H   0  0  0  0  0  0  0  0  0  0  0  0
    2.7962   -2.1177   -4.5197 H   0  0  0  0  0  0  0  0  0  0  0  0
    2.2014   -3.5841   -3.7483 H   0  0  0  0  0  0  0  0  0  0  0  0
    2.5821   -1.7673   -2.0995 H   0  0  0  0  0  0  0  0  0  0  0  0
    5.0075   -1.2428   -3.5403 H   0  0  0  0  0  0  0  0  0  0  0  0
    4.2695   -0.3623   -2.2124 H   0  0  0  0  0  0  0  0  0  0  0  0
    6.3728   -2.4865   -2.1102 H   0  0  0  0  0  0  0  0  0  0  0  0
    6.2031   -1.0802   -1.0563 H   0  0  0  0  0  0  0  0  0  0  0  0
    3.9454   -1.2247    3.5624 H   0  0  0  0  0  0  0  0  0  0  0  0
    2.7737   -0.9737    2.2517 H   0  0  0  0  0  0  0  0  0  0  0  0
    4.3257   -0.1085    2.2201 H   0  0  0  0  0  0  0  0  0  0  0  0
    6.5092   -4.1890   -0.5496 H   0  0  0  0  0  0  0  0  0  0  0  0
    4.7805   -5.3722    3.3000 H   0  0  0  0  0  0  0  0  0  0  0  0
    4.1042   -6.5984    2.2154 H   0  0  0  0  0  0  0  0  0  0  0  0
    3.0211   -5.5527    3.1687 H   0  0  0  0  0  0  0  0  0  0  0  0
    3.0697   -5.8840    0.0080 H   0  0  0  0  0  0  0  0  0  0  0  0
    1.9168   -5.0805    1.0444 H   0  0  0  0  0  0  0  0  0  0  0  0
    1.8384   -4.2195   -1.2790 H   0  0  0  0  0  0  0  0  0  0  0  0
    2.1305   -2.9710   -0.1079 H   0  0  0  0  0  0  0  0  0  0  0  0
    4.2337   -4.2686   -1.9271 H   0  0  0  0  0  0  0  0  0  0  0  0
  1  2  1  0
  1 19  1  0
  1 20  1  0
  1 21  1  0
  2 17  1  0
  2  3  1  0
  2 22  1  1
  3  4  1  0
  3 23  1  0
  3 24  1  0
  5  4  1  6
  4 25  1  0
  4 26  1  0
  5 11  1  0
  5 17  1  0
  5  6  1  0
  6  7  1  0
  7 18  1  0
  7  8  1  1
  7  9  1  0
  8 27  1  0
  8 28  1  0
  8 29  1  0
  9 10  1  0
 10 11  1  0
 11 12  1  0
 11 30  1  6
 12 13  1  0
 13 14  1  1
 13 15  1  0
 13 18  1  0
 14 31  1  0
 14 32  1  0
 14 33  1  0
 15 16  1  0
 15 34  1  0
 15 35  1  0
 16 17  1  0
 16 36  1  0
 16 37  1  0
 17 38  1  6
M  END
>  <i_m_ct_stereo_status>  (18) 
1

>  <s_m_source_file>  (18) 
/var/tmp/pbs.5083856.sched01/tmpylm1lan7/55s0z2_fc.sdf

>  <i_m_source_file_index>  (18) 
3

>  <i_lp_mmshare_version>  (18) 
48012

>  <i_f3d_flags>  (18) 
0

>  <s_epik_input>  (18) 
W0NIMl0xW0NIMl1bQ0BASF0oW0NIM10pW0NAQEhdMltDSDJdW0NIMl1bQ0BdKE8zKShbQ0gzXSlPW0NAQF0oTzQpKFtDSDNdKU9PW0NAQEhdM1tDQEBdMTI0

>  <s_epik_cmdline>  (18) 
J2VwaWtfcHl0aG9uJywgJy1waHQnLCAnMi4wJywgJy1waCcsICc3LjAnLCAnLXRuJywgJzgnLCAnLW1hJywgJzIwMCcsICctaW1hZScsICc8aW5maWxlLm1hZT4nLCAnLW9tYWUnLCAnPG91dGZpbGUubWFlPic=

>  <r_lp_tautomer_probability>  (18) 
1

>  <r_epik_Ionization_Penalty>  (18) 
2.63117e-16

>  <r_epik_Ionization_Penalty_Charging>  (18) 
0

>  <r_epik_Ionization_Penalty_Neutral>  (18) 
2.63117e-16

>  <r_epik_State_Penalty>  (18) 
-0

>  <r_epik_Charging_Adjusted_Penalty>  (18) 
0

>  <i_epik_Tot_Q>  (18) 
0

>  <i_epik_Tot_abs_Q>  (18) 
0

>  <s_epik_Chemistry_Notes>  (18) 
This compound contains an acetal/aminal-like group ( X-CH(R)-Y where X, Y are N, S, or O) that may be acid/base labile, releasing an aldehyde.

>  <s_lp_Force_Field>  (18) 
OPLS3e

>  <r_lp_Energy>  (18) 
10.1815

>  <b_lp_Chiralities_Consistent>  (18) 
1

>  <s_lp_Variant>  (18) 
5:0-1

>  <s_i_glide_gridfile>  (18) 
pfpi4k_grid

>  <i_i_glide_lignum>  (18) 
3

>  <i_i_glide_rotatable_bonds>  (18) 
0

>  <r_i_docking_score>  (18) 
-3.05534

>  <r_i_glide_ligand_efficiency>  (18) 
-0.169741

>  <r_i_glide_ligand_efficiency_sa>  (18) 
-0.444847

>  <r_i_glide_ligand_efficiency_ln>  (18) 
-0.785359

>  <r_i_glide_gscore>  (18) 
-3.05534

>  <r_i_glide_lipo>  (18) 
-0.154784

>  <r_i_glide_hbond>  (18) 
0

>  <r_i_glide_metal>  (18) 
-0

>  <r_i_glide_rewards>  (18) 
-1.79625

>  <r_i_glide_evdw>  (18) 
-22.2504

>  <r_i_glide_ecoul>  (18) 
0.0547933

>  <r_i_glide_erotb>  (18) 
0

>  <r_i_glide_esite>  (18) 
0

>  <r_i_glide_emodel>  (18) 
-26.2702

>  <r_i_glide_energy>  (18) 
-22.1956

>  <r_i_glide_einternal>  (18) 
0

>  <r_i_glide_intrahb_reward>  (18) 
-0

>  <i_i_glide_confnum>  (18) 
2

>  <i_i_glide_posenum>  (18) 
34

>  <r_i_glide_eff_state_penalty>  (18) 
0

>  <ligand_id>  (18) 
5

>  <original_smiles>  (18) 
CC1CCC23OC4(C)OOC2OC(C)(CCC13)O4

>  <smiles>  (18) 
[H]C([H])([H])C12OOC3([H])OC(C([H])([H])[H])(O1)C([H])([H])C([H])([H])C1([H])C([H])(C([H])([H])[H])C([H])([H])C([H])([H])C31O2

$$$$
6:0:0
     RDKit          3D

 42 45  0  0  1  0  0  0  0  0999 V2000
    3.4081    0.0117   -5.0879 Br  0  0  0  0  0  0  0  0  0  0  0  0
    3.5875   -1.0407   -3.5129 C   0  0  0  0  0  0  0  0  0  0  0  0
    3.0908   -2.3545   -3.3980 C   0  0  0  0  0  0  0  0  0  0  0  0
    3.2291   -3.0612   -2.2585 N   0  0  0  0  0  0  0  0  0  0  0  0
    3.8232   -2.4610   -1.2306 C   0  0  0  0  0  0  0  0  0  0  0  0
    3.9367   -3.2240   -0.1187 O   0  0  0  0  0  0  0  0  0  0  0  0
    3.9851   -2.5901    1.1574 C   0  0  0  0  0  0  0  0  0  0  0  0
    2.5439   -2.3838    1.6610 C   0  0  0  0  0  0  0  0  0  0  0  0
    2.4309   -1.5225    2.9321 C   0  0  0  0  0  0  0  0  0  0  0  0
    0.9775   -1.5241    3.4389 C   0  0  0  0  0  0  0  0  0  0  0  0
    0.7712   -0.5864    4.6318 C   0  0  0  0  0  0  0  0  0  0  0  0
    1.2780    0.7517    4.3399 N   0  0  0  0  0  0  0  0  0  0  0  0
    0.4916    1.9170    4.4750 C   0  0  0  0  0  0  0  0  0  0  0  0
    0.8159    2.9842    3.7071 N   0  0  0  0  0  0  0  0  0  0  0  0
    0.1123    4.1126    3.7783 C   0  0  0  0  0  0  0  0  0  0  0  0
   -0.9318    4.3832    4.5667 N   0  0  0  0  0  0  0  0  0  0  0  0
   -1.2562    3.3175    5.3576 C   0  0  0  0  0  0  0  0  0  0  0  0
   -2.5868    3.3390    6.5193 S   0  0  0  0  0  0  0  0  0  0  0  0
   -2.1509    1.7036    6.9567 C   0  0  0  0  0  0  0  0  0  0  0  0
   -1.1184    1.1430    6.3144 N   0  0  0  0  0  0  0  0  0  0  0  0
   -0.6036    2.0525    5.3839 C   0  0  0  0  0  0  0  0  0  0  0  0
    2.6646    0.8365    3.8819 C   0  0  0  0  0  0  0  0  0  0  0  0
    2.8823   -0.0677    2.6652 C   0  0  0  0  0  0  0  0  0  0  0  0
    4.3403   -1.2278   -1.2280 N   0  0  0  0  0  0  0  0  0  0  0  0
    4.2176   -0.5265   -2.3711 C   0  0  0  0  0  0  0  0  0  0  0  0
    2.5910   -2.8484   -4.2195 H   0  0  0  0  0  0  0  0  0  0  0  0
    4.5059   -3.2509    1.8460 H   0  0  0  0  0  0  0  0  0  0  0  0
    4.5764   -1.6758    1.1652 H   0  0  0  0  0  0  0  0  0  0  0  0
    1.9479   -1.9129    0.8789 H   0  0  0  0  0  0  0  0  0  0  0  0
    2.0897   -3.3639    1.8270 H   0  0  0  0  0  0  0  0  0  0  0  0
    3.0562   -1.9509    3.7167 H   0  0  0  0  0  0  0  0  0  0  0  0
    0.3128   -1.2012    2.6387 H   0  0  0  0  0  0  0  0  0  0  0  0
    0.6619   -2.5308    3.7170 H   0  0  0  0  0  0  0  0  0  0  0  0
   -0.2979   -0.6038    4.8299 H   0  0  0  0  0  0  0  0  0  0  0  0
    1.2812   -0.9592    5.5198 H   0  0  0  0  0  0  0  0  0  0  0  0
    0.4436    4.9191    3.1406 H   0  0  0  0  0  0  0  0  0  0  0  0
   -2.6791    1.1384    7.7061 H   0  0  0  0  0  0  0  0  0  0  0  0
    2.9751    1.8483    3.6240 H   0  0  0  0  0  0  0  0  0  0  0  0
    3.3209    0.5194    4.6937 H   0  0  0  0  0  0  0  0  0  0  0  0
    3.9402   -0.0212    2.4102 H   0  0  0  0  0  0  0  0  0  0  0  0
    2.3355    0.3322    1.8093 H   0  0  0  0  0  0  0  0  0  0  0  0
    4.6178    0.4714   -2.3838 H   0  0  0  0  0  0  0  0  0  0  0  0
  1  2  1  0
  2 25  2  0
  2  3  1  0
  3  4  2  0
  3 26  1  0
  4  5  1  0
  5  6  1  0
  5 24  2  0
  6  7  1  0
  7  8  1  0
  7 27  1  0
  7 28  1  0
  8  9  1  0
  8 29  1  0
  8 30  1  0
  9 23  1  0
  9 10  1  0
  9 31  1  0
 10 11  1  0
 10 32  1  0
 10 33  1  0
 11 12  1  0
 11 34  1  0
 11 35  1  0
 12 13  1  0
 12 22  1  0
 13 21  1  0
 13 14  2  0
 14 15  1  0
 15 16  2  0
 15 36  1  0
 16 17  1  0
 17 21  2  0
 17 18  1  0
 18 19  1  0
 19 20  2  0
 19 37  1  0
 20 21  1  0
 22 23  1  0
 22 38  1  0
 22 39  1  0
 23 40  1  0
 23 41  1  0
 24 25  1  0
 25 42  1  0
M  END
>  <i_m_ct_stereo_status>  (19) 
1

>  <s_m_source_file>  (19) 
/var/tmp/pbs.5083856.sched01/tmpylm1lan7/55s0z2_fc.sdf

>  <i_m_source_file_index>  (19) 
4

>  <i_lp_mmshare_version>  (19) 
48012

>  <i_f3d_flags>  (19) 
0

>  <s_epik_input>  (19) 
QnJjMVtjSF1uYyhuW2NIXTEpT1tDSDJdW0NIMl1bQ0hdMltDSDJdW0NIMl1OKFtDSDJdW0NIMl0yKWMobltjSF1uMyljKGMzNCluW2NIXXM0

>  <s_epik_cmdline>  (19) 
J2VwaWtfcHl0aG9uJywgJy1waHQnLCAnMi4wJywgJy1waCcsICc3LjAnLCAnLXRuJywgJzgnLCAnLW1hJywgJzIwMCcsICctaW1hZScsICc8aW5maWxlLm1hZT4nLCAnLW9tYWUnLCAnPG91dGZpbGUubWFlPic=

>  <r_lp_tautomer_probability>  (19) 
1

>  <r_epik_Ionization_Penalty>  (19) 
0.00142909

>  <r_epik_Ionization_Penalty_Charging>  (19) 
0

>  <r_epik_Ionization_Penalty_Neutral>  (19) 
0.00142909

>  <r_epik_State_Penalty>  (19) 
0.000847618

>  <r_epik_Charging_Adjusted_Penalty>  (19) 
0.000847618

>  <i_epik_Tot_Q>  (19) 
0

>  <i_epik_Tot_abs_Q>  (19) 
0

>  <s_lp_Force_Field>  (19) 
OPLS3e

>  <r_lp_Energy>  (19) 
45.983

>  <b_lp_Chiralities_Consistent>  (19) 
1

>  <s_lp_Variant>  (19) 
6:0-1

>  <s_i_glide_gridfile>  (19) 
pfpi4k_grid

>  <i_i_glide_lignum>  (19) 
4

>  <i_i_glide_rotatable_bonds>  (19) 
5

>  <r_i_docking_score>  (19) 
-2.66851

>  <r_i_glide_ligand_efficiency>  (19) 
-0.10674

>  <r_i_glide_ligand_efficiency_sa>  (19) 
-0.31211

>  <r_i_glide_ligand_efficiency_ln>  (19) 
-0.632516

>  <r_i_glide_gscore>  (19) 
-2.66851

>  <r_i_glide_lipo>  (19) 
-0.692256

>  <r_i_glide_hbond>  (19) 
0

>  <r_i_glide_metal>  (19) 
-0

>  <r_i_glide_rewards>  (19) 
-0.536483

>  <r_i_glide_evdw>  (19) 
-32.7592

>  <r_i_glide_ecoul>  (19) 
-0.741579

>  <r_i_glide_erotb>  (19) 
0.446188

>  <r_i_glide_esite>  (19) 
-0.136755

>  <r_i_glide_emodel>  (19) 
-37.6928

>  <r_i_glide_energy>  (19) 
-33.5008

>  <r_i_glide_einternal>  (19) 
2.52478

>  <r_i_glide_intrahb_reward>  (19) 
-0

>  <i_i_glide_confnum>  (19) 
2

>  <i_i_glide_posenum>  (19) 
32

>  <r_i_glide_eff_state_penalty>  (19) 
0

>  <ligand_id>  (19) 
6

>  <original_smiles>  (19) 
Brc1cnc(OCCC2CCN(c3ncnc4scnc34)CC2)nc1

>  <smiles>  (19) 
[H]c1nc(N2C([H])([H])C([H])([H])C([H])(C([H])([H])C([H])([H])Oc3nc([H])c(Br)c([H])n3)C([H])([H])C2([H])[H])c2nc([H])sc2n1

$$$$
6:0:1
     RDKit          3D

 42 45  0  0  1  0  0  0  0  0999 V2000
    2.6252   -3.0567   -3.9191 Br  0  0  0  0  0  0  0  0  0  0  0  0
    3.9819   -2.7314   -2.6442 C   0  0  0  0  0  0  0  0  0  0  0  0
    3.8182   -1.7309   -1.6769 C   0  0  0  0  0  0  0  0  0  0  0  0
    4.7926   -1.4613   -0.7957 N   0  0  0  0  0  0  0  0  0  0  0  0
    5.8924   -2.2136   -0.8343 C   0  0  0  0  0  0  0  0  0  0  0  0
    6.8595   -1.9969    0.0904 O   0  0  0  0  0  0  0  0  0  0  0  0
    6.5595   -1.0998    1.1601 C   0  0  0  0  0  0  0  0  0  0  0  0
    5.5783   -1.7407    2.1687 C   0  0  0  0  0  0  0  0  0  0  0  0
    4.8453   -0.7275    3.0652 C   0  0  0  0  0  0  0  0  0  0  0  0
    4.1653   -1.4777    4.2286 C   0  0  0  0  0  0  0  0  0  0  0  0
    3.3063   -0.5551    5.1060 C   0  0  0  0  0  0  0  0  0  0  0  0
    2.3840    0.2262    4.2871 N   0  0  0  0  0  0  0  0  0  0  0  0
    0.9907    0.2112    4.5221 C   0  0  0  0  0  0  0  0  0  0  0  0
    0.4548   -0.9215    5.0408 N   0  0  0  0  0  0  0  0  0  0  0  0
   -0.8533   -0.9865    5.2781 C   0  0  0  0  0  0  0  0  0  0  0  0
   -1.7862   -0.0544    5.0938 N   0  0  0  0  0  0  0  0  0  0  0  0
   -1.2511    1.0937    4.5658 C   0  0  0  0  0  0  0  0  0  0  0  0
   -2.1915    2.5461    4.1856 S   0  0  0  0  0  0  0  0  0  0  0  0
   -0.6910    3.3045    3.6640 C   0  0  0  0  0  0  0  0  0  0  0  0
    0.4281    2.5942    3.7892 N   0  0  0  0  0  0  0  0  0  0  0  0
    0.1252    1.3102    4.2650 C   0  0  0  0  0  0  0  0  0  0  0  0
    2.9578    0.9801    3.1747 C   0  0  0  0  0  0  0  0  0  0  0  0
    3.7776    0.0579    2.2683 C   0  0  0  0  0  0  0  0  0  0  0  0
    6.1549   -3.1751   -1.7134 N   0  0  0  0  0  0  0  0  0  0  0  0
    5.1944   -3.4471   -2.6205 C   0  0  0  0  0  0  0  0  0  0  0  0
    2.9261   -1.1351   -1.6092 H   0  0  0  0  0  0  0  0  0  0  0  0
    7.4825   -0.8615    1.6745 H   0  0  0  0  0  0  0  0  0  0  0  0
    6.2162   -0.1416    0.7663 H   0  0  0  0  0  0  0  0  0  0  0  0
    4.8091   -2.3217    1.6602 H   0  0  0  0  0  0  0  0  0  0  0  0
    6.1260   -2.4747    2.7621 H   0  0  0  0  0  0  0  0  0  0  0  0
    5.5639   -0.0171    3.4798 H   0  0  0  0  0  0  0  0  0  0  0  0
    3.5341   -2.2731    3.8300 H   0  0  0  0  0  0  0  0  0  0  0  0
    4.9236   -1.9634    4.8436 H   0  0  0  0  0  0  0  0  0  0  0  0
    2.8018   -1.1470    5.8717 H   0  0  0  0  0  0  0  0  0  0  0  0
    3.9487    0.1446    5.6389 H   0  0  0  0  0  0  0  0  0  0  0  0
   -1.2138   -1.9189    5.6852 H   0  0  0  0  0  0  0  0  0  0  0  0
   -0.6275    4.2999    3.2455 H   0  0  0  0  0  0  0  0  0  0  0  0
    2.1964    1.4335    2.5455 H   0  0  0  0  0  0  0  0  0  0  0  0
    3.5770    1.7857    3.5734 H   0  0  0  0  0  0  0  0  0  0  0  0
    4.2163    0.6574    1.4719 H   0  0  0  0  0  0  0  0  0  0  0  0
    3.1009   -0.6331    1.7637 H   0  0  0  0  0  0  0  0  0  0  0  0
    5.4103   -4.2260   -3.3401 H   0  0  0  0  0  0  0  0  0  0  0  0
  1  2  1  0
  2 25  2  0
  2  3  1  0
  3  4  2  0
  3 26  1  0
  4  5  1  0
  5  6  1  0
  5 24  2  0
  6  7  1  0
  7  8  1  0
  7 27  1  0
  7 28  1  0
  8  9  1  0
  8 29  1  0
  8 30  1  0
  9 23  1  0
  9 10  1  0
  9 31  1  0
 10 11  1  0
 10 32  1  0
 10 33  1  0
 11 12  1  0
 11 34  1  0
 11 35  1  0
 12 13  1  0
 12 22  1  0
 13 21  1  0
 13 14  2  0
 14 15  1  0
 15 16  2  0
 15 36  1  0
 16 17  1  0
 17 21  2  0
 17 18  1  0
 18 19  1  0
 19 20  2  0
 19 37  1  0
 20 21  1  0
 22 23  1  0
 22 38  1  0
 22 39  1  0
 23 40  1  0
 23 41  1  0
 24 25  1  0
 25 42  1  0
M  END
>  <i_m_ct_stereo_status>  (20) 
1

>  <s_m_source_file>  (20) 
/var/tmp/pbs.5083856.sched01/tmpylm1lan7/55s0z2_fc.sdf

>  <i_m_source_file_index>  (20) 
4

>  <i_lp_mmshare_version>  (20) 
48012

>  <i_f3d_flags>  (20) 
0

>  <s_epik_input>  (20) 
QnJjMVtjSF1uYyhuW2NIXTEpT1tDSDJdW0NIMl1bQ0hdMltDSDJdW0NIMl1OKFtDSDJdW0NIMl0yKWMobltjSF1uMyljKGMzNCluW2NIXXM0

>  <s_epik_cmdline>  (20) 
J2VwaWtfcHl0aG9uJywgJy1waHQnLCAnMi4wJywgJy1waCcsICc3LjAnLCAnLXRuJywgJzgnLCAnLW1hJywgJzIwMCcsICctaW1hZScsICc8aW5maWxlLm1hZT4nLCAnLW9tYWUnLCAnPG91dGZpbGUubWFlPic=

>  <r_lp_tautomer_probability>  (20) 
1

>  <r_epik_Ionization_Penalty>  (20) 
0.00142909

>  <r_epik_Ionization_Penalty_Charging>  (20) 
0

>  <r_epik_Ionization_Penalty_Neutral>  (20) 
0.00142909

>  <r_epik_State_Penalty>  (20) 
0.000847618

>  <r_epik_Charging_Adjusted_Penalty>  (20) 
0.000847618

>  <i_epik_Tot_Q>  (20) 
0

>  <i_epik_Tot_abs_Q>  (20) 
0

>  <s_lp_Force_Field>  (20) 
OPLS3e

>  <r_lp_Energy>  (20) 
45.983

>  <b_lp_Chiralities_Consistent>  (20) 
1

>  <s_lp_Variant>  (20) 
6:0-1

>  <s_i_glide_gridfile>  (20) 
pfpi4k_grid

>  <i_i_glide_lignum>  (20) 
4

>  <i_i_glide_rotatable_bonds>  (20) 
5

>  <r_i_docking_score>  (20) 
-2.61007

>  <r_i_glide_ligand_efficiency>  (20) 
-0.104403

>  <r_i_glide_ligand_efficiency_sa>  (20) 
-0.305276

>  <r_i_glide_ligand_efficiency_ln>  (20) 
-0.618665

>  <r_i_glide_gscore>  (20) 
-2.61007

>  <r_i_glide_lipo>  (20) 
-0.59411

>  <r_i_glide_hbond>  (20) 
-0.00449596

>  <r_i_glide_metal>  (20) 
-0

>  <r_i_glide_rewards>  (20) 
-0.536483

>  <r_i_glide_evdw>  (20) 
-34.0233

>  <r_i_glide_ecoul>  (20) 
-1.03233

>  <r_i_glide_erotb>  (20) 
0.446188

>  <r_i_glide_esite>  (20) 
-0.0651534

>  <r_i_glide_emodel>  (20) 
-39.1437

>  <r_i_glide_energy>  (20) 
-35.0557

>  <r_i_glide_einternal>  (20) 
2.73077

>  <r_i_glide_intrahb_reward>  (20) 
-0

>  <i_i_glide_confnum>  (20) 
2

>  <i_i_glide_posenum>  (20) 
9

>  <r_i_glide_eff_state_penalty>  (20) 
0

>  <ligand_id>  (20) 
6

>  <original_smiles>  (20) 
Brc1cnc(OCCC2CCN(c3ncnc4scnc34)CC2)nc1

>  <smiles>  (20) 
[H]c1nc(N2C([H])([H])C([H])([H])C([H])(C([H])([H])C([H])([H])Oc3nc([H])c(Br)c([H])n3)C([H])([H])C2([H])[H])c2nc([H])sc2n1

$$$$
6:0:2
     RDKit          3D

 42 45  0  0  1  0  0  0  0  0999 V2000
    3.3630   -3.0496   -3.9151 Br  0  0  0  0  0  0  0  0  0  0  0  0
    4.0985   -2.6574   -2.2126 C   0  0  0  0  0  0  0  0  0  0  0  0
    4.9614   -3.5565   -1.5599 C   0  0  0  0  0  0  0  0  0  0  0  0
    5.5086   -3.2692   -0.3606 N   0  0  0  0  0  0  0  0  0  0  0  0
    5.1786   -2.1021    0.1932 C   0  0  0  0  0  0  0  0  0  0  0  0
    5.7753   -1.8600    1.3863 O   0  0  0  0  0  0  0  0  0  0  0  0
    5.4159   -0.6945    2.1245 C   0  0  0  0  0  0  0  0  0  0  0  0
    4.1324   -0.9498    2.9333 C   0  0  0  0  0  0  0  0  0  0  0  0
    3.5614    0.3131    3.6067 C   0  0  0  0  0  0  0  0  0  0  0  0
    2.6641   -0.0816    4.7917 C   0  0  0  0  0  0  0  0  0  0  0  0
    1.9673    1.1267    5.4278 C   0  0  0  0  0  0  0  0  0  0  0  0
    1.2713    1.9152    4.4149 N   0  0  0  0  0  0  0  0  0  0  0  0
   -0.0972    2.2393    4.5170 C   0  0  0  0  0  0  0  0  0  0  0  0
   -0.7800    2.4042    3.3597 N   0  0  0  0  0  0  0  0  0  0  0  0
   -2.0676    2.7433    3.3785 C   0  0  0  0  0  0  0  0  0  0  0  0
   -2.8460    2.9532    4.4393 N   0  0  0  0  0  0  0  0  0  0  0  0
   -2.1778    2.7672    5.6139 C   0  0  0  0  0  0  0  0  0  0  0  0
   -2.9303    2.9420    7.2066 S   0  0  0  0  0  0  0  0  0  0  0  0
   -1.3653    2.5442    7.9075 C   0  0  0  0  0  0  0  0  0  0  0  0
   -0.3575    2.3029    7.0651 N   0  0  0  0  0  0  0  0  0  0  0  0
   -0.8044    2.4078    5.7462 C   0  0  0  0  0  0  0  0  0  0  0  0
    2.0661    2.3573    3.2661 C   0  0  0  0  0  0  0  0  0  0  0  0
    2.7545    1.1583    2.5951 C   0  0  0  0  0  0  0  0  0  0  0  0
    4.3650   -1.1819   -0.3387 N   0  0  0  0  0  0  0  0  0  0  0  0
    3.8125   -1.4584   -1.5352 C   0  0  0  0  0  0  0  0  0  0  0  0
    5.2324   -4.5016   -2.0048 H   0  0  0  0  0  0  0  0  0  0  0  0
    6.2276   -0.4766    2.8151 H   0  0  0  0  0  0  0  0  0  0  0  0
    5.3392    0.1847    1.4880 H   0  0  0  0  0  0  0  0  0  0  0  0
    3.3625   -1.3800    2.2914 H   0  0  0  0  0  0  0  0  0  0  0  0
    4.3480   -1.7145    3.6826 H   0  0  0  0  0  0  0  0  0  0  0  0
    4.3804    0.9211    3.9993 H   0  0  0  0  0  0  0  0  0  0  0  0
    1.9062   -0.7888    4.4551 H   0  0  0  0  0  0  0  0  0  0  0  0
    3.2492   -0.5961    5.5552 H   0  0  0  0  0  0  0  0  0  0  0  0
    1.2923    0.7288    6.1843 H   0  0  0  0  0  0  0  0  0  0  0  0
    2.6865    1.7681    5.9374 H   0  0  0  0  0  0  0  0  0  0  0  0
   -2.5416    2.8776    2.4195 H   0  0  0  0  0  0  0  0  0  0  0  0
   -1.1822    2.4883    8.9708 H   0  0  0  0  0  0  0  0  0  0  0  0
    1.4757    2.8964    2.5247 H   0  0  0  0  0  0  0  0  0  0  0  0
    2.8202    3.0630    3.6172 H   0  0  0  0  0  0  0  0  0  0  0  0
    3.4026    1.5065    1.7920 H   0  0  0  0  0  0  0  0  0  0  0  0
    1.9928    0.5376    2.1222 H   0  0  0  0  0  0  0  0  0  0  0  0
    3.1614   -0.7115   -1.9655 H   0  0  0  0  0  0  0  0  0  0  0  0
  1  2  1  0
  2 25  2  0
  2  3  1  0
  3  4  2  0
  3 26  1  0
  4  5  1  0
  5  6  1  0
  5 24  2  0
  6  7  1  0
  7  8  1  0
  7 27  1  0
  7 28  1  0
  8  9  1  0
  8 29  1  0
  8 30  1  0
  9 23  1  0
  9 10  1  0
  9 31  1  0
 10 11  1  0
 10 32  1  0
 10 33  1  0
 11 12  1  0
 11 34  1  0
 11 35  1  0
 12 13  1  0
 12 22  1  0
 13 21  1  0
 13 14  2  0
 14 15  1  0
 15 16  2  0
 15 36  1  0
 16 17  1  0
 17 21  2  0
 17 18  1  0
 18 19  1  0
 19 20  2  0
 19 37  1  0
 20 21  1  0
 22 23  1  0
 22 38  1  0
 22 39  1  0
 23 40  1  0
 23 41  1  0
 24 25  1  0
 25 42  1  0
M  END
>  <i_m_ct_stereo_status>  (21) 
1

>  <s_m_source_file>  (21) 
/var/tmp/pbs.5083856.sched01/tmpylm1lan7/55s0z2_fc.sdf

>  <i_m_source_file_index>  (21) 
4

>  <i_lp_mmshare_version>  (21) 
48012

>  <i_f3d_flags>  (21) 
0

>  <s_epik_input>  (21) 
QnJjMVtjSF1uYyhuW2NIXTEpT1tDSDJdW0NIMl1bQ0hdMltDSDJdW0NIMl1OKFtDSDJdW0NIMl0yKWMobltjSF1uMyljKGMzNCluW2NIXXM0

>  <s_epik_cmdline>  (21) 
J2VwaWtfcHl0aG9uJywgJy1waHQnLCAnMi4wJywgJy1waCcsICc3LjAnLCAnLXRuJywgJzgnLCAnLW1hJywgJzIwMCcsICctaW1hZScsICc8aW5maWxlLm1hZT4nLCAnLW9tYWUnLCAnPG91dGZpbGUubWFlPic=

>  <r_lp_tautomer_probability>  (21) 
1

>  <r_epik_Ionization_Penalty>  (21) 
0.00142909

>  <r_epik_Ionization_Penalty_Charging>  (21) 
0

>  <r_epik_Ionization_Penalty_Neutral>  (21) 
0.00142909

>  <r_epik_State_Penalty>  (21) 
0.000847618

>  <r_epik_Charging_Adjusted_Penalty>  (21) 
0.000847618

>  <i_epik_Tot_Q>  (21) 
0

>  <i_epik_Tot_abs_Q>  (21) 
0

>  <s_lp_Force_Field>  (21) 
OPLS3e

>  <r_lp_Energy>  (21) 
45.983

>  <b_lp_Chiralities_Consistent>  (21) 
1

>  <s_lp_Variant>  (21) 
6:0-1

>  <s_i_glide_gridfile>  (21) 
pfpi4k_grid

>  <i_i_glide_lignum>  (21) 
4

>  <i_i_glide_rotatable_bonds>  (21) 
5

>  <r_i_docking_score>  (21) 
-2.49509

>  <r_i_glide_ligand_efficiency>  (21) 
-0.0998034

>  <r_i_glide_ligand_efficiency_sa>  (21) 
-0.291827

>  <r_i_glide_ligand_efficiency_ln>  (21) 
-0.59141

>  <r_i_glide_gscore>  (21) 
-2.49509

>  <r_i_glide_lipo>  (21) 
-0.473214

>  <r_i_glide_hbond>  (21) 
0

>  <r_i_glide_metal>  (21) 
-0

>  <r_i_glide_rewards>  (21) 
-0.561703

>  <r_i_glide_evdw>  (21) 
-33.3106

>  <r_i_glide_ecoul>  (21) 
-1.27328

>  <r_i_glide_erotb>  (21) 
0.446188

>  <r_i_glide_esite>  (21) 
-0.0498335

>  <r_i_glide_emodel>  (21) 
-39.3838

>  <r_i_glide_energy>  (21) 
-34.5839

>  <r_i_glide_einternal>  (21) 
1.02177

>  <r_i_glide_intrahb_reward>  (21) 
-0

>  <i_i_glide_confnum>  (21) 
2

>  <i_i_glide_posenum>  (21) 
1

>  <r_i_glide_eff_state_penalty>  (21) 
0

>  <ligand_id>  (21) 
6

>  <original_smiles>  (21) 
Brc1cnc(OCCC2CCN(c3ncnc4scnc34)CC2)nc1

>  <smiles>  (21) 
[H]c1nc(N2C([H])([H])C([H])([H])C([H])(C([H])([H])C([H])([H])Oc3nc([H])c(Br)c([H])n3)C([H])([H])C2([H])[H])c2nc([H])sc2n1

$$$$
8:0:0
     RDKit          3D

 56 59  0  0  1  0  0  0  0  0999 V2000
    3.2532   -6.7981    1.0280 C   0  0  0  0  0  0  0  0  0  0  0  0
    3.5133   -5.6396    0.2337 O   0  0  0  0  0  0  0  0  0  0  0  0
    2.6184   -4.5227    0.3554 C   0  0  2  0  0  0  0  0  0  0  0  0
    2.2362   -3.9402   -1.0207 C   0  0  0  0  0  0  0  0  0  0  0  0
    3.4258   -3.3560   -1.7244 C   0  0  1  0  0  0  0  0  0  0  0  0
    3.7035   -3.8071   -3.1515 C   0  0  0  0  0  0  0  0  0  0  0  0
    4.0543   -2.5240   -3.8367 C   0  0  0  0  0  0  0  0  0  0  0  0
    3.9988   -1.4507   -3.0384 C   0  0  0  0  0  0  0  0  0  0  0  0
    4.2333   -0.0039   -3.3762 C   0  0  0  0  0  0  0  0  0  0  0  0
    3.6057   -1.8668   -1.6928 C   0  0  2  0  0  0  0  0  0  0  0  0
    4.5429   -2.7689   -0.8888 C   0  0  1  0  0  0  0  0  0  0  0  0
    4.5423   -2.7628    0.6578 C   0  0  2  0  0  0  0  0  0  0  0  0
    4.7748   -1.2807    1.0747 C   0  0  0  0  0  0  0  0  0  0  0  0
    5.7429   -3.6346    1.1299 C   0  0  1  0  0  0  0  0  0  0  0  0
    6.9948   -3.1144    0.6684 O   0  0  0  0  0  0  0  0  0  0  0  0
    8.0943   -3.8964    0.4449 C   0  0  0  0  0  0  0  0  0  0  0  0
    7.9176   -5.4109    0.6671 C   0  0  0  0  0  0  0  0  0  0  0  0
    9.1822   -3.4339    0.1035 O   0  0  0  0  0  0  0  0  0  0  0  0
    5.8110   -3.8589    2.6630 C   0  0  0  0  0  0  0  0  0  0  0  0
    4.5249   -4.5541    3.1381 C   0  0  0  0  0  0  0  0  0  0  0  0
    3.2417   -3.7325    2.8091 C   0  0  0  0  0  0  0  0  0  0  0  0
    1.9737   -4.5135    3.2688 C   0  0  0  0  0  0  0  0  0  0  0  0
    3.2549   -2.4355    3.6665 C   0  0  0  0  0  0  0  0  0  0  0  0
    3.1993   -3.3736    1.2630 C   0  0  2  0  0  0  0  0  0  0  0  0
    4.0591   -7.5105    0.8210 H   0  0  0  0  0  0  0  0  0  0  0  0
    2.3111   -7.2519    0.7351 H   0  0  0  0  0  0  0  0  0  0  0  0
    3.2212   -6.6128    2.0750 H   0  0  0  0  0  0  0  0  0  0  0  0
    1.6882   -4.8931    0.7664 H   0  0  0  0  0  0  0  0  0  0  0  0
    1.7147   -4.6556   -1.6333 H   0  0  0  0  0  0  0  0  0  0  0  0
    1.5115   -3.1409   -0.8900 H   0  0  0  0  0  0  0  0  0  0  0  0
    4.5527   -4.4824   -3.1991 H   0  0  0  0  0  0  0  0  0  0  0  0
    2.8391   -4.2395   -3.6482 H   0  0  0  0  0  0  0  0  0  0  0  0
    4.3486   -2.4432   -4.8456 H   0  0  0  0  0  0  0  0  0  0  0  0
    5.0032    0.3905   -2.7156 H   0  0  0  0  0  0  0  0  0  0  0  0
    3.2914    0.5186   -3.1756 H   0  0  0  0  0  0  0  0  0  0  0  0
    4.5062    0.1609   -4.4218 H   0  0  0  0  0  0  0  0  0  0  0  0
    2.8479   -1.2387   -1.2013 H   0  0  0  0  0  0  0  0  0  0  0  0
    5.5513   -2.8392   -1.3209 H   0  0  0  0  0  0  0  0  0  0  0  0
    5.3303   -1.1975    2.0073 H   0  0  0  0  0  0  0  0  0  0  0  0
    3.8228   -0.7529    1.1707 H   0  0  0  0  0  0  0  0  0  0  0  0
    5.3715   -0.7483    0.3248 H   0  0  0  0  0  0  0  0  0  0  0  0
    5.5843   -4.5827    0.6148 H   0  0  0  0  0  0  0  0  0  0  0  0
    7.0932   -5.7846    0.0540 H   0  0  0  0  0  0  0  0  0  0  0  0
    7.6903   -5.6163    1.7150 H   0  0  0  0  0  0  0  0  0  0  0  0
    8.8272   -5.9532    0.3822 H   0  0  0  0  0  0  0  0  0  0  0  0
    6.6119   -4.5661    2.8872 H   0  0  0  0  0  0  0  0  0  0  0  0
    6.0258   -2.9056    3.1834 H   0  0  0  0  0  0  0  0  0  0  0  0
    4.5542   -5.5062    2.6555 H   0  0  0  0  0  0  0  0  0  0  0  0
    4.5942   -4.7047    4.2224 H   0  0  0  0  0  0  0  0  0  0  0  0
    1.0656   -3.9457    3.0121 H   0  0  0  0  0  0  0  0  0  0  0  0
    1.9906   -4.6098    4.3601 H   0  0  0  0  0  0  0  0  0  0  0  0
    1.9182   -5.5119    2.8527 H   0  0  0  0  0  0  0  0  0  0  0  0
    2.4636   -1.7359    3.3768 H   0  0  0  0  0  0  0  0  0  0  0  0
    4.1950   -1.8860    3.6383 H   0  0  0  0  0  0  0  0  0  0  0  0
    3.1141   -2.6823    4.7203 H   0  0  0  0  0  0  0  0  0  0  0  0
    2.4587   -2.5749    1.1657 H   0  0  0  0  0  0  0  0  0  0  0  0
  1  2  1  0
  1 25  1  0
  1 26  1  0
  1 27  1  0
  2  3  1  0
  3 24  1  0
  3  4  1  0
  3 28  1  1
  5  4  1  1
  4 29  1  0
  4 30  1  0
  5 10  1  0
  5 11  1  0
  5  6  1  0
  6  7  1  0
  6 31  1  0
  6 32  1  0
  7  8  2  0
  7 33  1  0
  8  9  1  0
  8 10  1  0
  9 34  1  0
  9 35  1  0
  9 36  1  0
 10 11  1  0
 10 37  1  1
 11 12  1  0
 11 38  1  6
 12 24  1  0
 12 13  1  6
 12 14  1  0
 13 39  1  0
 13 40  1  0
 13 41  1  0
 14 15  1  0
 14 19  1  0
 14 42  1  6
 15 16  1  0
 16 17  1  0
 16 18  2  0
 17 43  1  0
 17 44  1  0
 17 45  1  0
 19 20  1  0
 19 46  1  0
 19 47  1  0
 20 21  1  0
 20 48  1  0
 20 49  1  0
 21 22  1  0
 21 23  1  0
 21 24  1  0
 22 50  1  0
 22 51  1  0
 22 52  1  0
 23 53  1  0
 23 54  1  0
 23 55  1  0
 24 56  1  1
M  END
>  <i_m_ct_stereo_status>  (22) 
1

>  <s_m_source_file>  (22) 
/var/tmp/pbs.5083856.sched01/tmpvmzhfh45/10d4iokkg5.sdf

>  <i_m_source_file_index>  (22) 
1

>  <i_lp_mmshare_version>  (22) 
48012

>  <i_f3d_flags>  (22) 
0

>  <s_epik_input>  (22) 
W0NIMl0xW0NIXT1DKFtDSDNdKVtDQEBIXShbQ0BdMTIzKVtDQEhdM1tDQEBdNChbQ0gzXSlbQ0BASF0oW0NAQEhdKFtDSDJdMilPW0NIM10pQyhbQ0gzXSkoW0NIM10pW0NIMl1bQ0gyXVtDQEBIXTRPQyg9TylbQ0gzXQ==

>  <s_epik_cmdline>  (22) 
J2VwaWtfcHl0aG9uJywgJy1waHQnLCAnMi4wJywgJy1waCcsICc3LjAnLCAnLXRuJywgJzgnLCAnLW1hJywgJzIwMCcsICctaW1hZScsICc8aW5maWxlLm1hZT4nLCAnLW9tYWUnLCAnPG91dGZpbGUubWFlPic=

>  <r_lp_tautomer_probability>  (22) 
1

>  <r_epik_Ionization_Penalty>  (22) 
2.78271e-11

>  <r_epik_Ionization_Penalty_Charging>  (22) 
0

>  <r_epik_Ionization_Penalty_Neutral>  (22) 
2.78271e-11

>  <r_epik_State_Penalty>  (22) 
-0

>  <r_epik_Charging_Adjusted_Penalty>  (22) 
0

>  <i_epik_Tot_Q>  (22) 
0

>  <i_epik_Tot_abs_Q>  (22) 
0

>  <s_epik_Chemistry_Notes>  (22) 
This compound has an ester and may undergo hydrolysis at high or low pH.

>  <s_lp_Force_Field>  (22) 
OPLS3e

>  <r_lp_Energy>  (22) 
81.3207

>  <b_lp_Chiralities_Consistent>  (22) 
1

>  <s_lp_Variant>  (22) 
8:0-1

>  <s_i_glide_gridfile>  (22) 
pfpi4k_grid

>  <i_i_glide_lignum>  (22) 
1

>  <i_i_glide_rotatable_bonds>  (22) 
3

>  <r_i_docking_score>  (22) 
-2.7441

>  <r_i_glide_ligand_efficiency>  (22) 
-0.114338

>  <r_i_glide_ligand_efficiency_sa>  (22) 
-0.329807

>  <r_i_glide_ligand_efficiency_ln>  (22) 
-0.65679

>  <r_i_glide_gscore>  (22) 
-2.7441

>  <r_i_glide_lipo>  (22) 
-0.550026

>  <r_i_glide_hbond>  (22) 
-0.121051

>  <r_i_glide_metal>  (22) 
-0

>  <r_i_glide_rewards>  (22) 
-1.42351

>  <r_i_glide_evdw>  (22) 
-18.1882

>  <r_i_glide_ecoul>  (22) 
0.596702

>  <r_i_glide_erotb>  (22) 
0.170389

>  <r_i_glide_esite>  (22) 
0

>  <r_i_glide_emodel>  (22) 
-14.0522

>  <r_i_glide_energy>  (22) 
-17.5915

>  <r_i_glide_einternal>  (22) 
6.76506

>  <r_i_glide_intrahb_reward>  (22) 
-0

>  <i_i_glide_confnum>  (22) 
1

>  <i_i_glide_posenum>  (22) 
8

>  <r_i_glide_eff_state_penalty>  (22) 
0

>  <ligand_id>  (22) 
8

>  <original_smiles>  (22) 
COC1CC23CC=C(C)C2C3C2(C)C(OC(C)=O)CCC(C)(C)C12

>  <smiles>  (22) 
[H]C1=C(C([H])([H])[H])C2([H])C3([H])C2(C1([H])[H])C([H])([H])C([H])(OC([H])([H])[H])C1([H])C(C([H])([H])[H])(C([H])([H])[H])C([H])([H])C([H])([H])C([H])(OC(=O)C([H])([H])[H])C13C([H])([H])[H]

$$$$
8:0:1
     RDKit          3D

 56 59  0  0  1  0  0  0  0  0999 V2000
    3.5099   -6.0558    0.6292 C   0  0  0  0  0  0  0  0  0  0  0  0
    3.8036   -4.6876    0.8771 O   0  0  0  0  0  0  0  0  0  0  0  0
    2.7144   -3.7974    0.6348 C   0  0  2  0  0  0  0  0  0  0  0  0
    2.4814   -3.5992   -0.8673 C   0  0  0  0  0  0  0  0  0  0  0  0
    3.6564   -2.9020   -1.5030 C   0  0  1  0  0  0  0  0  0  0  0  0
    4.2141   -3.5826   -2.7424 C   0  0  0  0  0  0  0  0  0  0  0  0
    4.4578   -2.4070   -3.6459 C   0  0  0  0  0  0  0  0  0  0  0  0
    4.0696   -1.2132   -3.1158 C   0  0  0  0  0  0  0  0  0  0  0  0
    4.1546    0.1590   -3.7303 C   0  0  0  0  0  0  0  0  0  0  0  0
    3.5265   -1.4378   -1.7995 C   0  0  2  0  0  0  0  0  0  0  0  0
    4.4656   -1.9190   -0.6897 C   0  0  1  0  0  0  0  0  0  0  0  0
    4.2567   -1.6833    0.7938 C   0  0  2  0  0  0  0  0  0  0  0  0
    4.1762   -0.1409    0.9466 C   0  0  0  0  0  0  0  0  0  0  0  0
    5.4597   -2.2422    1.5854 C   0  0  1  0  0  0  0  0  0  0  0  0
    6.6849   -1.6037    1.2096 O   0  0  0  0  0  0  0  0  0  0  0  0
    7.6416   -2.1934    0.4624 C   0  0  0  0  0  0  0  0  0  0  0  0
    7.2867   -3.5255   -0.2358 C   0  0  0  0  0  0  0  0  0  0  0  0
    8.7492   -1.6732    0.3012 O   0  0  0  0  0  0  0  0  0  0  0  0
    5.3412   -2.2103    3.1097 C   0  0  0  0  0  0  0  0  0  0  0  0
    4.1017   -2.9925    3.5527 C   0  0  0  0  0  0  0  0  0  0  0  0
    2.8053   -2.4538    2.9158 C   0  0  0  0  0  0  0  0  0  0  0  0
    1.6596   -3.3852    3.3755 C   0  0  0  0  0  0  0  0  0  0  0  0
    2.4741   -1.0548    3.4996 C   0  0  0  0  0  0  0  0  0  0  0  0
    2.9382   -2.4097    1.3418 C   0  0  2  0  0  0  0  0  0  0  0  0
    4.3643   -6.6684    0.9107 H   0  0  0  0  0  0  0  0  0  0  0  0
    3.3354   -6.2321   -0.4234 H   0  0  0  0  0  0  0  0  0  0  0  0
    2.6362   -6.4140    1.1798 H   0  0  0  0  0  0  0  0  0  0  0  0
    1.8160   -4.2571    1.0222 H   0  0  0  0  0  0  0  0  0  0  0  0
    2.1752   -4.5115   -1.3888 H   0  0  0  0  0  0  0  0  0  0  0  0
    1.6127   -2.9668   -0.9982 H   0  0  0  0  0  0  0  0  0  0  0  0
    5.1506   -4.1098   -2.5333 H   0  0  0  0  0  0  0  0  0  0  0  0
    3.5340   -4.2454   -3.2606 H   0  0  0  0  0  0  0  0  0  0  0  0
    4.8569   -2.5257   -4.5944 H   0  0  0  0  0  0  0  0  0  0  0  0
    4.7115    0.8017   -3.0529 H   0  0  0  0  0  0  0  0  0  0  0  0
    3.1430    0.5600   -3.7780 H   0  0  0  0  0  0  0  0  0  0  0  0
    4.6246    0.1779   -4.7189 H   0  0  0  0  0  0  0  0  0  0  0  0
    2.6175   -0.8859   -1.5563 H   0  0  0  0  0  0  0  0  0  0  0  0
    5.5116   -1.6966   -1.0122 H   0  0  0  0  0  0  0  0  0  0  0  0
    4.5674    0.2080    1.8993 H   0  0  0  0  0  0  0  0  0  0  0  0
    3.1599    0.2139    0.8002 H   0  0  0  0  0  0  0  0  0  0  0  0
    4.8036    0.3222    0.1803 H   0  0  0  0  0  0  0  0  0  0  0  0
    5.5446   -3.2991    1.3669 H   0  0  0  0  0  0  0  0  0  0  0  0
    6.3980   -3.4070   -0.8303 H   0  0  0  0  0  0  0  0  0  0  0  0
    7.1192   -4.2906    0.5439 H   0  0  0  0  0  0  0  0  0  0  0  0
    8.1090   -3.8519   -0.8706 H   0  0  0  0  0  0  0  0  0  0  0  0
    6.2067   -2.6933    3.5432 H   0  0  0  0  0  0  0  0  0  0  0  0
    5.3439   -1.1953    3.5074 H   0  0  0  0  0  0  0  0  0  0  0  0
    4.2396   -4.0451    3.2818 H   0  0  0  0  0  0  0  0  0  0  0  0
    4.0286   -2.9798    4.6405 H   0  0  0  0  0  0  0  0  0  0  0  0
    0.7215   -3.1457    2.8777 H   0  0  0  0  0  0  0  0  0  0  0  0
    1.4913   -3.3117    4.4473 H   0  0  0  0  0  0  0  0  0  0  0  0
    1.8884   -4.4349    3.1861 H   0  0  0  0  0  0  0  0  0  0  0  0
    1.6537   -0.5812    2.9665 H   0  0  0  0  0  0  0  0  0  0  0  0
    3.3063   -0.3636    3.4688 H   0  0  0  0  0  0  0  0  0  0  0  0
    2.1987   -1.1134    4.5489 H   0  0  0  0  0  0  0  0  0  0  0  0
    2.1086   -1.8035    0.9987 H   0  0  0  0  0  0  0  0  0  0  0  0
  1  2  1  0
  1 25  1  0
  1 26  1  0
  1 27  1  0
  2  3  1  0
  3 24  1  0
  3  4  1  0
  3 28  1  1
  5  4  1  1
  4 29  1  0
  4 30  1  0
  5 10  1  0
  5 11  1  0
  5  6  1  0
  6  7  1  0
  6 31  1  0
  6 32  1  0
  7  8  2  0
  7 33  1  0
  8  9  1  0
  8 10  1  0
  9 34  1  0
  9 35  1  0
  9 36  1  0
 10 11  1  0
 10 37  1  1
 11 12  1  0
 11 38  1  6
 12 24  1  0
 12 13  1  6
 12 14  1  0
 13 39  1  0
 13 40  1  0
 13 41  1  0
 14 15  1  0
 14 19  1  0
 14 42  1  6
 15 16  1  0
 16 17  1  0
 16 18  2  0
 17 43  1  0
 17 44  1  0
 17 45  1  0
 19 20  1  0
 19 46  1  0
 19 47  1  0
 20 21  1  0
 20 48  1  0
 20 49  1  0
 21 22  1  0
 21 23  1  0
 21 24  1  0
 22 50  1  0
 22 51  1  0
 22 52  1  0
 23 53  1  0
 23 54  1  0
 23 55  1  0
 24 56  1  6
M  END
>  <i_m_ct_stereo_status>  (23) 
1

>  <s_m_source_file>  (23) 
/var/tmp/pbs.5083856.sched01/tmpvmzhfh45/10d4iokkg5.sdf

>  <i_m_source_file_index>  (23) 
1

>  <i_lp_mmshare_version>  (23) 
48012

>  <i_f3d_flags>  (23) 
0

>  <s_epik_input>  (23) 
W0NIMl0xW0NIXT1DKFtDSDNdKVtDQEBIXShbQ0BdMTIzKVtDQEhdM1tDQEBdNChbQ0gzXSlbQ0BASF0oW0NAQEhdKFtDSDJdMilPW0NIM10pQyhbQ0gzXSkoW0NIM10pW0NIMl1bQ0gyXVtDQEBIXTRPQyg9TylbQ0gzXQ==

>  <s_epik_cmdline>  (23) 
J2VwaWtfcHl0aG9uJywgJy1waHQnLCAnMi4wJywgJy1waCcsICc3LjAnLCAnLXRuJywgJzgnLCAnLW1hJywgJzIwMCcsICctaW1hZScsICc8aW5maWxlLm1hZT4nLCAnLW9tYWUnLCAnPG91dGZpbGUubWFlPic=

>  <r_lp_tautomer_probability>  (23) 
1

>  <r_epik_Ionization_Penalty>  (23) 
2.78271e-11

>  <r_epik_Ionization_Penalty_Charging>  (23) 
0

>  <r_epik_Ionization_Penalty_Neutral>  (23) 
2.78271e-11

>  <r_epik_State_Penalty>  (23) 
-0

>  <r_epik_Charging_Adjusted_Penalty>  (23) 
0

>  <i_epik_Tot_Q>  (23) 
0

>  <i_epik_Tot_abs_Q>  (23) 
0

>  <s_epik_Chemistry_Notes>  (23) 
This compound has an ester and may undergo hydrolysis at high or low pH.

>  <s_lp_Force_Field>  (23) 
OPLS3e

>  <r_lp_Energy>  (23) 
81.3207

>  <b_lp_Chiralities_Consistent>  (23) 
1

>  <s_lp_Variant>  (23) 
8:0-1

>  <s_i_glide_gridfile>  (23) 
pfpi4k_grid

>  <i_i_glide_lignum>  (23) 
1

>  <i_i_glide_rotatable_bonds>  (23) 
3

>  <r_i_docking_score>  (23) 
-2.53074

>  <r_i_glide_ligand_efficiency>  (23) 
-0.105447

>  <r_i_glide_ligand_efficiency_sa>  (23) 
-0.304163

>  <r_i_glide_ligand_efficiency_ln>  (23) 
-0.605722

>  <r_i_glide_gscore>  (23) 
-2.53074

>  <r_i_glide_lipo>  (23) 
-0.621927

>  <r_i_glide_hbond>  (23) 
-0.00169764

>  <r_i_glide_metal>  (23) 
-0

>  <r_i_glide_rewards>  (23) 
-1.30834

>  <r_i_glide_evdw>  (23) 
-14.5104

>  <r_i_glide_ecoul>  (23) 
-0.290966

>  <r_i_glide_erotb>  (23) 
0.170389

>  <r_i_glide_esite>  (23) 
0

>  <r_i_glide_emodel>  (23) 
-13.0349

>  <r_i_glide_energy>  (23) 
-14.8014

>  <r_i_glide_einternal>  (23) 
6.75794

>  <r_i_glide_intrahb_reward>  (23) 
-0

>  <i_i_glide_confnum>  (23) 
2

>  <i_i_glide_posenum>  (23) 
16

>  <r_i_glide_eff_state_penalty>  (23) 
0

>  <ligand_id>  (23) 
8

>  <original_smiles>  (23) 
COC1CC23CC=C(C)C2C3C2(C)C(OC(C)=O)CCC(C)(C)C12

>  <smiles>  (23) 
[H]C1=C(C([H])([H])[H])C2([H])C3([H])C2(C1([H])[H])C([H])([H])C([H])(OC([H])([H])[H])C1([H])C(C([H])([H])[H])(C([H])([H])[H])C([H])([H])C([H])([H])C([H])(OC(=O)C([H])([H])[H])C13C([H])([H])[H]

$$$$
8:0:2
     RDKit          3D

 56 59  0  0  1  0  0  0  0  0999 V2000
    3.1338   -6.8091    1.0662 C   0  0  0  0  0  0  0  0  0  0  0  0
    3.4285   -5.6486    0.2613 O   0  0  0  0  0  0  0  0  0  0  0  0
    2.5510   -4.5212    0.4006 C   0  0  2  0  0  0  0  0  0  0  0  0
    2.1791   -3.9423   -0.9716 C   0  0  0  0  0  0  0  0  0  0  0  0
    3.3895   -3.3613   -1.6748 C   0  0  1  0  0  0  0  0  0  0  0  0
    3.6297   -3.8191   -3.1232 C   0  0  0  0  0  0  0  0  0  0  0  0
    3.9816   -2.5462   -3.7918 C   0  0  0  0  0  0  0  0  0  0  0  0
    3.9631   -1.4698   -2.9922 C   0  0  0  0  0  0  0  0  0  0  0  0
    4.2087   -0.0285   -3.3594 C   0  0  0  0  0  0  0  0  0  0  0  0
    3.5859   -1.8773   -1.6585 C   0  0  2  0  0  0  0  0  0  0  0  0
    4.5081   -2.8062   -0.8551 C   0  0  1  0  0  0  0  0  0  0  0  0
    4.5188   -2.8065    0.6807 C   0  0  2  0  0  0  0  0  0  0  0  0
    4.7911   -1.3307    1.0959 C   0  0  0  0  0  0  0  0  0  0  0  0
    5.7128   -3.7070    1.1213 C   0  0  1  0  0  0  0  0  0  0  0  0
    6.9200   -3.1517    0.6061 O   0  0  0  0  0  0  0  0  0  0  0  0
    7.9419   -3.9401    0.2746 C   0  0  0  0  0  0  0  0  0  0  0  0
    8.9507   -3.1791   -0.5498 C   0  0  0  0  0  0  0  0  0  0  0  0
    8.0725   -5.1313    0.5501 O   0  0  0  0  0  0  0  0  0  0  0  0
    5.8171   -3.9316    2.6404 C   0  0  0  0  0  0  0  0  0  0  0  0
    4.5081   -4.5996    3.1619 C   0  0  0  0  0  0  0  0  0  0  0  0
    3.2267   -3.7306    2.8496 C   0  0  0  0  0  0  0  0  0  0  0  0
    1.9309   -4.4673    3.3195 C   0  0  0  0  0  0  0  0  0  0  0  0
    3.2567   -2.4295    3.6967 C   0  0  0  0  0  0  0  0  0  0  0  0
    3.1720   -3.3807    1.3001 C   0  0  2  0  0  0  0  0  0  0  0  0
    3.9362   -7.5494    0.8348 H   0  0  0  0  0  0  0  0  0  0  0  0
    2.1688   -7.2520    0.7313 H   0  0  0  0  0  0  0  0  0  0  0  0
    3.1184   -6.6533    2.0979 H   0  0  0  0  0  0  0  0  0  0  0  0
    1.6219   -4.8630    0.8181 H   0  0  0  0  0  0  0  0  0  0  0  0
    1.6449   -4.6669   -1.5960 H   0  0  0  0  0  0  0  0  0  0  0  0
    1.4739   -3.1158   -0.8592 H   0  0  0  0  0  0  0  0  0  0  0  0
    4.4711   -4.4982   -3.1862 H   0  0  0  0  0  0  0  0  0  0  0  0
    2.7389   -4.2354   -3.6199 H   0  0  0  0  0  0  0  0  0  0  0  0
    4.2740   -2.4538   -4.7993 H   0  0  0  0  0  0  0  0  0  0  0  0
    4.9910    0.3346   -2.7146 H   0  0  0  0  0  0  0  0  0  0  0  0
    3.2849    0.5251   -3.1481 H   0  0  0  0  0  0  0  0  0  0  0  0
    4.4852    0.1167   -4.4065 H   0  0  0  0  0  0  0  0  0  0  0  0
    2.8748   -1.2425   -1.1749 H   0  0  0  0  0  0  0  0  0  0  0  0
    5.4850   -2.8809   -1.2927 H   0  0  0  0  0  0  0  0  0  0  0  0
    5.3460   -1.2478    2.0257 H   0  0  0  0  0  0  0  0  0  0  0  0
    3.8522   -0.7836    1.1889 H   0  0  0  0  0  0  0  0  0  0  0  0
    5.3865   -0.8039    0.3417 H   0  0  0  0  0  0  0  0  0  0  0  0
    5.5910   -4.6850    0.6266 H   0  0  0  0  0  0  0  0  0  0  0  0
    9.4027   -2.3516    0.0146 H   0  0  0  0  0  0  0  0  0  0  0  0
    8.5353   -2.8074   -1.4659 H   0  0  0  0  0  0  0  0  0  0  0  0
    9.7572   -3.8706   -0.8253 H   0  0  0  0  0  0  0  0  0  0  0  0
    6.6087   -4.6396    2.8384 H   0  0  0  0  0  0  0  0  0  0  0  0
    6.0724   -3.0001    3.1672 H   0  0  0  0  0  0  0  0  0  0  0  0
    4.5065   -5.5333    2.6968 H   0  0  0  0  0  0  0  0  0  0  0  0
    4.5787   -4.7137    4.2662 H   0  0  0  0  0  0  0  0  0  0  0  0
    1.0329   -3.8648    3.0706 H   0  0  0  0  0  0  0  0  0  0  0  0
    1.9518   -4.5570    4.4166 H   0  0  0  0  0  0  0  0  0  0  0  0
    1.8207   -5.4646    2.9113 H   0  0  0  0  0  0  0  0  0  0  0  0
    2.4765   -1.7260    3.4086 H   0  0  0  0  0  0  0  0  0  0  0  0
    4.1994   -1.9082    3.6578 H   0  0  0  0  0  0  0  0  0  0  0  0
    3.1149   -2.6762    4.7510 H   0  0  0  0  0  0  0  0  0  0  0  0
    2.4587   -2.5685    1.2022 H   0  0  0  0  0  0  0  0  0  0  0  0
  1  2  1  0
  1 25  1  0
  1 26  1  0
  1 27  1  0
  2  3  1  0
  3 24  1  0
  3  4  1  0
  3 28  1  1
  5  4  1  1
  4 29  1  0
  4 30  1  0
  5 10  1  0
  5 11  1  0
  5  6  1  0
  6  7  1  0
  6 31  1  0
  6 32  1  0
  7  8  2  0
  7 33  1  0
  8  9  1  0
  8 10  1  0
  9 34  1  0
  9 35  1  0
  9 36  1  0
 10 11  1  0
 10 37  1  1
 11 12  1  0
 11 38  1  6
 12 24  1  0
 12 13  1  1
 12 14  1  0
 13 39  1  0
 13 40  1  0
 13 41  1  0
 14 15  1  0
 14 19  1  0
 14 42  1  6
 15 16  1  0
 16 17  1  0
 16 18  2  0
 17 43  1  0
 17 44  1  0
 17 45  1  0
 19 20  1  0
 19 46  1  0
 19 47  1  0
 20 21  1  0
 20 48  1  0
 20 49  1  0
 21 22  1  0
 21 23  1  0
 21 24  1  0
 22 50  1  0
 22 51  1  0
 22 52  1  0
 23 53  1  0
 23 54  1  0
 23 55  1  0
 24 56  1  1
M  END
>  <i_m_ct_stereo_status>  (24) 
1

>  <s_m_source_file>  (24) 
/var/tmp/pbs.5083856.sched01/tmpvmzhfh45/10d4iokkg5.sdf

>  <i_m_source_file_index>  (24) 
1

>  <i_lp_mmshare_version>  (24) 
48012

>  <i_f3d_flags>  (24) 
0

>  <s_epik_input>  (24) 
W0NIMl0xW0NIXT1DKFtDSDNdKVtDQEBIXShbQ0BdMTIzKVtDQEhdM1tDQEBdNChbQ0gzXSlbQ0BASF0oW0NAQEhdKFtDSDJdMilPW0NIM10pQyhbQ0gzXSkoW0NIM10pW0NIMl1bQ0gyXVtDQEBIXTRPQyg9TylbQ0gzXQ==

>  <s_epik_cmdline>  (24) 
J2VwaWtfcHl0aG9uJywgJy1waHQnLCAnMi4wJywgJy1waCcsICc3LjAnLCAnLXRuJywgJzgnLCAnLW1hJywgJzIwMCcsICctaW1hZScsICc8aW5maWxlLm1hZT4nLCAnLW9tYWUnLCAnPG91dGZpbGUubWFlPic=

>  <r_lp_tautomer_probability>  (24) 
1

>  <r_epik_Ionization_Penalty>  (24) 
2.78271e-11

>  <r_epik_Ionization_Penalty_Charging>  (24) 
0

>  <r_epik_Ionization_Penalty_Neutral>  (24) 
2.78271e-11

>  <r_epik_State_Penalty>  (24) 
-0

>  <r_epik_Charging_Adjusted_Penalty>  (24) 
0

>  <i_epik_Tot_Q>  (24) 
0

>  <i_epik_Tot_abs_Q>  (24) 
0

>  <s_epik_Chemistry_Notes>  (24) 
This compound has an ester and may undergo hydrolysis at high or low pH.

>  <s_lp_Force_Field>  (24) 
OPLS3e

>  <r_lp_Energy>  (24) 
81.3207

>  <b_lp_Chiralities_Consistent>  (24) 
1

>  <s_lp_Variant>  (24) 
8:0-1

>  <s_i_glide_gridfile>  (24) 
pfpi4k_grid

>  <i_i_glide_lignum>  (24) 
1

>  <i_i_glide_rotatable_bonds>  (24) 
3

>  <r_i_docking_score>  (24) 
-2.36669

>  <r_i_glide_ligand_efficiency>  (24) 
-0.0986122

>  <r_i_glide_ligand_efficiency_sa>  (24) 
-0.284447

>  <r_i_glide_ligand_efficiency_ln>  (24) 
-0.566458

>  <r_i_glide_gscore>  (24) 
-2.36669

>  <r_i_glide_lipo>  (24) 
-0.464466

>  <r_i_glide_hbond>  (24) 
0

>  <r_i_glide_metal>  (24) 
-0

>  <r_i_glide_rewards>  (24) 
-1.40178

>  <r_i_glide_evdw>  (24) 
-18.8705

>  <r_i_glide_ecoul>  (24) 
1.81792

>  <r_i_glide_erotb>  (24) 
0.170389

>  <r_i_glide_esite>  (24) 
0

>  <r_i_glide_emodel>  (24) 
-14.8719

>  <r_i_glide_energy>  (24) 
-17.0526

>  <r_i_glide_einternal>  (24) 
2.87867

>  <r_i_glide_intrahb_reward>  (24) 
-0

>  <i_i_glide_confnum>  (24) 
2

>  <i_i_glide_posenum>  (24) 
37

>  <r_i_glide_eff_state_penalty>  (24) 
0

>  <ligand_id>  (24) 
8

>  <original_smiles>  (24) 
COC1CC23CC=C(C)C2C3C2(C)C(OC(C)=O)CCC(C)(C)C12

>  <smiles>  (24) 
[H]C1=C(C([H])([H])[H])C2([H])C3([H])C2(C1([H])[H])C([H])([H])C([H])(OC([H])([H])[H])C1([H])C(C([H])([H])[H])(C([H])([H])[H])C([H])([H])C([H])([H])C([H])(OC(=O)C([H])([H])[H])C13C([H])([H])[H]

$$$$
9:0:0
     RDKit          3D

 55 59  0  0  1  0  0  0  0  0999 V2000
    1.9915   -7.6681    2.1511 C   0  0  0  0  0  0  0  0  0  0  0  0
    2.8635   -6.7289    1.5184 O   0  0  0  0  0  0  0  0  0  0  0  0
    2.3742   -5.8485    0.6536 C   0  0  0  0  0  0  0  0  0  0  0  0
    1.2171   -5.8495    0.2386 O   0  0  0  0  0  0  0  0  0  0  0  0
    3.3999   -4.7879    0.1187 C   0  0  2  0  0  0  0  0  0  0  0  0
    4.5863   -5.4149   -0.3588 O   0  0  0  0  0  0  0  0  0  0  0  0
    5.7076   -5.5857    0.4444 C   0  0  2  0  0  0  0  0  0  0  0  0
    5.4369   -6.1720    1.6571 O   0  0  0  0  0  0  0  0  0  0  0  0
    6.5427   -6.3520    2.5557 C   0  0  1  0  0  0  0  0  0  0  0  0
    7.1427   -7.7548    2.3057 C   0  0  0  0  0  0  0  0  0  0  0  0
    7.5662   -5.3631    2.4742 O   0  0  0  0  0  0  0  0  0  0  0  0
    7.7335   -4.7948    1.0759 O   0  0  0  0  0  0  0  0  0  0  0  0
    6.4794   -4.2998    0.6822 C   0  0  1  0  0  0  0  0  0  0  0  0
    6.6106   -3.1799   -0.3544 C   0  0  1  0  0  0  0  0  0  0  0  0
    5.6419   -3.3082   -1.3801 O   0  0  0  0  0  0  0  0  0  0  0  0
    4.6404   -2.2984   -1.4689 C   0  0  1  0  0  0  0  0  0  0  0  0
    3.9588   -2.5182   -2.8253 C   0  0  0  0  0  0  0  0  0  0  0  0
    3.6048   -2.2424   -0.2918 C   0  0  0  0  0  0  0  0  0  0  0  0
    3.5276   -3.3720    0.8037 C   0  0  2  0  0  0  0  0  0  0  0  0
    4.4976   -3.1650    2.0441 C   0  0  1  0  0  0  0  0  0  0  0  0
    4.2621   -1.7713    2.7103 C   0  0  0  0  0  0  0  0  0  0  0  0
    4.1902   -4.1873    3.2095 C   0  0  0  0  0  0  0  0  0  0  0  0
    5.3154   -4.6979    4.1820 C   0  0  0  0  0  0  0  0  0  0  0  0
    5.9236   -6.1229    3.9613 C   0  0  1  0  0  0  0  0  0  0  0  0
    4.8864   -7.2045    4.3352 C   0  0  0  0  0  0  0  0  0  0  0  0
    5.9625   -3.2034    1.6127 C   0  0  2  0  0  0  0  0  0  0  0  0
    6.3033   -2.1766    0.6475 O   0  0  0  0  0  0  0  0  0  0  0  0
    2.5112   -8.1955    2.9481 H   0  0  0  0  0  0  0  0  0  0  0  0
    1.6259   -8.4031    1.4349 H   0  0  0  0  0  0  0  0  0  0  0  0
    1.1496   -7.1526    2.6079 H   0  0  0  0  0  0  0  0  0  0  0  0
    2.9239   -4.5279   -0.8244 H   0  0  0  0  0  0  0  0  0  0  0  0
    6.3468   -6.2467   -0.1218 H   0  0  0  0  0  0  0  0  0  0  0  0
    7.6451   -7.8200    1.3431 H   0  0  0  0  0  0  0  0  0  0  0  0
    6.3851   -8.5364    2.3084 H   0  0  0  0  0  0  0  0  0  0  0  0
    7.8768   -8.0206    3.0677 H   0  0  0  0  0  0  0  0  0  0  0  0
    7.6308   -3.0819   -0.7368 H   0  0  0  0  0  0  0  0  0  0  0  0
    5.1506   -1.3317   -1.5341 H   0  0  0  0  0  0  0  0  0  0  0  0
    3.1797   -1.7767   -3.0118 H   0  0  0  0  0  0  0  0  0  0  0  0
    3.4963   -3.5072   -2.8761 H   0  0  0  0  0  0  0  0  0  0  0  0
    4.6771   -2.4514   -3.6438 H   0  0  0  0  0  0  0  0  0  0  0  0
    3.7128   -1.2589    0.1717 H   0  0  0  0  0  0  0  0  0  0  0  0
    2.6166   -2.1749   -0.7466 H   0  0  0  0  0  0  0  0  0  0  0  0
    2.5402   -3.2037    1.2384 H   0  0  0  0  0  0  0  0  0  0  0  0
    4.7810   -1.7143    3.6604 H   0  0  0  0  0  0  0  0  0  0  0  0
    3.2051   -1.6096    2.9052 H   0  0  0  0  0  0  0  0  0  0  0  0
    4.6221   -0.9384    2.1140 H   0  0  0  0  0  0  0  0  0  0  0  0
    3.3780   -3.7568    3.8186 H   0  0  0  0  0  0  0  0  0  0  0  0
    3.7160   -5.0635    2.8077 H   0  0  0  0  0  0  0  0  0  0  0  0
    6.1192   -3.9658    4.2958 H   0  0  0  0  0  0  0  0  0  0  0  0
    4.8606   -4.7059    5.1734 H   0  0  0  0  0  0  0  0  0  0  0  0
    6.7357   -6.2463    4.6951 H   0  0  0  0  0  0  0  0  0  0  0  0
    4.1100   -7.1807    3.5896 H   0  0  0  0  0  0  0  0  0  0  0  0
    4.4172   -7.0301    5.3065 H   0  0  0  0  0  0  0  0  0  0  0  0
    5.2935   -8.2216    4.3618 H   0  0  0  0  0  0  0  0  0  0  0  0
    6.6108   -3.0712    2.4554 H   0  0  0  0  0  0  0  0  0  0  0  0
  1  2  1  0
  1 28  1  0
  1 29  1  0
  1 30  1  0
  2  3  1  0
  3  4  2  0
  3  5  1  0
  5 19  1  0
  5  6  1  0
  5 31  1  6
  6  7  1  0
  7 13  1  0
  7  8  1  0
  7 32  1  6
  8  9  1  0
  9 24  1  0
  9 10  1  1
  9 11  1  0
 10 33  1  0
 10 34  1  0
 10 35  1  0
 11 12  1  0
 13 12  1  1
 13 26  1  0
 13 14  1  0
 14 27  1  0
 14 15  1  0
 14 36  1  6
 15 16  1  0
 16 17  1  0
 16 18  1  0
 16 37  1  6
 17 38  1  0
 17 39  1  0
 17 40  1  0
 18 19  1  0
 18 41  1  0
 18 42  1  0
 19 20  1  0
 19 43  1  1
 20 21  1  1
 20 22  1  0
 20 26  1  0
 21 44  1  0
 21 45  1  0
 21 46  1  0
 22 23  1  0
 22 47  1  0
 22 48  1  0
 23 24  1  0
 23 49  1  0
 23 50  1  0
 24 25  1  0
 24 51  1  1
 25 52  1  0
 25 53  1  0
 25 54  1  0
 26 27  1  0
 26 55  1  1
M  END
>  <i_m_ct_stereo_status>  (25) 
1

>  <s_m_source_file>  (25) 
/var/tmp/pbs.5083856.sched01/tmpvmzhfh45/10d4iokkg5.sdf

>  <i_m_source_file_index>  (25) 
2

>  <i_lp_mmshare_version>  (25) 
48012

>  <i_f3d_flags>  (25) 
0

>  <s_epik_input>  (25) 
W0NIM11bQ0BASF0oW0NIMl0xKU9bQ0BIXTJPW0NASF0zW0NAQF0oW0NIM10pKFtDQEBIXTFbQ0BASF0oT1tDQEhdNFtDQEBdMjM1KUMoPU8pT1tDSDNdKVtDSDJdW0NIMl1bQ0BASF0oW0NIM10pW0NAXShPNCkoW0NIM10pT081

>  <s_epik_cmdline>  (25) 
J2VwaWtfcHl0aG9uJywgJy1waHQnLCAnMi4wJywgJy1waCcsICc3LjAnLCAnLXRuJywgJzgnLCAnLW1hJywgJzIwMCcsICctaW1hZScsICc8aW5maWxlLm1hZT4nLCAnLW9tYWUnLCAnPG91dGZpbGUubWFlPic=

>  <r_lp_tautomer_probability>  (25) 
1

>  <r_epik_Ionization_Penalty>  (25) 
2.89428e-15

>  <r_epik_Ionization_Penalty_Charging>  (25) 
0

>  <r_epik_Ionization_Penalty_Neutral>  (25) 
2.89428e-15

>  <r_epik_State_Penalty>  (25) 
-0

>  <r_epik_Charging_Adjusted_Penalty>  (25) 
0

>  <i_epik_Tot_Q>  (25) 
0

>  <i_epik_Tot_abs_Q>  (25) 
0

>  <s_epik_Chemistry_Notes>  (25) 
This compound has an ester and may undergo hydrolysis at high or low pH. This compound contains an acetal/aminal-like group ( X-CH(R)-Y where X, Y are N, S, or O) that may be acid/base labile, releasing an aldehyde.

>  <s_lp_Force_Field>  (25) 
OPLS3e

>  <r_lp_Energy>  (25) 
62.6663

>  <b_lp_Chiralities_Consistent>  (25) 
1

>  <s_lp_Variant>  (25) 
9:0-1

>  <s_i_glide_gridfile>  (25) 
pfpi4k_grid

>  <i_i_glide_lignum>  (25) 
2

>  <i_i_glide_rotatable_bonds>  (25) 
2

>  <r_i_docking_score>  (25) 
-3.12676

>  <r_i_glide_ligand_efficiency>  (25) 
-0.115806

>  <r_i_glide_ligand_efficiency_sa>  (25) 
-0.347417

>  <r_i_glide_ligand_efficiency_ln>  (25) 
-0.727857

>  <r_i_glide_gscore>  (25) 
-3.12676

>  <r_i_glide_lipo>  (25) 
-0.344154

>  <r_i_glide_hbond>  (25) 
-0.217346

>  <r_i_glide_metal>  (25) 
-0

>  <r_i_glide_rewards>  (25) 
-1.08118

>  <r_i_glide_evdw>  (25) 
-23.6334

>  <r_i_glide_ecoul>  (25) 
-2.6457

>  <r_i_glide_erotb>  (25) 
0.131564

>  <r_i_glide_esite>  (25) 
-0.0371146

>  <r_i_glide_emodel>  (25) 
-29.4661

>  <r_i_glide_energy>  (25) 
-26.2791

>  <r_i_glide_einternal>  (25) 
1.78583

>  <r_i_glide_intrahb_reward>  (25) 
-0

>  <i_i_glide_confnum>  (25) 
5

>  <i_i_glide_posenum>  (25) 
17

>  <r_i_glide_eff_state_penalty>  (25) 
0

>  <ligand_id>  (25) 
9

>  <original_smiles>  (25) 
COC(=O)C1OC2OC3(C)OOC24C2OC(C)CC1C(C)(CCC3C)C4O2

>  <smiles>  (25) 
[H]C([H])([H])OC(=O)C1([H])OC2([H])OC3(C([H])([H])[H])OOC24C2([H])OC([H])(C([H])([H])[H])C([H])([H])C1([H])C(C([H])([H])[H])(C([H])([H])C([H])([H])C3([H])C([H])([H])[H])C4([H])O2

$$$$
9:0:1
     RDKit          3D

 55 59  0  0  1  0  0  0  0  0999 V2000
    0.5615   -6.8219    0.7767 C   0  0  0  0  0  0  0  0  0  0  0  0
    1.4828   -6.0128    0.0625 O   0  0  0  0  0  0  0  0  0  0  0  0
    2.2190   -5.1049    0.7303 C   0  0  0  0  0  0  0  0  0  0  0  0
    2.0033   -4.8348    1.9006 O   0  0  0  0  0  0  0  0  0  0  0  0
    3.2417   -4.3554   -0.1663 C   0  0  2  0  0  0  0  0  0  0  0  0
    4.3254   -5.1959   -0.5276 O   0  0  0  0  0  0  0  0  0  0  0  0
    5.4772   -5.2378    0.2286 C   0  0  2  0  0  0  0  0  0  0  0  0
    5.2331   -5.4531    1.5687 O   0  0  0  0  0  0  0  0  0  0  0  0
    6.3588   -5.4568    2.4502 C   0  0  1  0  0  0  0  0  0  0  0  0
    6.8786   -6.8946    2.6179 C   0  0  0  0  0  0  0  0  0  0  0  0
    7.4673   -4.6632    2.0725 O   0  0  0  0  0  0  0  0  0  0  0  0
    7.5889   -4.5077    0.5578 O   0  0  0  0  0  0  0  0  0  0  0  0
    6.3590   -4.0143    0.0672 C   0  0  1  0  0  0  0  0  0  0  0  0
    6.4823   -3.2515   -1.2638 C   0  0  1  0  0  0  0  0  0  0  0  0
    5.4268   -3.5864   -2.1506 O   0  0  0  0  0  0  0  0  0  0  0  0
    4.5025   -2.5707   -2.5009 C   0  0  1  0  0  0  0  0  0  0  0  0
    3.7092   -3.1203   -3.7003 C   0  0  0  0  0  0  0  0  0  0  0  0
    3.5726   -2.0838   -1.3463 C   0  0  0  0  0  0  0  0  0  0  0  0
    3.5055   -2.8197    0.0456 C   0  0  2  0  0  0  0  0  0  0  0  0
    4.5713   -2.3430    1.1218 C   0  0  1  0  0  0  0  0  0  0  0  0
    4.4608   -0.8159    1.3456 C   0  0  0  0  0  0  0  0  0  0  0  0
    4.2510   -2.9679    2.5304 C   0  0  0  0  0  0  0  0  0  0  0  0
    5.3792   -3.2612    3.5557 C   0  0  0  0  0  0  0  0  0  0  0  0
    5.8113   -4.7737    3.7384 C   0  0  1  0  0  0  0  0  0  0  0  0
    4.7155   -5.6031    4.4411 C   0  0  0  0  0  0  0  0  0  0  0  0
    6.0084   -2.6451    0.6512 C   0  0  2  0  0  0  0  0  0  0  0  0
    6.3266   -1.9674   -0.6054 O   0  0  0  0  0  0  0  0  0  0  0  0
    0.0055   -7.4579    0.0873 H   0  0  0  0  0  0  0  0  0  0  0  0
   -0.1667   -6.2431    1.3478 H   0  0  0  0  0  0  0  0  0  0  0  0
    1.1143   -7.4582    1.4640 H   0  0  0  0  0  0  0  0  0  0  0  0
    2.6901   -4.3431   -1.0972 H   0  0  0  0  0  0  0  0  0  0  0  0
    6.0170   -6.1118   -0.1271 H   0  0  0  0  0  0  0  0  0  0  0  0
    7.3139   -7.2672    1.6902 H   0  0  0  0  0  0  0  0  0  0  0  0
    6.0752   -7.5807    2.8966 H   0  0  0  0  0  0  0  0  0  0  0  0
    7.6542   -6.9532    3.3829 H   0  0  0  0  0  0  0  0  0  0  0  0
    7.4659   -3.3590   -1.7186 H   0  0  0  0  0  0  0  0  0  0  0  0
    5.0659   -1.7163   -2.8802 H   0  0  0  0  0  0  0  0  0  0  0  0
    2.9686   -2.4087   -4.0673 H   0  0  0  0  0  0  0  0  0  0  0  0
    3.1748   -4.0278   -3.4356 H   0  0  0  0  0  0  0  0  0  0  0  0
    4.3740   -3.3792   -4.5232 H   0  0  0  0  0  0  0  0  0  0  0  0
    3.7690   -1.0265   -1.2022 H   0  0  0  0  0  0  0  0  0  0  0  0
    2.5692   -2.0704   -1.7640 H   0  0  0  0  0  0  0  0  0  0  0  0
    2.5577   -2.4611    0.4494 H   0  0  0  0  0  0  0  0  0  0  0  0
    5.0503   -0.5199    2.2170 H   0  0  0  0  0  0  0  0  0  0  0  0
    3.4251   -0.5162    1.5338 H   0  0  0  0  0  0  0  0  0  0  0  0
    4.8310   -0.2259    0.5044 H   0  0  0  0  0  0  0  0  0  0  0  0
    3.4768   -2.3709    3.0171 H   0  0  0  0  0  0  0  0  0  0  0  0
    3.8316   -3.9334    2.4187 H   0  0  0  0  0  0  0  0  0  0  0  0
    6.2063   -2.6078    3.3625 H   0  0  0  0  0  0  0  0  0  0  0  0
    5.0119   -2.9311    4.5308 H   0  0  0  0  0  0  0  0  0  0  0  0
    6.6217   -4.7589    4.4665 H   0  0  0  0  0  0  0  0  0  0  0  0
    3.8529   -5.7902    3.8021 H   0  0  0  0  0  0  0  0  0  0  0  0
    4.3567   -5.0929    5.3365 H   0  0  0  0  0  0  0  0  0  0  0  0
    5.0975   -6.5677    4.7726 H   0  0  0  0  0  0  0  0  0  0  0  0
    6.7639   -2.3385    1.3672 H   0  0  0  0  0  0  0  0  0  0  0  0
  1  2  1  0
  1 28  1  0
  1 29  1  0
  1 30  1  0
  2  3  1  0
  3  4  2  0
  3  5  1  0
  5 19  1  0
  5  6  1  0
  5 31  1  6
  6  7  1  0
  7 13  1  0
  7  8  1  0
  7 32  1  6
  8  9  1  0
  9 24  1  0
  9 10  1  1
  9 11  1  0
 10 33  1  0
 10 34  1  0
 10 35  1  0
 11 12  1  0
 13 12  1  1
 13 26  1  0
 13 14  1  0
 14 27  1  0
 14 15  1  0
 14 36  1  6
 15 16  1  0
 16 17  1  0
 16 18  1  0
 16 37  1  6
 17 38  1  0
 17 39  1  0
 17 40  1  0
 18 19  1  0
 18 41  1  0
 18 42  1  0
 19 20  1  0
 19 43  1  1
 20 21  1  1
 20 22  1  0
 20 26  1  0
 21 44  1  0
 21 45  1  0
 21 46  1  0
 22 23  1  0
 22 47  1  0
 22 48  1  0
 23 24  1  0
 23 49  1  0
 23 50  1  0
 24 25  1  0
 24 51  1  1
 25 52  1  0
 25 53  1  0
 25 54  1  0
 26 27  1  0
 26 55  1  1
M  END
>  <i_m_ct_stereo_status>  (26) 
1

>  <s_m_source_file>  (26) 
/var/tmp/pbs.5083856.sched01/tmpvmzhfh45/10d4iokkg5.sdf

>  <i_m_source_file_index>  (26) 
2

>  <i_lp_mmshare_version>  (26) 
48012

>  <i_f3d_flags>  (26) 
0

>  <s_epik_input>  (26) 
W0NIM11bQ0BASF0oW0NIMl0xKU9bQ0BIXTJPW0NASF0zW0NAQF0oW0NIM10pKFtDQEBIXTFbQ0BASF0oT1tDQEhdNFtDQEBdMjM1KUMoPU8pT1tDSDNdKVtDSDJdW0NIMl1bQ0BASF0oW0NIM10pW0NAXShPNCkoW0NIM10pT081

>  <s_epik_cmdline>  (26) 
J2VwaWtfcHl0aG9uJywgJy1waHQnLCAnMi4wJywgJy1waCcsICc3LjAnLCAnLXRuJywgJzgnLCAnLW1hJywgJzIwMCcsICctaW1hZScsICc8aW5maWxlLm1hZT4nLCAnLW9tYWUnLCAnPG91dGZpbGUubWFlPic=

>  <r_lp_tautomer_probability>  (26) 
1

>  <r_epik_Ionization_Penalty>  (26) 
2.89428e-15

>  <r_epik_Ionization_Penalty_Charging>  (26) 
0

>  <r_epik_Ionization_Penalty_Neutral>  (26) 
2.89428e-15

>  <r_epik_State_Penalty>  (26) 
-0

>  <r_epik_Charging_Adjusted_Penalty>  (26) 
0

>  <i_epik_Tot_Q>  (26) 
0

>  <i_epik_Tot_abs_Q>  (26) 
0

>  <s_epik_Chemistry_Notes>  (26) 
This compound has an ester and may undergo hydrolysis at high or low pH. This compound contains an acetal/aminal-like group ( X-CH(R)-Y where X, Y are N, S, or O) that may be acid/base labile, releasing an aldehyde.

>  <s_lp_Force_Field>  (26) 
OPLS3e

>  <r_lp_Energy>  (26) 
62.6663

>  <b_lp_Chiralities_Consistent>  (26) 
1

>  <s_lp_Variant>  (26) 
9:0-1

>  <s_i_glide_gridfile>  (26) 
pfpi4k_grid

>  <i_i_glide_lignum>  (26) 
2

>  <i_i_glide_rotatable_bonds>  (26) 
2

>  <r_i_docking_score>  (26) 
-2.93564

>  <r_i_glide_ligand_efficiency>  (26) 
-0.108727

>  <r_i_glide_ligand_efficiency_sa>  (26) 
-0.326182

>  <r_i_glide_ligand_efficiency_ln>  (26) 
-0.683369

>  <r_i_glide_gscore>  (26) 
-2.93564

>  <r_i_glide_lipo>  (26) 
-0.58846

>  <r_i_glide_hbond>  (26) 
-0.304365

>  <r_i_glide_metal>  (26) 
-0

>  <r_i_glide_rewards>  (26) 
-1.102

>  <r_i_glide_evdw>  (26) 
-20.2526

>  <r_i_glide_ecoul>  (26) 
-0.0501903

>  <r_i_glide_erotb>  (26) 
0.131564

>  <r_i_glide_esite>  (26) 
-0.0522185

>  <r_i_glide_emodel>  (26) 
-22.5531

>  <r_i_glide_energy>  (26) 
-20.3028

>  <r_i_glide_einternal>  (26) 
1.53344

>  <r_i_glide_intrahb_reward>  (26) 
-0

>  <i_i_glide_confnum>  (26) 
2

>  <i_i_glide_posenum>  (26) 
8

>  <r_i_glide_eff_state_penalty>  (26) 
0

>  <ligand_id>  (26) 
9

>  <original_smiles>  (26) 
COC(=O)C1OC2OC3(C)OOC24C2OC(C)CC1C(C)(CCC3C)C4O2

>  <smiles>  (26) 
[H]C([H])([H])OC(=O)C1([H])OC2([H])OC3(C([H])([H])[H])OOC24C2([H])OC([H])(C([H])([H])[H])C([H])([H])C1([H])C(C([H])([H])[H])(C([H])([H])C([H])([H])C3([H])C([H])([H])[H])C4([H])O2

$$$$
9:0:2
     RDKit          3D

 55 59  0  0  1  0  0  0  0  0999 V2000
    5.0378   -1.4875    5.7285 C   0  0  0  0  0  0  0  0  0  0  0  0
    4.5940   -1.8803    4.4464 O   0  0  0  0  0  0  0  0  0  0  0  0
    5.0624   -1.2903    3.3174 C   0  0  0  0  0  0  0  0  0  0  0  0
    5.7362   -0.2394    3.3154 O   0  0  0  0  0  0  0  0  0  0  0  0
    4.6978   -1.9718    1.9875 C   0  0  2  0  0  0  0  0  0  0  0  0
    3.2860   -2.0954    1.8292 O   0  0  0  0  0  0  0  0  0  0  0  0
    2.6344   -3.2673    2.1528 C   0  0  2  0  0  0  0  0  0  0  0  0
    2.9088   -3.7069    3.4520 O   0  0  0  0  0  0  0  0  0  0  0  0
    2.3026   -4.9548    3.8640 C   0  0  1  0  0  0  0  0  0  0  0  0
    0.9508   -4.5889    4.5439 C   0  0  0  0  0  0  0  0  0  0  0  0
    2.1396   -5.9195    2.8064 O   0  0  0  0  0  0  0  0  0  0  0  0
    1.8386   -5.2931    1.5194 O   0  0  0  0  0  0  0  0  0  0  0  0
    2.8748   -4.4332    1.1984 C   0  0  1  0  0  0  0  0  0  0  0  0
    3.1196   -4.2516   -0.2971 C   0  0  1  0  0  0  0  0  0  0  0  0
    3.4237   -2.9133   -0.5940 O   0  0  0  0  0  0  0  0  0  0  0  0
    4.7185   -2.6467   -1.1354 C   0  0  1  0  0  0  0  0  0  0  0  0
    4.6339   -1.2183   -1.6871 C   0  0  0  0  0  0  0  0  0  0  0  0
    5.9026   -2.8359   -0.1351 C   0  0  0  0  0  0  0  0  0  0  0  0
    5.6531   -3.0870    1.4030 C   0  0  2  0  0  0  0  0  0  0  0  0
    5.4684   -4.6294    1.8081 C   0  0  1  0  0  0  0  0  0  0  0  0
    6.6833   -5.4750    1.3141 C   0  0  0  0  0  0  0  0  0  0  0  0
    5.4842   -4.8037    3.3949 C   0  0  0  0  0  0  0  0  0  0  0  0
    4.6724   -5.9856    4.0760 C   0  0  0  0  0  0  0  0  0  0  0  0
    3.3420   -5.6191    4.7959 C   0  0  1  0  0  0  0  0  0  0  0  0
    3.5901   -4.7462    6.0607 C   0  0  0  0  0  0  0  0  0  0  0  0
    4.1954   -5.2016    1.1879 C   0  0  2  0  0  0  0  0  0  0  0  0
    4.2635   -5.1465   -0.2624 O   0  0  0  0  0  0  0  0  0  0  0  0
    4.7682   -2.2525    6.4464 H   0  0  0  0  0  0  0  0  0  0  0  0
    4.6001   -0.5158    6.0522 H   0  0  0  0  0  0  0  0  0  0  0  0
    6.1394   -1.3671    5.7615 H   0  0  0  0  0  0  0  0  0  0  0  0
    4.9000   -1.1475    1.3073 H   0  0  0  0  0  0  0  0  0  0  0  0
    1.5736   -2.9894    2.1075 H   0  0  0  0  0  0  0  0  0  0  0  0
    0.2380   -4.1869    3.8302 H   0  0  0  0  0  0  0  0  0  0  0  0
    1.0730   -3.8116    5.2952 H   0  0  0  0  0  0  0  0  0  0  0  0
    0.4971   -5.4338    5.0388 H   0  0  0  0  0  0  0  0  0  0  0  0
    2.2944   -4.6613   -0.8772 H   0  0  0  0  0  0  0  0  0  0  0  0
    4.8551   -3.3102   -1.9935 H   0  0  0  0  0  0  0  0  0  0  0  0
    5.5752   -0.9096   -2.1424 H   0  0  0  0  0  0  0  0  0  0  0  0
    4.3935   -0.5082   -0.8969 H   0  0  0  0  0  0  0  0  0  0  0  0
    3.8603   -1.1338   -2.4489 H   0  0  0  0  0  0  0  0  0  0  0  0
    6.5370   -3.6169   -0.5548 H   0  0  0  0  0  0  0  0  0  0  0  0
    6.5394   -1.9506   -0.2263 H   0  0  0  0  0  0  0  0  0  0  0  0
    6.6191   -2.8395    1.8363 H   0  0  0  0  0  0  0  0  0  0  0  0
    6.6485   -6.4636    1.7540 H   0  0  0  0  0  0  0  0  0  0  0  0
    7.6174   -5.0211    1.6038 H   0  0  0  0  0  0  0  0  0  0  0  0
    6.6972   -5.6221    0.2380 H   0  0  0  0  0  0  0  0  0  0  0  0
    6.5412   -4.9455    3.6785 H   0  0  0  0  0  0  0  0  0  0  0  0
    5.2006   -3.9041    3.8568 H   0  0  0  0  0  0  0  0  0  0  0  0
    4.5332   -6.8383    3.4221 H   0  0  0  0  0  0  0  0  0  0  0  0
    5.3408   -6.3669    4.8501 H   0  0  0  0  0  0  0  0  0  0  0  0
    2.9013   -6.5493    5.1433 H   0  0  0  0  0  0  0  0  0  0  0  0
    3.8662   -3.7455    5.8033 H   0  0  0  0  0  0  0  0  0  0  0  0
    4.3865   -5.1664    6.6846 H   0  0  0  0  0  0  0  0  0  0  0  0
    2.7042   -4.6918    6.7194 H   0  0  0  0  0  0  0  0  0  0  0  0
    4.0249   -6.2516    1.4384 H   0  0  0  0  0  0  0  0  0  0  0  0
  1  2  1  0
  1 28  1  0
  1 29  1  0
  1 30  1  0
  2  3  1  0
  3  4  2  0
  3  5  1  0
  5 19  1  0
  5  6  1  0
  5 31  1  6
  6  7  1  0
  7 13  1  0
  7  8  1  0
  7 32  1  1
  8  9  1  0
  9 24  1  0
  9 10  1  1
  9 11  1  0
 10 33  1  0
 10 34  1  0
 10 35  1  0
 11 12  1  0
 13 12  1  6
 13 26  1  0
 13 14  1  0
 14 27  1  0
 14 15  1  0
 14 36  1  6
 15 16  1  0
 16 17  1  0
 16 18  1  0
 16 37  1  6
 17 38  1  0
 17 39  1  0
 17 40  1  0
 18 19  1  0
 18 41  1  0
 18 42  1  0
 19 20  1  0
 19 43  1  1
 20 21  1  6
 20 22  1  0
 20 26  1  0
 21 44  1  0
 21 45  1  0
 21 46  1  0
 22 23  1  0
 22 47  1  0
 22 48  1  0
 23 24  1  0
 23 49  1  0
 23 50  1  0
 24 25  1  0
 24 51  1  1
 25 52  1  0
 25 53  1  0
 25 54  1  0
 26 27  1  0
 26 55  1  6
M  END
>  <i_m_ct_stereo_status>  (27) 
1

>  <s_m_source_file>  (27) 
/var/tmp/pbs.5083856.sched01/tmpvmzhfh45/10d4iokkg5.sdf

>  <i_m_source_file_index>  (27) 
2

>  <i_lp_mmshare_version>  (27) 
48012

>  <i_f3d_flags>  (27) 
0

>  <s_epik_input>  (27) 
W0NIM11bQ0BASF0oW0NIMl0xKU9bQ0BIXTJPW0NASF0zW0NAQF0oW0NIM10pKFtDQEBIXTFbQ0BASF0oT1tDQEhdNFtDQEBdMjM1KUMoPU8pT1tDSDNdKVtDSDJdW0NIMl1bQ0BASF0oW0NIM10pW0NAXShPNCkoW0NIM10pT081

>  <s_epik_cmdline>  (27) 
J2VwaWtfcHl0aG9uJywgJy1waHQnLCAnMi4wJywgJy1waCcsICc3LjAnLCAnLXRuJywgJzgnLCAnLW1hJywgJzIwMCcsICctaW1hZScsICc8aW5maWxlLm1hZT4nLCAnLW9tYWUnLCAnPG91dGZpbGUubWFlPic=

>  <r_lp_tautomer_probability>  (27) 
1

>  <r_epik_Ionization_Penalty>  (27) 
2.89428e-15

>  <r_epik_Ionization_Penalty_Charging>  (27) 
0

>  <r_epik_Ionization_Penalty_Neutral>  (27) 
2.89428e-15

>  <r_epik_State_Penalty>  (27) 
-0

>  <r_epik_Charging_Adjusted_Penalty>  (27) 
0

>  <i_epik_Tot_Q>  (27) 
0

>  <i_epik_Tot_abs_Q>  (27) 
0

>  <s_epik_Chemistry_Notes>  (27) 
This compound has an ester and may undergo hydrolysis at high or low pH. This compound contains an acetal/aminal-like group ( X-CH(R)-Y where X, Y are N, S, or O) that may be acid/base labile, releasing an aldehyde.

>  <s_lp_Force_Field>  (27) 
OPLS3e

>  <r_lp_Energy>  (27) 
62.6663

>  <b_lp_Chiralities_Consistent>  (27) 
1

>  <s_lp_Variant>  (27) 
9:0-1

>  <s_i_glide_gridfile>  (27) 
pfpi4k_grid

>  <i_i_glide_lignum>  (27) 
2

>  <i_i_glide_rotatable_bonds>  (27) 
2

>  <r_i_docking_score>  (27) 
-2.3565

>  <r_i_glide_ligand_efficiency>  (27) 
-0.0872778

>  <r_i_glide_ligand_efficiency_sa>  (27) 
-0.261833

>  <r_i_glide_ligand_efficiency_ln>  (27) 
-0.548554

>  <r_i_glide_gscore>  (27) 
-2.3565

>  <r_i_glide_lipo>  (27) 
-0.327177

>  <r_i_glide_hbond>  (27) 
-0.0554962

>  <r_i_glide_metal>  (27) 
-0

>  <r_i_glide_rewards>  (27) 
-0.913707

>  <r_i_glide_evdw>  (27) 
-22.3052

>  <r_i_glide_ecoul>  (27) 
-0.262837

>  <r_i_glide_erotb>  (27) 
0.131564

>  <r_i_glide_esite>  (27) 
-0.0369975

>  <r_i_glide_emodel>  (27) 
-24.0095

>  <r_i_glide_energy>  (27) 
-22.568

>  <r_i_glide_einternal>  (27) 
1.60746

>  <r_i_glide_intrahb_reward>  (27) 
-0

>  <i_i_glide_confnum>  (27) 
2

>  <i_i_glide_posenum>  (27) 
2

>  <r_i_glide_eff_state_penalty>  (27) 
0

>  <ligand_id>  (27) 
9

>  <original_smiles>  (27) 
COC(=O)C1OC2OC3(C)OOC24C2OC(C)CC1C(C)(CCC3C)C4O2

>  <smiles>  (27) 
[H]C([H])([H])OC(=O)C1([H])OC2([H])OC3(C([H])([H])[H])OOC24C2([H])OC([H])(C([H])([H])[H])C([H])([H])C1([H])C(C([H])([H])[H])(C([H])([H])C([H])([H])C3([H])C([H])([H])[H])C4([H])O2

$$$$
10:0:0
     RDKit          3D

 50 55  0  0  1  0  0  0  0  0999 V2000
    5.7252   -1.0167    2.6624 C   0  0  0  0  0  0  0  0  0  0  0  0
    5.3435   -1.6402    1.2862 C   0  0  0  0  0  0  0  0  0  0  0  0
    5.3054   -0.4353    0.3276 C   0  0  0  0  0  0  0  0  0  0  0  0
    6.4620   -2.6961    0.9562 C   0  0  1  0  0  0  0  0  0  0  0  0
    6.0302   -3.9089    1.7930 C   0  0  0  0  0  0  0  0  0  0  0  0
    4.5500   -3.9271    1.5100 C   0  0  2  0  0  0  0  0  0  0  0  0
    3.7492   -5.2048    1.7658 C   0  0  1  0  0  0  0  0  0  0  0  0
    2.4229   -5.1551    2.5300 C   0  0  0  0  0  0  0  0  0  0  0  0
    1.9278   -6.5322    2.9865 C   0  0  2  0  0  0  0  0  0  0  0  0
    1.4825   -7.3803    1.8381 C   0  0  0  0  0  0  0  0  0  0  0  0
    0.1914   -7.6779    1.9518 C   0  0  0  0  0  0  0  0  0  0  0  0
   -0.3033   -7.0571    3.1738 C   0  0  0  0  0  0  0  0  0  0  0  0
   -1.4579   -7.0823    3.5871 O   0  0  0  0  0  0  0  0  0  0  0  0
    0.7304   -6.4025    3.7453 O   0  0  0  0  0  0  0  0  0  0  0  0
    3.5963   -5.4253    0.3297 O   0  0  0  0  0  0  0  0  0  0  0  0
    4.2097   -4.1352    0.0403 C   0  0  2  0  0  0  0  0  0  0  0  0
    5.3144   -4.0261   -1.0118 C   0  0  1  0  0  0  0  0  0  0  0  0
    4.7642   -3.4590   -2.2403 N   0  0  0  0  0  0  0  0  0  0  0  0
    3.8262   -2.4769   -2.2919 C   0  0  0  0  0  0  0  0  0  0  0  0
    3.4388   -1.7172   -3.7076 S   0  0  0  0  0  0  0  0  0  0  0  0
    3.2544   -2.1518   -1.0996 N   0  0  0  0  0  0  0  0  0  0  0  0
    3.2437   -2.9839    0.1061 C   0  0  2  0  0  0  0  0  0  0  0  0
    4.0126   -2.4792    1.3663 C   0  0  2  0  0  0  0  0  0  0  0  0
    3.0633   -1.9563    2.4665 C   0  0  0  0  0  0  0  0  0  0  0  0
    6.5747   -3.2298   -0.5078 C   0  0  1  0  0  0  0  0  0  0  0  0
    7.0979   -2.2656   -1.4204 O   0  0  0  0  0  0  0  0  0  0  0  0
    6.7311   -0.6025    2.6342 H   0  0  0  0  0  0  0  0  0  0  0  0
    5.7101   -1.7317    3.4829 H   0  0  0  0  0  0  0  0  0  0  0  0
    5.0642   -0.1951    2.9389 H   0  0  0  0  0  0  0  0  0  0  0  0
    5.2595   -0.7032   -0.7209 H   0  0  0  0  0  0  0  0  0  0  0  0
    6.2061    0.1657    0.4356 H   0  0  0  0  0  0  0  0  0  0  0  0
    4.4488    0.2056    0.5348 H   0  0  0  0  0  0  0  0  0  0  0  0
    7.4442   -2.3481    1.2674 H   0  0  0  0  0  0  0  0  0  0  0  0
    6.5229   -4.8350    1.4943 H   0  0  0  0  0  0  0  0  0  0  0  0
    6.2156   -3.7804    2.8581 H   0  0  0  0  0  0  0  0  0  0  0  0
    4.4150   -5.9564    2.1857 H   0  0  0  0  0  0  0  0  0  0  0  0
    2.5599   -4.5602    3.4302 H   0  0  0  0  0  0  0  0  0  0  0  0
    1.6463   -4.6531    1.9575 H   0  0  0  0  0  0  0  0  0  0  0  0
    2.1425   -7.6793    1.0391 H   0  0  0  0  0  0  0  0  0  0  0  0
   -0.4121   -8.2643    1.2816 H   0  0  0  0  0  0  0  0  0  0  0  0
    2.6842   -7.0527    3.5749 H   0  0  0  0  0  0  0  0  0  0  0  0
    5.6254   -5.0364   -1.2631 H   0  0  0  0  0  0  0  0  0  0  0  0
    5.1438   -3.8016   -3.1108 H   0  0  0  0  0  0  0  0  0  0  0  0
    2.5182   -1.4506   -1.1208 H   0  0  0  0  0  0  0  0  0  0  0  0
    2.2445   -3.3340    0.3434 H   0  0  0  0  0  0  0  0  0  0  0  0
    2.0750   -2.4149    2.4035 H   0  0  0  0  0  0  0  0  0  0  0  0
    2.8997   -0.8773    2.4034 H   0  0  0  0  0  0  0  0  0  0  0  0
    3.4375   -2.1893    3.4671 H   0  0  0  0  0  0  0  0  0  0  0  0
    7.3762   -3.9688   -0.4722 H   0  0  0  0  0  0  0  0  0  0  0  0
    7.4875   -2.7281   -2.1484 H   0  0  0  0  0  0  0  0  0  0  0  0
  1  2  1  0
  1 27  1  0
  1 28  1  0
  1 29  1  0
  2 23  1  0
  2  3  1  0
  2  4  1  0
  3 30  1  0
  3 31  1  0
  3 32  1  0
  4 25  1  0
  4  5  1  0
  4 33  1  1
  6  5  1  6
  5 34  1  0
  5 35  1  0
  6 16  1  0
  6 23  1  0
  6  7  1  0
  7  8  1  0
  7 15  1  0
  7 36  1  1
  8 37  1  0
  8 38  1  0
  8  9  1  0
  9 14  1  0
  9 10  1  0
  9 41  1  1
 10 39  1  0
 10 11  2  0
 11 40  1  0
 11 12  1  0
 12 13  2  0
 12 14  1  0
 16 15  1  1
 16 22  1  0
 16 17  1  0
 17 18  1  0
 17 25  1  0
 17 42  1  6
 18 19  1  0
 18 43  1  0
 19 20  2  0
 19 21  1  0
 21 22  1  0
 21 44  1  0
 22 23  1  0
 22 45  1  1
 23 24  1  1
 24 46  1  0
 24 47  1  0
 24 48  1  0
 25 26  1  0
 25 49  1  1
 26 50  1  0
M  END
>  <i_m_ct_stereo_status>  (28) 
1

>  <s_m_source_file>  (28) 
/var/tmp/pbs.5083856.sched01/tmpvmzhfh45/10d4iokkg5.sdf

>  <i_m_source_file_index>  (28) 
3

>  <i_lp_mmshare_version>  (28) 
48012

>  <i_f3d_flags>  (28) 
0

>  <s_epik_input>  (28) 
W09IXVtDQEhdMVtDQEhdKFtDSDJdMilDKFtDSDNdKShbQ0gzXSlbQ0BAXTMoW0NIM10pW0NASF00W05IXUMoPVMpW05IXVtDQEBIXTFbQ0BdNChbQ0BAXTIzNSlPW0NAQEhdNVtDSDJdYzZbY0hdW2NIXWMobzYpW09IXQ==

>  <s_epik_cmdline>  (28) 
J2VwaWtfcHl0aG9uJywgJy1waHQnLCAnMi4wJywgJy1waCcsICc3LjAnLCAnLXRuJywgJzgnLCAnLW1hJywgJzIwMCcsICctaW1hZScsICc8aW5maWxlLm1hZT4nLCAnLW9tYWUnLCAnPG91dGZpbGUubWFlPic=

>  <r_lp_tautomer_probability>  (28) 
1

>  <r_epik_Ionization_Penalty>  (28) 
9.87094e-07

>  <r_epik_Ionization_Penalty_Charging>  (28) 
0

>  <r_epik_Ionization_Penalty_Neutral>  (28) 
9.87094e-07

>  <r_epik_State_Penalty>  (28) 
-0

>  <r_epik_Charging_Adjusted_Penalty>  (28) 
0

>  <i_epik_Tot_Q>  (28) 
0

>  <i_epik_Tot_abs_Q>  (28) 
0

>  <s_epik_Chemistry_Notes>  (28) 
This compound has an ester and may undergo hydrolysis at high or low pH.

>  <s_lp_Force_Field>  (28) 
OPLS3e

>  <r_lp_Energy>  (28) 
70.6971

>  <b_lp_Chiralities_Consistent>  (28) 
1

>  <s_lp_Variant>  (28) 
10:0-1

>  <s_i_glide_gridfile>  (28) 
pfpi4k_grid

>  <i_i_glide_lignum>  (28) 
3

>  <i_i_glide_rotatable_bonds>  (28) 
3

>  <r_i_docking_score>  (28) 
-4.68446

>  <r_i_glide_ligand_efficiency>  (28) 
-0.180171

>  <r_i_glide_ligand_efficiency_sa>  (28) 
-0.533757

>  <r_i_glide_ligand_efficiency_ln>  (28) 
-1.10013

>  <r_i_glide_gscore>  (28) 
-4.68446

>  <r_i_glide_lipo>  (28) 
-0.629306

>  <r_i_glide_hbond>  (28) 
-0.383108

>  <r_i_glide_metal>  (28) 
-0

>  <r_i_glide_rewards>  (28) 
-1.11154

>  <r_i_glide_evdw>  (28) 
-30.1932

>  <r_i_glide_ecoul>  (28) 
-7.74997

>  <r_i_glide_erotb>  (28) 
0.273167

>  <r_i_glide_esite>  (28) 
-0.161513

>  <r_i_glide_emodel>  (28) 
-48.4996

>  <r_i_glide_energy>  (28) 
-37.9432

>  <r_i_glide_einternal>  (28) 
1.61035

>  <r_i_glide_intrahb_reward>  (28) 
-0

>  <i_i_glide_confnum>  (28) 
1

>  <i_i_glide_posenum>  (28) 
32

>  <r_i_glide_eff_state_penalty>  (28) 
0

>  <ligand_id>  (28) 
10

>  <original_smiles>  (28) 
CC1(C)C2CC34C(Cc5ccc(O)o5)OC35C(NC(=S)NC5C14C)C2O

>  <smiles>  (28) 
[H]OC1([H])C2([H])N([H])C(=S)N([H])C3([H])C24OC([H])(C([H])([H])C2([H])OC(=O)C([H])=C2[H])C42C([H])([H])C1([H])C(C([H])([H])[H])(C([H])([H])[H])C32C([H])([H])[H]

$$$$
10:0:1
     RDKit          3D

 50 55  0  0  1  0  0  0  0  0999 V2000
    5.0660   -1.0481    2.8556 C   0  0  0  0  0  0  0  0  0  0  0  0
    4.8631   -1.7326    1.4712 C   0  0  0  0  0  0  0  0  0  0  0  0
    4.8116   -0.5563    0.4727 C   0  0  0  0  0  0  0  0  0  0  0  0
    6.0918   -2.6971    1.2803 C   0  0  1  0  0  0  0  0  0  0  0  0
    5.6870   -3.9226    2.1104 C   0  0  0  0  0  0  0  0  0  0  0  0
    4.2462   -4.0756    1.6948 C   0  0  2  0  0  0  0  0  0  0  0  0
    3.5320   -5.4116    1.9163 C   0  0  1  0  0  0  0  0  0  0  0  0
    2.1368   -5.4631    2.5423 C   0  0  0  0  0  0  0  0  0  0  0  0
    1.6381   -6.8941    2.8103 C   0  0  2  0  0  0  0  0  0  0  0  0
    0.1767   -7.0583    2.5107 C   0  0  0  0  0  0  0  0  0  0  0  0
   -0.4980   -7.4119    3.6052 C   0  0  0  0  0  0  0  0  0  0  0  0
    0.4648   -7.5014    4.7045 C   0  0  0  0  0  0  0  0  0  0  0  0
    0.2150   -7.7851    5.8709 O   0  0  0  0  0  0  0  0  0  0  0  0
    1.6879   -7.2004    4.1995 O   0  0  0  0  0  0  0  0  0  0  0  0
    3.5289   -5.6780    0.4810 O   0  0  0  0  0  0  0  0  0  0  0  0
    4.0580   -4.3492    0.2072 C   0  0  2  0  0  0  0  0  0  0  0  0
    5.2413   -4.1674   -0.7444 C   0  0  1  0  0  0  0  0  0  0  0  0
    4.7583   -3.6782   -2.0318 N   0  0  0  0  0  0  0  0  0  0  0  0
    3.7492   -2.7814   -2.1965 C   0  0  0  0  0  0  0  0  0  0  0  0
    3.4402   -2.0859   -3.6613 S   0  0  0  0  0  0  0  0  0  0  0  0
    3.0370   -2.4858   -1.0745 N   0  0  0  0  0  0  0  0  0  0  0  0
    2.9980   -3.2846    0.1513 C   0  0  2  0  0  0  0  0  0  0  0  0
    3.6046   -2.6811    1.4572 C   0  0  2  0  0  0  0  0  0  0  0  0
    2.5176   -2.2149    2.4518 C   0  0  0  0  0  0  0  0  0  0  0  0
    6.3801   -3.2513   -0.1537 C   0  0  1  0  0  0  0  0  0  0  0  0
    6.9019   -2.2649   -1.0457 O   0  0  0  0  0  0  0  0  0  0  0  0
    6.0300   -0.5415    2.9016 H   0  0  0  0  0  0  0  0  0  0  0  0
    5.0360   -1.7460    3.6916 H   0  0  0  0  0  0  0  0  0  0  0  0
    4.3101   -0.2857    3.0455 H   0  0  0  0  0  0  0  0  0  0  0  0
    4.8811   -0.8535   -0.5664 H   0  0  0  0  0  0  0  0  0  0  0  0
    5.6411    0.1297    0.6359 H   0  0  0  0  0  0  0  0  0  0  0  0
    3.8878    0.0099    0.5862 H   0  0  0  0  0  0  0  0  0  0  0  0
    7.0107   -2.2597    1.6667 H   0  0  0  0  0  0  0  0  0  0  0  0
    6.2784   -4.8119    1.8829 H   0  0  0  0  0  0  0  0  0  0  0  0
    5.7667   -3.7543    3.1845 H   0  0  0  0  0  0  0  0  0  0  0  0
    4.2103   -6.1026    2.4162 H   0  0  0  0  0  0  0  0  0  0  0  0
    2.1529   -4.9185    3.4856 H   0  0  0  0  0  0  0  0  0  0  0  0
    1.4160   -4.9337    1.9279 H   0  0  0  0  0  0  0  0  0  0  0  0
   -0.2368   -6.9196    1.5253 H   0  0  0  0  0  0  0  0  0  0  0  0
   -1.5526   -7.6181    3.6910 H   0  0  0  0  0  0  0  0  0  0  0  0
    2.2102   -7.6238    2.2380 H   0  0  0  0  0  0  0  0  0  0  0  0
    5.6662   -5.1493   -0.9391 H   0  0  0  0  0  0  0  0  0  0  0  0
    5.2451   -4.0085   -2.8528 H   0  0  0  0  0  0  0  0  0  0  0  0
    2.3014   -1.7885   -1.1589 H   0  0  0  0  0  0  0  0  0  0  0  0
    2.0181   -3.7207    0.3085 H   0  0  0  0  0  0  0  0  0  0  0  0
    1.5782   -2.7529    2.3126 H   0  0  0  0  0  0  0  0  0  0  0  0
    2.2782   -1.1538    2.3353 H   0  0  0  0  0  0  0  0  0  0  0  0
    2.8211   -2.3986    3.4864 H   0  0  0  0  0  0  0  0  0  0  0  0
    7.2315   -3.9241   -0.0295 H   0  0  0  0  0  0  0  0  0  0  0  0
    7.2655   -2.7171   -1.7924 H   0  0  0  0  0  0  0  0  0  0  0  0
  1  2  1  0
  1 27  1  0
  1 28  1  0
  1 29  1  0
  2 23  1  0
  2  3  1  0
  2  4  1  0
  3 30  1  0
  3 31  1  0
  3 32  1  0
  4 25  1  0
  4  5  1  0
  4 33  1  1
  6  5  1  6
  5 34  1  0
  5 35  1  0
  6 16  1  0
  6 23  1  0
  6  7  1  0
  7  8  1  0
  7 15  1  0
  7 36  1  1
  8 37  1  0
  8 38  1  0
  8  9  1  0
  9 14  1  0
  9 10  1  0
  9 41  1  6
 10 39  1  0
 10 11  2  0
 11 40  1  0
 11 12  1  0
 12 13  2  0
 12 14  1  0
 16 15  1  1
 16 22  1  0
 16 17  1  0
 17 18  1  0
 17 25  1  0
 17 42  1  6
 18 19  1  0
 18 43  1  0
 19 20  2  0
 19 21  1  0
 21 22  1  0
 21 44  1  0
 22 23  1  0
 22 45  1  1
 23 24  1  1
 24 46  1  0
 24 47  1  0
 24 48  1  0
 25 26  1  0
 25 49  1  1
 26 50  1  0
M  END
>  <i_m_ct_stereo_status>  (29) 
1

>  <s_m_source_file>  (29) 
/var/tmp/pbs.5083856.sched01/tmpvmzhfh45/10d4iokkg5.sdf

>  <i_m_source_file_index>  (29) 
3

>  <i_lp_mmshare_version>  (29) 
48012

>  <i_f3d_flags>  (29) 
0

>  <s_epik_input>  (29) 
W09IXVtDQEhdMVtDQEhdKFtDSDJdMilDKFtDSDNdKShbQ0gzXSlbQ0BAXTMoW0NIM10pW0NASF00W05IXUMoPVMpW05IXVtDQEBIXTFbQ0BdNChbQ0BAXTIzNSlPW0NAQEhdNVtDSDJdYzZbY0hdW2NIXWMobzYpW09IXQ==

>  <s_epik_cmdline>  (29) 
J2VwaWtfcHl0aG9uJywgJy1waHQnLCAnMi4wJywgJy1waCcsICc3LjAnLCAnLXRuJywgJzgnLCAnLW1hJywgJzIwMCcsICctaW1hZScsICc8aW5maWxlLm1hZT4nLCAnLW9tYWUnLCAnPG91dGZpbGUubWFlPic=

>  <r_lp_tautomer_probability>  (29) 
1

>  <r_epik_Ionization_Penalty>  (29) 
9.87094e-07

>  <r_epik_Ionization_Penalty_Charging>  (29) 
0

>  <r_epik_Ionization_Penalty_Neutral>  (29) 
9.87094e-07

>  <r_epik_State_Penalty>  (29) 
-0

>  <r_epik_Charging_Adjusted_Penalty>  (29) 
0

>  <i_epik_Tot_Q>  (29) 
0

>  <i_epik_Tot_abs_Q>  (29) 
0

>  <s_epik_Chemistry_Notes>  (29) 
This compound has an ester and may undergo hydrolysis at high or low pH.

>  <s_lp_Force_Field>  (29) 
OPLS3e

>  <r_lp_Energy>  (29) 
70.6971

>  <b_lp_Chiralities_Consistent>  (29) 
1

>  <s_lp_Variant>  (29) 
10:0-1

>  <s_i_glide_gridfile>  (29) 
pfpi4k_grid

>  <i_i_glide_lignum>  (29) 
3

>  <i_i_glide_rotatable_bonds>  (29) 
3

>  <r_i_docking_score>  (29) 
-4.17629

>  <r_i_glide_ligand_efficiency>  (29) 
-0.160627

>  <r_i_glide_ligand_efficiency_sa>  (29) 
-0.475856

>  <r_i_glide_ligand_efficiency_ln>  (29) 
-0.980788

>  <r_i_glide_gscore>  (29) 
-4.17629

>  <r_i_glide_lipo>  (29) 
-0.599958

>  <r_i_glide_hbond>  (29) 
-0.32

>  <r_i_glide_metal>  (29) 
-0

>  <r_i_glide_rewards>  (29) 
-1.14118

>  <r_i_glide_evdw>  (29) 
-29.4067

>  <r_i_glide_ecoul>  (29) 
-5.41147

>  <r_i_glide_erotb>  (29) 
0.273167

>  <r_i_glide_esite>  (29) 
-0.106266

>  <r_i_glide_emodel>  (29) 
-43.1972

>  <r_i_glide_energy>  (29) 
-34.8181

>  <r_i_glide_einternal>  (29) 
3.30841

>  <r_i_glide_intrahb_reward>  (29) 
-0

>  <i_i_glide_confnum>  (29) 
1

>  <i_i_glide_posenum>  (29) 
9

>  <r_i_glide_eff_state_penalty>  (29) 
0

>  <ligand_id>  (29) 
10

>  <original_smiles>  (29) 
CC1(C)C2CC34C(Cc5ccc(O)o5)OC35C(NC(=S)NC5C14C)C2O

>  <smiles>  (29) 
[H]OC1([H])C2([H])N([H])C(=S)N([H])C3([H])C24OC([H])(C([H])([H])C2([H])OC(=O)C([H])=C2[H])C42C([H])([H])C1([H])C(C([H])([H])[H])(C([H])([H])[H])C32C([H])([H])[H]

$$$$
10:0:2
     RDKit          3D

 50 55  0  0  1  0  0  0  0  0999 V2000
    5.6723   -1.0759    2.6967 C   0  0  0  0  0  0  0  0  0  0  0  0
    5.2900   -1.6969    1.3234 C   0  0  0  0  0  0  0  0  0  0  0  0
    5.2172   -0.4875    0.3702 C   0  0  0  0  0  0  0  0  0  0  0  0
    6.4266   -2.7313    0.9819 C   0  0  1  0  0  0  0  0  0  0  0  0
    6.0253   -3.9586    1.8124 C   0  0  0  0  0  0  0  0  0  0  0  0
    4.5418   -4.0009    1.5422 C   0  0  2  0  0  0  0  0  0  0  0  0
    3.7638   -5.2948    1.7940 C   0  0  1  0  0  0  0  0  0  0  0  0
    2.4458   -5.2833    2.5755 C   0  0  0  0  0  0  0  0  0  0  0  0
    1.8480   -6.6812    2.7874 C   0  0  2  0  0  0  0  0  0  0  0  0
    0.6265   -6.6599    3.6625 C   0  0  0  0  0  0  0  0  0  0  0  0
    0.8142   -7.3949    4.7575 C   0  0  0  0  0  0  0  0  0  0  0  0
    2.1714   -7.9381    4.6940 C   0  0  0  0  0  0  0  0  0  0  0  0
    2.7101   -8.6498    5.5342 O   0  0  0  0  0  0  0  0  0  0  0  0
    2.7294   -7.5044    3.5401 O   0  0  0  0  0  0  0  0  0  0  0  0
    3.5953   -5.5045    0.3604 O   0  0  0  0  0  0  0  0  0  0  0  0
    4.1870   -4.2073    0.0767 C   0  0  2  0  0  0  0  0  0  0  0  0
    5.2785   -4.0730   -0.9799 C   0  0  1  0  0  0  0  0  0  0  0  0
    4.7090   -3.5225   -2.1990 N   0  0  0  0  0  0  0  0  0  0  0  0
    3.7695   -2.5472   -2.2451 C   0  0  0  0  0  0  0  0  0  0  0  0
    3.4181   -1.7802   -3.6640 S   0  0  0  0  0  0  0  0  0  0  0  0
    3.1731   -2.2518   -1.0553 N   0  0  0  0  0  0  0  0  0  0  0  0
    3.2021   -3.0771    0.1558 C   0  0  2  0  0  0  0  0  0  0  0  0
    3.9759   -2.5577    1.4104 C   0  0  2  0  0  0  0  0  0  0  0  0
    3.0286   -2.0604    2.5247 C   0  0  0  0  0  0  0  0  0  0  0  0
    6.5289   -3.2501   -0.4892 C   0  0  1  0  0  0  0  0  0  0  0  0
    7.0136   -2.2648   -1.4014 O   0  0  0  0  0  0  0  0  0  0  0  0
    6.6679   -0.6368    2.6571 H   0  0  0  0  0  0  0  0  0  0  0  0
    5.6799   -1.7987    3.5106 H   0  0  0  0  0  0  0  0  0  0  0  0
    4.9933   -0.2724    2.9822 H   0  0  0  0  0  0  0  0  0  0  0  0
    5.1637   -0.7513   -0.6800 H   0  0  0  0  0  0  0  0  0  0  0  0
    6.1025    0.1394    0.4701 H   0  0  0  0  0  0  0  0  0  0  0  0
    4.3488    0.1308    0.5895 H   0  0  0  0  0  0  0  0  0  0  0  0
    7.4102   -2.3677    1.2768 H   0  0  0  0  0  0  0  0  0  0  0  0
    6.5303   -4.8734    1.5021 H   0  0  0  0  0  0  0  0  0  0  0  0
    6.2093   -3.8338    2.8758 H   0  0  0  0  0  0  0  0  0  0  0  0
    4.4502   -6.0393    2.1958 H   0  0  0  0  0  0  0  0  0  0  0  0
    2.6222   -4.8304    3.5519 H   0  0  0  0  0  0  0  0  0  0  0  0
    1.6976   -4.6614    2.0928 H   0  0  0  0  0  0  0  0  0  0  0  0
   -0.2744   -6.1211    3.4226 H   0  0  0  0  0  0  0  0  0  0  0  0
    0.1170   -7.5787    5.5596 H   0  0  0  0  0  0  0  0  0  0  0  0
    1.6094   -7.1412    1.8278 H   0  0  0  0  0  0  0  0  0  0  0  0
    5.6090   -5.0726   -1.2364 H   0  0  0  0  0  0  0  0  0  0  0  0
    5.0947   -3.8514   -3.0723 H   0  0  0  0  0  0  0  0  0  0  0  0
    2.4456   -1.5388   -1.0752 H   0  0  0  0  0  0  0  0  0  0  0  0
    2.2142   -3.4541    0.4042 H   0  0  0  0  0  0  0  0  0  0  0  0
    2.0445   -2.5289    2.4655 H   0  0  0  0  0  0  0  0  0  0  0  0
    2.8515   -0.9834    2.4625 H   0  0  0  0  0  0  0  0  0  0  0  0
    3.4187   -2.2997    3.5179 H   0  0  0  0  0  0  0  0  0  0  0  0
    7.3453   -3.9752   -0.4720 H   0  0  0  0  0  0  0  0  0  0  0  0
    7.3309   -2.7129   -2.1711 H   0  0  0  0  0  0  0  0  0  0  0  0
  1  2  1  0
  1 27  1  0
  1 28  1  0
  1 29  1  0
  2 23  1  0
  2  3  1  0
  2  4  1  0
  3 30  1  0
  3 31  1  0
  3 32  1  0
  4 25  1  0
  4  5  1  0
  4 33  1  1
  6  5  1  6
  5 34  1  0
  5 35  1  0
  6 16  1  0
  6 23  1  0
  6  7  1  0
  7  8  1  0
  7 15  1  0
  7 36  1  1
  8 37  1  0
  8 38  1  0
  8  9  1  0
  9 14  1  0
  9 10  1  0
  9 41  1  6
 10 39  1  0
 10 11  2  0
 11 40  1  0
 11 12  1  0
 12 13  2  0
 12 14  1  0
 16 15  1  1
 16 22  1  0
 16 17  1  0
 17 18  1  0
 17 25  1  0
 17 42  1  6
 18 19  1  0
 18 43  1  0
 19 20  2  0
 19 21  1  0
 21 22  1  0
 21 44  1  0
 22 23  1  0
 22 45  1  1
 23 24  1  1
 24 46  1  0
 24 47  1  0
 24 48  1  0
 25 26  1  0
 25 49  1  1
 26 50  1  0
M  END
>  <i_m_ct_stereo_status>  (30) 
1

>  <s_m_source_file>  (30) 
/var/tmp/pbs.5083856.sched01/tmpvmzhfh45/10d4iokkg5.sdf

>  <i_m_source_file_index>  (30) 
3

>  <i_lp_mmshare_version>  (30) 
48012

>  <i_f3d_flags>  (30) 
0

>  <s_epik_input>  (30) 
W09IXVtDQEhdMVtDQEhdKFtDSDJdMilDKFtDSDNdKShbQ0gzXSlbQ0BAXTMoW0NIM10pW0NASF00W05IXUMoPVMpW05IXVtDQEBIXTFbQ0BdNChbQ0BAXTIzNSlPW0NAQEhdNVtDSDJdYzZbY0hdW2NIXWMobzYpW09IXQ==

>  <s_epik_cmdline>  (30) 
J2VwaWtfcHl0aG9uJywgJy1waHQnLCAnMi4wJywgJy1waCcsICc3LjAnLCAnLXRuJywgJzgnLCAnLW1hJywgJzIwMCcsICctaW1hZScsICc8aW5maWxlLm1hZT4nLCAnLW9tYWUnLCAnPG91dGZpbGUubWFlPic=

>  <r_lp_tautomer_probability>  (30) 
1

>  <r_epik_Ionization_Penalty>  (30) 
9.87094e-07

>  <r_epik_Ionization_Penalty_Charging>  (30) 
0

>  <r_epik_Ionization_Penalty_Neutral>  (30) 
9.87094e-07

>  <r_epik_State_Penalty>  (30) 
-0

>  <r_epik_Charging_Adjusted_Penalty>  (30) 
0

>  <i_epik_Tot_Q>  (30) 
0

>  <i_epik_Tot_abs_Q>  (30) 
0

>  <s_epik_Chemistry_Notes>  (30) 
This compound has an ester and may undergo hydrolysis at high or low pH.

>  <s_lp_Force_Field>  (30) 
OPLS3e

>  <r_lp_Energy>  (30) 
70.6971

>  <b_lp_Chiralities_Consistent>  (30) 
1

>  <s_lp_Variant>  (30) 
10:0-1

>  <s_i_glide_gridfile>  (30) 
pfpi4k_grid

>  <i_i_glide_lignum>  (30) 
3

>  <i_i_glide_rotatable_bonds>  (30) 
3

>  <r_i_docking_score>  (30) 
-4.11839

>  <r_i_glide_ligand_efficiency>  (30) 
-0.1584

>  <r_i_glide_ligand_efficiency_sa>  (30) 
-0.469259

>  <r_i_glide_ligand_efficiency_ln>  (30) 
-0.967191

>  <r_i_glide_gscore>  (30) 
-4.11839

>  <r_i_glide_lipo>  (30) 
-0.636002

>  <r_i_glide_hbond>  (30) 
-0.32

>  <r_i_glide_metal>  (30) 
-0

>  <r_i_glide_rewards>  (30) 
-1.14109

>  <r_i_glide_evdw>  (30) 
-26.7255

>  <r_i_glide_ecoul>  (30) 
-5.74892

>  <r_i_glide_erotb>  (30) 
0.273167

>  <r_i_glide_esite>  (30) 
-0.0958611

>  <r_i_glide_emodel>  (30) 
-42.1701

>  <r_i_glide_energy>  (30) 
-32.4744

>  <r_i_glide_einternal>  (30) 
0.562609

>  <r_i_glide_intrahb_reward>  (30) 
-0

>  <i_i_glide_confnum>  (30) 
2

>  <i_i_glide_posenum>  (30) 
1

>  <r_i_glide_eff_state_penalty>  (30) 
0

>  <ligand_id>  (30) 
10

>  <original_smiles>  (30) 
CC1(C)C2CC34C(Cc5ccc(O)o5)OC35C(NC(=S)NC5C14C)C2O

>  <smiles>  (30) 
[H]OC1([H])C2([H])N([H])C(=S)N([H])C3([H])C24OC([H])(C([H])([H])C2([H])OC(=O)C([H])=C2[H])C42C([H])([H])C1([H])C(C([H])([H])[H])(C([H])([H])[H])C32C([H])([H])[H]

$$$$
11:0:0
     RDKit          3D

 60 66  0  0  1  0  0  0  0  0999 V2000
    6.5381    0.5448    5.1212 C   0  0  0  0  0  0  0  0  0  0  0  0
    5.1848   -0.1151    4.9187 C   0  0  0  0  0  0  0  0  0  0  0  0
    4.0393    0.3699    5.4473 C   0  0  0  0  0  0  0  0  0  0  0  0
    2.4477   -0.1783    5.3666 C   0  0  2  0  0  0  0  0  0  0  0  0
    1.1056   -1.2852    4.7744 C   0  0  1  0  0  0  0  0  0  0  0  0
   -0.2076   -1.5136    5.5924 C   0  0  0  0  0  0  0  0  0  0  0  0
    0.5963   -1.1210    3.3287 C   0  0  0  0  0  0  0  0  0  0  0  0
    1.6351   -0.5314    2.4360 C   0  0  0  0  0  0  0  0  0  0  0  0
    2.8057   -0.2303    3.3411 C   0  0  1  0  0  0  0  0  0  0  0  0
    3.6244    0.4687    2.4247 O   0  0  0  0  0  0  0  0  0  0  0  0
    2.2251    0.9149    4.4665 C   0  0  1  0  0  0  0  0  0  0  0  0
    0.9399    1.2240    5.0986 O   0  0  0  0  0  0  0  0  0  0  0  0
    0.9586    1.2546    6.5543 C   0  0  1  0  0  0  0  0  0  0  0  0
   -0.4131    1.6441    7.0533 C   0  0  0  0  0  0  0  0  0  0  0  0
   -1.5101    2.0702    6.2527 C   0  0  0  0  0  0  0  0  0  0  0  0
   -2.5172    2.3299    7.1387 C   0  0  0  0  0  0  0  0  0  0  0  0
   -2.1087    2.1214    8.4215 O   0  0  0  0  0  0  0  0  0  0  0  0
   -0.8075    1.7225    8.3594 C   0  0  0  0  0  0  0  0  0  0  0  0
    1.3362   -0.0603    7.0926 O   0  0  0  0  0  0  0  0  0  0  0  0
    2.6242   -0.6781    6.6871 C   0  0  1  0  0  0  0  0  0  0  0  0
    3.2718   -1.9730    5.7440 C   0  0  0  0  0  0  0  0  0  0  0  0
    3.6299   -1.6763    4.0119 C   0  0  1  0  0  0  0  0  0  0  0  0
    3.5124   -2.9534    3.1409 C   0  0  0  0  0  0  0  0  0  0  0  0
    4.2995   -2.8415    1.8440 C   0  0  0  0  0  0  0  0  0  0  0  0
    3.9063   -3.5840    0.7059 C   0  0  0  0  0  0  0  0  0  0  0  0
    4.6308   -3.4682   -0.4960 C   0  0  0  0  0  0  0  0  0  0  0  0
    5.7527   -2.6229   -0.5602 C   0  0  0  0  0  0  0  0  0  0  0  0
    6.1413   -1.8820    0.5679 C   0  0  0  0  0  0  0  0  0  0  0  0
    7.2210   -1.0577    0.4852 O   0  0  0  0  0  0  0  0  0  0  0  0
    5.4162   -1.9763    1.7690 C   0  0  0  0  0  0  0  0  0  0  0  0
    5.7935   -1.1682    2.8225 O   0  0  0  0  0  0  0  0  0  0  0  0
    5.1261   -1.3524    4.0715 C   0  0  1  0  0  0  0  0  0  0  0  0
    7.2431   -0.1460    5.5894 H   0  0  0  0  0  0  0  0  0  0  0  0
    6.4612    1.4224    5.7645 H   0  0  0  0  0  0  0  0  0  0  0  0
    6.9523    0.8548    4.1587 H   0  0  0  0  0  0  0  0  0  0  0  0
    4.1521    1.2643    6.0463 H   0  0  0  0  0  0  0  0  0  0  0  0
    1.3186   -2.3480    4.6872 H   0  0  0  0  0  0  0  0  0  0  0  0
   -0.8106   -0.6088    5.6848 H   0  0  0  0  0  0  0  0  0  0  0  0
   -0.0148   -1.9171    6.5892 H   0  0  0  0  0  0  0  0  0  0  0  0
   -0.8479   -2.2475    5.0993 H   0  0  0  0  0  0  0  0  0  0  0  0
    0.3356   -2.0993    2.9260 H   0  0  0  0  0  0  0  0  0  0  0  0
   -0.3143   -0.5172    3.2880 H   0  0  0  0  0  0  0  0  0  0  0  0
    1.8909   -1.1708    1.5885 H   0  0  0  0  0  0  0  0  0  0  0  0
    1.2318    0.3902    2.0140 H   0  0  0  0  0  0  0  0  0  0  0  0
    3.1831    1.2657    2.1738 H   0  0  0  0  0  0  0  0  0  0  0  0
    2.7966    1.8515    4.4676 H   0  0  0  0  0  0  0  0  0  0  0  0
    1.6960    1.9907    6.8752 H   0  0  0  0  0  0  0  0  0  0  0  0
   -1.5638    2.1630    5.1752 H   0  0  0  0  0  0  0  0  0  0  0  0
   -3.5408    2.6547    7.0329 H   0  0  0  0  0  0  0  0  0  0  0  0
   -0.3345    1.5411    9.3162 H   0  0  0  0  0  0  0  0  0  0  0  0
    3.3562   -0.2874    7.4015 H   0  0  0  0  0  0  0  0  0  0  0  0
    4.2056   -2.2344    6.2436 H   0  0  0  0  0  0  0  0  0  0  0  0
    2.7467   -2.9128    5.9335 H   0  0  0  0  0  0  0  0  0  0  0  0
    3.9424   -3.7889    3.6949 H   0  0  0  0  0  0  0  0  0  0  0  0
    2.4772   -3.2292    2.9453 H   0  0  0  0  0  0  0  0  0  0  0  0
    3.0425   -4.2308    0.7462 H   0  0  0  0  0  0  0  0  0  0  0  0
    4.3220   -4.0217   -1.3728 H   0  0  0  0  0  0  0  0  0  0  0  0
    6.3106   -2.5376   -1.4784 H   0  0  0  0  0  0  0  0  0  0  0  0
    7.3165   -0.5096    1.2597 H   0  0  0  0  0  0  0  0  0  0  0  0
    5.6545   -2.1511    4.5910 H   0  0  0  0  0  0  0  0  0  0  0  0
  1  2  1  0
  1 33  1  0
  1 34  1  0
  1 35  1  0
  2 32  1  0
  2  3  2  0
  4  3  1  6
  3 36  1  0
  4 11  1  0
  4 20  1  0
  4  5  1  0
  5  6  1  0
  5  7  1  0
  5 37  1  6
  6 38  1  0
  6 39  1  0
  6 40  1  0
  7  8  1  0
  7 41  1  0
  7 42  1  0
  8  9  1  0
  8 43  1  0
  8 44  1  0
  9 22  1  0
  9 10  1  6
  9 11  1  0
 10 45  1  0
 11 12  1  0
 11 46  1  1
 12 13  1  0
 13 14  1  0
 13 19  1  0
 13 47  1  6
 14 18  2  0
 14 15  1  0
 15 16  2  0
 15 48  1  0
 16 17  1  0
 16 49  1  0
 17 18  1  0
 18 50  1  0
 19 20  1  0
 20 21  1  0
 20 51  1  1
 21 22  1  0
 21 52  1  0
 21 53  1  0
 22 32  1  0
 22 23  1  6
 23 24  1  0
 23 54  1  0
 23 55  1  0
 24 30  2  0
 24 25  1  0
 25 26  2  0
 25 56  1  0
 26 27  1  0
 26 57  1  0
 27 28  2  0
 27 58  1  0
 28 29  1  0
 28 30  1  0
 29 59  1  0
 30 31  1  0
 31 32  1  0
 32 60  1  1
M  END
>  <i_m_ct_stereo_status>  (31) 
1

>  <s_m_source_file>  (31) 
/var/tmp/pbs.5083856.sched01/tmpvmzhfh45/10d4iokkg5.sdf

>  <i_m_source_file_index>  (31) 
4

>  <i_lp_mmshare_version>  (31) 
48012

>  <i_f3d_flags>  (31) 
0

>  <s_epik_input>  (31) 
W09IXWMxW2NIXVtjSF1bY0hdYyhbQ0gyXTIpYzFPW0NAQEhdKEMoW0NIM10pPVtDSF0zKVtDQF0yKFtDQEBdKFtPSF0pKFtDQEBIXTRDMzU2KVtDSDJdW0NIMl1bQ0BASF01W0NIM10pW0NIMl1bQ0BASF02T1tDQEBIXShPNCljN1tjSF1bY0hdb1tjSF03

>  <s_epik_cmdline>  (31) 
J2VwaWtfcHl0aG9uJywgJy1waHQnLCAnMi4wJywgJy1waCcsICc3LjAnLCAnLXRuJywgJzgnLCAnLW1hJywgJzIwMCcsICctaW1hZScsICc8aW5maWxlLm1hZT4nLCAnLW9tYWUnLCAnPG91dGZpbGUubWFlPic=

>  <r_lp_tautomer_probability>  (31) 
1

>  <r_epik_Ionization_Penalty>  (31) 
0.000384652

>  <r_epik_Ionization_Penalty_Charging>  (31) 
0

>  <r_epik_Ionization_Penalty_Neutral>  (31) 
0.000384652

>  <r_epik_State_Penalty>  (31) 
0.000235097

>  <r_epik_Charging_Adjusted_Penalty>  (31) 
0.000235097

>  <i_epik_Tot_Q>  (31) 
0

>  <i_epik_Tot_abs_Q>  (31) 
0

>  <s_epik_Chemistry_Notes>  (31) 
This compound contains an acetal/aminal-like group ( X-CH(R)-Y where X, Y are N, S, or O) that may be acid/base labile, releasing an aldehyde.

>  <s_lp_Force_Field>  (31) 
OPLS3e

>  <r_lp_Energy>  (31) 
484.856

>  <b_lp_Chiralities_Consistent>  (31) 
1

>  <s_lp_Variant>  (31) 
11:0-1

>  <s_i_glide_gridfile>  (31) 
pfpi4k_grid

>  <i_i_glide_lignum>  (31) 
4

>  <i_i_glide_rotatable_bonds>  (31) 
3

>  <r_i_docking_score>  (31) 
-2.93274

>  <r_i_glide_ligand_efficiency>  (31) 
-0.0916481

>  <r_i_glide_ligand_efficiency_sa>  (31) 
-0.290965

>  <r_i_glide_ligand_efficiency_ln>  (31) 
-0.65672

>  <r_i_glide_gscore>  (31) 
-2.93274

>  <r_i_glide_lipo>  (31) 
-0.620967

>  <r_i_glide_hbond>  (31) 
0

>  <r_i_glide_metal>  (31) 
-0

>  <r_i_glide_rewards>  (31) 
-0.432976

>  <r_i_glide_evdw>  (31) 
-24.7463

>  <r_i_glide_ecoul>  (31) 
-4.96875

>  <r_i_glide_erotb>  (31) 
0.104621

>  <r_i_glide_esite>  (31) 
-0.000790434

>  <r_i_glide_emodel>  (31) 
-34.5326

>  <r_i_glide_energy>  (31) 
-29.7151

>  <r_i_glide_einternal>  (31) 
0.361809

>  <r_i_glide_intrahb_reward>  (31) 
-0

>  <i_i_glide_confnum>  (31) 
2

>  <i_i_glide_posenum>  (31) 
25

>  <r_i_glide_eff_state_penalty>  (31) 
0

>  <ligand_id>  (31) 
11

>  <original_smiles>  (31) 
CC1=CC23C(C)CCC4(O)C2OC(c2ccoc2)OC3CC42Cc3cccc(O)c3OC12

>  <smiles>  (31) 
[H]Oc1c([H])c([H])c([H])c2c1OC1([H])C(C([H])([H])[H])=C([H])C34C5([H])OC([H])(c6c([H])oc([H])c6[H])OC3([H])C(O[H])(C([H])([H])C([H])([H])C4([H])C([H])([H])[H])C1(C2([H])[H])C5([H])[H]

$$$$
11:0:1
     RDKit          3D

 60 66  0  0  1  0  0  0  0  0999 V2000
    5.2728   -9.8091    1.9619 C   0  0  0  0  0  0  0  0  0  0  0  0
    5.0007   -8.3648    2.3355 C   0  0  0  0  0  0  0  0  0  0  0  0
    4.9222   -7.3624    1.4300 C   0  0  0  0  0  0  0  0  0  0  0  0
    4.6451   -5.7089    1.6124 C   0  0  2  0  0  0  0  0  0  0  0  0
    4.2171   -4.1935    2.5671 C   0  0  1  0  0  0  0  0  0  0  0  0
    4.6649   -2.7709    2.1024 C   0  0  0  0  0  0  0  0  0  0  0  0
    2.7517   -3.9692    3.0175 C   0  0  0  0  0  0  0  0  0  0  0  0
    2.0385   -5.2758    3.1672 C   0  0  0  0  0  0  0  0  0  0  0  0
    3.0187   -6.3339    2.7079 C   0  0  1  0  0  0  0  0  0  0  0  0
    2.1467   -7.4495    2.6902 O   0  0  0  0  0  0  0  0  0  0  0  0
    3.3432   -5.9725    1.0787 C   0  0  1  0  0  0  0  0  0  0  0  0
    3.3849   -4.7729    0.2451 O   0  0  0  0  0  0  0  0  0  0  0  0
    4.6297   -4.5889   -0.4911 C   0  0  1  0  0  0  0  0  0  0  0  0
    4.5113   -3.3595   -1.3604 C   0  0  0  0  0  0  0  0  0  0  0  0
    3.4596   -2.4057   -1.3299 C   0  0  0  0  0  0  0  0  0  0  0  0
    3.7753   -1.4828   -2.2826 C   0  0  0  0  0  0  0  0  0  0  0  0
    4.9297   -1.8205   -2.9222 O   0  0  0  0  0  0  0  0  0  0  0  0
    5.3695   -2.9789   -2.3548 C   0  0  0  0  0  0  0  0  0  0  0  0
    5.7597   -4.4466    0.4389 O   0  0  0  0  0  0  0  0  0  0  0  0
    6.0432   -5.5181    1.4268 C   0  0  1  0  0  0  0  0  0  0  0  0
    5.9596   -5.8635    3.1179 C   0  0  0  0  0  0  0  0  0  0  0  0
    4.4449   -6.5617    3.7805 C   0  0  1  0  0  0  0  0  0  0  0  0
    4.2017   -6.1826    5.2634 C   0  0  0  0  0  0  0  0  0  0  0  0
    3.2535   -7.1504    5.9565 C   0  0  0  0  0  0  0  0  0  0  0  0
    2.4801   -6.7284    7.0580 C   0  0  0  0  0  0  0  0  0  0  0  0
    1.6008   -7.6285    7.6905 C   0  0  0  0  0  0  0  0  0  0  0  0
    1.5026   -8.9542    7.2285 C   0  0  0  0  0  0  0  0  0  0  0  0
    2.2646   -9.3736    6.1281 C   0  0  0  0  0  0  0  0  0  0  0  0
    2.1570  -10.6606    5.6768 O   0  0  0  0  0  0  0  0  0  0  0  0
    3.1335   -8.4769    5.4784 C   0  0  0  0  0  0  0  0  0  0  0  0
    3.8056   -8.9141    4.3573 O   0  0  0  0  0  0  0  0  0  0  0  0
    4.7901   -8.0566    3.7876 C   0  0  1  0  0  0  0  0  0  0  0  0
    6.1537  -10.1950    2.4816 H   0  0  0  0  0  0  0  0  0  0  0  0
    5.4338   -9.9191    0.8870 H   0  0  0  0  0  0  0  0  0  0  0  0
    4.4207  -10.4380    2.2299 H   0  0  0  0  0  0  0  0  0  0  0  0
    5.0800   -7.6581    0.4003 H   0  0  0  0  0  0  0  0  0  0  0  0
    4.6474   -4.0808    3.5577 H   0  0  0  0  0  0  0  0  0  0  0  0
    4.1917   -2.4718    1.1689 H   0  0  0  0  0  0  0  0  0  0  0  0
    5.7495   -2.6771    1.9944 H   0  0  0  0  0  0  0  0  0  0  0  0
    4.3688   -2.0130    2.8316 H   0  0  0  0  0  0  0  0  0  0  0  0
    2.7428   -3.4762    3.9892 H   0  0  0  0  0  0  0  0  0  0  0  0
    2.2013   -3.3113    2.3365 H   0  0  0  0  0  0  0  0  0  0  0  0
    1.6573   -5.4532    4.1752 H   0  0  0  0  0  0  0  0  0  0  0  0
    1.1765   -5.2696    2.5015 H   0  0  0  0  0  0  0  0  0  0  0  0
    2.6563   -8.2220    2.4900 H   0  0  0  0  0  0  0  0  0  0  0  0
    3.1017   -6.7987    0.4081 H   0  0  0  0  0  0  0  0  0  0  0  0
    4.7984   -5.4681   -1.1156 H   0  0  0  0  0  0  0  0  0  0  0  0
    2.5959   -2.3760   -0.6806 H   0  0  0  0  0  0  0  0  0  0  0  0
    3.3020   -0.5690   -2.6089 H   0  0  0  0  0  0  0  0  0  0  0  0
    6.2855   -3.3769   -2.7720 H   0  0  0  0  0  0  0  0  0  0  0  0
    6.6935   -6.2216    0.8951 H   0  0  0  0  0  0  0  0  0  0  0  0
    6.7628   -6.5828    3.2884 H   0  0  0  0  0  0  0  0  0  0  0  0
    6.3702   -5.0491    3.7206 H   0  0  0  0  0  0  0  0  0  0  0  0
    5.1523   -6.2415    5.7958 H   0  0  0  0  0  0  0  0  0  0  0  0
    3.8549   -5.1544    5.3775 H   0  0  0  0  0  0  0  0  0  0  0  0
    2.5507   -5.7116    7.4141 H   0  0  0  0  0  0  0  0  0  0  0  0
    0.9970   -7.3014    8.5245 H   0  0  0  0  0  0  0  0  0  0  0  0
    0.8340   -9.6479    7.7123 H   0  0  0  0  0  0  0  0  0  0  0  0
    1.8160  -11.2709    6.3339 H   0  0  0  0  0  0  0  0  0  0  0  0
    5.7241   -8.2361    4.3231 H   0  0  0  0  0  0  0  0  0  0  0  0
  1  2  1  0
  1 33  1  0
  1 34  1  0
  1 35  1  0
  2 32  1  0
  2  3  2  0
  4  3  1  1
  3 36  1  0
  4 11  1  0
  4 20  1  0
  4  5  1  0
  5  6  1  0
  5  7  1  0
  5 37  1  1
  6 38  1  0
  6 39  1  0
  6 40  1  0
  7  8  1  0
  7 41  1  0
  7 42  1  0
  8  9  1  0
  8 43  1  0
  8 44  1  0
  9 22  1  0
  9 10  1  6
  9 11  1  0
 10 45  1  0
 11 12  1  0
 11 46  1  6
 12 13  1  0
 13 14  1  0
 13 19  1  0
 13 47  1  6
 14 18  2  0
 14 15  1  0
 15 16  2  0
 15 48  1  0
 16 17  1  0
 16 49  1  0
 17 18  1  0
 18 50  1  0
 19 20  1  0
 20 21  1  0
 20 51  1  6
 21 22  1  0
 21 52  1  0
 21 53  1  0
 22 32  1  0
 22 23  1  1
 23 24  1  0
 23 54  1  0
 23 55  1  0
 24 30  2  0
 24 25  1  0
 25 26  2  0
 25 56  1  0
 26 27  1  0
 26 57  1  0
 27 28  2  0
 27 58  1  0
 28 29  1  0
 28 30  1  0
 29 59  1  0
 30 31  1  0
 31 32  1  0
 32 60  1  1
M  END
>  <i_m_ct_stereo_status>  (32) 
1

>  <s_m_source_file>  (32) 
/var/tmp/pbs.5083856.sched01/tmpvmzhfh45/10d4iokkg5.sdf

>  <i_m_source_file_index>  (32) 
4

>  <i_lp_mmshare_version>  (32) 
48012

>  <i_f3d_flags>  (32) 
0

>  <s_epik_input>  (32) 
W09IXWMxW2NIXVtjSF1bY0hdYyhbQ0gyXTIpYzFPW0NAQEhdKEMoW0NIM10pPVtDSF0zKVtDQF0yKFtDQEBdKFtPSF0pKFtDQEBIXTRDMzU2KVtDSDJdW0NIMl1bQ0BASF01W0NIM10pW0NIMl1bQ0BASF02T1tDQEBIXShPNCljN1tjSF1bY0hdb1tjSF03

>  <s_epik_cmdline>  (32) 
J2VwaWtfcHl0aG9uJywgJy1waHQnLCAnMi4wJywgJy1waCcsICc3LjAnLCAnLXRuJywgJzgnLCAnLW1hJywgJzIwMCcsICctaW1hZScsICc8aW5maWxlLm1hZT4nLCAnLW9tYWUnLCAnPG91dGZpbGUubWFlPic=

>  <r_lp_tautomer_probability>  (32) 
1

>  <r_epik_Ionization_Penalty>  (32) 
0.000384652

>  <r_epik_Ionization_Penalty_Charging>  (32) 
0

>  <r_epik_Ionization_Penalty_Neutral>  (32) 
0.000384652

>  <r_epik_State_Penalty>  (32) 
0.000235097

>  <r_epik_Charging_Adjusted_Penalty>  (32) 
0.000235097

>  <i_epik_Tot_Q>  (32) 
0

>  <i_epik_Tot_abs_Q>  (32) 
0

>  <s_epik_Chemistry_Notes>  (32) 
This compound contains an acetal/aminal-like group ( X-CH(R)-Y where X, Y are N, S, or O) that may be acid/base labile, releasing an aldehyde.

>  <s_lp_Force_Field>  (32) 
OPLS3e

>  <r_lp_Energy>  (32) 
484.856

>  <b_lp_Chiralities_Consistent>  (32) 
1

>  <s_lp_Variant>  (32) 
11:0-1

>  <s_i_glide_gridfile>  (32) 
pfpi4k_grid

>  <i_i_glide_lignum>  (32) 
4

>  <i_i_glide_rotatable_bonds>  (32) 
3

>  <r_i_docking_score>  (32) 
-2.85586

>  <r_i_glide_ligand_efficiency>  (32) 
-0.0892457

>  <r_i_glide_ligand_efficiency_sa>  (32) 
-0.283338

>  <r_i_glide_ligand_efficiency_ln>  (32) 
-0.639506

>  <r_i_glide_gscore>  (32) 
-2.85586

>  <r_i_glide_lipo>  (32) 
-0.426426

>  <r_i_glide_hbond>  (32) 
0

>  <r_i_glide_metal>  (32) 
-0

>  <r_i_glide_rewards>  (32) 
-0.432976

>  <r_i_glide_evdw>  (32) 
-26.891

>  <r_i_glide_ecoul>  (32) 
-4.97546

>  <r_i_glide_erotb>  (32) 
0.104621

>  <r_i_glide_esite>  (32) 
-0.0102121

>  <r_i_glide_emodel>  (32) 
-36.4616

>  <r_i_glide_energy>  (32) 
-31.8665

>  <r_i_glide_einternal>  (32) 
0.790843

>  <r_i_glide_intrahb_reward>  (32) 
-0

>  <i_i_glide_confnum>  (32) 
1

>  <i_i_glide_posenum>  (32) 
6

>  <r_i_glide_eff_state_penalty>  (32) 
0

>  <ligand_id>  (32) 
11

>  <original_smiles>  (32) 
CC1=CC23C(C)CCC4(O)C2OC(c2ccoc2)OC3CC42Cc3cccc(O)c3OC12

>  <smiles>  (32) 
[H]Oc1c([H])c([H])c([H])c2c1OC1([H])C(C([H])([H])[H])=C([H])C34C5([H])OC([H])(c6c([H])oc([H])c6[H])OC3([H])C(O[H])(C([H])([H])C([H])([H])C4([H])C([H])([H])[H])C1(C2([H])[H])C5([H])[H]

$$$$
11:0:2
     RDKit          3D

 60 66  0  0  1  0  0  0  0  0999 V2000
    6.5264    0.5459    5.0920 C   0  0  0  0  0  0  0  0  0  0  0  0
    5.1799   -0.1278    4.8945 C   0  0  0  0  0  0  0  0  0  0  0  0
    4.0295    0.3470    5.4229 C   0  0  0  0  0  0  0  0  0  0  0  0
    2.4477   -0.2245    5.3507 C   0  0  2  0  0  0  0  0  0  0  0  0
    1.1198   -1.3564    4.7712 C   0  0  1  0  0  0  0  0  0  0  0  0
   -0.1869   -1.5979    5.5956 C   0  0  0  0  0  0  0  0  0  0  0  0
    0.6044   -1.2084    3.3273 C   0  0  0  0  0  0  0  0  0  0  0  0
    1.6295   -0.6108    2.4266 C   0  0  0  0  0  0  0  0  0  0  0  0
    2.7952   -0.2841    3.3274 C   0  0  1  0  0  0  0  0  0  0  0  0
    3.5784    0.4374    2.3994 O   0  0  0  0  0  0  0  0  0  0  0  0
    2.2033    0.8586    4.4451 C   0  0  1  0  0  0  0  0  0  0  0  0
    0.9174    1.1503    5.0795 O   0  0  0  0  0  0  0  0  0  0  0  0
    0.9406    1.1912    6.5346 C   0  0  1  0  0  0  0  0  0  0  0  0
   -0.4367    1.5601    7.0365 C   0  0  0  0  0  0  0  0  0  0  0  0
   -1.5060    2.0805    6.2540 C   0  0  0  0  0  0  0  0  0  0  0  0
   -2.5281    2.2814    7.1384 C   0  0  0  0  0  0  0  0  0  0  0  0
   -2.1526    1.9525    8.4052 O   0  0  0  0  0  0  0  0  0  0  0  0
   -0.8583    1.5342    8.3356 C   0  0  0  0  0  0  0  0  0  0  0  0
    1.3411   -0.1132    7.0809 O   0  0  0  0  0  0  0  0  0  0  0  0
    2.6361   -0.7134    6.6738 C   0  0  1  0  0  0  0  0  0  0  0  0
    3.3001   -2.0052    5.7383 C   0  0  0  0  0  0  0  0  0  0  0  0
    3.6476   -1.7138    4.0026 C   0  0  1  0  0  0  0  0  0  0  0  0
    3.5482   -2.9990    3.1418 C   0  0  0  0  0  0  0  0  0  0  0  0
    4.3260   -2.8816    1.8389 C   0  0  0  0  0  0  0  0  0  0  0  0
    3.9435   -3.6338    0.7084 C   0  0  0  0  0  0  0  0  0  0  0  0
    4.6634   -3.5134   -0.4976 C   0  0  0  0  0  0  0  0  0  0  0  0
    5.7733   -2.6509   -0.5665 C   0  0  0  0  0  0  0  0  0  0  0  0
    6.1556   -1.8973    0.5575 C   0  0  0  0  0  0  0  0  0  0  0  0
    7.2177   -1.0562    0.4817 O   0  0  0  0  0  0  0  0  0  0  0  0
    5.4281   -1.9969    1.7602 C   0  0  0  0  0  0  0  0  0  0  0  0
    5.7882   -1.1727    2.8001 O   0  0  0  0  0  0  0  0  0  0  0  0
    5.1374   -1.3686    4.0555 C   0  0  1  0  0  0  0  0  0  0  0  0
    7.2494   -0.1283    5.5646 H   0  0  0  0  0  0  0  0  0  0  0  0
    6.4359    1.4249    5.7241 H   0  0  0  0  0  0  0  0  0  0  0  0
    6.9294    0.8634    4.1293 H   0  0  0  0  0  0  0  0  0  0  0  0
    4.1306    1.2478    6.0160 H   0  0  0  0  0  0  0  0  0  0  0  0
    1.3491   -2.4152    4.6899 H   0  0  0  0  0  0  0  0  0  0  0  0
   -0.8040   -0.7013    5.6853 H   0  0  0  0  0  0  0  0  0  0  0  0
    0.0152   -1.9927    6.5943 H   0  0  0  0  0  0  0  0  0  0  0  0
   -0.8185   -2.3452    5.1100 H   0  0  0  0  0  0  0  0  0  0  0  0
    0.3500   -2.1908    2.9321 H   0  0  0  0  0  0  0  0  0  0  0  0
   -0.3128   -0.6160    3.2876 H   0  0  0  0  0  0  0  0  0  0  0  0
    1.8831   -1.2528    1.5789 H   0  0  0  0  0  0  0  0  0  0  0  0
    1.2148    0.3062    2.0059 H   0  0  0  0  0  0  0  0  0  0  0  0
    3.7125   -0.1075    1.6395 H   0  0  0  0  0  0  0  0  0  0  0  0
    2.7616    1.8022    4.4325 H   0  0  0  0  0  0  0  0  0  0  0  0
    1.6655    1.9416    6.8500 H   0  0  0  0  0  0  0  0  0  0  0  0
   -1.5327    2.2721    5.1891 H   0  0  0  0  0  0  0  0  0  0  0  0
   -3.5425    2.6364    7.0409 H   0  0  0  0  0  0  0  0  0  0  0  0
   -0.4089    1.2617    9.2814 H   0  0  0  0  0  0  0  0  0  0  0  0
    3.3632   -0.3066    7.3850 H   0  0  0  0  0  0  0  0  0  0  0  0
    4.2393   -2.2475    6.2382 H   0  0  0  0  0  0  0  0  0  0  0  0
    2.7895   -2.9515    5.9376 H   0  0  0  0  0  0  0  0  0  0  0  0
    3.9942   -3.8254    3.6992 H   0  0  0  0  0  0  0  0  0  0  0  0
    2.5158   -3.2915    2.9521 H   0  0  0  0  0  0  0  0  0  0  0  0
    3.0911   -4.2963    0.7540 H   0  0  0  0  0  0  0  0  0  0  0  0
    4.3616   -4.0767   -1.3683 H   0  0  0  0  0  0  0  0  0  0  0  0
    6.3263   -2.5633   -1.4871 H   0  0  0  0  0  0  0  0  0  0  0  0
    7.3169   -0.5026    1.2514 H   0  0  0  0  0  0  0  0  0  0  0  0
    5.6847   -2.1534    4.5784 H   0  0  0  0  0  0  0  0  0  0  0  0
  1  2  1  0
  1 33  1  0
  1 34  1  0
  1 35  1  0
  2 32  1  0
  2  3  2  0
  4  3  1  6
  3 36  1  0
  4 11  1  0
  4 20  1  0
  4  5  1  0
  5  6  1  0
  5  7  1  0
  5 37  1  6
  6 38  1  0
  6 39  1  0
  6 40  1  0
  7  8  1  0
  7 41  1  0
  7 42  1  0
  8  9  1  0
  8 43  1  0
  8 44  1  0
  9 22  1  0
  9 10  1  6
  9 11  1  0
 10 45  1  0
 11 12  1  0
 11 46  1  1
 12 13  1  0
 13 14  1  0
 13 19  1  0
 13 47  1  6
 14 18  2  0
 14 15  1  0
 15 16  2  0
 15 48  1  0
 16 17  1  0
 16 49  1  0
 17 18  1  0
 18 50  1  0
 19 20  1  0
 20 21  1  0
 20 51  1  1
 21 22  1  0
 21 52  1  0
 21 53  1  0
 22 32  1  0
 22 23  1  6
 23 24  1  0
 23 54  1  0
 23 55  1  0
 24 30  2  0
 24 25  1  0
 25 26  2  0
 25 56  1  0
 26 27  1  0
 26 57  1  0
 27 28  2  0
 27 58  1  0
 28 29  1  0
 28 30  1  0
 29 59  1  0
 30 31  1  0
 31 32  1  0
 32 60  1  1
M  END
>  <i_m_ct_stereo_status>  (33) 
1

>  <s_m_source_file>  (33) 
/var/tmp/pbs.5083856.sched01/tmpvmzhfh45/10d4iokkg5.sdf

>  <i_m_source_file_index>  (33) 
4

>  <i_lp_mmshare_version>  (33) 
48012

>  <i_f3d_flags>  (33) 
0

>  <s_epik_input>  (33) 
W09IXWMxW2NIXVtjSF1bY0hdYyhbQ0gyXTIpYzFPW0NAQEhdKEMoW0NIM10pPVtDSF0zKVtDQF0yKFtDQEBdKFtPSF0pKFtDQEBIXTRDMzU2KVtDSDJdW0NIMl1bQ0BASF01W0NIM10pW0NIMl1bQ0BASF02T1tDQEBIXShPNCljN1tjSF1bY0hdb1tjSF03

>  <s_epik_cmdline>  (33) 
J2VwaWtfcHl0aG9uJywgJy1waHQnLCAnMi4wJywgJy1waCcsICc3LjAnLCAnLXRuJywgJzgnLCAnLW1hJywgJzIwMCcsICctaW1hZScsICc8aW5maWxlLm1hZT4nLCAnLW9tYWUnLCAnPG91dGZpbGUubWFlPic=

>  <r_lp_tautomer_probability>  (33) 
1

>  <r_epik_Ionization_Penalty>  (33) 
0.000384652

>  <r_epik_Ionization_Penalty_Charging>  (33) 
0

>  <r_epik_Ionization_Penalty_Neutral>  (33) 
0.000384652

>  <r_epik_State_Penalty>  (33) 
0.000235097

>  <r_epik_Charging_Adjusted_Penalty>  (33) 
0.000235097

>  <i_epik_Tot_Q>  (33) 
0

>  <i_epik_Tot_abs_Q>  (33) 
0

>  <s_epik_Chemistry_Notes>  (33) 
This compound contains an acetal/aminal-like group ( X-CH(R)-Y where X, Y are N, S, or O) that may be acid/base labile, releasing an aldehyde.

>  <s_lp_Force_Field>  (33) 
OPLS3e

>  <r_lp_Energy>  (33) 
484.856

>  <b_lp_Chiralities_Consistent>  (33) 
1

>  <s_lp_Variant>  (33) 
11:0-1

>  <s_i_glide_gridfile>  (33) 
pfpi4k_grid

>  <i_i_glide_lignum>  (33) 
4

>  <i_i_glide_rotatable_bonds>  (33) 
3

>  <r_i_docking_score>  (33) 
-2.82335

>  <r_i_glide_ligand_efficiency>  (33) 
-0.0882297

>  <r_i_glide_ligand_efficiency_sa>  (33) 
-0.280112

>  <r_i_glide_ligand_efficiency_ln>  (33) 
-0.632225

>  <r_i_glide_gscore>  (33) 
-2.82335

>  <r_i_glide_lipo>  (33) 
-0.605427

>  <r_i_glide_hbond>  (33) 
0

>  <r_i_glide_metal>  (33) 
-0

>  <r_i_glide_rewards>  (33) 
-0.432976

>  <r_i_glide_evdw>  (33) 
-24.6046

>  <r_i_glide_ecoul>  (33) 
-4.38886

>  <r_i_glide_erotb>  (33) 
0.104621

>  <r_i_glide_esite>  (33) 
-0.00101193

>  <r_i_glide_emodel>  (33) 
-33.8843

>  <r_i_glide_energy>  (33) 
-28.9934

>  <r_i_glide_einternal>  (33) 
0.332638

>  <r_i_glide_intrahb_reward>  (33) 
-0

>  <i_i_glide_confnum>  (33) 
2

>  <i_i_glide_posenum>  (33) 
28

>  <r_i_glide_eff_state_penalty>  (33) 
0

>  <ligand_id>  (33) 
11

>  <original_smiles>  (33) 
CC1=CC23C(C)CCC4(O)C2OC(c2ccoc2)OC3CC42Cc3cccc(O)c3OC12

>  <smiles>  (33) 
[H]Oc1c([H])c([H])c([H])c2c1OC1([H])C(C([H])([H])[H])=C([H])C34C5([H])OC([H])(c6c([H])oc([H])c6[H])OC3([H])C(O[H])(C([H])([H])C([H])([H])C4([H])C([H])([H])[H])C1(C2([H])[H])C5([H])[H]

$$$$
13:0:0
     RDKit          3D

 56 62  0  0  1  0  0  0  0  0999 V2000
    6.0308    0.2654    4.0200 C   0  0  0  0  0  0  0  0  0  0  0  0
    5.6417   -1.0511    3.6492 O   0  0  0  0  0  0  0  0  0  0  0  0
    4.2512   -1.3316    3.6320 C   0  0  2  0  0  0  0  0  0  0  0  0
    3.5997   -0.7633    2.3111 C   0  0  1  0  0  0  0  0  0  0  0  0
    3.8347   -1.6529    1.1452 N   0  0  0  0  0  0  0  0  0  0  0  0
    3.7735   -0.9656   -0.1632 C   0  0  0  0  0  0  0  0  0  0  0  0
    4.2063   -1.8546   -1.3242 C   0  0  0  0  0  0  0  0  0  0  0  0
    3.2498   -2.2604   -2.2883 C   0  0  0  0  0  0  0  0  0  0  0  0
    3.6330   -3.0651   -3.3781 C   0  0  0  0  0  0  0  0  0  0  0  0
    4.9658   -3.4683   -3.5129 C   0  0  0  0  0  0  0  0  0  0  0  0
    5.9244   -3.0573   -2.5754 C   0  0  0  0  0  0  0  0  0  0  0  0
    5.5528   -2.2513   -1.4832 C   0  0  0  0  0  0  0  0  0  0  0  0
    6.5313   -1.8586   -0.6070 O   0  0  0  0  0  0  0  0  0  0  0  0
    2.1519   -0.6564    2.6672 C   0  0  2  0  0  0  0  0  0  0  0  0
    0.9480    0.1077    2.1455 C   0  0  0  0  0  0  0  0  0  0  0  0
    0.5632    0.3521    3.6392 C   0  0  1  0  0  0  0  0  0  0  0  0
   -0.2277    1.5015    4.1596 C   0  0  0  0  0  0  0  0  0  0  0  0
   -0.4082    2.7620    3.5688 C   0  0  0  0  0  0  0  0  0  0  0  0
   -1.1848    3.6974    4.2703 C   0  0  0  0  0  0  0  0  0  0  0  0
   -1.7638    3.3709    5.5208 C   0  0  0  0  0  0  0  0  0  0  0  0
   -1.5354    2.1105    6.1156 C   0  0  0  0  0  0  0  0  0  0  0  0
   -0.7429    1.1947    5.4205 C   0  0  0  0  0  0  0  0  0  0  0  0
   -0.3541   -0.1001    5.8286 N   0  0  0  0  0  0  0  0  0  0  0  0
   -0.2084   -0.5401    7.2006 C   0  0  0  0  0  0  0  0  0  0  0  0
    0.5759   -0.6190    4.8259 C   0  0  2  0  0  0  0  0  0  0  0  0
    2.0849   -0.4495    5.1926 C   0  0  2  0  0  0  0  0  0  0  0  0
    2.4897   -1.8380    5.3450 O   0  0  0  0  0  0  0  0  0  0  0  0
    3.5482   -1.0037    4.9934 C   0  0  1  0  0  0  0  0  0  0  0  0
    2.0385    0.2832    3.8827 C   0  0  1  0  0  0  0  0  0  0  0  0
    7.1191    0.3615    4.0010 H   0  0  0  0  0  0  0  0  0  0  0  0
    5.6959    0.5964    5.0059 H   0  0  0  0  0  0  0  0  0  0  0  0
    5.6204    0.9461    3.2850 H   0  0  0  0  0  0  0  0  0  0  0  0
    4.1811   -2.4184    3.5921 H   0  0  0  0  0  0  0  0  0  0  0  0
    3.9898    0.2270    2.0841 H   0  0  0  0  0  0  0  0  0  0  0  0
    4.7597   -2.0487    1.2354 H   0  0  0  0  0  0  0  0  0  0  0  0
    2.7480   -0.6453   -0.3002 H   0  0  0  0  0  0  0  0  0  0  0  0
    4.3840   -0.0604   -0.1729 H   0  0  0  0  0  0  0  0  0  0  0  0
    2.2183   -1.9555   -2.2093 H   0  0  0  0  0  0  0  0  0  0  0  0
    2.8952   -3.3900   -4.0937 H   0  0  0  0  0  0  0  0  0  0  0  0
    5.2604   -4.1141   -4.3225 H   0  0  0  0  0  0  0  0  0  0  0  0
    6.9531   -3.3582   -2.6919 H   0  0  0  0  0  0  0  0  0  0  0  0
    6.2425   -1.3587    0.1353 H   0  0  0  0  0  0  0  0  0  0  0  0
    1.7924   -1.6711    2.8894 H   0  0  0  0  0  0  0  0  0  0  0  0
    1.1802    1.0008    1.5587 H   0  0  0  0  0  0  0  0  0  0  0  0
    0.2646   -0.5575    1.6359 H   0  0  0  0  0  0  0  0  0  0  0  0
    0.0583    3.0126    2.6258 H   0  0  0  0  0  0  0  0  0  0  0  0
   -1.3530    4.6683    3.8420 H   0  0  0  0  0  0  0  0  0  0  0  0
   -2.3835    4.0799    6.0328 H   0  0  0  0  0  0  0  0  0  0  0  0
   -1.9649    1.8578    7.0736 H   0  0  0  0  0  0  0  0  0  0  0  0
   -0.9716   -0.1544    7.8665 H   0  0  0  0  0  0  0  0  0  0  0  0
    0.7616   -0.2419    7.6026 H   0  0  0  0  0  0  0  0  0  0  0  0
   -0.2320   -1.6367    7.2041 H   0  0  0  0  0  0  0  0  0  0  0  0
    0.3363   -1.6222    4.4690 H   0  0  0  0  0  0  0  0  0  0  0  0
    4.2184   -0.7958    5.8273 H   0  0  0  0  0  0  0  0  0  0  0  0
    2.5615    1.2433    3.8394 H   0  0  0  0  0  0  0  0  0  0  0  0
    3.1564   -2.4034    1.1390 H   0  0  0  0  0  0  0  0  0  0  0  0
  1  2  1  0
  1 30  1  0
  1 31  1  0
  1 32  1  0
  2  3  1  0
  3 28  1  0
  3  4  1  0
  3 33  1  6
  4  5  1  0
  4 14  1  0
  4 34  1  6
  5  6  1  0
  5 35  1  0
  5 56  1  0
  6  7  1  0
  6 36  1  0
  6 37  1  0
  7 12  1  0
  7  8  2  0
  8  9  1  0
  8 38  1  0
  9 10  2  0
  9 39  1  0
 10 11  1  0
 10 40  1  0
 11 12  2  0
 11 41  1  0
 12 13  1  0
 13 42  1  0
 14 29  1  0
 14 15  1  0
 14 43  1  1
 16 15  1  6
 15 44  1  0
 15 45  1  0
 16 25  1  0
 16 29  1  0
 16 17  1  0
 17 22  2  0
 17 18  1  0
 18 19  2  0
 18 46  1  0
 19 20  1  0
 19 47  1  0
 20 21  2  0
 20 48  1  0
 21 22  1  0
 21 49  1  0
 22 23  1  0
 23 24  1  0
 23 25  1  0
 24 50  1  0
 24 51  1  0
 24 52  1  0
 25 26  1  0
 25 53  1  6
 26 28  1  0
 26 27  1  1
 26 29  1  0
 27 28  1  0
 28 54  1  1
 29 55  1  1
M  CHG  1   5   1
M  END
>  <i_m_ct_stereo_status>  (34) 
1

>  <s_m_source_file>  (34) 
/var/tmp/pbs.5083856.sched01/tmposmbpxi4/15rvt_o3g7.sdf

>  <i_m_source_file_index>  (34) 
1

>  <i_lp_mmshare_version>  (34) 
48012

>  <i_f3d_flags>  (34) 
0

>  <s_epik_input>  (34) 
W2NIXTFbY0hdW2NIXVtjSF1jKGMxW0NAXTIzNClOKFtDSDNdKVtDQEBIXTNDNTZbQ0BASF0oTzUpW0NASF0oT1tDSDNdKVtDQEhdKFtDQEhdKFtDSDJdMilbQ0BASF00NilbTkhdW0NIMl1jN1tjSF1bY0hdW2NIXVtjSF1jN1tPSF0=

>  <s_epik_cmdline>  (34) 
J2VwaWtfcHl0aG9uJywgJy1waHQnLCAnMi4wJywgJy1waCcsICc3LjAnLCAnLXRuJywgJzgnLCAnLW1hJywgJzIwMCcsICctaW1hZScsICc8aW5maWxlLm1hZT4nLCAnLW9tYWUnLCAnPG91dGZpbGUubWFlPic=

>  <r_lp_tautomer_probability>  (34) 
1

>  <r_epik_Ionization_Penalty>  (34) 
0.161049

>  <r_epik_Ionization_Penalty_Charging>  (34) 
0.0541449

>  <r_epik_Ionization_Penalty_Neutral>  (34) 
0.106904

>  <r_epik_State_Penalty>  (34) 
0.147827

>  <r_epik_Charging_Adjusted_Penalty>  (34) 
0.201972

>  <i_epik_Tot_Q>  (34) 
1

>  <i_epik_Tot_abs_Q>  (34) 
1

>  <s_lp_Force_Field>  (34) 
OPLS3e

>  <r_lp_Energy>  (34) 
139.192

>  <b_lp_Chiralities_Consistent>  (34) 
1

>  <s_lp_Variant>  (34) 
13:0-1

>  <s_i_glide_gridfile>  (34) 
pfpi4k_grid

>  <i_i_glide_lignum>  (34) 
1

>  <i_i_glide_rotatable_bonds>  (34) 
5

>  <r_i_docking_score>  (34) 
-3.25813

>  <r_i_glide_ligand_efficiency>  (34) 
-0.112349

>  <r_i_glide_ligand_efficiency_sa>  (34) 
-0.345173

>  <r_i_glide_ligand_efficiency_ln>  (34) 
-0.746029

>  <r_i_glide_gscore>  (34) 
-3.25813

>  <r_i_glide_lipo>  (34) 
-0.71322

>  <r_i_glide_hbond>  (34) 
-0.144284

>  <r_i_glide_metal>  (34) 
-0

>  <r_i_glide_rewards>  (34) 
-0.73989

>  <r_i_glide_evdw>  (34) 
-25.864

>  <r_i_glide_ecoul>  (34) 
-4.68182

>  <r_i_glide_erotb>  (34) 
0.382003

>  <r_i_glide_esite>  (34) 
-0.0472664

>  <r_i_glide_emodel>  (34) 
-37.7814

>  <r_i_glide_energy>  (34) 
-30.5458

>  <r_i_glide_einternal>  (34) 
3.27061

>  <r_i_glide_intrahb_reward>  (34) 
-0

>  <i_i_glide_confnum>  (34) 
5

>  <i_i_glide_posenum>  (34) 
5

>  <r_i_glide_eff_state_penalty>  (34) 
0

>  <ligand_id>  (34) 
13

>  <original_smiles>  (34) 
COC1C(NCc2ccccc2O)C2CC34c5ccccc5N(C)C3C3(OC13)C24

>  <smiles>  (34) 
[H]Oc1c([H])c([H])c([H])c([H])c1C([H])([H])[N+]([H])([H])C1([H])C([H])(OC([H])([H])[H])C2([H])OC23C2([H])N(C([H])([H])[H])c4c([H])c([H])c([H])c([H])c4C24C([H])([H])C1([H])C34[H]

$$$$
13:0:1
     RDKit          3D

 56 62  0  0  1  0  0  0  0  0999 V2000
    2.4242    6.1443    3.9526 C   0  0  0  0  0  0  0  0  0  0  0  0
    3.4052    5.1127    4.0383 O   0  0  0  0  0  0  0  0  0  0  0  0
    3.0897    4.0070    4.8758 C   0  0  2  0  0  0  0  0  0  0  0  0
    2.0081    3.0695    4.2170 C   0  0  1  0  0  0  0  0  0  0  0  0
    2.5843    2.1700    3.1768 N   0  0  0  0  0  0  0  0  0  0  0  0
    3.1092    0.8810    3.6797 C   0  0  0  0  0  0  0  0  0  0  0  0
    3.6906   -0.0078    2.6093 C   0  0  0  0  0  0  0  0  0  0  0  0
    5.0760   -0.2543    2.6021 C   0  0  0  0  0  0  0  0  0  0  0  0
    5.6355   -1.0952    1.6212 C   0  0  0  0  0  0  0  0  0  0  0  0
    4.8084   -1.6997    0.6641 C   0  0  0  0  0  0  0  0  0  0  0  0
    3.4162   -1.4789    0.6873 C   0  0  0  0  0  0  0  0  0  0  0  0
    2.8496   -0.6287    1.6616 C   0  0  0  0  0  0  0  0  0  0  0  0
    1.4955   -0.4145    1.6742 O   0  0  0  0  0  0  0  0  0  0  0  0
    1.3959    2.3656    5.3963 C   0  0  2  0  0  0  0  0  0  0  0  0
    0.1336    1.5620    5.6810 C   0  0  0  0  0  0  0  0  0  0  0  0
    0.1282    2.2833    7.0643 C   0  0  1  0  0  0  0  0  0  0  0  0
   -1.0793    2.5663    7.8983 C   0  0  0  0  0  0  0  0  0  0  0  0
   -2.4124    2.6944    7.4761 C   0  0  0  0  0  0  0  0  0  0  0  0
   -3.3745    2.9878    8.4646 C   0  0  0  0  0  0  0  0  0  0  0  0
   -2.9948    3.1473    9.8189 C   0  0  0  0  0  0  0  0  0  0  0  0
   -1.6474    3.0527   10.2153 C   0  0  0  0  0  0  0  0  0  0  0  0
   -0.6849    2.7782    9.2219 C   0  0  0  0  0  0  0  0  0  0  0  0
    0.7039    2.6763    9.3749 N   0  0  0  0  0  0  0  0  0  0  0  0
    1.5019    3.3067   10.4075 C   0  0  0  0  0  0  0  0  0  0  0  0
    1.2821    2.5118    8.0489 C   0  0  2  0  0  0  0  0  0  0  0  0
    1.8252    3.8344    7.4013 C   0  0  2  0  0  0  0  0  0  0  0  0
    3.2548    3.5671    7.3340 O   0  0  0  0  0  0  0  0  0  0  0  0
    2.8258    4.4586    6.3569 C   0  0  1  0  0  0  0  0  0  0  0  0
    0.8269    3.4042    6.3601 C   0  0  1  0  0  0  0  0  0  0  0  0
    2.7820    6.9244    3.2819 H   0  0  0  0  0  0  0  0  0  0  0  0
    2.2056    6.6223    4.9080 H   0  0  0  0  0  0  0  0  0  0  0  0
    1.4845    5.7758    3.5509 H   0  0  0  0  0  0  0  0  0  0  0  0
    4.0147    3.4364    4.9485 H   0  0  0  0  0  0  0  0  0  0  0  0
    1.2284    3.6387    3.7213 H   0  0  0  0  0  0  0  0  0  0  0  0
    1.8484    1.9499    2.5191 H   0  0  0  0  0  0  0  0  0  0  0  0
    3.8692    1.0811    4.4305 H   0  0  0  0  0  0  0  0  0  0  0  0
    2.3243    0.2950    4.1552 H   0  0  0  0  0  0  0  0  0  0  0  0
    5.7170    0.1993    3.3419 H   0  0  0  0  0  0  0  0  0  0  0  0
    6.7038   -1.2570    1.6092 H   0  0  0  0  0  0  0  0  0  0  0  0
    5.2343   -2.3391   -0.0909 H   0  0  0  0  0  0  0  0  0  0  0  0
    2.7836   -1.9524   -0.0446 H   0  0  0  0  0  0  0  0  0  0  0  0
    1.1369   -0.6355    0.8057 H   0  0  0  0  0  0  0  0  0  0  0  0
    2.1914    1.8160    5.8976 H   0  0  0  0  0  0  0  0  0  0  0  0
   -0.7192    1.7910    5.0383 H   0  0  0  0  0  0  0  0  0  0  0  0
    0.3076    0.4937    5.7984 H   0  0  0  0  0  0  0  0  0  0  0  0
   -2.6856    2.5912    6.4347 H   0  0  0  0  0  0  0  0  0  0  0  0
   -4.4148    3.0626    8.1956 H   0  0  0  0  0  0  0  0  0  0  0  0
   -3.7516    3.3307   10.5670 H   0  0  0  0  0  0  0  0  0  0  0  0
   -1.3693    3.1594   11.2540 H   0  0  0  0  0  0  0  0  0  0  0  0
    1.0373    3.2878   11.3918 H   0  0  0  0  0  0  0  0  0  0  0  0
    1.7129    4.3310   10.1030 H   0  0  0  0  0  0  0  0  0  0  0  0
    2.4636    2.7909   10.4516 H   0  0  0  0  0  0  0  0  0  0  0  0
    1.9780    1.6780    7.9825 H   0  0  0  0  0  0  0  0  0  0  0  0
    3.1072    5.4853    6.5718 H   0  0  0  0  0  0  0  0  0  0  0  0
    0.1870    4.1631    5.9206 H   0  0  0  0  0  0  0  0  0  0  0  0
    3.3170    2.6643    2.6803 H   0  0  0  0  0  0  0  0  0  0  0  0
  1  2  1  0
  1 30  1  0
  1 31  1  0
  1 32  1  0
  2  3  1  0
  3 28  1  0
  3  4  1  0
  3 33  1  1
  4  5  1  0
  4 14  1  0
  4 34  1  6
  5  6  1  0
  5 35  1  0
  5 56  1  0
  6  7  1  0
  6 36  1  0
  6 37  1  0
  7 12  1  0
  7  8  2  0
  8  9  1  0
  8 38  1  0
  9 10  2  0
  9 39  1  0
 10 11  1  0
 10 40  1  0
 11 12  2  0
 11 41  1  0
 12 13  1  0
 13 42  1  0
 14 29  1  0
 14 15  1  0
 14 43  1  1
 16 15  1  6
 15 44  1  0
 15 45  1  0
 16 25  1  0
 16 29  1  0
 16 17  1  0
 17 22  2  0
 17 18  1  0
 18 19  2  0
 18 46  1  0
 19 20  1  0
 19 47  1  0
 20 21  2  0
 20 48  1  0
 21 22  1  0
 21 49  1  0
 22 23  1  0
 23 24  1  0
 23 25  1  0
 24 50  1  0
 24 51  1  0
 24 52  1  0
 25 26  1  0
 25 53  1  1
 26 28  1  0
 26 27  1  1
 26 29  1  0
 27 28  1  0
 28 54  1  1
 29 55  1  6
M  CHG  1   5   1
M  END
>  <i_m_ct_stereo_status>  (35) 
1

>  <s_m_source_file>  (35) 
/var/tmp/pbs.5083856.sched01/tmposmbpxi4/15rvt_o3g7.sdf

>  <i_m_source_file_index>  (35) 
1

>  <i_lp_mmshare_version>  (35) 
48012

>  <i_f3d_flags>  (35) 
0

>  <s_epik_input>  (35) 
W2NIXTFbY0hdW2NIXVtjSF1jKGMxW0NAXTIzNClOKFtDSDNdKVtDQEBIXTNDNTZbQ0BASF0oTzUpW0NASF0oT1tDSDNdKVtDQEhdKFtDQEhdKFtDSDJdMilbQ0BASF00NilbTkhdW0NIMl1jN1tjSF1bY0hdW2NIXVtjSF1jN1tPSF0=

>  <s_epik_cmdline>  (35) 
J2VwaWtfcHl0aG9uJywgJy1waHQnLCAnMi4wJywgJy1waCcsICc3LjAnLCAnLXRuJywgJzgnLCAnLW1hJywgJzIwMCcsICctaW1hZScsICc8aW5maWxlLm1hZT4nLCAnLW9tYWUnLCAnPG91dGZpbGUubWFlPic=

>  <r_lp_tautomer_probability>  (35) 
1

>  <r_epik_Ionization_Penalty>  (35) 
0.161049

>  <r_epik_Ionization_Penalty_Charging>  (35) 
0.0541449

>  <r_epik_Ionization_Penalty_Neutral>  (35) 
0.106904

>  <r_epik_State_Penalty>  (35) 
0.147827

>  <r_epik_Charging_Adjusted_Penalty>  (35) 
0.201972

>  <i_epik_Tot_Q>  (35) 
1

>  <i_epik_Tot_abs_Q>  (35) 
1

>  <s_lp_Force_Field>  (35) 
OPLS3e

>  <r_lp_Energy>  (35) 
139.192

>  <b_lp_Chiralities_Consistent>  (35) 
1

>  <s_lp_Variant>  (35) 
13:0-1

>  <s_i_glide_gridfile>  (35) 
pfpi4k_grid

>  <i_i_glide_lignum>  (35) 
1

>  <i_i_glide_rotatable_bonds>  (35) 
5

>  <r_i_docking_score>  (35) 
-3.21202

>  <r_i_glide_ligand_efficiency>  (35) 
-0.110759

>  <r_i_glide_ligand_efficiency_sa>  (35) 
-0.340287

>  <r_i_glide_ligand_efficiency_ln>  (35) 
-0.73547

>  <r_i_glide_gscore>  (35) 
-3.21202

>  <r_i_glide_lipo>  (35) 
-0.430837

>  <r_i_glide_hbond>  (35) 
-0.16

>  <r_i_glide_metal>  (35) 
-0

>  <r_i_glide_rewards>  (35) 
-0.73989

>  <r_i_glide_evdw>  (35) 
-20.6167

>  <r_i_glide_ecoul>  (35) 
-8.07135

>  <r_i_glide_erotb>  (35) 
0.382003

>  <r_i_glide_esite>  (35) 
-0.0217547

>  <r_i_glide_emodel>  (35) 
-33.0112

>  <r_i_glide_energy>  (35) 
-28.688

>  <r_i_glide_einternal>  (35) 
8.317

>  <r_i_glide_intrahb_reward>  (35) 
-0

>  <i_i_glide_confnum>  (35) 
3

>  <i_i_glide_posenum>  (35) 
18

>  <r_i_glide_eff_state_penalty>  (35) 
0

>  <ligand_id>  (35) 
13

>  <original_smiles>  (35) 
COC1C(NCc2ccccc2O)C2CC34c5ccccc5N(C)C3C3(OC13)C24

>  <smiles>  (35) 
[H]Oc1c([H])c([H])c([H])c([H])c1C([H])([H])[N+]([H])([H])C1([H])C([H])(OC([H])([H])[H])C2([H])OC23C2([H])N(C([H])([H])[H])c4c([H])c([H])c([H])c([H])c4C24C([H])([H])C1([H])C34[H]

$$$$
13:0:2
     RDKit          3D

 56 62  0  0  1  0  0  0  0  0999 V2000
    3.9284   -9.3101    0.9580 C   0  0  0  0  0  0  0  0  0  0  0  0
    4.0242   -7.9240    0.7285 O   0  0  0  0  0  0  0  0  0  0  0  0
    4.3301   -7.1146    1.8543 C   0  0  2  0  0  0  0  0  0  0  0  0
    3.2142   -7.1187    2.9659 C   0  0  1  0  0  0  0  0  0  0  0  0
    3.3861   -8.2442    3.9031 N   0  0  0  0  0  0  0  0  0  0  0  0
    2.2709   -8.5343    4.8261 C   0  0  0  0  0  0  0  0  0  0  0  0
    0.9012   -8.5338    4.1567 C   0  0  0  0  0  0  0  0  0  0  0  0
   -0.0186   -7.5079    4.4629 C   0  0  0  0  0  0  0  0  0  0  0  0
   -1.2838   -7.4466    3.8326 C   0  0  0  0  0  0  0  0  0  0  0  0
   -1.6300   -8.4193    2.8747 C   0  0  0  0  0  0  0  0  0  0  0  0
   -0.7327   -9.4602    2.5777 C   0  0  0  0  0  0  0  0  0  0  0  0
    0.5121   -9.5409    3.2369 C   0  0  0  0  0  0  0  0  0  0  0  0
    1.3114  -10.6104    2.9418 O   0  0  0  0  0  0  0  0  0  0  0  0
    3.4008   -5.7973    3.6581 C   0  0  2  0  0  0  0  0  0  0  0  0
    2.6040   -4.9050    4.5930 C   0  0  0  0  0  0  0  0  0  0  0  0
    3.1081   -3.6961    3.7253 C   0  0  1  0  0  0  0  0  0  0  0  0
    2.4156   -2.3891    3.5529 C   0  0  0  0  0  0  0  0  0  0  0  0
    1.0294   -2.1206    3.7021 C   0  0  0  0  0  0  0  0  0  0  0  0
    0.6142   -0.8000    3.4560 C   0  0  0  0  0  0  0  0  0  0  0  0
    1.5327    0.1983    3.0561 C   0  0  0  0  0  0  0  0  0  0  0  0
    2.9023   -0.1080    2.8713 C   0  0  0  0  0  0  0  0  0  0  0  0
    3.3133   -1.4351    3.1056 C   0  0  0  0  0  0  0  0  0  0  0  0
    4.6129   -1.9765    2.9392 N   0  0  0  0  0  0  0  0  0  0  0  0
    5.6279   -1.4298    2.0798 C   0  0  0  0  0  0  0  0  0  0  0  0
    4.5158   -3.4212    3.1843 C   0  0  2  0  0  0  0  0  0  0  0  0
    4.4202   -4.2678    1.8824 C   0  0  2  0  0  0  0  0  0  0  0  0
    5.6647   -5.0119    1.9183 O   0  0  0  0  0  0  0  0  0  0  0  0
    4.6438   -5.7050    1.2514 C   0  0  1  0  0  0  0  0  0  0  0  0
    3.1608   -4.6807    2.6076 C   0  0  1  0  0  0  0  0  0  0  0  0
    3.8350   -9.8457    0.0173 H   0  0  0  0  0  0  0  0  0  0  0  0
    3.0231   -9.5178    1.5106 H   0  0  0  0  0  0  0  0  0  0  0  0
    4.7823   -9.7103    1.5026 H   0  0  0  0  0  0  0  0  0  0  0  0
    5.2869   -7.4502    2.2693 H   0  0  0  0  0  0  0  0  0  0  0  0
    2.2663   -7.1448    2.4550 H   0  0  0  0  0  0  0  0  0  0  0  0
    3.5149   -9.0571    3.3329 H   0  0  0  0  0  0  0  0  0  0  0  0
    2.4235   -9.5005    5.2873 H   0  0  0  0  0  0  0  0  0  0  0  0
    2.2785   -7.8157    5.6333 H   0  0  0  0  0  0  0  0  0  0  0  0
    0.2328   -6.7534    5.1999 H   0  0  0  0  0  0  0  0  0  0  0  0
   -1.9818   -6.6574    4.0878 H   0  0  0  0  0  0  0  0  0  0  0  0
   -2.5819   -8.3838    2.3720 H   0  0  0  0  0  0  0  0  0  0  0  0
   -1.0035  -10.2188    1.8522 H   0  0  0  0  0  0  0  0  0  0  0  0
    2.0930  -10.7130    3.4577 H   0  0  0  0  0  0  0  0  0  0  0  0
    4.4201   -5.7680    4.0577 H   0  0  0  0  0  0  0  0  0  0  0  0
    1.5234   -5.0375    4.5649 H   0  0  0  0  0  0  0  0  0  0  0  0
    3.0031   -4.8706    5.6060 H   0  0  0  0  0  0  0  0  0  0  0  0
    0.3264   -2.8980    3.9659 H   0  0  0  0  0  0  0  0  0  0  0  0
   -0.4268   -0.5351    3.5528 H   0  0  0  0  0  0  0  0  0  0  0  0
    1.1904    1.2113    2.8854 H   0  0  0  0  0  0  0  0  0  0  0  0
    3.6107    0.6488    2.5699 H   0  0  0  0  0  0  0  0  0  0  0  0
    5.6928   -0.3353    2.0663 H   0  0  0  0  0  0  0  0  0  0  0  0
    5.4801   -1.8033    1.0678 H   0  0  0  0  0  0  0  0  0  0  0  0
    6.5828   -1.8238    2.4140 H   0  0  0  0  0  0  0  0  0  0  0  0
    5.2505   -3.7847    3.9005 H   0  0  0  0  0  0  0  0  0  0  0  0
    4.7207   -5.6996    0.1678 H   0  0  0  0  0  0  0  0  0  0  0  0
    2.2426   -4.7427    2.0235 H   0  0  0  0  0  0  0  0  0  0  0  0
    4.2184   -8.0981    4.4507 H   0  0  0  0  0  0  0  0  0  0  0  0
  1  2  1  0
  1 30  1  0
  1 31  1  0
  1 32  1  0
  2  3  1  0
  3 28  1  0
  3  4  1  0
  3 33  1  1
  4  5  1  0
  4 14  1  0
  4 34  1  6
  5  6  1  0
  5 35  1  0
  5 56  1  0
  6  7  1  0
  6 36  1  0
  6 37  1  0
  7 12  1  0
  7  8  2  0
  8  9  1  0
  8 38  1  0
  9 10  2  0
  9 39  1  0
 10 11  1  0
 10 40  1  0
 11 12  2  0
 11 41  1  0
 12 13  1  0
 13 42  1  0
 14 29  1  0
 14 15  1  0
 14 43  1  1
 16 15  1  1
 15 44  1  0
 15 45  1  0
 16 25  1  0
 16 29  1  0
 16 17  1  0
 17 22  2  0
 17 18  1  0
 18 19  2  0
 18 46  1  0
 19 20  1  0
 19 47  1  0
 20 21  2  0
 20 48  1  0
 21 22  1  0
 21 49  1  0
 22 23  1  0
 23 24  1  0
 23 25  1  0
 24 50  1  0
 24 51  1  0
 24 52  1  0
 25 26  1  0
 25 53  1  1
 26 28  1  0
 26 27  1  6
 26 29  1  0
 27 28  1  0
 28 54  1  6
 29 55  1  6
M  CHG  1   5   1
M  END
>  <i_m_ct_stereo_status>  (36) 
1

>  <s_m_source_file>  (36) 
/var/tmp/pbs.5083856.sched01/tmposmbpxi4/15rvt_o3g7.sdf

>  <i_m_source_file_index>  (36) 
1

>  <i_lp_mmshare_version>  (36) 
48012

>  <i_f3d_flags>  (36) 
0

>  <s_epik_input>  (36) 
W2NIXTFbY0hdW2NIXVtjSF1jKGMxW0NAXTIzNClOKFtDSDNdKVtDQEBIXTNDNTZbQ0BASF0oTzUpW0NASF0oT1tDSDNdKVtDQEhdKFtDQEhdKFtDSDJdMilbQ0BASF00NilbTkhdW0NIMl1jN1tjSF1bY0hdW2NIXVtjSF1jN1tPSF0=

>  <s_epik_cmdline>  (36) 
J2VwaWtfcHl0aG9uJywgJy1waHQnLCAnMi4wJywgJy1waCcsICc3LjAnLCAnLXRuJywgJzgnLCAnLW1hJywgJzIwMCcsICctaW1hZScsICc8aW5maWxlLm1hZT4nLCAnLW9tYWUnLCAnPG91dGZpbGUubWFlPic=

>  <r_lp_tautomer_probability>  (36) 
1

>  <r_epik_Ionization_Penalty>  (36) 
0.161049

>  <r_epik_Ionization_Penalty_Charging>  (36) 
0.0541449

>  <r_epik_Ionization_Penalty_Neutral>  (36) 
0.106904

>  <r_epik_State_Penalty>  (36) 
0.147827

>  <r_epik_Charging_Adjusted_Penalty>  (36) 
0.201972

>  <i_epik_Tot_Q>  (36) 
1

>  <i_epik_Tot_abs_Q>  (36) 
1

>  <s_lp_Force_Field>  (36) 
OPLS3e

>  <r_lp_Energy>  (36) 
139.192

>  <b_lp_Chiralities_Consistent>  (36) 
1

>  <s_lp_Variant>  (36) 
13:0-1

>  <s_i_glide_gridfile>  (36) 
pfpi4k_grid

>  <i_i_glide_lignum>  (36) 
1

>  <i_i_glide_rotatable_bonds>  (36) 
5

>  <r_i_docking_score>  (36) 
-2.40222

>  <r_i_glide_ligand_efficiency>  (36) 
-0.0828351

>  <r_i_glide_ligand_efficiency_sa>  (36) 
-0.254496

>  <r_i_glide_ligand_efficiency_ln>  (36) 
-0.550047

>  <r_i_glide_gscore>  (36) 
-2.40222

>  <r_i_glide_lipo>  (36) 
-0.401337

>  <r_i_glide_hbond>  (36) 
0

>  <r_i_glide_metal>  (36) 
-0

>  <r_i_glide_rewards>  (36) 
-0.792507

>  <r_i_glide_evdw>  (36) 
-24.853

>  <r_i_glide_ecoul>  (36) 
-2.31673

>  <r_i_glide_erotb>  (36) 
0.382003

>  <r_i_glide_esite>  (36) 
-0.000214731

>  <r_i_glide_emodel>  (36) 
-32.6026

>  <r_i_glide_energy>  (36) 
-27.1698

>  <r_i_glide_einternal>  (36) 
1.49487

>  <r_i_glide_intrahb_reward>  (36) 
-0

>  <i_i_glide_confnum>  (36) 
6

>  <i_i_glide_posenum>  (36) 
3

>  <r_i_glide_eff_state_penalty>  (36) 
0

>  <ligand_id>  (36) 
13

>  <original_smiles>  (36) 
COC1C(NCc2ccccc2O)C2CC34c5ccccc5N(C)C3C3(OC13)C24

>  <smiles>  (36) 
[H]Oc1c([H])c([H])c([H])c([H])c1C([H])([H])[N+]([H])([H])C1([H])C([H])(OC([H])([H])[H])C2([H])OC23C2([H])N(C([H])([H])[H])c4c([H])c([H])c([H])c([H])c4C24C([H])([H])C1([H])C34[H]

$$$$
13:1:0
     RDKit          3D

 57 63  0  0  1  0  0  0  0  0999 V2000
    0.9214    5.0444    6.2393 C   0  0  0  0  0  0  0  0  0  0  0  0
    0.9991    5.4624    4.8776 O   0  0  0  0  0  0  0  0  0  0  0  0
    0.8978    4.4449    3.8819 C   0  0  2  0  0  0  0  0  0  0  0  0
   -0.5912    3.9466    3.7535 C   0  0  1  0  0  0  0  0  0  0  0  0
   -1.3826    4.8615    2.8741 N   0  0  0  0  0  0  0  0  0  0  0  0
   -2.8110    4.4639    2.6651 C   0  0  0  0  0  0  0  0  0  0  0  0
   -3.6877    5.5822    2.0830 C   0  0  0  0  0  0  0  0  0  0  0  0
   -3.0898    6.7669    1.5512 C   0  0  0  0  0  0  0  0  0  0  0  0
   -3.8728    7.8044    1.0201 C   0  0  0  0  0  0  0  0  0  0  0  0
   -5.2692    7.6738    0.9734 C   0  0  0  0  0  0  0  0  0  0  0  0
   -5.8858    6.5068    1.4499 C   0  0  0  0  0  0  0  0  0  0  0  0
   -5.1061    5.4584    1.9904 C   0  0  0  0  0  0  0  0  0  0  0  0
   -5.7339    4.3301    2.4485 O   0  0  0  0  0  0  0  0  0  0  0  0
   -0.4466    2.5690    3.1817 C   0  0  2  0  0  0  0  0  0  0  0  0
   -1.3341    1.3345    3.0800 C   0  0  0  0  0  0  0  0  0  0  0  0
   -0.0607    0.4996    3.4610 C   0  0  1  0  0  0  0  0  0  0  0  0
   -0.1165   -0.7922    4.2104 C   0  0  0  0  0  0  0  0  0  0  0  0
   -1.1188   -1.3109    5.0314 C   0  0  0  0  0  0  0  0  0  0  0  0
   -0.9103   -2.5781    5.6108 C   0  0  0  0  0  0  0  0  0  0  0  0
    0.2730   -3.3192    5.3455 C   0  0  0  0  0  0  0  0  0  0  0  0
    1.2932   -2.7735    4.5425 C   0  0  0  0  0  0  0  0  0  0  0  0
    1.0856   -1.5016    3.9991 C   0  0  0  0  0  0  0  0  0  0  0  0
    2.0478   -0.7089    3.1734 N   0  0  1  0  0  0  0  0  0  0  0  0
    2.4257   -1.4069    1.9125 C   0  0  0  0  0  0  0  0  0  0  0  0
    1.3790    0.6057    2.9207 C   0  0  2  0  0  0  0  0  0  0  0  0
    1.8616    1.7700    3.8732 C   0  0  2  0  0  0  0  0  0  0  0  0
    2.4536    2.6913    2.9410 O   0  0  0  0  0  0  0  0  0  0  0  0
    2.0000    3.3191    4.0870 C   0  0  1  0  0  0  0  0  0  0  0  0
    0.3778    1.7414    4.1814 C   0  0  1  0  0  0  0  0  0  0  0  0
    1.0239    5.9067    6.8986 H   0  0  0  0  0  0  0  0  0  0  0  0
    1.6981    4.3365    6.5297 H   0  0  0  0  0  0  0  0  0  0  0  0
   -0.0345    4.5775    6.4588 H   0  0  0  0  0  0  0  0  0  0  0  0
    1.1817    4.9232    2.9505 H   0  0  0  0  0  0  0  0  0  0  0  0
   -1.1091    3.9100    4.6946 H   0  0  0  0  0  0  0  0  0  0  0  0
   -1.2914    5.7833    3.2421 H   0  0  0  0  0  0  0  0  0  0  0  0
   -2.8650    3.5813    2.0318 H   0  0  0  0  0  0  0  0  0  0  0  0
   -3.2213    4.1051    3.6043 H   0  0  0  0  0  0  0  0  0  0  0  0
   -2.0186    6.9140    1.5546 H   0  0  0  0  0  0  0  0  0  0  0  0
   -3.3780    8.6909    0.6578 H   0  0  0  0  0  0  0  0  0  0  0  0
   -5.8661    8.4791    0.5561 H   0  0  0  0  0  0  0  0  0  0  0  0
   -6.9616    6.4192    1.4116 H   0  0  0  0  0  0  0  0  0  0  0  0
   -6.5389    4.1312    1.9734 H   0  0  0  0  0  0  0  0  0  0  0  0
    0.0377    2.6359    2.2165 H   0  0  0  0  0  0  0  0  0  0  0  0
   -2.1395    1.3024    3.8055 H   0  0  0  0  0  0  0  0  0  0  0  0
   -1.6620    1.1293    2.0654 H   0  0  0  0  0  0  0  0  0  0  0  0
   -2.0380   -0.7482    5.2049 H   0  0  0  0  0  0  0  0  0  0  0  0
   -1.6819   -3.0377    6.2084 H   0  0  0  0  0  0  0  0  0  0  0  0
    0.3943   -4.3160    5.7507 H   0  0  0  0  0  0  0  0  0  0  0  0
    2.2084   -3.3216    4.3386 H   0  0  0  0  0  0  0  0  0  0  0  0
    2.9173   -2.3489    2.1486 H   0  0  0  0  0  0  0  0  0  0  0  0
    3.1150   -0.8217    1.3071 H   0  0  0  0  0  0  0  0  0  0  0  0
    1.5502   -1.6459    1.3140 H   0  0  0  0  0  0  0  0  0  0  0  0
    1.3442    0.9142    1.8803 H   0  0  0  0  0  0  0  0  0  0  0  0
    2.8052    3.6293    4.7432 H   0  0  0  0  0  0  0  0  0  0  0  0
    0.0737    1.8125    5.2132 H   0  0  0  0  0  0  0  0  0  0  0  0
   -0.9376    4.8854    1.9709 H   0  0  0  0  0  0  0  0  0  0  0  0
    2.9050   -0.5295    3.6686 H   0  0  0  0  0  0  0  0  0  0  0  0
  1  2  1  0
  1 30  1  0
  1 31  1  0
  1 32  1  0
  2  3  1  0
  3 28  1  0
  3  4  1  0
  3 33  1  6
  4  5  1  0
  4 14  1  0
  4 34  1  1
  5  6  1  0
  5 35  1  0
  5 56  1  0
  6  7  1  0
  6 36  1  0
  6 37  1  0
  7 12  1  0
  7  8  2  0
  8  9  1  0
  8 38  1  0
  9 10  2  0
  9 39  1  0
 10 11  1  0
 10 40  1  0
 11 12  2  0
 11 41  1  0
 12 13  1  0
 13 42  1  0
 14 29  1  0
 14 15  1  0
 14 43  1  6
 16 15  1  6
 15 44  1  0
 15 45  1  0
 16 25  1  0
 16 29  1  0
 16 17  1  0
 17 22  2  0
 17 18  1  0
 18 19  2  0
 18 46  1  0
 19 20  1  0
 19 47  1  0
 20 21  2  0
 20 48  1  0
 21 22  1  0
 21 49  1  0
 22 23  1  0
 23 24  1  0
 23 25  1  0
 23 57  1  1
 24 50  1  0
 24 51  1  0
 24 52  1  0
 25 26  1  0
 25 53  1  6
 26 28  1  0
 26 27  1  1
 26 29  1  0
 27 28  1  0
 28 54  1  1
 29 55  1  1
M  CHG  2   5   1  23   1
M  END
>  <i_m_ct_stereo_status>  (37) 
1

>  <s_m_source_file>  (37) 
/var/tmp/pbs.5083856.sched01/tmposmbpxi4/15rvt_o3g7.sdf

>  <i_m_source_file_index>  (37) 
2

>  <i_lp_mmshare_version>  (37) 
48012

>  <i_f3d_flags>  (37) 
0

>  <s_epik_input>  (37) 
W2NIXTFbY0hdW2NIXVtjSF1jKGMxW0NAXTIzNClOKFtDSDNdKVtDQEBIXTNDNTZbQ0BASF0oTzUpW0NASF0oT1tDSDNdKVtDQEhdKFtDQEhdKFtDSDJdMilbQ0BASF00NilbTkhdW0NIMl1jN1tjSF1bY0hdW2NIXVtjSF1jN1tPSF0=

>  <s_epik_cmdline>  (37) 
J2VwaWtfcHl0aG9uJywgJy1waHQnLCAnMi4wJywgJy1waCcsICc3LjAnLCAnLXRuJywgJzgnLCAnLW1hJywgJzIwMCcsICctaW1hZScsICc8aW5maWxlLm1hZT4nLCAnLW9tYWUnLCAnPG91dGZpbGUubWFlPic=

>  <r_lp_tautomer_probability>  (37) 
1

>  <r_epik_Ionization_Penalty>  (37) 
1.20952

>  <r_epik_Ionization_Penalty_Charging>  (37) 
1.19737

>  <r_epik_Ionization_Penalty_Neutral>  (37) 
0.0121501

>  <r_epik_State_Penalty>  (37) 
1.17913

>  <r_epik_Charging_Adjusted_Penalty>  (37) 
2.3765

>  <i_epik_Tot_Q>  (37) 
2

>  <i_epik_Tot_abs_Q>  (37) 
2

>  <s_lp_Force_Field>  (37) 
OPLS3e

>  <r_lp_Energy>  (37) 
145.698

>  <b_lp_Chiralities_Consistent>  (37) 
1

>  <s_lp_Variant>  (37) 
13:0-2

>  <s_i_glide_gridfile>  (37) 
pfpi4k_grid

>  <i_i_glide_lignum>  (37) 
2

>  <i_i_glide_rotatable_bonds>  (37) 
5

>  <r_i_docking_score>  (37) 
-3.90814

>  <r_i_glide_ligand_efficiency>  (37) 
-0.134764

>  <r_i_glide_ligand_efficiency_sa>  (37) 
-0.414036

>  <r_i_glide_ligand_efficiency_ln>  (37) 
-0.894866

>  <r_i_glide_gscore>  (37) 
-3.90814

>  <r_i_glide_lipo>  (37) 
-0.504803

>  <r_i_glide_hbond>  (37) 
-0.52

>  <r_i_glide_metal>  (37) 
-0

>  <r_i_glide_rewards>  (37) 
-0.733018

>  <r_i_glide_evdw>  (37) 
-20.8045

>  <r_i_glide_ecoul>  (37) 
-9.22514

>  <r_i_glide_erotb>  (37) 
0.380242

>  <r_i_glide_esite>  (37) 
-0.106568

>  <r_i_glide_emodel>  (37) 
-35.4428

>  <r_i_glide_energy>  (37) 
-30.0297

>  <r_i_glide_einternal>  (37) 
7.16157

>  <r_i_glide_intrahb_reward>  (37) 
-0

>  <i_i_glide_confnum>  (37) 
4

>  <i_i_glide_posenum>  (37) 
27

>  <r_i_glide_eff_state_penalty>  (37) 
0

>  <ligand_id>  (37) 
13

>  <original_smiles>  (37) 
COC1C(NCc2ccccc2O)C2CC34c5ccccc5N(C)C3C3(OC13)C24

>  <smiles>  (37) 
[H]Oc1c([H])c([H])c([H])c([H])c1C([H])([H])[N+]([H])([H])C1([H])C([H])(OC([H])([H])[H])C2([H])OC23C2([H])C1([H])C([H])([H])C21c2c([H])c([H])c([H])c([H])c2[N+]([H])(C([H])([H])[H])C31[H]

$$$$
13:1:1
     RDKit          3D

 57 63  0  0  1  0  0  0  0  0999 V2000
    7.3521   -7.1723    1.1283 C   0  0  0  0  0  0  0  0  0  0  0  0
    6.8681   -6.8456    2.4235 O   0  0  0  0  0  0  0  0  0  0  0  0
    5.8884   -5.8124    2.4775 C   0  0  2  0  0  0  0  0  0  0  0  0
    4.4911   -6.2850    1.9167 C   0  0  1  0  0  0  0  0  0  0  0  0
    3.7159   -7.0723    2.9126 N   0  0  0  0  0  0  0  0  0  0  0  0
    2.5111   -7.7441    2.3654 C   0  0  0  0  0  0  0  0  0  0  0  0
    2.1506   -9.0220    3.1220 C   0  0  0  0  0  0  0  0  0  0  0  0
    1.0282   -9.0331    3.9945 C   0  0  0  0  0  0  0  0  0  0  0  0
    0.6708  -10.2164    4.6670 C   0  0  0  0  0  0  0  0  0  0  0  0
    1.4058  -11.3963    4.4747 C   0  0  0  0  0  0  0  0  0  0  0  0
    2.5088  -11.4003    3.5942 C   0  0  0  0  0  0  0  0  0  0  0  0
    2.8821  -10.2178    2.9222 C   0  0  0  0  0  0  0  0  0  0  0  0
    3.9497  -10.2395    2.0697 O   0  0  0  0  0  0  0  0  0  0  0  0
    3.8395   -4.9931    1.5205 C   0  0  2  0  0  0  0  0  0  0  0  0
    2.6992   -4.5785    0.6060 C   0  0  0  0  0  0  0  0  0  0  0  0
    3.5911   -3.3861    0.1328 C   0  0  1  0  0  0  0  0  0  0  0  0
    3.5203   -2.7438   -1.2237 C   0  0  0  0  0  0  0  0  0  0  0  0
    2.9840   -3.2566   -2.4079 C   0  0  0  0  0  0  0  0  0  0  0  0
    3.0348   -2.4568   -3.5700 C   0  0  0  0  0  0  0  0  0  0  0  0
    3.5929   -1.1560   -3.5273 C   0  0  0  0  0  0  0  0  0  0  0  0
    4.1559   -0.6599   -2.3348 C   0  0  0  0  0  0  0  0  0  0  0  0
    4.1094   -1.4834   -1.1974 C   0  0  0  0  0  0  0  0  0  0  0  0
    4.6489   -1.1705    0.1695 N   0  0  1  0  0  0  0  0  0  0  0  0
    4.0178    0.0167    0.7960 C   0  0  0  0  0  0  0  0  0  0  0  0
    4.4463   -2.4156    0.9648 C   0  0  2  0  0  0  0  0  0  0  0  0
    5.7045   -3.3428    1.0653 C   0  0  2  0  0  0  0  0  0  0  0  0
    5.9414   -3.2925    2.4830 O   0  0  0  0  0  0  0  0  0  0  0  0
    6.4590   -4.4578    1.9121 C   0  0  1  0  0  0  0  0  0  0  0  0
    4.7277   -4.2992    0.4662 C   0  0  1  0  0  0  0  0  0  0  0  0
    8.0841   -7.9801    1.1728 H   0  0  0  0  0  0  0  0  0  0  0  0
    7.8141   -6.3381    0.5980 H   0  0  0  0  0  0  0  0  0  0  0  0
    6.5173   -7.5163    0.5340 H   0  0  0  0  0  0  0  0  0  0  0  0
    5.7658   -5.6225    3.5413 H   0  0  0  0  0  0  0  0  0  0  0  0
    4.5884   -6.9073    1.0334 H   0  0  0  0  0  0  0  0  0  0  0  0
    4.3093   -7.8190    3.2526 H   0  0  0  0  0  0  0  0  0  0  0  0
    1.6817   -7.0410    2.4012 H   0  0  0  0  0  0  0  0  0  0  0  0
    2.6308   -8.0009    1.3104 H   0  0  0  0  0  0  0  0  0  0  0  0
    0.4275   -8.1456    4.1358 H   0  0  0  0  0  0  0  0  0  0  0  0
   -0.1794  -10.2315    5.3339 H   0  0  0  0  0  0  0  0  0  0  0  0
    1.1375  -12.2988    5.0003 H   0  0  0  0  0  0  0  0  0  0  0  0
    3.0705  -12.3103    3.4526 H   0  0  0  0  0  0  0  0  0  0  0  0
    3.9944  -11.0350    1.5137 H   0  0  0  0  0  0  0  0  0  0  0  0
    3.7153   -4.3925    2.4238 H   0  0  0  0  0  0  0  0  0  0  0  0
    2.4545   -5.3006   -0.1777 H   0  0  0  0  0  0  0  0  0  0  0  0
    1.8332   -4.2261    1.1614 H   0  0  0  0  0  0  0  0  0  0  0  0
    2.5444   -4.2422   -2.4352 H   0  0  0  0  0  0  0  0  0  0  0  0
    2.6104   -2.8324   -4.4841 H   0  0  0  0  0  0  0  0  0  0  0  0
    3.5674   -0.5266   -4.4064 H   0  0  0  0  0  0  0  0  0  0  0  0
    4.5613    0.3398   -2.3023 H   0  0  0  0  0  0  0  0  0  0  0  0
    4.2192    0.8958    0.1886 H   0  0  0  0  0  0  0  0  0  0  0  0
    4.4239    0.2306    1.7857 H   0  0  0  0  0  0  0  0  0  0  0  0
    2.9328   -0.0735    0.8717 H   0  0  0  0  0  0  0  0  0  0  0  0
    3.9630   -2.2547    1.9287 H   0  0  0  0  0  0  0  0  0  0  0  0
    7.5383   -4.4441    1.8177 H   0  0  0  0  0  0  0  0  0  0  0  0
    5.0808   -4.9247   -0.3512 H   0  0  0  0  0  0  0  0  0  0  0  0
    3.4409   -6.4823    3.6857 H   0  0  0  0  0  0  0  0  0  0  0  0
    5.6425   -0.9815    0.1352 H   0  0  0  0  0  0  0  0  0  0  0  0
  1  2  1  0
  1 30  1  0
  1 31  1  0
  1 32  1  0
  2  3  1  0
  3 28  1  0
  3  4  1  0
  3 33  1  1
  4  5  1  0
  4 14  1  0
  4 34  1  6
  5  6  1  0
  5 35  1  0
  5 56  1  0
  6  7  1  0
  6 36  1  0
  6 37  1  0
  7 12  1  0
  7  8  2  0
  8  9  1  0
  8 38  1  0
  9 10  2  0
  9 39  1  0
 10 11  1  0
 10 40  1  0
 11 12  2  0
 11 41  1  0
 12 13  1  0
 13 42  1  0
 14 29  1  0
 14 15  1  0
 14 43  1  1
 16 15  1  1
 15 44  1  0
 15 45  1  0
 16 25  1  0
 16 29  1  0
 16 17  1  0
 17 22  2  0
 17 18  1  0
 18 19  2  0
 18 46  1  0
 19 20  1  0
 19 47  1  0
 20 21  2  0
 20 48  1  0
 21 22  1  0
 21 49  1  0
 22 23  1  0
 23 24  1  0
 23 25  1  0
 23 57  1  6
 24 50  1  0
 24 51  1  0
 24 52  1  0
 25 26  1  0
 25 53  1  1
 26 28  1  0
 26 27  1  6
 26 29  1  0
 27 28  1  0
 28 54  1  6
 29 55  1  6
M  CHG  2   5   1  23   1
M  END
>  <i_m_ct_stereo_status>  (38) 
1

>  <s_m_source_file>  (38) 
/var/tmp/pbs.5083856.sched01/tmposmbpxi4/15rvt_o3g7.sdf

>  <i_m_source_file_index>  (38) 
2

>  <i_lp_mmshare_version>  (38) 
48012

>  <i_f3d_flags>  (38) 
0

>  <s_epik_input>  (38) 
W2NIXTFbY0hdW2NIXVtjSF1jKGMxW0NAXTIzNClOKFtDSDNdKVtDQEBIXTNDNTZbQ0BASF0oTzUpW0NASF0oT1tDSDNdKVtDQEhdKFtDQEhdKFtDSDJdMilbQ0BASF00NilbTkhdW0NIMl1jN1tjSF1bY0hdW2NIXVtjSF1jN1tPSF0=

>  <s_epik_cmdline>  (38) 
J2VwaWtfcHl0aG9uJywgJy1waHQnLCAnMi4wJywgJy1waCcsICc3LjAnLCAnLXRuJywgJzgnLCAnLW1hJywgJzIwMCcsICctaW1hZScsICc8aW5maWxlLm1hZT4nLCAnLW9tYWUnLCAnPG91dGZpbGUubWFlPic=

>  <r_lp_tautomer_probability>  (38) 
1

>  <r_epik_Ionization_Penalty>  (38) 
1.20952

>  <r_epik_Ionization_Penalty_Charging>  (38) 
1.19737

>  <r_epik_Ionization_Penalty_Neutral>  (38) 
0.0121501

>  <r_epik_State_Penalty>  (38) 
1.17913

>  <r_epik_Charging_Adjusted_Penalty>  (38) 
2.3765

>  <i_epik_Tot_Q>  (38) 
2

>  <i_epik_Tot_abs_Q>  (38) 
2

>  <s_lp_Force_Field>  (38) 
OPLS3e

>  <r_lp_Energy>  (38) 
145.698

>  <b_lp_Chiralities_Consistent>  (38) 
1

>  <s_lp_Variant>  (38) 
13:0-2

>  <s_i_glide_gridfile>  (38) 
pfpi4k_grid

>  <i_i_glide_lignum>  (38) 
2

>  <i_i_glide_rotatable_bonds>  (38) 
5

>  <r_i_docking_score>  (38) 
-3.76211

>  <r_i_glide_ligand_efficiency>  (38) 
-0.129728

>  <r_i_glide_ligand_efficiency_sa>  (38) 
-0.398566

>  <r_i_glide_ligand_efficiency_ln>  (38) 
-0.861429

>  <r_i_glide_gscore>  (38) 
-3.76211

>  <r_i_glide_lipo>  (38) 
-0.808638

>  <r_i_glide_hbond>  (38) 
-0.16

>  <r_i_glide_metal>  (38) 
-0

>  <r_i_glide_rewards>  (38) 
-0.733018

>  <r_i_glide_evdw>  (38) 
-20.1237

>  <r_i_glide_ecoul>  (38) 
-9.55359

>  <r_i_glide_erotb>  (38) 
0.380242

>  <r_i_glide_esite>  (38) 
-0.00147445

>  <r_i_glide_emodel>  (38) 
-35.1705

>  <r_i_glide_energy>  (38) 
-29.6773

>  <r_i_glide_einternal>  (38) 
5.51508

>  <r_i_glide_intrahb_reward>  (38) 
-0

>  <i_i_glide_confnum>  (38) 
4

>  <i_i_glide_posenum>  (38) 
25

>  <r_i_glide_eff_state_penalty>  (38) 
0

>  <ligand_id>  (38) 
13

>  <original_smiles>  (38) 
COC1C(NCc2ccccc2O)C2CC34c5ccccc5N(C)C3C3(OC13)C24

>  <smiles>  (38) 
[H]Oc1c([H])c([H])c([H])c([H])c1C([H])([H])[N+]([H])([H])C1([H])C([H])(OC([H])([H])[H])C2([H])OC23C2([H])C1([H])C([H])([H])C21c2c([H])c([H])c([H])c([H])c2[N+]([H])(C([H])([H])[H])C31[H]

$$$$
13:1:2
     RDKit          3D

 57 63  0  0  1  0  0  0  0  0999 V2000
    7.8672   -7.5676    2.3231 C   0  0  0  0  0  0  0  0  0  0  0  0
    6.7655   -7.5102    1.4196 O   0  0  0  0  0  0  0  0  0  0  0  0
    5.8546   -6.4556    1.6909 C   0  0  2  0  0  0  0  0  0  0  0  0
    4.4385   -6.8035    1.0966 C   0  0  1  0  0  0  0  0  0  0  0  0
    3.6370   -7.6539    2.0243 N   0  0  0  0  0  0  0  0  0  0  0  0
    2.2918   -8.0508    1.5374 C   0  0  0  0  0  0  0  0  0  0  0  0
    1.3073   -8.2614    2.6830 C   0  0  0  0  0  0  0  0  0  0  0  0
    0.4265   -7.2177    3.0606 C   0  0  0  0  0  0  0  0  0  0  0  0
   -0.5116   -7.4119    4.0983 C   0  0  0  0  0  0  0  0  0  0  0  0
   -0.5697   -8.6487    4.7627 C   0  0  0  0  0  0  0  0  0  0  0  0
    0.2952   -9.6896    4.3912 C   0  0  0  0  0  0  0  0  0  0  0  0
    1.2293   -9.5051    3.3539 C   0  0  0  0  0  0  0  0  0  0  0  0
    2.0485  -10.5369    3.0037 O   0  0  0  0  0  0  0  0  0  0  0  0
    3.8277   -5.4353    0.8916 C   0  0  2  0  0  0  0  0  0  0  0  0
    2.6527   -4.8422    0.1230 C   0  0  0  0  0  0  0  0  0  0  0  0
    3.5954   -3.6520   -0.2485 C   0  0  1  0  0  0  0  0  0  0  0  0
    3.4995   -2.8395   -1.5093 C   0  0  0  0  0  0  0  0  0  0  0  0
    2.8842   -3.1764   -2.7311 C   0  0  0  0  0  0  0  0  0  0  0  0
    2.9302   -2.2308   -3.7730 C   0  0  0  0  0  0  0  0  0  0  0  0
    3.5563   -0.9785   -3.6049 C   0  0  0  0  0  0  0  0  0  0  0  0
    4.1970   -0.6600   -2.3890 C   0  0  0  0  0  0  0  0  0  0  0  0
    4.1531   -1.6291   -1.3601 C   0  0  0  0  0  0  0  0  0  0  0  0
    4.7716   -1.5098    0.0023 N   0  0  1  0  0  0  0  0  0  0  0  0
    4.2237   -0.3813    0.7875 C   0  0  0  0  0  0  0  0  0  0  0  0
    4.5465   -2.8354    0.6569 C   0  0  2  0  0  0  0  0  0  0  0  0
    5.7712   -3.8201    0.5862 C   0  0  2  0  0  0  0  0  0  0  0  0
    6.1192   -3.9739    1.9798 O   0  0  0  0  0  0  0  0  0  0  0  0
    6.4803   -5.0828    1.2181 C   0  0  1  0  0  0  0  0  0  0  0  0
    4.7102   -4.6452   -0.0910 C   0  0  1  0  0  0  0  0  0  0  0  0
    8.6067   -8.2622    1.9392 H   0  0  0  0  0  0  0  0  0  0  0  0
    7.5469   -7.9351    3.2962 H   0  0  0  0  0  0  0  0  0  0  0  0
    8.3777   -6.6156    2.4785 H   0  0  0  0  0  0  0  0  0  0  0  0
    5.7497   -6.3830    2.7699 H   0  0  0  0  0  0  0  0  0  0  0  0
    4.5488   -7.3183    0.1459 H   0  0  0  0  0  0  0  0  0  0  0  0
    4.1327   -8.5167    2.1949 H   0  0  0  0  0  0  0  0  0  0  0  0
    1.8559   -7.2953    0.8919 H   0  0  0  0  0  0  0  0  0  0  0  0
    2.3590   -8.9459    0.9173 H   0  0  0  0  0  0  0  0  0  0  0  0
    0.4562   -6.2660    2.5478 H   0  0  0  0  0  0  0  0  0  0  0  0
   -1.1884   -6.6216    4.3901 H   0  0  0  0  0  0  0  0  0  0  0  0
   -1.2838   -8.8201    5.5560 H   0  0  0  0  0  0  0  0  0  0  0  0
    0.2188  -10.6375    4.9056 H   0  0  0  0  0  0  0  0  0  0  0  0
    1.8585  -11.3330    3.4824 H   0  0  0  0  0  0  0  0  0  0  0  0
    3.7749   -4.9516    1.8696 H   0  0  0  0  0  0  0  0  0  0  0  0
    2.3160   -5.4413   -0.7215 H   0  0  0  0  0  0  0  0  0  0  0  0
    1.8311   -4.5127    0.7521 H   0  0  0  0  0  0  0  0  0  0  0  0
    2.3943   -4.1207   -2.8914 H   0  0  0  0  0  0  0  0  0  0  0  0
    2.4338   -2.4783   -4.6838 H   0  0  0  0  0  0  0  0  0  0  0  0
    3.5237   -0.2376   -4.3952 H   0  0  0  0  0  0  0  0  0  0  0  0
    4.6406    0.3043   -2.2466 H   0  0  0  0  0  0  0  0  0  0  0  0
    4.4317    0.5424    0.2648 H   0  0  0  0  0  0  0  0  0  0  0  0
    4.6885   -0.2990    1.7692 H   0  0  0  0  0  0  0  0  0  0  0  0
    3.1414   -0.4319    0.9096 H   0  0  0  0  0  0  0  0  0  0  0  0
    4.1010   -2.7763    1.6447 H   0  0  0  0  0  0  0  0  0  0  0  0
    7.5406   -5.1375    1.0017 H   0  0  0  0  0  0  0  0  0  0  0  0
    4.9836   -5.1737   -0.9990 H   0  0  0  0  0  0  0  0  0  0  0  0
    3.5201   -7.1615    2.8932 H   0  0  0  0  0  0  0  0  0  0  0  0
    5.7655   -1.3666   -0.0645 H   0  0  0  0  0  0  0  0  0  0  0  0
  1  2  1  0
  1 30  1  0
  1 31  1  0
  1 32  1  0
  2  3  1  0
  3 28  1  0
  3  4  1  0
  3 33  1  1
  4  5  1  0
  4 14  1  0
  4 34  1  6
  5  6  1  0
  5 35  1  0
  5 56  1  0
  6  7  1  0
  6 36  1  0
  6 37  1  0
  7 12  1  0
  7  8  2  0
  8  9  1  0
  8 38  1  0
  9 10  2  0
  9 39  1  0
 10 11  1  0
 10 40  1  0
 11 12  2  0
 11 41  1  0
 12 13  1  0
 13 42  1  0
 14 29  1  0
 14 15  1  0
 14 43  1  1
 16 15  1  1
 15 44  1  0
 15 45  1  0
 16 25  1  0
 16 29  1  0
 16 17  1  0
 17 22  2  0
 17 18  1  0
 18 19  2  0
 18 46  1  0
 19 20  1  0
 19 47  1  0
 20 21  2  0
 20 48  1  0
 21 22  1  0
 21 49  1  0
 22 23  1  0
 23 24  1  0
 23 25  1  0
 23 57  1  6
 24 50  1  0
 24 51  1  0
 24 52  1  0
 25 26  1  0
 25 53  1  1
 26 28  1  0
 26 27  1  6
 26 29  1  0
 27 28  1  0
 28 54  1  6
 29 55  1  6
M  CHG  2   5   1  23   1
M  END
>  <i_m_ct_stereo_status>  (39) 
1

>  <s_m_source_file>  (39) 
/var/tmp/pbs.5083856.sched01/tmposmbpxi4/15rvt_o3g7.sdf

>  <i_m_source_file_index>  (39) 
2

>  <i_lp_mmshare_version>  (39) 
48012

>  <i_f3d_flags>  (39) 
0

>  <s_epik_input>  (39) 
W2NIXTFbY0hdW2NIXVtjSF1jKGMxW0NAXTIzNClOKFtDSDNdKVtDQEBIXTNDNTZbQ0BASF0oTzUpW0NASF0oT1tDSDNdKVtDQEhdKFtDQEhdKFtDSDJdMilbQ0BASF00NilbTkhdW0NIMl1jN1tjSF1bY0hdW2NIXVtjSF1jN1tPSF0=

>  <s_epik_cmdline>  (39) 
J2VwaWtfcHl0aG9uJywgJy1waHQnLCAnMi4wJywgJy1waCcsICc3LjAnLCAnLXRuJywgJzgnLCAnLW1hJywgJzIwMCcsICctaW1hZScsICc8aW5maWxlLm1hZT4nLCAnLW9tYWUnLCAnPG91dGZpbGUubWFlPic=

>  <r_lp_tautomer_probability>  (39) 
1

>  <r_epik_Ionization_Penalty>  (39) 
1.20952

>  <r_epik_Ionization_Penalty_Charging>  (39) 
1.19737

>  <r_epik_Ionization_Penalty_Neutral>  (39) 
0.0121501

>  <r_epik_State_Penalty>  (39) 
1.17913

>  <r_epik_Charging_Adjusted_Penalty>  (39) 
2.3765

>  <i_epik_Tot_Q>  (39) 
2

>  <i_epik_Tot_abs_Q>  (39) 
2

>  <s_lp_Force_Field>  (39) 
OPLS3e

>  <r_lp_Energy>  (39) 
145.698

>  <b_lp_Chiralities_Consistent>  (39) 
1

>  <s_lp_Variant>  (39) 
13:0-2

>  <s_i_glide_gridfile>  (39) 
pfpi4k_grid

>  <i_i_glide_lignum>  (39) 
2

>  <i_i_glide_rotatable_bonds>  (39) 
5

>  <r_i_docking_score>  (39) 
-3.56725

>  <r_i_glide_ligand_efficiency>  (39) 
-0.123009

>  <r_i_glide_ligand_efficiency_sa>  (39) 
-0.377921

>  <r_i_glide_ligand_efficiency_ln>  (39) 
-0.816809

>  <r_i_glide_gscore>  (39) 
-3.56725

>  <r_i_glide_lipo>  (39) 
-0.976127

>  <r_i_glide_hbond>  (39) 
0

>  <r_i_glide_metal>  (39) 
-0

>  <r_i_glide_rewards>  (39) 
-0.733018

>  <r_i_glide_evdw>  (39) 
-28.1971

>  <r_i_glide_ecoul>  (39) 
-5.45559

>  <r_i_glide_erotb>  (39) 
0.380242

>  <r_i_glide_esite>  (39) 
-0.0101495

>  <r_i_glide_emodel>  (39) 
-40.8328

>  <r_i_glide_energy>  (39) 
-33.6527

>  <r_i_glide_einternal>  (39) 
2.25086

>  <r_i_glide_intrahb_reward>  (39) 
-0

>  <i_i_glide_confnum>  (39) 
4

>  <i_i_glide_posenum>  (39) 
4

>  <r_i_glide_eff_state_penalty>  (39) 
0

>  <ligand_id>  (39) 
13

>  <original_smiles>  (39) 
COC1C(NCc2ccccc2O)C2CC34c5ccccc5N(C)C3C3(OC13)C24

>  <smiles>  (39) 
[H]Oc1c([H])c([H])c([H])c([H])c1C([H])([H])[N+]([H])([H])C1([H])C([H])(OC([H])([H])[H])C2([H])OC23C2([H])C1([H])C([H])([H])C21c2c([H])c([H])c([H])c([H])c2[N+]([H])(C([H])([H])[H])C31[H]

$$$$
13:2:0
     RDKit          3D

 55 61  0  0  1  0  0  0  0  0999 V2000
    6.0409    0.3573    4.1165 C   0  0  0  0  0  0  0  0  0  0  0  0
    5.8068   -1.0066    3.7957 O   0  0  0  0  0  0  0  0  0  0  0  0
    4.4542   -1.3917    3.6088 C   0  0  2  0  0  0  0  0  0  0  0  0
    3.9029   -0.8248    2.2491 C   0  0  1  0  0  0  0  0  0  0  0  0
    4.3292   -1.6190    1.1042 N   0  0  0  0  0  0  0  0  0  0  0  0
    4.0021   -0.9738   -0.1655 C   0  0  0  0  0  0  0  0  0  0  0  0
    4.2900   -1.8477   -1.3721 C   0  0  0  0  0  0  0  0  0  0  0  0
    3.2314   -2.2057   -2.2339 C   0  0  0  0  0  0  0  0  0  0  0  0
    3.4563   -3.0445   -3.3360 C   0  0  0  0  0  0  0  0  0  0  0  0
    4.7527   -3.5273   -3.5777 C   0  0  0  0  0  0  0  0  0  0  0  0
    5.8199   -3.1630   -2.7308 C   0  0  0  0  0  0  0  0  0  0  0  0
    5.5959   -2.3200   -1.6310 C   0  0  0  0  0  0  0  0  0  0  0  0
    6.6511   -1.9894   -0.8247 O   0  0  0  0  0  0  0  0  0  0  0  0
    2.4229   -0.8635    2.4361 C   0  0  2  0  0  0  0  0  0  0  0  0
    1.2347   -0.1773    1.7942 C   0  0  0  0  0  0  0  0  0  0  0  0
    0.6845    0.0494    3.2244 C   0  0  1  0  0  0  0  0  0  0  0  0
   -0.2125    1.1659    3.6294 C   0  0  0  0  0  0  0  0  0  0  0  0
   -0.4064    2.3943    3.0123 C   0  0  0  0  0  0  0  0  0  0  0  0
   -1.3049    3.2995    3.5957 C   0  0  0  0  0  0  0  0  0  0  0  0
   -1.9934    2.9520    4.7923 C   0  0  0  0  0  0  0  0  0  0  0  0
   -1.7472    1.7250    5.4281 C   0  0  0  0  0  0  0  0  0  0  0  0
   -0.8461    0.8245    4.8518 C   0  0  0  0  0  0  0  0  0  0  0  0
   -0.4234   -0.4255    5.3015 N   0  0  0  0  0  0  0  0  0  0  0  0
   -0.4072   -0.8461    6.6918 C   0  0  0  0  0  0  0  0  0  0  0  0
    0.6306   -0.8986    4.4196 C   0  0  2  0  0  0  0  0  0  0  0  0
    2.0915   -0.6598    4.9567 C   0  0  2  0  0  0  0  0  0  0  0  0
    2.5587   -2.0056    5.1424 O   0  0  0  0  0  0  0  0  0  0  0  0
    3.5824   -1.1042    4.8943 C   0  0  1  0  0  0  0  0  0  0  0  0
    2.1265    0.0665    3.6277 C   0  0  1  0  0  0  0  0  0  0  0  0
    7.1125    0.5419    4.2156 H   0  0  0  0  0  0  0  0  0  0  0  0
    5.5559    0.7058    5.0344 H   0  0  0  0  0  0  0  0  0  0  0  0
    5.6826    0.9416    3.3075 H   0  0  0  0  0  0  0  0  0  0  0  0
    4.4720   -2.4768    3.5562 H   0  0  0  0  0  0  0  0  0  0  0  0
    4.2013    0.2048    2.0984 H   0  0  0  0  0  0  0  0  0  0  0  0
    5.3388   -1.7289    1.1368 H   0  0  0  0  0  0  0  0  0  0  0  0
    2.9544   -0.6825   -0.1937 H   0  0  0  0  0  0  0  0  0  0  0  0
    4.5620   -0.0463   -0.2723 H   0  0  0  0  0  0  0  0  0  0  0  0
    2.2304   -1.8577   -2.0395 H   0  0  0  0  0  0  0  0  0  0  0  0
    2.6291   -3.3294   -3.9758 H   0  0  0  0  0  0  0  0  0  0  0  0
    4.9352   -4.1848   -4.4147 H   0  0  0  0  0  0  0  0  0  0  0  0
    6.8067   -3.5358   -2.9312 H   0  0  0  0  0  0  0  0  0  0  0  0
    7.3393   -2.6378   -0.8773 H   0  0  0  0  0  0  0  0  0  0  0  0
    2.1212   -1.8927    2.6221 H   0  0  0  0  0  0  0  0  0  0  0  0
    1.4640    0.7079    1.2161 H   0  0  0  0  0  0  0  0  0  0  0  0
    0.6016   -0.8901    1.2849 H   0  0  0  0  0  0  0  0  0  0  0  0
    0.1464    2.6415    2.1076 H   0  0  0  0  0  0  0  0  0  0  0  0
   -1.4917    4.2473    3.1211 H   0  0  0  0  0  0  0  0  0  0  0  0
   -2.7176    3.6332    5.2120 H   0  0  0  0  0  0  0  0  0  0  0  0
   -2.2718    1.4494    6.3415 H   0  0  0  0  0  0  0  0  0  0  0  0
   -1.2605   -0.4585    7.2273 H   0  0  0  0  0  0  0  0  0  0  0  0
    0.5078   -0.5069    7.1664 H   0  0  0  0  0  0  0  0  0  0  0  0
   -0.3961   -1.9354    6.7022 H   0  0  0  0  0  0  0  0  0  0  0  0
    0.4907   -1.9169    4.0442 H   0  0  0  0  0  0  0  0  0  0  0  0
    4.1625   -0.8581    5.7796 H   0  0  0  0  0  0  0  0  0  0  0  0
    2.5930    1.0442    3.6070 H   0  0  0  0  0  0  0  0  0  0  0  0
  1  2  1  0
  1 30  1  0
  1 31  1  0
  1 32  1  0
  2  3  1  0
  3 28  1  0
  3  4  1  0
  3 33  1  6
  4  5  1  0
  4 14  1  0
  4 34  1  6
  5  6  1  0
  5 35  1  0
  6  7  1  0
  6 36  1  0
  6 37  1  0
  7 12  1  0
  7  8  2  0
  8  9  1  0
  8 38  1  0
  9 10  2  0
  9 39  1  0
 10 11  1  0
 10 40  1  0
 11 12  2  0
 11 41  1  0
 12 13  1  0
 13 42  1  0
 14 29  1  0
 14 15  1  0
 14 43  1  1
 16 15  1  6
 15 44  1  0
 15 45  1  0
 16 25  1  0
 16 29  1  0
 16 17  1  0
 17 22  2  0
 17 18  1  0
 18 19  2  0
 18 46  1  0
 19 20  1  0
 19 47  1  0
 20 21  2  0
 20 48  1  0
 21 22  1  0
 21 49  1  0
 22 23  1  0
 23 24  1  0
 23 25  1  0
 24 50  1  0
 24 51  1  0
 24 52  1  0
 25 26  1  0
 25 53  1  6
 26 28  1  0
 26 27  1  1
 26 29  1  0
 27 28  1  0
 28 54  1  1
 29 55  1  1
M  END
>  <i_m_ct_stereo_status>  (40) 
1

>  <s_m_source_file>  (40) 
/var/tmp/pbs.5083856.sched01/tmposmbpxi4/15rvt_o3g7.sdf

>  <i_m_source_file_index>  (40) 
3

>  <i_lp_mmshare_version>  (40) 
48012

>  <i_f3d_flags>  (40) 
0

>  <s_epik_input>  (40) 
W2NIXTFbY0hdW2NIXVtjSF1jKGMxW0NAXTIzNClOKFtDSDNdKVtDQEBIXTNDNTZbQ0BASF0oTzUpW0NASF0oT1tDSDNdKVtDQEhdKFtDQEhdKFtDSDJdMilbQ0BASF00NilbTkhdW0NIMl1jN1tjSF1bY0hdW2NIXVtjSF1jN1tPSF0=

>  <s_epik_cmdline>  (40) 
J2VwaWtfcHl0aG9uJywgJy1waHQnLCAnMi4wJywgJy1waCcsICc3LjAnLCAnLXRuJywgJzgnLCAnLW1hJywgJzIwMCcsICctaW1hZScsICc8aW5maWxlLm1hZT4nLCAnLW9tYWUnLCAnPG91dGZpbGUubWFlPic=

>  <r_lp_tautomer_probability>  (40) 
1

>  <r_epik_Ionization_Penalty>  (40) 
1.62283

>  <r_epik_Ionization_Penalty_Charging>  (40) 
0

>  <r_epik_Ionization_Penalty_Neutral>  (40) 
1.62283

>  <r_epik_State_Penalty>  (40) 
1.70626

>  <r_epik_Charging_Adjusted_Penalty>  (40) 
1.70626

>  <i_epik_Tot_Q>  (40) 
0

>  <i_epik_Tot_abs_Q>  (40) 
0

>  <s_lp_Force_Field>  (40) 
OPLS3e

>  <r_lp_Energy>  (40) 
147.733

>  <b_lp_Chiralities_Consistent>  (40) 
1

>  <s_lp_Variant>  (40) 
13:0-3

>  <s_i_glide_gridfile>  (40) 
pfpi4k_grid

>  <i_i_glide_lignum>  (40) 
3

>  <i_i_glide_rotatable_bonds>  (40) 
5

>  <r_i_docking_score>  (40) 
-3.23894

>  <r_i_glide_ligand_efficiency>  (40) 
-0.111687

>  <r_i_glide_ligand_efficiency_sa>  (40) 
-0.343139

>  <r_i_glide_ligand_efficiency_ln>  (40) 
-0.741634

>  <r_i_glide_gscore>  (40) 
-3.23894

>  <r_i_glide_lipo>  (40) 
-0.716343

>  <r_i_glide_hbond>  (40) 
-0.16

>  <r_i_glide_metal>  (40) 
-0

>  <r_i_glide_rewards>  (40) 
-1.24676

>  <r_i_glide_evdw>  (40) 
-25.6229

>  <r_i_glide_ecoul>  (40) 
-1.30399

>  <r_i_glide_erotb>  (40) 
0.383776

>  <r_i_glide_esite>  (40) 
-0.0228656

>  <r_i_glide_emodel>  (40) 
-36.3289

>  <r_i_glide_energy>  (40) 
-26.9269

>  <r_i_glide_einternal>  (40) 
2.95374

>  <r_i_glide_intrahb_reward>  (40) 
-0.5

>  <i_i_glide_confnum>  (40) 
2

>  <i_i_glide_posenum>  (40) 
28

>  <r_i_glide_eff_state_penalty>  (40) 
0

>  <ligand_id>  (40) 
13

>  <original_smiles>  (40) 
COC1C(NCc2ccccc2O)C2CC34c5ccccc5N(C)C3C3(OC13)C24

>  <smiles>  (40) 
[H]Oc1c([H])c([H])c([H])c([H])c1C([H])([H])N([H])C1([H])C([H])(OC([H])([H])[H])C2([H])OC23C2([H])N(C([H])([H])[H])c4c([H])c([H])c([H])c([H])c4C24C([H])([H])C1([H])C34[H]

$$$$
13:2:1
     RDKit          3D

 55 61  0  0  1  0  0  0  0  0999 V2000
    5.7129    0.0741    4.7061 C   0  0  0  0  0  0  0  0  0  0  0  0
    5.3680   -1.0468    3.9010 O   0  0  0  0  0  0  0  0  0  0  0  0
    4.0251   -1.0950    3.4317 C   0  0  2  0  0  0  0  0  0  0  0  0
    3.7418    0.0293    2.3614 C   0  0  1  0  0  0  0  0  0  0  0  0
    4.2639   -0.2809    1.0339 N   0  0  0  0  0  0  0  0  0  0  0  0
    3.5277   -1.2985    0.2901 C   0  0  0  0  0  0  0  0  0  0  0  0
    4.3802   -1.9356   -0.7779 C   0  0  0  0  0  0  0  0  0  0  0  0
    5.6823   -2.3724   -0.4482 C   0  0  0  0  0  0  0  0  0  0  0  0
    6.4905   -2.9731   -1.4269 C   0  0  0  0  0  0  0  0  0  0  0  0
    5.9858   -3.1419   -2.7292 C   0  0  0  0  0  0  0  0  0  0  0  0
    4.6829   -2.7256   -3.0605 C   0  0  0  0  0  0  0  0  0  0  0  0
    3.8716   -2.1252   -2.0809 C   0  0  0  0  0  0  0  0  0  0  0  0
    2.6102   -1.7448   -2.4304 O   0  0  0  0  0  0  0  0  0  0  0  0
    2.2572    0.1956    2.3853 C   0  0  2  0  0  0  0  0  0  0  0  0
    1.2625    1.2544    1.9305 C   0  0  0  0  0  0  0  0  0  0  0  0
    0.5472    1.0065    3.2911 C   0  0  1  0  0  0  0  0  0  0  0  0
   -0.2801    1.9999    4.0361 C   0  0  0  0  0  0  0  0  0  0  0  0
   -0.2221    3.4065    3.9464 C   0  0  0  0  0  0  0  0  0  0  0  0
   -1.1031    4.1291    4.7715 C   0  0  0  0  0  0  0  0  0  0  0  0
   -1.9960    3.4701    5.6357 C   0  0  0  0  0  0  0  0  0  0  0  0
   -2.0012    2.0608    5.7492 C   0  0  0  0  0  0  0  0  0  0  0  0
   -1.1087    1.3379    4.9310 C   0  0  0  0  0  0  0  0  0  0  0  0
   -0.9211   -0.0552    4.8783 N   0  0  0  0  0  0  0  0  0  0  0  0
   -1.1854   -0.9901    5.9468 C   0  0  0  0  0  0  0  0  0  0  0  0
    0.1996   -0.3127    3.9896 C   0  0  2  0  0  0  0  0  0  0  0  0
    1.5777   -0.5280    4.7138 C   0  0  2  0  0  0  0  0  0  0  0  0
    1.8619   -1.9129    4.4090 O   0  0  0  0  0  0  0  0  0  0  0  0
    3.0100   -1.1642    4.6279 C   0  0  1  0  0  0  0  0  0  0  0  0
    1.8995    0.6345    3.8073 C   0  0  1  0  0  0  0  0  0  0  0  0
    6.7615    0.0225    4.9923 H   0  0  0  0  0  0  0  0  0  0  0  0
    5.1266    0.1411    5.6221 H   0  0  0  0  0  0  0  0  0  0  0  0
    5.5889    1.0023    4.1634 H   0  0  0  0  0  0  0  0  0  0  0  0
    3.9370   -2.0759    2.9697 H   0  0  0  0  0  0  0  0  0  0  0  0
    4.1843    0.9629    2.6735 H   0  0  0  0  0  0  0  0  0  0  0  0
    4.2278    0.5754    0.4915 H   0  0  0  0  0  0  0  0  0  0  0  0
    3.1973   -2.1177    0.9252 H   0  0  0  0  0  0  0  0  0  0  0  0
    2.6277   -0.8422   -0.1142 H   0  0  0  0  0  0  0  0  0  0  0  0
    6.0607   -2.2431    0.5594 H   0  0  0  0  0  0  0  0  0  0  0  0
    7.4978   -3.3048   -1.1853 H   0  0  0  0  0  0  0  0  0  0  0  0
    6.6039   -3.5922   -3.4873 H   0  0  0  0  0  0  0  0  0  0  0  0
    4.2985   -2.8635   -4.0579 H   0  0  0  0  0  0  0  0  0  0  0  0
    2.0097   -1.4541   -1.7409 H   0  0  0  0  0  0  0  0  0  0  0  0
    1.7924   -0.7602    2.1426 H   0  0  0  0  0  0  0  0  0  0  0  0
    1.6819    2.2506    1.7972 H   0  0  0  0  0  0  0  0  0  0  0  0
    0.6450    0.9401    1.0925 H   0  0  0  0  0  0  0  0  0  0  0  0
    0.4757    3.9011    3.2890 H   0  0  0  0  0  0  0  0  0  0  0  0
   -1.0917    5.2088    4.7200 H   0  0  0  0  0  0  0  0  0  0  0  0
   -2.6975    4.0352    6.2307 H   0  0  0  0  0  0  0  0  0  0  0  0
   -2.6824    1.5625    6.4140 H   0  0  0  0  0  0  0  0  0  0  0  0
   -2.1007   -0.7463    6.4663 H   0  0  0  0  0  0  0  0  0  0  0  0
   -0.3287   -1.0087    6.6236 H   0  0  0  0  0  0  0  0  0  0  0  0
   -1.2697   -1.9895    5.5120 H   0  0  0  0  0  0  0  0  0  0  0  0
   -0.0108   -1.0716    3.2371 H   0  0  0  0  0  0  0  0  0  0  0  0
    3.4762   -1.3635    5.5891 H   0  0  0  0  0  0  0  0  0  0  0  0
    2.4886    1.4492    4.2204 H   0  0  0  0  0  0  0  0  0  0  0  0
  1  2  1  0
  1 30  1  0
  1 31  1  0
  1 32  1  0
  2  3  1  0
  3 28  1  0
  3  4  1  0
  3 33  1  6
  4  5  1  0
  4 14  1  0
  4 34  1  1
  5  6  1  0
  5 35  1  0
  6  7  1  0
  6 36  1  0
  6 37  1  0
  7 12  1  0
  7  8  2  0
  8  9  1  0
  8 38  1  0
  9 10  2  0
  9 39  1  0
 10 11  1  0
 10 40  1  0
 11 12  2  0
 11 41  1  0
 12 13  1  0
 13 42  1  0
 14 29  1  0
 14 15  1  0
 14 43  1  1
 16 15  1  6
 15 44  1  0
 15 45  1  0
 16 25  1  0
 16 29  1  0
 16 17  1  0
 17 22  2  0
 17 18  1  0
 18 19  2  0
 18 46  1  0
 19 20  1  0
 19 47  1  0
 20 21  2  0
 20 48  1  0
 21 22  1  0
 21 49  1  0
 22 23  1  0
 23 24  1  0
 23 25  1  0
 24 50  1  0
 24 51  1  0
 24 52  1  0
 25 26  1  0
 25 53  1  6
 26 28  1  0
 26 27  1  1
 26 29  1  0
 27 28  1  0
 28 54  1  1
 29 55  1  1
M  END
>  <i_m_ct_stereo_status>  (41) 
1

>  <s_m_source_file>  (41) 
/var/tmp/pbs.5083856.sched01/tmposmbpxi4/15rvt_o3g7.sdf

>  <i_m_source_file_index>  (41) 
3

>  <i_lp_mmshare_version>  (41) 
48012

>  <i_f3d_flags>  (41) 
0

>  <s_epik_input>  (41) 
W2NIXTFbY0hdW2NIXVtjSF1jKGMxW0NAXTIzNClOKFtDSDNdKVtDQEBIXTNDNTZbQ0BASF0oTzUpW0NASF0oT1tDSDNdKVtDQEhdKFtDQEhdKFtDSDJdMilbQ0BASF00NilbTkhdW0NIMl1jN1tjSF1bY0hdW2NIXVtjSF1jN1tPSF0=

>  <s_epik_cmdline>  (41) 
J2VwaWtfcHl0aG9uJywgJy1waHQnLCAnMi4wJywgJy1waCcsICc3LjAnLCAnLXRuJywgJzgnLCAnLW1hJywgJzIwMCcsICctaW1hZScsICc8aW5maWxlLm1hZT4nLCAnLW9tYWUnLCAnPG91dGZpbGUubWFlPic=

>  <r_lp_tautomer_probability>  (41) 
1

>  <r_epik_Ionization_Penalty>  (41) 
1.62283

>  <r_epik_Ionization_Penalty_Charging>  (41) 
0

>  <r_epik_Ionization_Penalty_Neutral>  (41) 
1.62283

>  <r_epik_State_Penalty>  (41) 
1.70626

>  <r_epik_Charging_Adjusted_Penalty>  (41) 
1.70626

>  <i_epik_Tot_Q>  (41) 
0

>  <i_epik_Tot_abs_Q>  (41) 
0

>  <s_lp_Force_Field>  (41) 
OPLS3e

>  <r_lp_Energy>  (41) 
147.733

>  <b_lp_Chiralities_Consistent>  (41) 
1

>  <s_lp_Variant>  (41) 
13:0-3

>  <s_i_glide_gridfile>  (41) 
pfpi4k_grid

>  <i_i_glide_lignum>  (41) 
3

>  <i_i_glide_rotatable_bonds>  (41) 
5

>  <r_i_docking_score>  (41) 
-3.05412

>  <r_i_glide_ligand_efficiency>  (41) 
-0.105314

>  <r_i_glide_ligand_efficiency_sa>  (41) 
-0.323559

>  <r_i_glide_ligand_efficiency_ln>  (41) 
-0.699315

>  <r_i_glide_gscore>  (41) 
-3.05412

>  <r_i_glide_lipo>  (41) 
-0.47678

>  <r_i_glide_hbond>  (41) 
-0.16

>  <r_i_glide_metal>  (41) 
-0

>  <r_i_glide_rewards>  (41) 
-0.746762

>  <r_i_glide_evdw>  (41) 
-25.5175

>  <r_i_glide_ecoul>  (41) 
-5.00294

>  <r_i_glide_erotb>  (41) 
0.383776

>  <r_i_glide_esite>  (41) 
-0.0280348

>  <r_i_glide_emodel>  (41) 
-33.1415

>  <r_i_glide_energy>  (41) 
-30.5204

>  <r_i_glide_einternal>  (41) 
5.90615

>  <r_i_glide_intrahb_reward>  (41) 
-0

>  <i_i_glide_confnum>  (41) 
4

>  <i_i_glide_posenum>  (41) 
11

>  <r_i_glide_eff_state_penalty>  (41) 
0

>  <ligand_id>  (41) 
13

>  <original_smiles>  (41) 
COC1C(NCc2ccccc2O)C2CC34c5ccccc5N(C)C3C3(OC13)C24

>  <smiles>  (41) 
[H]Oc1c([H])c([H])c([H])c([H])c1C([H])([H])N([H])C1([H])C([H])(OC([H])([H])[H])C2([H])OC23C2([H])N(C([H])([H])[H])c4c([H])c([H])c([H])c([H])c4C24C([H])([H])C1([H])C34[H]

$$$$
13:2:2
     RDKit          3D

 55 61  0  0  1  0  0  0  0  0999 V2000
   -2.1750   -4.3849    7.8871 C   0  0  0  0  0  0  0  0  0  0  0  0
   -0.9814   -3.6824    8.1678 O   0  0  0  0  0  0  0  0  0  0  0  0
    0.2126   -4.2485    7.6208 C   0  0  2  0  0  0  0  0  0  0  0  0
    0.2561   -4.0178    6.0655 C   0  0  1  0  0  0  0  0  0  0  0  0
    0.6590   -2.6656    5.7143 N   0  0  0  0  0  0  0  0  0  0  0  0
    0.5953   -2.3921    4.2886 C   0  0  0  0  0  0  0  0  0  0  0  0
    0.2257   -0.9497    3.9752 C   0  0  0  0  0  0  0  0  0  0  0  0
    1.0516   -0.2036    3.1107 C   0  0  0  0  0  0  0  0  0  0  0  0
    0.7306    1.1316    2.8011 C   0  0  0  0  0  0  0  0  0  0  0  0
   -0.4266    1.7198    3.3441 C   0  0  0  0  0  0  0  0  0  0  0  0
   -1.2686    0.9753    4.1917 C   0  0  0  0  0  0  0  0  0  0  0  0
   -0.9517   -0.3620    4.5021 C   0  0  0  0  0  0  0  0  0  0  0  0
   -1.8025   -1.0724    5.3082 O   0  0  0  0  0  0  0  0  0  0  0  0
    1.2347   -5.0297    5.5618 C   0  0  2  0  0  0  0  0  0  0  0  0
    1.5262   -5.6720    4.2191 C   0  0  0  0  0  0  0  0  0  0  0  0
    1.5937   -7.0362    4.9892 C   0  0  1  0  0  0  0  0  0  0  0  0
    1.2927   -8.3611    4.3984 C   0  0  0  0  0  0  0  0  0  0  0  0
    0.5197   -8.6778    3.2715 C   0  0  0  0  0  0  0  0  0  0  0  0
    0.3834  -10.0244    2.9304 C   0  0  0  0  0  0  0  0  0  0  0  0
    1.0098  -11.0413    3.7045 C   0  0  0  0  0  0  0  0  0  0  0  0
    1.7329  -10.7070    4.8679 C   0  0  0  0  0  0  0  0  0  0  0  0
    1.8616   -9.3754    5.2220 C   0  0  0  0  0  0  0  0  0  0  0  0
    2.4903   -8.8087    6.3510 N   0  0  0  0  0  0  0  0  0  0  0  0
    2.7313   -9.5206    7.5902 C   0  0  0  0  0  0  0  0  0  0  0  0
    2.2461   -7.3691    6.3342 C   0  0  2  0  0  0  0  0  0  0  0  0
    1.0959   -6.9130    7.2901 C   0  0  2  0  0  0  0  0  0  0  0  0
    1.8042   -6.0874    8.2236 O   0  0  0  0  0  0  0  0  0  0  0  0
    0.4682   -5.7340    8.1002 C   0  0  1  0  0  0  0  0  0  0  0  0
    0.6190   -6.4029    5.9392 C   0  0  1  0  0  0  0  0  0  0  0  0
   -2.9851   -3.8855    8.4295 H   0  0  0  0  0  0  0  0  0  0  0  0
   -2.1676   -5.4143    8.2287 H   0  0  0  0  0  0  0  0  0  0  0  0
   -2.4401   -4.3840    6.8352 H   0  0  0  0  0  0  0  0  0  0  0  0
    1.0427   -3.7051    8.0763 H   0  0  0  0  0  0  0  0  0  0  0  0
   -0.7091   -4.2403    5.6418 H   0  0  0  0  0  0  0  0  0  0  0  0
    0.2039   -1.9457    6.2708 H   0  0  0  0  0  0  0  0  0  0  0  0
    1.5317   -2.6820    3.8109 H   0  0  0  0  0  0  0  0  0  0  0  0
   -0.1663   -2.9990    3.8015 H   0  0  0  0  0  0  0  0  0  0  0  0
    1.9335   -0.6531    2.6809 H   0  0  0  0  0  0  0  0  0  0  0  0
    1.3729    1.7038    2.1457 H   0  0  0  0  0  0  0  0  0  0  0  0
   -0.6613    2.7474    3.1015 H   0  0  0  0  0  0  0  0  0  0  0  0
   -2.1675    1.4220    4.5967 H   0  0  0  0  0  0  0  0  0  0  0  0
   -1.5442   -1.9843    5.3547 H   0  0  0  0  0  0  0  0  0  0  0  0
    2.2015   -4.8539    6.0348 H   0  0  0  0  0  0  0  0  0  0  0  0
    0.7313   -5.5848    3.4993 H   0  0  0  0  0  0  0  0  0  0  0  0
    2.4912   -5.3815    3.8282 H   0  0  0  0  0  0  0  0  0  0  0  0
    0.0193   -7.8949    2.6940 H   0  0  0  0  0  0  0  0  0  0  0  0
   -0.1999  -10.3246    2.0750 H   0  0  0  0  0  0  0  0  0  0  0  0
    0.9251  -12.0759    3.4182 H   0  0  0  0  0  0  0  0  0  0  0  0
    2.1980  -11.4732    5.4923 H   0  0  0  0  0  0  0  0  0  0  0  0
    3.0113  -10.5703    7.4792 H   0  0  0  0  0  0  0  0  0  0  0  0
    1.8563   -9.4406    8.2319 H   0  0  0  0  0  0  0  0  0  0  0  0
    3.5379   -8.9989    8.1019 H   0  0  0  0  0  0  0  0  0  0  0  0
    3.1527   -6.7581    6.4422 H   0  0  0  0  0  0  0  0  0  0  0  0
   -0.1423   -6.0415    8.9421 H   0  0  0  0  0  0  0  0  0  0  0  0
   -0.4174   -6.5824    5.6835 H   0  0  0  0  0  0  0  0  0  0  0  0
  1  2  1  0
  1 30  1  0
  1 31  1  0
  1 32  1  0
  2  3  1  0
  3 28  1  0
  3  4  1  0
  3 33  1  1
  4  5  1  0
  4 14  1  0
  4 34  1  6
  5  6  1  0
  5 35  1  0
  6  7  1  0
  6 36  1  0
  6 37  1  0
  7 12  1  0
  7  8  2  0
  8  9  1  0
  8 38  1  0
  9 10  2  0
  9 39  1  0
 10 11  1  0
 10 40  1  0
 11 12  2  0
 11 41  1  0
 12 13  1  0
 13 42  1  0
 14 29  1  0
 14 15  1  0
 14 43  1  1
 16 15  1  6
 15 44  1  0
 15 45  1  0
 16 25  1  0
 16 29  1  0
 16 17  1  0
 17 22  2  0
 17 18  1  0
 18 19  2  0
 18 46  1  0
 19 20  1  0
 19 47  1  0
 20 21  2  0
 20 48  1  0
 21 22  1  0
 21 49  1  0
 22 23  1  0
 23 24  1  0
 23 25  1  0
 24 50  1  0
 24 51  1  0
 24 52  1  0
 25 26  1  0
 25 53  1  1
 26 28  1  0
 26 27  1  1
 26 29  1  0
 27 28  1  0
 28 54  1  1
 29 55  1  6
M  END
>  <i_m_ct_stereo_status>  (42) 
1

>  <s_m_source_file>  (42) 
/var/tmp/pbs.5083856.sched01/tmposmbpxi4/15rvt_o3g7.sdf

>  <i_m_source_file_index>  (42) 
3

>  <i_lp_mmshare_version>  (42) 
48012

>  <i_f3d_flags>  (42) 
0

>  <s_epik_input>  (42) 
W2NIXTFbY0hdW2NIXVtjSF1jKGMxW0NAXTIzNClOKFtDSDNdKVtDQEBIXTNDNTZbQ0BASF0oTzUpW0NASF0oT1tDSDNdKVtDQEhdKFtDQEhdKFtDSDJdMilbQ0BASF00NilbTkhdW0NIMl1jN1tjSF1bY0hdW2NIXVtjSF1jN1tPSF0=

>  <s_epik_cmdline>  (42) 
J2VwaWtfcHl0aG9uJywgJy1waHQnLCAnMi4wJywgJy1waCcsICc3LjAnLCAnLXRuJywgJzgnLCAnLW1hJywgJzIwMCcsICctaW1hZScsICc8aW5maWxlLm1hZT4nLCAnLW9tYWUnLCAnPG91dGZpbGUubWFlPic=

>  <r_lp_tautomer_probability>  (42) 
1

>  <r_epik_Ionization_Penalty>  (42) 
1.62283

>  <r_epik_Ionization_Penalty_Charging>  (42) 
0

>  <r_epik_Ionization_Penalty_Neutral>  (42) 
1.62283

>  <r_epik_State_Penalty>  (42) 
1.70626

>  <r_epik_Charging_Adjusted_Penalty>  (42) 
1.70626

>  <i_epik_Tot_Q>  (42) 
0

>  <i_epik_Tot_abs_Q>  (42) 
0

>  <s_lp_Force_Field>  (42) 
OPLS3e

>  <r_lp_Energy>  (42) 
147.733

>  <b_lp_Chiralities_Consistent>  (42) 
1

>  <s_lp_Variant>  (42) 
13:0-3

>  <s_i_glide_gridfile>  (42) 
pfpi4k_grid

>  <i_i_glide_lignum>  (42) 
3

>  <i_i_glide_rotatable_bonds>  (42) 
5

>  <r_i_docking_score>  (42) 
-2.44656

>  <r_i_glide_ligand_efficiency>  (42) 
-0.0843643

>  <r_i_glide_ligand_efficiency_sa>  (42) 
-0.259194

>  <r_i_glide_ligand_efficiency_ln>  (42) 
-0.560201

>  <r_i_glide_gscore>  (42) 
-2.44656

>  <r_i_glide_lipo>  (42) 
-0.223653

>  <r_i_glide_hbond>  (42) 
-0.0627234

>  <r_i_glide_metal>  (42) 
-0

>  <r_i_glide_rewards>  (42) 
-0.746762

>  <r_i_glide_evdw>  (42) 
-25.3647

>  <r_i_glide_ecoul>  (42) 
-3.3596

>  <r_i_glide_erotb>  (42) 
0.383776

>  <r_i_glide_esite>  (42) 
-0.025028

>  <r_i_glide_emodel>  (42) 
-31.0159

>  <r_i_glide_energy>  (42) 
-28.7243

>  <r_i_glide_einternal>  (42) 
3.89606

>  <r_i_glide_intrahb_reward>  (42) 
-0

>  <i_i_glide_confnum>  (42) 
6

>  <i_i_glide_posenum>  (42) 
15

>  <r_i_glide_eff_state_penalty>  (42) 
0

>  <ligand_id>  (42) 
13

>  <original_smiles>  (42) 
COC1C(NCc2ccccc2O)C2CC34c5ccccc5N(C)C3C3(OC13)C24

>  <smiles>  (42) 
[H]Oc1c([H])c([H])c([H])c([H])c1C([H])([H])N([H])C1([H])C([H])(OC([H])([H])[H])C2([H])OC23C2([H])N(C([H])([H])[H])c4c([H])c([H])c([H])c([H])c4C24C([H])([H])C1([H])C34[H]

$$$$
13:3:0
     RDKit          3D

 56 62  0  0  1  0  0  0  0  0999 V2000
    8.8433   -5.6063    1.0310 C   0  0  0  0  0  0  0  0  0  0  0  0
    7.7723   -5.4100    1.9464 O   0  0  0  0  0  0  0  0  0  0  0  0
    6.5610   -6.0655    1.5888 C   0  0  2  0  0  0  0  0  0  0  0  0
    5.3479   -5.1134    1.8951 C   0  0  1  0  0  0  0  0  0  0  0  0
    5.0866   -4.1643    0.8137 N   0  0  0  0  0  0  0  0  0  0  0  0
    4.5064   -4.7068   -0.4112 C   0  0  0  0  0  0  0  0  0  0  0  0
    4.3067   -3.6301   -1.4438 C   0  0  0  0  0  0  0  0  0  0  0  0
    4.8162   -3.8416   -2.7369 C   0  0  0  0  0  0  0  0  0  0  0  0
    4.5912   -2.9035   -3.7436 C   0  0  0  0  0  0  0  0  0  0  0  0
    3.8852   -1.7184   -3.4776 C   0  0  0  0  0  0  0  0  0  0  0  0
    3.3645   -1.5115   -2.1871 C   0  0  0  0  0  0  0  0  0  0  0  0
    3.5635   -2.4598   -1.1709 C   0  0  0  0  0  0  0  0  0  0  0  0
    3.0112   -2.2437    0.0565 O   0  0  0  0  0  0  0  0  0  0  0  0
    4.2004   -6.0626    2.1148 C   0  0  2  0  0  0  0  0  0  0  0  0
    2.8060   -5.9935    2.7152 C   0  0  0  0  0  0  0  0  0  0  0  0
    3.1309   -7.3564    3.4019 C   0  0  1  0  0  0  0  0  0  0  0  0
    2.5387   -7.7848    4.7103 C   0  0  0  0  0  0  0  0  0  0  0  0
    1.9829   -6.9888    5.7300 C   0  0  0  0  0  0  0  0  0  0  0  0
    1.4821   -7.6531    6.8731 C   0  0  0  0  0  0  0  0  0  0  0  0
    1.5424   -9.0640    6.9800 C   0  0  0  0  0  0  0  0  0  0  0  0
    2.1318   -9.8419    5.9630 C   0  0  0  0  0  0  0  0  0  0  0  0
    2.6333   -9.1646    4.8411 C   0  0  0  0  0  0  0  0  0  0  0  0
    3.3305   -9.7852    3.6582 N   0  0  1  0  0  0  0  0  0  0  0  0
    2.4813  -10.7722    2.9462 C   0  0  0  0  0  0  0  0  0  0  0  0
    3.7546   -8.6363    2.7920 C   0  0  2  0  0  0  0  0  0  0  0  0
    5.2621   -8.1824    2.9678 C   0  0  2  0  0  0  0  0  0  0  0  0
    5.8267   -8.4691    1.6617 O   0  0  0  0  0  0  0  0  0  0  0  0
    6.5195   -7.4559    2.3160 C   0  0  1  0  0  0  0  0  0  0  0  0
    4.5569   -6.9005    3.3436 C   0  0  1  0  0  0  0  0  0  0  0  0
    9.7798   -5.2592    1.4720 H   0  0  0  0  0  0  0  0  0  0  0  0
    8.6706   -5.0342    0.1180 H   0  0  0  0  0  0  0  0  0  0  0  0
    8.9788   -6.6538    0.7583 H   0  0  0  0  0  0  0  0  0  0  0  0
    6.5891   -6.2877    0.5276 H   0  0  0  0  0  0  0  0  0  0  0  0
    5.5654   -4.5518    2.8050 H   0  0  0  0  0  0  0  0  0  0  0  0
    4.4574   -3.4331    1.1335 H   0  0  0  0  0  0  0  0  0  0  0  0
    5.1239   -5.4998   -0.8310 H   0  0  0  0  0  0  0  0  0  0  0  0
    3.5189   -5.1327   -0.2229 H   0  0  0  0  0  0  0  0  0  0  0  0
    5.3570   -4.7430   -2.9628 H   0  0  0  0  0  0  0  0  0  0  0  0
    4.9622   -3.1335   -4.7128 H   0  0  0  0  0  0  0  0  0  0  0  0
    3.7173   -0.9840   -4.2490 H   0  0  0  0  0  0  0  0  0  0  0  0
    2.7642   -0.6432   -1.9814 H   0  0  0  0  0  0  0  0  0  0  0  0
    2.3121   -1.5866   -0.0018 H   0  0  0  0  0  0  0  0  0  0  0  0
    4.1021   -6.6890    1.2232 H   0  0  0  0  0  0  0  0  0  0  0  0
    2.6588   -5.1504    3.3857 H   0  0  0  0  0  0  0  0  0  0  0  0
    2.0100   -6.0711    1.9796 H   0  0  0  0  0  0  0  0  0  0  0  0
    1.9593   -5.9097    5.6538 H   0  0  0  0  0  0  0  0  0  0  0  0
    1.0434   -7.0821    7.6746 H   0  0  0  0  0  0  0  0  0  0  0  0
    1.1416   -9.5682    7.8471 H   0  0  0  0  0  0  0  0  0  0  0  0
    2.1872  -10.9168    6.0393 H   0  0  0  0  0  0  0  0  0  0  0  0
    2.2301  -11.5959    3.6182 H   0  0  0  0  0  0  0  0  0  0  0  0
    3.0102  -11.1876    2.0861 H   0  0  0  0  0  0  0  0  0  0  0  0
    1.5443  -10.3248    2.6044 H   0  0  0  0  0  0  0  0  0  0  0  0
    3.4418   -8.7340    1.7468 H   0  0  0  0  0  0  0  0  0  0  0  0
    7.4864   -7.7635    2.7106 H   0  0  0  0  0  0  0  0  0  0  0  0
    4.9222   -6.3442    4.2107 H   0  0  0  0  0  0  0  0  0  0  0  0
    4.1668  -10.2714    3.9497 H   0  0  0  0  0  0  0  0  0  0  0  0
  1  2  1  0
  1 30  1  0
  1 31  1  0
  1 32  1  0
  2  3  1  0
  3 28  1  0
  3  4  1  0
  3 33  1  6
  4  5  1  0
  4 14  1  0
  4 34  1  1
  5  6  1  0
  5 35  1  0
  6  7  1  0
  6 36  1  0
  6 37  1  0
  7 12  1  0
  7  8  2  0
  8  9  1  0
  8 38  1  0
  9 10  2  0
  9 39  1  0
 10 11  1  0
 10 40  1  0
 11 12  2  0
 11 41  1  0
 12 13  1  0
 13 42  1  0
 14 29  1  0
 14 15  1  0
 14 43  1  6
 16 15  1  6
 15 44  1  0
 15 45  1  0
 16 25  1  0
 16 29  1  0
 16 17  1  0
 17 22  2  0
 17 18  1  0
 18 19  2  0
 18 46  1  0
 19 20  1  0
 19 47  1  0
 20 21  2  0
 20 48  1  0
 21 22  1  0
 21 49  1  0
 22 23  1  0
 23 24  1  0
 23 25  1  0
 23 56  1  1
 24 50  1  0
 24 51  1  0
 24 52  1  0
 25 26  1  0
 25 53  1  6
 26 28  1  0
 26 27  1  1
 26 29  1  0
 27 28  1  0
 28 54  1  1
 29 55  1  1
M  CHG  1  23   1
M  END
>  <i_m_ct_stereo_status>  (43) 
1

>  <s_m_source_file>  (43) 
/var/tmp/pbs.5083856.sched01/tmposmbpxi4/15rvt_o3g7.sdf

>  <i_m_source_file_index>  (43) 
4

>  <i_lp_mmshare_version>  (43) 
48012

>  <i_f3d_flags>  (43) 
0

>  <s_epik_input>  (43) 
W2NIXTFbY0hdW2NIXVtjSF1jKGMxW0NAXTIzNClOKFtDSDNdKVtDQEBIXTNDNTZbQ0BASF0oTzUpW0NASF0oT1tDSDNdKVtDQEhdKFtDQEhdKFtDSDJdMilbQ0BASF00NilbTkhdW0NIMl1jN1tjSF1bY0hdW2NIXVtjSF1jN1tPSF0=

>  <s_epik_cmdline>  (43) 
J2VwaWtfcHl0aG9uJywgJy1waHQnLCAnMi4wJywgJy1waCcsICc3LjAnLCAnLXRuJywgJzgnLCAnLW1hJywgJzIwMCcsICctaW1hZScsICc8aW5maWxlLm1hZT4nLCAnLW9tYWUnLCAnPG91dGZpbGUubWFlPic=

>  <r_epik_Ionization_Penalty>  (43) 
2.14755

>  <r_epik_Ionization_Penalty_Charging>  (43) 
0.80912

>  <r_epik_Ionization_Penalty_Neutral>  (43) 
1.33843

>  <r_epik_State_Penalty>  (43) 
2.45819

>  <r_epik_Charging_Adjusted_Penalty>  (43) 
3.26731

>  <i_epik_Tot_Q>  (43) 
1

>  <i_epik_Tot_abs_Q>  (43) 
1

>  <s_lp_Force_Field>  (43) 
OPLS3e

>  <r_lp_Energy>  (43) 
149.599

>  <b_lp_Chiralities_Consistent>  (43) 
1

>  <s_lp_Variant>  (43) 
13:0-4

>  <s_i_glide_gridfile>  (43) 
pfpi4k_grid

>  <i_i_glide_lignum>  (43) 
4

>  <i_i_glide_rotatable_bonds>  (43) 
5

>  <r_i_docking_score>  (43) 
-3.51072

>  <r_i_glide_ligand_efficiency>  (43) 
-0.121059

>  <r_i_glide_ligand_efficiency_sa>  (43) 
-0.371933

>  <r_i_glide_ligand_efficiency_ln>  (43) 
-0.803866

>  <r_i_glide_gscore>  (43) 
-3.51072

>  <r_i_glide_lipo>  (43) 
-0.477385

>  <r_i_glide_hbond>  (43) 
-0.157093

>  <r_i_glide_metal>  (43) 
-0

>  <r_i_glide_rewards>  (43) 
-1.23989

>  <r_i_glide_evdw>  (43) 
-21.5394

>  <r_i_glide_ecoul>  (43) 
-6.20389

>  <r_i_glide_erotb>  (43) 
0.382003

>  <r_i_glide_esite>  (43) 
-0.0108033

>  <r_i_glide_emodel>  (43) 
-38.3955

>  <r_i_glide_energy>  (43) 
-27.7433

>  <r_i_glide_einternal>  (43) 
5.40098

>  <r_i_glide_intrahb_reward>  (43) 
-0.5

>  <i_i_glide_confnum>  (43) 
3

>  <i_i_glide_posenum>  (43) 
36

>  <r_i_glide_eff_state_penalty>  (43) 
0

>  <ligand_id>  (43) 
13

>  <original_smiles>  (43) 
COC1C(NCc2ccccc2O)C2CC34c5ccccc5N(C)C3C3(OC13)C24

>  <smiles>  (43) 
[H]Oc1c([H])c([H])c([H])c([H])c1C([H])([H])N([H])C1([H])C([H])(OC([H])([H])[H])C2([H])OC23C2([H])C1([H])C([H])([H])C21c2c([H])c([H])c([H])c([H])c2[N+]([H])(C([H])([H])[H])C31[H]

$$$$
13:3:1
     RDKit          3D

 56 62  0  0  1  0  0  0  0  0999 V2000
    5.7767   -9.9206    1.7054 C   0  0  0  0  0  0  0  0  0  0  0  0
    6.2125   -8.6447    1.2673 O   0  0  0  0  0  0  0  0  0  0  0  0
    5.4974   -7.5170    1.7822 C   0  0  2  0  0  0  0  0  0  0  0  0
    3.9974   -7.4788    1.2953 C   0  0  1  0  0  0  0  0  0  0  0  0
    3.1224   -8.2554    2.1735 N   0  0  0  0  0  0  0  0  0  0  0  0
    1.7200   -8.2890    1.7813 C   0  0  0  0  0  0  0  0  0  0  0  0
    0.8039   -7.7476    2.8759 C   0  0  0  0  0  0  0  0  0  0  0  0
    1.0155   -6.4432    3.3753 C   0  0  0  0  0  0  0  0  0  0  0  0
    0.1877   -5.8879    4.3500 C   0  0  0  0  0  0  0  0  0  0  0  0
   -0.8448   -6.6628    4.8961 C   0  0  0  0  0  0  0  0  0  0  0  0
   -1.0451   -7.9876    4.4602 C   0  0  0  0  0  0  0  0  0  0  0  0
   -0.2373   -8.5266    3.4417 C   0  0  0  0  0  0  0  0  0  0  0  0
   -0.4557   -9.8204    3.0472 O   0  0  0  0  0  0  0  0  0  0  0  0
    3.6609   -6.0044    1.3208 C   0  0  2  0  0  0  0  0  0  0  0  0
    2.5862   -5.1092    0.7048 C   0  0  0  0  0  0  0  0  0  0  0  0
    3.7305   -4.1204    0.3481 C   0  0  1  0  0  0  0  0  0  0  0  0
    3.6327   -3.1859   -0.8136 C   0  0  0  0  0  0  0  0  0  0  0  0
    2.8185   -3.2763   -1.9466 C   0  0  0  0  0  0  0  0  0  0  0  0
    2.9279   -2.2598   -2.9237 C   0  0  0  0  0  0  0  0  0  0  0  0
    3.8180   -1.1683   -2.7283 C   0  0  0  0  0  0  0  0  0  0  0  0
    4.6287   -1.0968   -1.5800 C   0  0  0  0  0  0  0  0  0  0  0  0
    4.5315   -2.1317   -0.6410 C   0  0  0  0  0  0  0  0  0  0  0  0
    5.3179   -2.2965    0.6312 N   0  0  1  0  0  0  0  0  0  0  0  0
    5.1264   -1.1475    1.5621 C   0  0  0  0  0  0  0  0  0  0  0  0
    4.8925   -3.6105    1.2196 C   0  0  2  0  0  0  0  0  0  0  0  0
    5.8710   -4.8153    0.9324 C   0  0  2  0  0  0  0  0  0  0  0  0
    6.3202   -5.1720    2.2519 O   0  0  0  0  0  0  0  0  0  0  0  0
    6.3602   -6.2570    1.3783 C   0  0  1  0  0  0  0  0  0  0  0  0
    4.5996   -5.3320    0.2922 C   0  0  1  0  0  0  0  0  0  0  0  0
    6.4723  -10.6836    1.3565 H   0  0  0  0  0  0  0  0  0  0  0  0
    4.8035  -10.1730    1.2922 H   0  0  0  0  0  0  0  0  0  0  0  0
    5.7280   -9.9838    2.7907 H   0  0  0  0  0  0  0  0  0  0  0  0
    5.5461   -7.5616    2.8708 H   0  0  0  0  0  0  0  0  0  0  0  0
    3.9647   -7.8714    0.2868 H   0  0  0  0  0  0  0  0  0  0  0  0
    3.4536   -9.2160    2.1979 H   0  0  0  0  0  0  0  0  0  0  0  0
    1.5445   -7.6864    0.8903 H   0  0  0  0  0  0  0  0  0  0  0  0
    1.4408   -9.2991    1.4897 H   0  0  0  0  0  0  0  0  0  0  0  0
    1.8404   -5.8475    3.0513 H   0  0  0  0  0  0  0  0  0  0  0  0
    0.3668   -4.8727    4.6848 H   0  0  0  0  0  0  0  0  0  0  0  0
   -1.4533   -6.2487    5.6897 H   0  0  0  0  0  0  0  0  0  0  0  0
   -1.8015   -8.6077    4.9183 H   0  0  0  0  0  0  0  0  0  0  0  0
   -1.0526  -10.2796    3.6322 H   0  0  0  0  0  0  0  0  0  0  0  0
    3.8361   -5.6359    2.3350 H   0  0  0  0  0  0  0  0  0  0  0  0
    2.0752   -5.5618   -0.1408 H   0  0  0  0  0  0  0  0  0  0  0  0
    1.9073   -4.5867    1.3777 H   0  0  0  0  0  0  0  0  0  0  0  0
    2.1333   -4.1102   -2.0886 H   0  0  0  0  0  0  0  0  0  0  0  0
    2.3112   -2.3049   -3.8118 H   0  0  0  0  0  0  0  0  0  0  0  0
    3.8569   -0.3752   -3.4639 H   0  0  0  0  0  0  0  0  0  0  0  0
    5.2971   -0.2645   -1.4094 H   0  0  0  0  0  0  0  0  0  0  0  0
    5.4736   -0.2311    1.0836 H   0  0  0  0  0  0  0  0  0  0  0  0
    5.6973   -1.2830    2.4795 H   0  0  0  0  0  0  0  0  0  0  0  0
    4.0782   -1.0120    1.8157 H   0  0  0  0  0  0  0  0  0  0  0  0
    4.5732   -3.5492    2.2615 H   0  0  0  0  0  0  0  0  0  0  0  0
    7.3563   -6.5221    1.0404 H   0  0  0  0  0  0  0  0  0  0  0  0
    4.6623   -5.8082   -0.6830 H   0  0  0  0  0  0  0  0  0  0  0  0
    6.3035   -2.3617    0.4303 H   0  0  0  0  0  0  0  0  0  0  0  0
  1  2  1  0
  1 30  1  0
  1 31  1  0
  1 32  1  0
  2  3  1  0
  3 28  1  0
  3  4  1  0
  3 33  1  1
  4  5  1  0
  4 14  1  0
  4 34  1  6
  5  6  1  0
  5 35  1  0
  6  7  1  0
  6 36  1  0
  6 37  1  0
  7 12  1  0
  7  8  2  0
  8  9  1  0
  8 38  1  0
  9 10  2  0
  9 39  1  0
 10 11  1  0
 10 40  1  0
 11 12  2  0
 11 41  1  0
 12 13  1  0
 13 42  1  0
 14 29  1  0
 14 15  1  0
 14 43  1  1
 16 15  1  1
 15 44  1  0
 15 45  1  0
 16 25  1  0
 16 29  1  0
 16 17  1  0
 17 22  2  0
 17 18  1  0
 18 19  2  0
 18 46  1  0
 19 20  1  0
 19 47  1  0
 20 21  2  0
 20 48  1  0
 21 22  1  0
 21 49  1  0
 22 23  1  0
 23 24  1  0
 23 25  1  0
 23 56  1  6
 24 50  1  0
 24 51  1  0
 24 52  1  0
 25 26  1  0
 25 53  1  1
 26 28  1  0
 26 27  1  6
 26 29  1  0
 27 28  1  0
 28 54  1  6
 29 55  1  6
M  CHG  1  23   1
M  END
>  <i_m_ct_stereo_status>  (44) 
1

>  <s_m_source_file>  (44) 
/var/tmp/pbs.5083856.sched01/tmposmbpxi4/15rvt_o3g7.sdf

>  <i_m_source_file_index>  (44) 
4

>  <i_lp_mmshare_version>  (44) 
48012

>  <i_f3d_flags>  (44) 
0

>  <s_epik_input>  (44) 
W2NIXTFbY0hdW2NIXVtjSF1jKGMxW0NAXTIzNClOKFtDSDNdKVtDQEBIXTNDNTZbQ0BASF0oTzUpW0NASF0oT1tDSDNdKVtDQEhdKFtDQEhdKFtDSDJdMilbQ0BASF00NilbTkhdW0NIMl1jN1tjSF1bY0hdW2NIXVtjSF1jN1tPSF0=

>  <s_epik_cmdline>  (44) 
J2VwaWtfcHl0aG9uJywgJy1waHQnLCAnMi4wJywgJy1waCcsICc3LjAnLCAnLXRuJywgJzgnLCAnLW1hJywgJzIwMCcsICctaW1hZScsICc8aW5maWxlLm1hZT4nLCAnLW9tYWUnLCAnPG91dGZpbGUubWFlPic=

>  <r_epik_Ionization_Penalty>  (44) 
2.14755

>  <r_epik_Ionization_Penalty_Charging>  (44) 
0.80912

>  <r_epik_Ionization_Penalty_Neutral>  (44) 
1.33843

>  <r_epik_State_Penalty>  (44) 
2.45819

>  <r_epik_Charging_Adjusted_Penalty>  (44) 
3.26731

>  <i_epik_Tot_Q>  (44) 
1

>  <i_epik_Tot_abs_Q>  (44) 
1

>  <s_lp_Force_Field>  (44) 
OPLS3e

>  <r_lp_Energy>  (44) 
149.599

>  <b_lp_Chiralities_Consistent>  (44) 
1

>  <s_lp_Variant>  (44) 
13:0-4

>  <s_i_glide_gridfile>  (44) 
pfpi4k_grid

>  <i_i_glide_lignum>  (44) 
4

>  <i_i_glide_rotatable_bonds>  (44) 
5

>  <r_i_docking_score>  (44) 
-3.39843

>  <r_i_glide_ligand_efficiency>  (44) 
-0.117187

>  <r_i_glide_ligand_efficiency_sa>  (44) 
-0.360037

>  <r_i_glide_ligand_efficiency_ln>  (44) 
-0.778155

>  <r_i_glide_gscore>  (44) 
-3.39843

>  <r_i_glide_lipo>  (44) 
-0.645543

>  <r_i_glide_hbond>  (44) 
-0.16

>  <r_i_glide_metal>  (44) 
-0

>  <r_i_glide_rewards>  (44) 
-0.73989

>  <r_i_glide_evdw>  (44) 
-30.8314

>  <r_i_glide_ecoul>  (44) 
-4.62289

>  <r_i_glide_erotb>  (44) 
0.382003

>  <r_i_glide_esite>  (44) 
0

>  <r_i_glide_emodel>  (44) 
-41.7829

>  <r_i_glide_energy>  (44) 
-35.4543

>  <r_i_glide_einternal>  (44) 
2.11432

>  <r_i_glide_intrahb_reward>  (44) 
-0

>  <i_i_glide_confnum>  (44) 
4

>  <i_i_glide_posenum>  (44) 
3

>  <r_i_glide_eff_state_penalty>  (44) 
0

>  <ligand_id>  (44) 
13

>  <original_smiles>  (44) 
COC1C(NCc2ccccc2O)C2CC34c5ccccc5N(C)C3C3(OC13)C24

>  <smiles>  (44) 
[H]Oc1c([H])c([H])c([H])c([H])c1C([H])([H])N([H])C1([H])C([H])(OC([H])([H])[H])C2([H])OC23C2([H])C1([H])C([H])([H])C21c2c([H])c([H])c([H])c([H])c2[N+]([H])(C([H])([H])[H])C31[H]

$$$$
13:3:2
     RDKit          3D

 56 62  0  0  1  0  0  0  0  0999 V2000
    8.4842   -5.5352    1.4029 C   0  0  0  0  0  0  0  0  0  0  0  0
    7.1690   -5.0708    1.7011 O   0  0  0  0  0  0  0  0  0  0  0  0
    6.1197   -5.9458    1.2901 C   0  0  2  0  0  0  0  0  0  0  0  0
    4.7791   -5.1372    1.1396 C   0  0  1  0  0  0  0  0  0  0  0  0
    4.6749   -4.4545   -0.1502 N   0  0  0  0  0  0  0  0  0  0  0  0
    3.4746   -3.6292   -0.2931 C   0  0  0  0  0  0  0  0  0  0  0  0
    3.5740   -2.6917   -1.4819 C   0  0  0  0  0  0  0  0  0  0  0  0
    2.9141   -3.0254   -2.6824 C   0  0  0  0  0  0  0  0  0  0  0  0
    3.0160   -2.1916   -3.8075 C   0  0  0  0  0  0  0  0  0  0  0  0
    3.7555   -1.0016   -3.7371 C   0  0  0  0  0  0  0  0  0  0  0  0
    4.4003   -0.6549   -2.5374 C   0  0  0  0  0  0  0  0  0  0  0  0
    4.3173   -1.4928   -1.4084 C   0  0  0  0  0  0  0  0  0  0  0  0
    4.9600   -1.1168   -0.2617 O   0  0  0  0  0  0  0  0  0  0  0  0
    3.7150   -6.1938    1.3117 C   0  0  2  0  0  0  0  0  0  0  0  0
    2.2238   -6.2225    1.6180 C   0  0  0  0  0  0  0  0  0  0  0  0
    2.5286   -7.3578    2.6426 C   0  0  1  0  0  0  0  0  0  0  0  0
    1.7190   -7.6037    3.8838 C   0  0  0  0  0  0  0  0  0  0  0  0
    0.8758   -6.7129    4.5781 C   0  0  0  0  0  0  0  0  0  0  0  0
    0.2127   -7.2077    5.7227 C   0  0  0  0  0  0  0  0  0  0  0  0
    0.3877   -8.5488    6.1533 C   0  0  0  0  0  0  0  0  0  0  0  0
    1.2603   -9.4145    5.4656 C   0  0  0  0  0  0  0  0  0  0  0  0
    1.9221   -8.8998    4.3401 C   0  0  0  0  0  0  0  0  0  0  0  0
    2.9197   -9.6304    3.4805 N   0  0  1  0  0  0  0  0  0  0  0  0
    2.3498  -10.8547    2.8709 C   0  0  0  0  0  0  0  0  0  0  0  0
    3.3987   -8.6260    2.4727 C   0  0  2  0  0  0  0  0  0  0  0  0
    4.7694   -7.9273    2.8232 C   0  0  2  0  0  0  0  0  0  0  0  0
    5.6375   -8.3820    1.7525 O   0  0  0  0  0  0  0  0  0  0  0  0
    6.0573   -7.1660    2.2867 C   0  0  1  0  0  0  0  0  0  0  0  0
    3.8762   -6.7177    2.7455 C   0  0  1  0  0  0  0  0  0  0  0  0
    9.2267   -4.9207    1.9159 H   0  0  0  0  0  0  0  0  0  0  0  0
    8.6762   -5.4706    0.3321 H   0  0  0  0  0  0  0  0  0  0  0  0
    8.6612   -6.5676    1.7074 H   0  0  0  0  0  0  0  0  0  0  0  0
    6.3897   -6.3425    0.3162 H   0  0  0  0  0  0  0  0  0  0  0  0
    4.7201   -4.3978    1.9397 H   0  0  0  0  0  0  0  0  0  0  0  0
    5.4872   -3.8611   -0.2976 H   0  0  0  0  0  0  0  0  0  0  0  0
    2.5827   -4.2497   -0.3921 H   0  0  0  0  0  0  0  0  0  0  0  0
    3.3241   -3.0204    0.5995 H   0  0  0  0  0  0  0  0  0  0  0  0
    2.3178   -3.9211   -2.7467 H   0  0  0  0  0  0  0  0  0  0  0  0
    2.5110   -2.4664   -4.7199 H   0  0  0  0  0  0  0  0  0  0  0  0
    3.8183   -0.3441   -4.5911 H   0  0  0  0  0  0  0  0  0  0  0  0
    4.9652    0.2561   -2.4910 H   0  0  0  0  0  0  0  0  0  0  0  0
    5.1978   -0.2000   -0.2537 H   0  0  0  0  0  0  0  0  0  0  0  0
    3.8748   -6.9649    0.5519 H   0  0  0  0  0  0  0  0  0  0  0  0
    1.8469   -5.2985    2.0512 H   0  0  0  0  0  0  0  0  0  0  0  0
    1.6086   -6.5696    0.7915 H   0  0  0  0  0  0  0  0  0  0  0  0
    0.7533   -5.6877    4.2604 H   0  0  0  0  0  0  0  0  0  0  0  0
   -0.4495   -6.5604    6.2741 H   0  0  0  0  0  0  0  0  0  0  0  0
   -0.1471   -8.9184    7.0144 H   0  0  0  0  0  0  0  0  0  0  0  0
    1.4033  -10.4381    5.7877 H   0  0  0  0  0  0  0  0  0  0  0  0
    2.0447  -11.5589    3.6470 H   0  0  0  0  0  0  0  0  0  0  0  0
    3.0820  -11.3574    2.2388 H   0  0  0  0  0  0  0  0  0  0  0  0
    1.4685  -10.6236    2.2673 H   0  0  0  0  0  0  0  0  0  0  0  0
    3.3352   -8.9722    1.4367 H   0  0  0  0  0  0  0  0  0  0  0  0
    6.9173   -7.2446    2.9434 H   0  0  0  0  0  0  0  0  0  0  0  0
    3.9802   -5.9543    3.5179 H   0  0  0  0  0  0  0  0  0  0  0  0
    3.7186   -9.9198    4.0284 H   0  0  0  0  0  0  0  0  0  0  0  0
  1  2  1  0
  1 30  1  0
  1 31  1  0
  1 32  1  0
  2  3  1  0
  3 28  1  0
  3  4  1  0
  3 33  1  6
  4  5  1  0
  4 14  1  0
  4 34  1  1
  5  6  1  0
  5 35  1  0
  6  7  1  0
  6 36  1  0
  6 37  1  0
  7 12  1  0
  7  8  2  0
  8  9  1  0
  8 38  1  0
  9 10  2  0
  9 39  1  0
 10 11  1  0
 10 40  1  0
 11 12  2  0
 11 41  1  0
 12 13  1  0
 13 42  1  0
 14 29  1  0
 14 15  1  0
 14 43  1  6
 16 15  1  6
 15 44  1  0
 15 45  1  0
 16 25  1  0
 16 29  1  0
 16 17  1  0
 17 22  2  0
 17 18  1  0
 18 19  2  0
 18 46  1  0
 19 20  1  0
 19 47  1  0
 20 21  2  0
 20 48  1  0
 21 22  1  0
 21 49  1  0
 22 23  1  0
 23 24  1  0
 23 25  1  0
 23 56  1  1
 24 50  1  0
 24 51  1  0
 24 52  1  0
 25 26  1  0
 25 53  1  6
 26 28  1  0
 26 27  1  1
 26 29  1  0
 27 28  1  0
 28 54  1  1
 29 55  1  1
M  CHG  1  23   1
M  END
>  <i_m_ct_stereo_status>  (45) 
1

>  <s_m_source_file>  (45) 
/var/tmp/pbs.5083856.sched01/tmposmbpxi4/15rvt_o3g7.sdf

>  <i_m_source_file_index>  (45) 
4

>  <i_lp_mmshare_version>  (45) 
48012

>  <i_f3d_flags>  (45) 
0

>  <s_epik_input>  (45) 
W2NIXTFbY0hdW2NIXVtjSF1jKGMxW0NAXTIzNClOKFtDSDNdKVtDQEBIXTNDNTZbQ0BASF0oTzUpW0NASF0oT1tDSDNdKVtDQEhdKFtDQEhdKFtDSDJdMilbQ0BASF00NilbTkhdW0NIMl1jN1tjSF1bY0hdW2NIXVtjSF1jN1tPSF0=

>  <s_epik_cmdline>  (45) 
J2VwaWtfcHl0aG9uJywgJy1waHQnLCAnMi4wJywgJy1waCcsICc3LjAnLCAnLXRuJywgJzgnLCAnLW1hJywgJzIwMCcsICctaW1hZScsICc8aW5maWxlLm1hZT4nLCAnLW9tYWUnLCAnPG91dGZpbGUubWFlPic=

>  <r_epik_Ionization_Penalty>  (45) 
2.14755

>  <r_epik_Ionization_Penalty_Charging>  (45) 
0.80912

>  <r_epik_Ionization_Penalty_Neutral>  (45) 
1.33843

>  <r_epik_State_Penalty>  (45) 
2.45819

>  <r_epik_Charging_Adjusted_Penalty>  (45) 
3.26731

>  <i_epik_Tot_Q>  (45) 
1

>  <i_epik_Tot_abs_Q>  (45) 
1

>  <s_lp_Force_Field>  (45) 
OPLS3e

>  <r_lp_Energy>  (45) 
149.599

>  <b_lp_Chiralities_Consistent>  (45) 
1

>  <s_lp_Variant>  (45) 
13:0-4

>  <s_i_glide_gridfile>  (45) 
pfpi4k_grid

>  <i_i_glide_lignum>  (45) 
4

>  <i_i_glide_rotatable_bonds>  (45) 
5

>  <r_i_docking_score>  (45) 
-3.17715

>  <r_i_glide_ligand_efficiency>  (45) 
-0.109557

>  <r_i_glide_ligand_efficiency_sa>  (45) 
-0.336593

>  <r_i_glide_ligand_efficiency_ln>  (45) 
-0.727486

>  <r_i_glide_gscore>  (45) 
-3.17715

>  <r_i_glide_lipo>  (45) 
-0.630277

>  <r_i_glide_hbond>  (45) 
-0.0487751

>  <r_i_glide_metal>  (45) 
-0

>  <r_i_glide_rewards>  (45) 
-0.73989

>  <r_i_glide_evdw>  (45) 
-29.2755

>  <r_i_glide_ecoul>  (45) 
-4.44938

>  <r_i_glide_erotb>  (45) 
0.382003

>  <r_i_glide_esite>  (45) 
-0.0090248

>  <r_i_glide_emodel>  (45) 
-40.614

>  <r_i_glide_energy>  (45) 
-33.7249

>  <r_i_glide_einternal>  (45) 
1.58921

>  <r_i_glide_intrahb_reward>  (45) 
-0

>  <i_i_glide_confnum>  (45) 
3

>  <i_i_glide_posenum>  (45) 
26

>  <r_i_glide_eff_state_penalty>  (45) 
0

>  <ligand_id>  (45) 
13

>  <original_smiles>  (45) 
COC1C(NCc2ccccc2O)C2CC34c5ccccc5N(C)C3C3(OC13)C24

>  <smiles>  (45) 
[H]Oc1c([H])c([H])c([H])c([H])c1C([H])([H])N([H])C1([H])C([H])(OC([H])([H])[H])C2([H])OC23C2([H])C1([H])C([H])([H])C21c2c([H])c([H])c([H])c([H])c2[N+]([H])(C([H])([H])[H])C31[H]

$$$$
13:4:0
     RDKit          3D

 55 61  0  0  1  0  0  0  0  0999 V2000
    6.0708   -9.2534    1.7760 C   0  0  0  0  0  0  0  0  0  0  0  0
    6.4860   -7.9986    1.2795 O   0  0  0  0  0  0  0  0  0  0  0  0
    5.6532   -6.8837    1.5580 C   0  0  2  0  0  0  0  0  0  0  0  0
    4.1899   -7.0271    0.9980 C   0  0  1  0  0  0  0  0  0  0  0  0
    3.3033   -7.7647    1.9329 N   0  0  0  0  0  0  0  0  0  0  0  0
    1.9883   -8.1667    1.3911 C   0  0  0  0  0  0  0  0  0  0  0  0
    0.9297   -8.2022    2.4779 C   0  0  0  0  0  0  0  0  0  0  0  0
    0.9431   -9.2368    3.4365 C   0  0  0  0  0  0  0  0  0  0  0  0
   -0.0373   -9.2662    4.4473 C   0  0  0  0  0  0  0  0  0  0  0  0
   -1.0339   -8.2767    4.4950 C   0  0  0  0  0  0  0  0  0  0  0  0
   -1.0696   -7.2588    3.5345 C   0  0  0  0  0  0  0  0  0  0  0  0
   -0.0965   -7.2206    2.5093 C   0  0  0  0  0  0  0  0  0  0  0  0
   -0.1888   -6.2573    1.5252 O   0  0  0  0  0  0  0  0  0  0  0  0
    3.7528   -5.6005    0.8318 C   0  0  2  0  0  0  0  0  0  0  0  0
    2.6365   -4.8425    0.1250 C   0  0  0  0  0  0  0  0  0  0  0  0
    3.7168   -3.7860   -0.2476 C   0  0  1  0  0  0  0  0  0  0  0  0
    3.7026   -2.8807   -1.4470 C   0  0  0  0  0  0  0  0  0  0  0  0
    3.0579   -3.0552   -2.6814 C   0  0  0  0  0  0  0  0  0  0  0  0
    3.2122   -2.0697   -3.6739 C   0  0  0  0  0  0  0  0  0  0  0  0
    3.9938   -0.9147   -3.4131 C   0  0  0  0  0  0  0  0  0  0  0  0
    4.6640   -0.7585   -2.1773 C   0  0  0  0  0  0  0  0  0  0  0  0
    4.5306   -1.7721   -1.2057 C   0  0  0  0  0  0  0  0  0  0  0  0
    5.1431   -1.8593    0.0544 N   0  0  0  0  0  0  0  0  0  0  0  0
    6.3765   -1.2112    0.4637 C   0  0  0  0  0  0  0  0  0  0  0  0
    4.7882   -3.1395    0.6420 C   0  0  2  0  0  0  0  0  0  0  0  0
    5.8753   -4.2615    0.4863 C   0  0  2  0  0  0  0  0  0  0  0  0
    6.2940   -4.4983    1.8585 O   0  0  0  0  0  0  0  0  0  0  0  0
    6.4312   -5.6257    1.0509 C   0  0  1  0  0  0  0  0  0  0  0  0
    4.6931   -4.9133   -0.1584 C   0  0  1  0  0  0  0  0  0  0  0  0
    6.8631   -9.9880    1.6203 H   0  0  0  0  0  0  0  0  0  0  0  0
    5.1889   -9.6137    1.2426 H   0  0  0  0  0  0  0  0  0  0  0  0
    5.8534   -9.2079    2.8477 H   0  0  0  0  0  0  0  0  0  0  0  0
    5.6047   -6.7706    2.6412 H   0  0  0  0  0  0  0  0  0  0  0  0
    4.2165   -7.5247    0.0308 H   0  0  0  0  0  0  0  0  0  0  0  0
    3.7622   -8.6279    2.1894 H   0  0  0  0  0  0  0  0  0  0  0  0
    1.6713   -7.4808    0.6141 H   0  0  0  0  0  0  0  0  0  0  0  0
    2.0604   -9.1440    0.9104 H   0  0  0  0  0  0  0  0  0  0  0  0
    1.6790  -10.0345    3.3923 H   0  0  0  0  0  0  0  0  0  0  0  0
   -0.0576  -10.0732    5.1777 H   0  0  0  0  0  0  0  0  0  0  0  0
   -1.8005   -8.3432    5.2651 H   0  0  0  0  0  0  0  0  0  0  0  0
   -1.8609   -6.5348    3.5947 H   0  0  0  0  0  0  0  0  0  0  0  0
    3.7933   -5.1375    1.8161 H   0  0  0  0  0  0  0  0  0  0  0  0
    2.1892   -5.3674   -0.7099 H   0  0  0  0  0  0  0  0  0  0  0  0
    1.8875   -4.4044    0.7801 H   0  0  0  0  0  0  0  0  0  0  0  0
    2.4561   -3.9253   -2.8772 H   0  0  0  0  0  0  0  0  0  0  0  0
    2.7034   -2.1766   -4.6190 H   0  0  0  0  0  0  0  0  0  0  0  0
    4.0641   -0.1462   -4.1679 H   0  0  0  0  0  0  0  0  0  0  0  0
    5.2395    0.1372   -1.9940 H   0  0  0  0  0  0  0  0  0  0  0  0
    6.5040   -0.2080    0.0644 H   0  0  0  0  0  0  0  0  0  0  0  0
    7.1956   -1.8660    0.1718 H   0  0  0  0  0  0  0  0  0  0  0  0
    6.3901   -1.1672    1.5547 H   0  0  0  0  0  0  0  0  0  0  0  0
    4.3846   -3.0613    1.6438 H   0  0  0  0  0  0  0  0  0  0  0  0
    7.4583   -5.8363    0.7696 H   0  0  0  0  0  0  0  0  0  0  0  0
    4.8597   -5.4478   -1.0821 H   0  0  0  0  0  0  0  0  0  0  0  0
    3.1350   -7.1948    2.7504 H   0  0  0  0  0  0  0  0  0  0  0  0
  1  2  1  0
  1 30  1  0
  1 31  1  0
  1 32  1  0
  2  3  1  0
  3 28  1  0
  3  4  1  0
  3 33  1  1
  4  5  1  0
  4 14  1  0
  4 34  1  6
  5  6  1  0
  5 35  1  0
  5 55  1  0
  6  7  1  0
  6 36  1  0
  6 37  1  0
  7 12  1  0
  7  8  2  0
  8  9  1  0
  8 38  1  0
  9 10  2  0
  9 39  1  0
 10 11  1  0
 10 40  1  0
 11 12  2  0
 11 41  1  0
 12 13  1  0
 14 29  1  0
 14 15  1  0
 14 42  1  1
 16 15  1  1
 15 43  1  0
 15 44  1  0
 16 25  1  0
 16 29  1  0
 16 17  1  0
 17 22  2  0
 17 18  1  0
 18 19  2  0
 18 45  1  0
 19 20  1  0
 19 46  1  0
 20 21  2  0
 20 47  1  0
 21 22  1  0
 21 48  1  0
 22 23  1  0
 23 24  1  0
 23 25  1  0
 24 49  1  0
 24 50  1  0
 24 51  1  0
 25 26  1  0
 25 52  1  1
 26 28  1  0
 26 27  1  6
 26 29  1  0
 27 28  1  0
 28 53  1  6
 29 54  1  6
M  CHG  2   5   1  13  -1
M  END
>  <i_m_ct_stereo_status>  (46) 
1

>  <s_m_source_file>  (46) 
/var/tmp/pbs.5083856.sched01/tmposmbpxi4/15rvt_o3g7.sdf

>  <i_m_source_file_index>  (46) 
5

>  <i_lp_mmshare_version>  (46) 
48012

>  <i_f3d_flags>  (46) 
0

>  <s_epik_input>  (46) 
W2NIXTFbY0hdW2NIXVtjSF1jKGMxW0NAXTIzNClOKFtDSDNdKVtDQEBIXTNDNTZbQ0BASF0oTzUpW0NASF0oT1tDSDNdKVtDQEhdKFtDQEhdKFtDSDJdMilbQ0BASF00NilbTkhdW0NIMl1jN1tjSF1bY0hdW2NIXVtjSF1jN1tPSF0=

>  <s_epik_cmdline>  (46) 
J2VwaWtfcHl0aG9uJywgJy1waHQnLCAnMi4wJywgJy1waCcsICc3LjAnLCAnLXRuJywgJzgnLCAnLW1hJywgJzIwMCcsICctaW1hZScsICc8aW5maWxlLm1hZT4nLCAnLW9tYWUnLCAnPG91dGZpbGUubWFlPic=

>  <r_epik_Ionization_Penalty>  (46) 
2.44987

>  <r_epik_Ionization_Penalty_Charging>  (46) 
2.3549

>  <r_epik_Ionization_Penalty_Neutral>  (46) 
0.0949687

>  <r_epik_State_Penalty>  (46) 
2.61022

>  <r_epik_Charging_Adjusted_Penalty>  (46) 
4.96511

>  <i_epik_Tot_Q>  (46) 
0

>  <i_epik_Tot_abs_Q>  (46) 
2

>  <s_lp_Force_Field>  (46) 
OPLS3e

>  <r_lp_Energy>  (46) 
135.773

>  <b_lp_Chiralities_Consistent>  (46) 
1

>  <s_lp_Variant>  (46) 
13:0-5

>  <s_i_glide_gridfile>  (46) 
pfpi4k_grid

>  <i_i_glide_lignum>  (46) 
5

>  <i_i_glide_rotatable_bonds>  (46) 
4

>  <r_i_docking_score>  (46) 
-4.12477

>  <r_i_glide_ligand_efficiency>  (46) 
-0.142233

>  <r_i_glide_ligand_efficiency_sa>  (46) 
-0.436986

>  <r_i_glide_ligand_efficiency_ln>  (46) 
-0.944468

>  <r_i_glide_gscore>  (46) 
-4.12477

>  <r_i_glide_lipo>  (46) 
-0.933782

>  <r_i_glide_hbond>  (46) 
-0.362395

>  <r_i_glide_metal>  (46) 
-0

>  <r_i_glide_rewards>  (46) 
-1.05599

>  <r_i_glide_evdw>  (46) 
-28.6371

>  <r_i_glide_ecoul>  (46) 
-4.83016

>  <r_i_glide_erotb>  (46) 
0.383776

>  <r_i_glide_esite>  (46) 
0

>  <r_i_glide_emodel>  (46) 
-44.1271

>  <r_i_glide_energy>  (46) 
-33.4672

>  <r_i_glide_einternal>  (46) 
2.08157

>  <r_i_glide_intrahb_reward>  (46) 
-0

>  <i_i_glide_confnum>  (46) 
3

>  <i_i_glide_posenum>  (46) 
1

>  <r_i_glide_eff_state_penalty>  (46) 
0

>  <ligand_id>  (46) 
13

>  <original_smiles>  (46) 
COC1C(NCc2ccccc2O)C2CC34c5ccccc5N(C)C3C3(OC13)C24

>  <smiles>  (46) 
[H]c1c([H])c([H])c(C([H])([H])[N+]([H])([H])C2([H])C([H])(OC([H])([H])[H])C3([H])OC34C3([H])N(C([H])([H])[H])c5c([H])c([H])c([H])c([H])c5C35C([H])([H])C2([H])C45[H])c([O-])c1[H]

$$$$
13:4:1
     RDKit          3D

 55 61  0  0  1  0  0  0  0  0999 V2000
    6.0363    0.2628    4.3385 C   0  0  0  0  0  0  0  0  0  0  0  0
    5.7276   -1.0487    3.8878 O   0  0  0  0  0  0  0  0  0  0  0  0
    4.3593   -1.3572    3.6696 C   0  0  2  0  0  0  0  0  0  0  0  0
    3.8579   -0.7302    2.3139 C   0  0  1  0  0  0  0  0  0  0  0  0
    4.2536   -1.5389    1.1292 N   0  0  0  0  0  0  0  0  0  0  0  0
    4.0045   -0.8824   -0.1690 C   0  0  0  0  0  0  0  0  0  0  0  0
    4.2845   -1.8050   -1.3514 C   0  0  0  0  0  0  0  0  0  0  0  0
    3.2224   -2.2127   -2.1888 C   0  0  0  0  0  0  0  0  0  0  0  0
    3.4427   -3.0546   -3.3013 C   0  0  0  0  0  0  0  0  0  0  0  0
    4.7517   -3.4781   -3.5769 C   0  0  0  0  0  0  0  0  0  0  0  0
    5.8143   -3.0683   -2.7520 C   0  0  0  0  0  0  0  0  0  0  0  0
    5.5934   -2.2396   -1.6336 C   0  0  0  0  0  0  0  0  0  0  0  0
    6.6402   -1.8711   -0.8294 O   0  0  0  0  0  0  0  0  0  0  0  0
    2.3718   -0.6713    2.5181 C   0  0  2  0  0  0  0  0  0  0  0  0
    1.2043    0.0857    1.9018 C   0  0  0  0  0  0  0  0  0  0  0  0
    0.6643    0.2532    3.3551 C   0  0  1  0  0  0  0  0  0  0  0  0
   -0.2187    1.3526    3.8399 C   0  0  0  0  0  0  0  0  0  0  0  0
   -0.3694    2.6387    3.3082 C   0  0  0  0  0  0  0  0  0  0  0  0
   -1.2632    3.5213    3.9428 C   0  0  0  0  0  0  0  0  0  0  0  0
   -1.9764    3.1094    5.0975 C   0  0  0  0  0  0  0  0  0  0  0  0
   -1.7746    1.8236    5.6478 C   0  0  0  0  0  0  0  0  0  0  0  0
   -0.8743    0.9602    5.0082 C   0  0  0  0  0  0  0  0  0  0  0  0
   -0.4961   -0.3445    5.3803 N   0  0  0  0  0  0  0  0  0  0  0  0
   -0.5052   -0.8660    6.7208 C   0  0  0  0  0  0  0  0  0  0  0  0
    0.5608   -0.7836    4.4756 C   0  0  2  0  0  0  0  0  0  0  0  0
    2.0098   -0.6029    5.0256 C   0  0  2  0  0  0  0  0  0  0  0  0
    2.4418   -1.9817    5.1663 O   0  0  0  0  0  0  0  0  0  0  0  0
    3.5021   -1.1011    4.9615 C   0  0  1  0  0  0  0  0  0  0  0  0
    2.1007    0.1973    3.7575 C   0  0  1  0  0  0  0  0  0  0  0  0
    7.1163    0.3746    4.4498 H   0  0  0  0  0  0  0  0  0  0  0  0
    5.5823    0.5504    5.2888 H   0  0  0  0  0  0  0  0  0  0  0  0
    5.7068    0.9583    3.5885 H   0  0  0  0  0  0  0  0  0  0  0  0
    4.3278   -2.4403    3.5611 H   0  0  0  0  0  0  0  0  0  0  0  0
    4.2364    0.2791    2.1773 H   0  0  0  0  0  0  0  0  0  0  0  0
    5.2537   -1.7150    1.1271 H   0  0  0  0  0  0  0  0  0  0  0  0
    2.9655   -0.5791   -0.2049 H   0  0  0  0  0  0  0  0  0  0  0  0
    4.6075    0.0217   -0.2587 H   0  0  0  0  0  0  0  0  0  0  0  0
    2.2224   -1.8801   -1.9890 H   0  0  0  0  0  0  0  0  0  0  0  0
    2.6149   -3.3709   -3.9198 H   0  0  0  0  0  0  0  0  0  0  0  0
    4.9321   -4.1330   -4.4171 H   0  0  0  0  0  0  0  0  0  0  0  0
    6.8136   -3.3938   -2.9894 H   0  0  0  0  0  0  0  0  0  0  0  0
    2.0222   -1.6988    2.6454 H   0  0  0  0  0  0  0  0  0  0  0  0
    1.4643    1.0176    1.3950 H   0  0  0  0  0  0  0  0  0  0  0  0
    0.5417   -0.5421    1.3159 H   0  0  0  0  0  0  0  0  0  0  0  0
    0.2101    2.9419    2.4504 H   0  0  0  0  0  0  0  0  0  0  0  0
   -1.4140    4.5054    3.5312 H   0  0  0  0  0  0  0  0  0  0  0  0
   -2.6837    3.7767    5.5577 H   0  0  0  0  0  0  0  0  0  0  0  0
   -2.3194    1.5141    6.5291 H   0  0  0  0  0  0  0  0  0  0  0  0
   -1.3610   -0.4926    7.2678 H   0  0  0  0  0  0  0  0  0  0  0  0
    0.4085   -0.5785    7.2407 H   0  0  0  0  0  0  0  0  0  0  0  0
   -0.5162   -1.9594    6.6658 H   0  0  0  0  0  0  0  0  0  0  0  0
    0.3821   -1.7638    4.0415 H   0  0  0  0  0  0  0  0  0  0  0  0
    4.0731   -0.9232    5.8645 H   0  0  0  0  0  0  0  0  0  0  0  0
    2.6059    1.1585    3.8060 H   0  0  0  0  0  0  0  0  0  0  0  0
    3.7573   -2.4196    1.1308 H   0  0  0  0  0  0  0  0  0  0  0  0
  1  2  1  0
  1 30  1  0
  1 31  1  0
  1 32  1  0
  2  3  1  0
  3 28  1  0
  3  4  1  0
  3 33  1  6
  4  5  1  0
  4 14  1  0
  4 34  1  6
  5  6  1  0
  5 35  1  0
  5 55  1  0
  6  7  1  0
  6 36  1  0
  6 37  1  0
  7 12  1  0
  7  8  2  0
  8  9  1  0
  8 38  1  0
  9 10  2  0
  9 39  1  0
 10 11  1  0
 10 40  1  0
 11 12  2  0
 11 41  1  0
 12 13  1  0
 14 29  1  0
 14 15  1  0
 14 42  1  1
 16 15  1  6
 15 43  1  0
 15 44  1  0
 16 25  1  0
 16 29  1  0
 16 17  1  0
 17 22  2  0
 17 18  1  0
 18 19  2  0
 18 45  1  0
 19 20  1  0
 19 46  1  0
 20 21  2  0
 20 47  1  0
 21 22  1  0
 21 48  1  0
 22 23  1  0
 23 24  1  0
 23 25  1  0
 24 49  1  0
 24 50  1  0
 24 51  1  0
 25 26  1  0
 25 52  1  6
 26 28  1  0
 26 27  1  1
 26 29  1  0
 27 28  1  0
 28 53  1  1
 29 54  1  1
M  CHG  2   5   1  13  -1
M  END
>  <i_m_ct_stereo_status>  (47) 
1

>  <s_m_source_file>  (47) 
/var/tmp/pbs.5083856.sched01/tmposmbpxi4/15rvt_o3g7.sdf

>  <i_m_source_file_index>  (47) 
5

>  <i_lp_mmshare_version>  (47) 
48012

>  <i_f3d_flags>  (47) 
0

>  <s_epik_input>  (47) 
W2NIXTFbY0hdW2NIXVtjSF1jKGMxW0NAXTIzNClOKFtDSDNdKVtDQEBIXTNDNTZbQ0BASF0oTzUpW0NASF0oT1tDSDNdKVtDQEhdKFtDQEhdKFtDSDJdMilbQ0BASF00NilbTkhdW0NIMl1jN1tjSF1bY0hdW2NIXVtjSF1jN1tPSF0=

>  <s_epik_cmdline>  (47) 
J2VwaWtfcHl0aG9uJywgJy1waHQnLCAnMi4wJywgJy1waCcsICc3LjAnLCAnLXRuJywgJzgnLCAnLW1hJywgJzIwMCcsICctaW1hZScsICc8aW5maWxlLm1hZT4nLCAnLW9tYWUnLCAnPG91dGZpbGUubWFlPic=

>  <r_epik_Ionization_Penalty>  (47) 
2.44987

>  <r_epik_Ionization_Penalty_Charging>  (47) 
2.3549

>  <r_epik_Ionization_Penalty_Neutral>  (47) 
0.0949687

>  <r_epik_State_Penalty>  (47) 
2.61022

>  <r_epik_Charging_Adjusted_Penalty>  (47) 
4.96511

>  <i_epik_Tot_Q>  (47) 
0

>  <i_epik_Tot_abs_Q>  (47) 
2

>  <s_lp_Force_Field>  (47) 
OPLS3e

>  <r_lp_Energy>  (47) 
135.773

>  <b_lp_Chiralities_Consistent>  (47) 
1

>  <s_lp_Variant>  (47) 
13:0-5

>  <s_i_glide_gridfile>  (47) 
pfpi4k_grid

>  <i_i_glide_lignum>  (47) 
5

>  <i_i_glide_rotatable_bonds>  (47) 
4

>  <r_i_docking_score>  (47) 
-3.68438

>  <r_i_glide_ligand_efficiency>  (47) 
-0.127048

>  <r_i_glide_ligand_efficiency_sa>  (47) 
-0.39033

>  <r_i_glide_ligand_efficiency_ln>  (47) 
-0.84363

>  <r_i_glide_gscore>  (47) 
-3.68438

>  <r_i_glide_lipo>  (47) 
-0.692687

>  <r_i_glide_hbond>  (47) 
-0.2

>  <r_i_glide_metal>  (47) 
-0

>  <r_i_glide_rewards>  (47) 
-1.54676

>  <r_i_glide_evdw>  (47) 
-23.7282

>  <r_i_glide_ecoul>  (47) 
-2.75003

>  <r_i_glide_erotb>  (47) 
0.383776

>  <r_i_glide_esite>  (47) 
-0.0297926

>  <r_i_glide_emodel>  (47) 
-40.7184

>  <r_i_glide_energy>  (47) 
-26.4782

>  <r_i_glide_einternal>  (47) 
2.60896

>  <r_i_glide_intrahb_reward>  (47) 
-0.5

>  <i_i_glide_confnum>  (47) 
5

>  <i_i_glide_posenum>  (47) 
16

>  <r_i_glide_eff_state_penalty>  (47) 
0

>  <ligand_id>  (47) 
13

>  <original_smiles>  (47) 
COC1C(NCc2ccccc2O)C2CC34c5ccccc5N(C)C3C3(OC13)C24

>  <smiles>  (47) 
[H]c1c([H])c([H])c(C([H])([H])[N+]([H])([H])C2([H])C([H])(OC([H])([H])[H])C3([H])OC34C3([H])N(C([H])([H])[H])c5c([H])c([H])c([H])c([H])c5C35C([H])([H])C2([H])C45[H])c([O-])c1[H]

$$$$
13:4:2
     RDKit          3D

 55 61  0  0  1  0  0  0  0  0999 V2000
   -0.4820   -3.0222    5.8513 C   0  0  0  0  0  0  0  0  0  0  0  0
   -0.6064   -1.6792    6.2672 O   0  0  0  0  0  0  0  0  0  0  0  0
    0.2474   -0.7689    5.6008 C   0  0  2  0  0  0  0  0  0  0  0  0
   -0.3037   -0.3539    4.1718 C   0  0  1  0  0  0  0  0  0  0  0  0
   -1.4478    0.6058    4.1915 N   0  0  0  0  0  0  0  0  0  0  0  0
   -1.2188    2.0461    4.4934 C   0  0  0  0  0  0  0  0  0  0  0  0
   -0.7123    2.2724    5.9208 C   0  0  0  0  0  0  0  0  0  0  0  0
    0.5325    2.9226    6.1150 C   0  0  0  0  0  0  0  0  0  0  0  0
    1.0980    3.0359    7.4045 C   0  0  0  0  0  0  0  0  0  0  0  0
    0.4194    2.4823    8.5050 C   0  0  0  0  0  0  0  0  0  0  0  0
   -0.8148    1.8317    8.3190 C   0  0  0  0  0  0  0  0  0  0  0  0
   -1.3938    1.7286    7.0311 C   0  0  0  0  0  0  0  0  0  0  0  0
   -2.5374    0.9862    6.9034 O   0  0  0  0  0  0  0  0  0  0  0  0
    0.8959    0.1671    3.4554 C   0  0  2  0  0  0  0  0  0  0  0  0
    1.3157    0.4036    2.0160 C   0  0  0  0  0  0  0  0  0  0  0  0
    2.7286   -0.0872    2.4784 C   0  0  1  0  0  0  0  0  0  0  0  0
    3.7595   -0.7503    1.6224 C   0  0  0  0  0  0  0  0  0  0  0  0
    3.5845   -1.4773    0.4439 C   0  0  0  0  0  0  0  0  0  0  0  0
    4.7160   -2.0253   -0.1907 C   0  0  0  0  0  0  0  0  0  0  0  0
    5.9972   -1.8401    0.3810 C   0  0  0  0  0  0  0  0  0  0  0  0
    6.1456   -1.1474    1.5968 C   0  0  0  0  0  0  0  0  0  0  0  0
    5.0116   -0.6245    2.2327 C   0  0  0  0  0  0  0  0  0  0  0  0
    4.9254    0.0723    3.4353 N   0  0  0  0  0  0  0  0  0  0  0  0
    5.8476   -0.0194    4.5592 C   0  0  0  0  0  0  0  0  0  0  0  0
    3.5289    0.3128    3.7213 C   0  0  2  0  0  0  0  0  0  0  0  0
    2.8947   -0.7494    4.6803 C   0  0  2  0  0  0  0  0  0  0  0  0
    2.5553    0.0537    5.8419 O   0  0  0  0  0  0  0  0  0  0  0  0
    1.7630   -1.0851    5.7127 C   0  0  1  0  0  0  0  0  0  0  0  0
    2.0019   -0.8885    3.4843 C   0  0  1  0  0  0  0  0  0  0  0  0
   -1.1732   -3.6345    6.4354 H   0  0  0  0  0  0  0  0  0  0  0  0
    0.5282   -3.4034    5.9991 H   0  0  0  0  0  0  0  0  0  0  0  0
   -0.7230   -3.1050    4.7944 H   0  0  0  0  0  0  0  0  0  0  0  0
    0.2611    0.0764    6.2698 H   0  0  0  0  0  0  0  0  0  0  0  0
   -0.6604   -1.2383    3.6640 H   0  0  0  0  0  0  0  0  0  0  0  0
   -1.8854    0.5804    3.2775 H   0  0  0  0  0  0  0  0  0  0  0  0
   -0.5328    2.4606    3.7595 H   0  0  0  0  0  0  0  0  0  0  0  0
   -2.1511    2.5978    4.3454 H   0  0  0  0  0  0  0  0  0  0  0  0
    1.1134    3.2861    5.2681 H   0  0  0  0  0  0  0  0  0  0  0  0
    2.0596    3.4991    7.5431 H   0  0  0  0  0  0  0  0  0  0  0  0
    0.8661    2.5250    9.4903 H   0  0  0  0  0  0  0  0  0  0  0  0
   -1.2781    1.3407    9.1639 H   0  0  0  0  0  0  0  0  0  0  0  0
    1.2136    1.0648    3.9821 H   0  0  0  0  0  0  0  0  0  0  0  0
    0.8256   -0.2524    1.2933 H   0  0  0  0  0  0  0  0  0  0  0  0
    1.3424    1.4514    1.7012 H   0  0  0  0  0  0  0  0  0  0  0  0
    2.6156   -1.6310    0.0187 H   0  0  0  0  0  0  0  0  0  0  0  0
    4.5979   -2.5647   -1.1120 H   0  0  0  0  0  0  0  0  0  0  0  0
    6.8548   -2.2396   -0.1257 H   0  0  0  0  0  0  0  0  0  0  0  0
    7.1285   -0.9923    2.0255 H   0  0  0  0  0  0  0  0  0  0  0  0
    6.8846   -0.0596    4.2376 H   0  0  0  0  0  0  0  0  0  0  0  0
    5.5777   -0.8875    5.1597 H   0  0  0  0  0  0  0  0  0  0  0  0
    5.7101    0.8601    5.1887 H   0  0  0  0  0  0  0  0  0  0  0  0
    3.2972    1.3405    3.9789 H   0  0  0  0  0  0  0  0  0  0  0  0
    2.0091   -1.8102    6.4890 H   0  0  0  0  0  0  0  0  0  0  0  0
    1.6923   -1.8842    3.2020 H   0  0  0  0  0  0  0  0  0  0  0  0
   -2.1372    0.2931    4.8772 H   0  0  0  0  0  0  0  0  0  0  0  0
  1  2  1  0
  1 30  1  0
  1 31  1  0
  1 32  1  0
  2  3  1  0
  3 28  1  0
  3  4  1  0
  3 33  1  1
  4  5  1  0
  4 14  1  0
  4 34  1  6
  5  6  1  0
  5 35  1  0
  5 55  1  0
  6  7  1  0
  6 36  1  0
  6 37  1  0
  7 12  1  0
  7  8  2  0
  8  9  1  0
  8 38  1  0
  9 10  2  0
  9 39  1  0
 10 11  1  0
 10 40  1  0
 11 12  2  0
 11 41  1  0
 12 13  1  0
 14 29  1  0
 14 15  1  0
 14 42  1  1
 16 15  1  6
 15 43  1  0
 15 44  1  0
 16 25  1  0
 16 29  1  0
 16 17  1  0
 17 22  2  0
 17 18  1  0
 18 19  2  0
 18 45  1  0
 19 20  1  0
 19 46  1  0
 20 21  2  0
 20 47  1  0
 21 22  1  0
 21 48  1  0
 22 23  1  0
 23 24  1  0
 23 25  1  0
 24 49  1  0
 24 50  1  0
 24 51  1  0
 25 26  1  0
 25 52  1  1
 26 28  1  0
 26 27  1  6
 26 29  1  0
 27 28  1  0
 28 53  1  1
 29 54  1  6
M  CHG  2   5   1  13  -1
M  END
>  <i_m_ct_stereo_status>  (48) 
1

>  <s_m_source_file>  (48) 
/var/tmp/pbs.5083856.sched01/tmposmbpxi4/15rvt_o3g7.sdf

>  <i_m_source_file_index>  (48) 
5

>  <i_lp_mmshare_version>  (48) 
48012

>  <i_f3d_flags>  (48) 
0

>  <s_epik_input>  (48) 
W2NIXTFbY0hdW2NIXVtjSF1jKGMxW0NAXTIzNClOKFtDSDNdKVtDQEBIXTNDNTZbQ0BASF0oTzUpW0NASF0oT1tDSDNdKVtDQEhdKFtDQEhdKFtDSDJdMilbQ0BASF00NilbTkhdW0NIMl1jN1tjSF1bY0hdW2NIXVtjSF1jN1tPSF0=

>  <s_epik_cmdline>  (48) 
J2VwaWtfcHl0aG9uJywgJy1waHQnLCAnMi4wJywgJy1waCcsICc3LjAnLCAnLXRuJywgJzgnLCAnLW1hJywgJzIwMCcsICctaW1hZScsICc8aW5maWxlLm1hZT4nLCAnLW9tYWUnLCAnPG91dGZpbGUubWFlPic=

>  <r_epik_Ionization_Penalty>  (48) 
2.44987

>  <r_epik_Ionization_Penalty_Charging>  (48) 
2.3549

>  <r_epik_Ionization_Penalty_Neutral>  (48) 
0.0949687

>  <r_epik_State_Penalty>  (48) 
2.61022

>  <r_epik_Charging_Adjusted_Penalty>  (48) 
4.96511

>  <i_epik_Tot_Q>  (48) 
0

>  <i_epik_Tot_abs_Q>  (48) 
2

>  <s_lp_Force_Field>  (48) 
OPLS3e

>  <r_lp_Energy>  (48) 
135.773

>  <b_lp_Chiralities_Consistent>  (48) 
1

>  <s_lp_Variant>  (48) 
13:0-5

>  <s_i_glide_gridfile>  (48) 
pfpi4k_grid

>  <i_i_glide_lignum>  (48) 
5

>  <i_i_glide_rotatable_bonds>  (48) 
4

>  <r_i_docking_score>  (48) 
-3.66648

>  <r_i_glide_ligand_efficiency>  (48) 
-0.12643

>  <r_i_glide_ligand_efficiency_sa>  (48) 
-0.388434

>  <r_i_glide_ligand_efficiency_ln>  (48) 
-0.839531

>  <r_i_glide_gscore>  (48) 
-3.66648

>  <r_i_glide_lipo>  (48) 
-0.432639

>  <r_i_glide_hbond>  (48) 
-0.2

>  <r_i_glide_metal>  (48) 
-0

>  <r_i_glide_rewards>  (48) 
-1.34265

>  <r_i_glide_evdw>  (48) 
-18.7129

>  <r_i_glide_ecoul>  (48) 
-7.36474

>  <r_i_glide_erotb>  (48) 
0.383776

>  <r_i_glide_esite>  (48) 
-0.034615

>  <r_i_glide_emodel>  (48) 
-35.6612

>  <r_i_glide_energy>  (48) 
-26.0777

>  <r_i_glide_einternal>  (48) 
9.68141

>  <r_i_glide_intrahb_reward>  (48) 
-0.5

>  <i_i_glide_confnum>  (48) 
2

>  <i_i_glide_posenum>  (48) 
2

>  <r_i_glide_eff_state_penalty>  (48) 
0

>  <ligand_id>  (48) 
13

>  <original_smiles>  (48) 
COC1C(NCc2ccccc2O)C2CC34c5ccccc5N(C)C3C3(OC13)C24

>  <smiles>  (48) 
[H]c1c([H])c([H])c(C([H])([H])[N+]([H])([H])C2([H])C([H])(OC([H])([H])[H])C3([H])OC34C3([H])N(C([H])([H])[H])c5c([H])c([H])c([H])c([H])c5C35C([H])([H])C2([H])C45[H])c([O-])c1[H]

$$$$
14:0:0
     RDKit          3D

 53 56  0  0  1  0  0  0  0  0999 V2000
    3.6538    1.0563   -4.8677 C   0  0  0  0  0  0  0  0  0  0  0  0
    3.1351   -0.0552   -3.9421 C   0  0  0  0  0  0  0  0  0  0  0  0
    4.1453   -0.2458   -2.9333 O   0  0  0  0  0  0  0  0  0  0  0  0
    4.6186   -1.4208   -2.4249 C   0  0  0  0  0  0  0  0  0  0  0  0
    4.2027   -2.8232   -3.3108 S   0  0  0  0  0  0  0  0  0  0  0  0
    5.3450   -1.2943   -1.2616 O   0  0  0  0  0  0  0  0  0  0  0  0
    5.8955   -2.3323   -0.4072 C   0  0  1  0  0  0  0  0  0  0  0  0
    6.8222   -3.3151   -1.1659 C   0  0  0  0  0  0  0  0  0  0  0  0
    6.8054   -1.5972    0.6407 C   0  0  0  0  0  0  0  0  0  0  0  0
    6.2126   -1.3546    1.9268 O   0  0  0  0  0  0  0  0  0  0  0  0
    4.9249   -0.8691    1.8091 C   0  0  2  0  0  0  0  0  0  0  0  0
    4.4404   -0.1385    2.8735 O   0  0  0  0  0  0  0  0  0  0  0  0
    3.0315    0.0661    2.7740 C   0  0  2  0  0  0  0  0  0  0  0  0
    2.7203    1.5044    3.2044 C   0  0  0  0  0  0  0  0  0  0  0  0
    2.3938   -0.8839    3.7992 C   0  0  0  0  0  0  0  0  0  0  0  0
    3.0472   -2.2584    3.8002 C   0  0  0  0  0  0  0  0  0  0  0  0
    3.0623   -2.8104    2.3701 C   0  0  2  0  0  0  0  0  0  0  0  0
    3.1883   -4.3642    2.2772 C   0  0  1  0  0  0  0  0  0  0  0  0
    2.1261   -5.1068    3.1039 C   0  0  0  0  0  0  0  0  0  0  0  0
    3.0723   -4.8562    0.8166 C   0  0  0  0  0  0  0  0  0  0  0  0
    3.9007   -4.0530   -0.1793 C   0  0  0  0  0  0  0  0  0  0  0  0
    4.8150   -3.0099    0.4769 C   0  0  2  0  0  0  0  0  0  0  0  0
    3.9584   -2.0073    1.3333 C   0  0  2  0  0  0  0  0  0  0  0  0
    3.0154   -1.2565    0.5942 O   0  0  0  0  0  0  0  0  0  0  0  0
    2.4688   -0.0683    1.4364 O   0  0  0  0  0  0  0  0  0  0  0  0
    2.9176    1.1758   -5.6778 H   0  0  0  0  0  0  0  0  0  0  0  0
    4.6104    0.7495   -5.3061 H   0  0  0  0  0  0  0  0  0  0  0  0
    3.8084    2.0016   -4.3160 H   0  0  0  0  0  0  0  0  0  0  0  0
    2.2063    0.1789   -3.4099 H   0  0  0  0  0  0  0  0  0  0  0  0
    2.9182   -0.8986   -4.6120 H   0  0  0  0  0  0  0  0  0  0  0  0
    7.2059   -4.0908   -0.5036 H   0  0  0  0  0  0  0  0  0  0  0  0
    7.6905   -2.7919   -1.5285 H   0  0  0  0  0  0  0  0  0  0  0  0
    6.4100   -3.8392   -2.0106 H   0  0  0  0  0  0  0  0  0  0  0  0
    7.6692   -2.2020    0.8768 H   0  0  0  0  0  0  0  0  0  0  0  0
    7.2068   -0.6619    0.2592 H   0  0  0  0  0  0  0  0  0  0  0  0
    4.9892   -0.0959    1.0389 H   0  0  0  0  0  0  0  0  0  0  0  0
    3.1608    2.2279    2.5217 H   0  0  0  0  0  0  0  0  0  0  0  0
    3.1060    1.7074    4.2037 H   0  0  0  0  0  0  0  0  0  0  0  0
    1.6440    1.6815    3.2208 H   0  0  0  0  0  0  0  0  0  0  0  0
    2.5020   -0.4921    4.8101 H   0  0  0  0  0  0  0  0  0  0  0  0
    1.3206   -0.9689    3.6134 H   0  0  0  0  0  0  0  0  0  0  0  0
    4.0625   -2.2315    4.2033 H   0  0  0  0  0  0  0  0  0  0  0  0
    2.4503   -2.8662    4.4785 H   0  0  0  0  0  0  0  0  0  0  0  0
    2.0378   -2.6639    2.0192 H   0  0  0  0  0  0  0  0  0  0  0  0
    4.1697   -4.6579    2.6537 H   0  0  0  0  0  0  0  0  0  0  0  0
    1.1258   -4.7596    2.8430 H   0  0  0  0  0  0  0  0  0  0  0  0
    2.2646   -4.9647    4.1754 H   0  0  0  0  0  0  0  0  0  0  0  0
    2.1591   -6.1814    2.9129 H   0  0  0  0  0  0  0  0  0  0  0  0
    3.3379   -5.9129    0.7382 H   0  0  0  0  0  0  0  0  0  0  0  0
    2.0371   -4.7777    0.4821 H   0  0  0  0  0  0  0  0  0  0  0  0
    4.4844   -4.7343   -0.7888 H   0  0  0  0  0  0  0  0  0  0  0  0
    3.1770   -3.5366   -0.8024 H   0  0  0  0  0  0  0  0  0  0  0  0
    5.4145   -3.5797    1.1970 H   0  0  0  0  0  0  0  0  0  0  0  0
  1  2  1  0
  1 26  1  0
  1 27  1  0
  1 28  1  0
  2  3  1  0
  2 29  1  0
  2 30  1  0
  3  4  1  0
  4  5  2  0
  4  6  1  0
  7  6  1  6
  7 22  1  0
  7  8  1  0
  7  9  1  0
  8 31  1  0
  8 32  1  0
  8 33  1  0
  9 10  1  0
  9 34  1  0
  9 35  1  0
 10 11  1  0
 11 23  1  0
 11 12  1  0
 11 36  1  6
 12 13  1  0
 13 25  1  0
 13 14  1  1
 13 15  1  0
 14 37  1  0
 14 38  1  0
 14 39  1  0
 15 16  1  0
 15 40  1  0
 15 41  1  0
 16 17  1  0
 16 42  1  0
 16 43  1  0
 17 23  1  0
 17 18  1  0
 17 44  1  6
 18 19  1  0
 18 20  1  0
 18 45  1  1
 19 46  1  0
 19 47  1  0
 19 48  1  0
 20 21  1  0
 20 49  1  0
 20 50  1  0
 21 22  1  0
 21 51  1  0
 21 52  1  0
 22 23  1  0
 22 53  1  1
 23 24  1  6
 24 25  1  0
M  END
>  <i_m_ct_stereo_status>  (49) 
1

>  <s_m_source_file>  (49) 
/var/tmp/pbs.5083856.sched01/tmphzvygrdv/20hie1wr_j.sdf

>  <i_m_source_file_index>  (49) 
1

>  <i_lp_mmshare_version>  (49) 
48012

>  <i_f3d_flags>  (49) 
0

>  <s_epik_input>  (49) 
W0NIM11bQ0gyXU9DKD1TKU9bQ0BAXShbQ0gzXSkoW0NIMl1PW0NASF0xW0NAXTIzNClbQ0BASF0zW0NIMl1bQ0gyXVtDQEhdKFtDSDNdKVtDQEhdMltDSDJdW0NIMl1bQ0BdKE8xKShbQ0gzXSlPTzQ=

>  <s_epik_cmdline>  (49) 
J2VwaWtfcHl0aG9uJywgJy1waHQnLCAnMi4wJywgJy1waCcsICc3LjAnLCAnLXRuJywgJzgnLCAnLW1hJywgJzIwMCcsICctaW1hZScsICc8aW5maWxlLm1hZT4nLCAnLW9tYWUnLCAnPG91dGZpbGUubWFlPic=

>  <r_lp_tautomer_probability>  (49) 
1

>  <r_epik_Ionization_Penalty>  (49) 
3.68363e-15

>  <r_epik_Ionization_Penalty_Charging>  (49) 
0

>  <r_epik_Ionization_Penalty_Neutral>  (49) 
3.68363e-15

>  <r_epik_State_Penalty>  (49) 
-0

>  <r_epik_Charging_Adjusted_Penalty>  (49) 
0

>  <i_epik_Tot_Q>  (49) 
0

>  <i_epik_Tot_abs_Q>  (49) 
0

>  <s_epik_Chemistry_Notes>  (49) 
This compound contains an acetal/aminal-like group ( X-CH(R)-Y where X, Y are N, S, or O) that may be acid/base labile, releasing an aldehyde.

>  <s_lp_Force_Field>  (49) 
OPLS3e

>  <r_lp_Energy>  (49) 
73.2741

>  <b_lp_Chiralities_Consistent>  (49) 
1

>  <s_lp_Variant>  (49) 
14:0-1

>  <s_i_glide_gridfile>  (49) 
pfpi4k_grid

>  <i_i_glide_lignum>  (49) 
1

>  <i_i_glide_rotatable_bonds>  (49) 
4

>  <r_i_docking_score>  (49) 
-2.55601

>  <r_i_glide_ligand_efficiency>  (49) 
-0.10224

>  <r_i_glide_ligand_efficiency_sa>  (49) 
-0.298953

>  <r_i_glide_ligand_efficiency_ln>  (49) 
-0.605851

>  <r_i_glide_gscore>  (49) 
-2.55601

>  <r_i_glide_lipo>  (49) 
-0.294983

>  <r_i_glide_hbond>  (49) 
0

>  <r_i_glide_metal>  (49) 
-0

>  <r_i_glide_rewards>  (49) 
-1.23854

>  <r_i_glide_evdw>  (49) 
-30.1676

>  <r_i_glide_ecoul>  (49) 
0.709455

>  <r_i_glide_erotb>  (49) 
0.417644

>  <r_i_glide_esite>  (49) 
-0.038171

>  <r_i_glide_emodel>  (49) 
-29.0458

>  <r_i_glide_energy>  (49) 
-29.4581

>  <r_i_glide_einternal>  (49) 
5.96791

>  <r_i_glide_intrahb_reward>  (49) 
-0

>  <i_i_glide_confnum>  (49) 
4

>  <i_i_glide_posenum>  (49) 
17

>  <r_i_glide_eff_state_penalty>  (49) 
0

>  <ligand_id>  (49) 
14

>  <original_smiles>  (49) 
CCOC(=S)OC1(C)COC2OC3(C)CCC4C(C)CCC1C24OO3

>  <smiles>  (49) 
[H]C([H])([H])C([H])([H])OC(=S)OC1(C([H])([H])[H])C([H])([H])OC2([H])OC3(C([H])([H])[H])OOC24C([H])(C([H])([H])C3([H])[H])C([H])(C([H])([H])[H])C([H])([H])C([H])([H])C14[H]

$$$$
14:0:1
     RDKit          3D

 53 56  0  0  1  0  0  0  0  0999 V2000
    3.8076   -0.0691   -5.2337 C   0  0  0  0  0  0  0  0  0  0  0  0
    2.8496   -0.2662   -4.0495 C   0  0  0  0  0  0  0  0  0  0  0  0
    3.5697   -0.4483   -2.8257 O   0  0  0  0  0  0  0  0  0  0  0  0
    4.2603   -1.5512   -2.4206 C   0  0  0  0  0  0  0  0  0  0  0  0
    4.1744   -3.0045   -3.3200 S   0  0  0  0  0  0  0  0  0  0  0  0
    5.0186   -1.3960   -1.3208 O   0  0  0  0  0  0  0  0  0  0  0  0
    5.9342   -2.3045   -0.6899 C   0  0  1  0  0  0  0  0  0  0  0  0
    7.0031   -2.8328   -1.6961 C   0  0  0  0  0  0  0  0  0  0  0  0
    6.6997   -1.4700    0.4052 C   0  0  0  0  0  0  0  0  0  0  0  0
    6.1930   -1.6159    1.7307 O   0  0  0  0  0  0  0  0  0  0  0  0
    4.8126   -1.5546    1.7782 C   0  0  2  0  0  0  0  0  0  0  0  0
    4.2472   -1.1738    2.9754 O   0  0  0  0  0  0  0  0  0  0  0  0
    2.8418   -1.4197    2.9914 C   0  0  2  0  0  0  0  0  0  0  0  0
    2.1616   -0.2245    3.6725 C   0  0  0  0  0  0  0  0  0  0  0  0
    2.6348   -2.6540    3.8771 C   0  0  0  0  0  0  0  0  0  0  0  0
    3.6695   -3.7358    3.6069 C   0  0  0  0  0  0  0  0  0  0  0  0
    3.7024   -4.0521    2.1054 C   0  0  2  0  0  0  0  0  0  0  0  0
    4.2833   -5.4540    1.7538 C   0  0  1  0  0  0  0  0  0  0  0  0
    3.5892   -6.6086    2.4868 C   0  0  0  0  0  0  0  0  0  0  0  0
    4.1701   -5.7530    0.2468 C   0  0  0  0  0  0  0  0  0  0  0  0
    4.6074   -4.5999   -0.6278 C   0  0  0  0  0  0  0  0  0  0  0  0
    5.2304   -3.4091    0.1261 C   0  0  2  0  0  0  0  0  0  0  0  0
    4.2025   -2.8671    1.1762 C   0  0  2  0  0  0  0  0  0  0  0  0
    3.0042   -2.3542    0.6248 O   0  0  0  0  0  0  0  0  0  0  0  0
    2.2019   -1.5521    1.6906 O   0  0  0  0  0  0  0  0  0  0  0  0
    3.2430    0.0088   -6.1686 H   0  0  0  0  0  0  0  0  0  0  0  0
    4.4820   -0.9248   -5.3454 H   0  0  0  0  0  0  0  0  0  0  0  0
    4.4315    0.8165   -5.0795 H   0  0  0  0  0  0  0  0  0  0  0  0
    2.1739    0.5850   -3.9517 H   0  0  0  0  0  0  0  0  0  0  0  0
    2.2225   -1.1294   -4.2381 H   0  0  0  0  0  0  0  0  0  0  0  0
    7.7007   -3.5476   -1.2092 H   0  0  0  0  0  0  0  0  0  0  0  0
    7.6664   -2.0209   -2.0152 H   0  0  0  0  0  0  0  0  0  0  0  0
    6.6134   -3.3107   -2.6180 H   0  0  0  0  0  0  0  0  0  0  0  0
    7.7184   -1.8032    0.4922 H   0  0  0  0  0  0  0  0  0  0  0  0
    6.7450   -0.4230    0.1485 H   0  0  0  0  0  0  0  0  0  0  0  0
    4.5642   -0.6971    1.1505 H   0  0  0  0  0  0  0  0  0  0  0  0
    2.2982    0.6928    3.0991 H   0  0  0  0  0  0  0  0  0  0  0  0
    2.5653   -0.0562    4.6722 H   0  0  0  0  0  0  0  0  0  0  0  0
    1.0883   -0.3974    3.7767 H   0  0  0  0  0  0  0  0  0  0  0  0
    2.7250   -2.4050    4.9330 H   0  0  0  0  0  0  0  0  0  0  0  0
    1.6264   -3.0498    3.7362 H   0  0  0  0  0  0  0  0  0  0  0  0
    4.6675   -3.4481    3.9511 H   0  0  0  0  0  0  0  0  0  0  0  0
    3.3589   -4.5907    4.2072 H   0  0  0  0  0  0  0  0  0  0  0  0
    2.6517   -4.1819    1.8411 H   0  0  0  0  0  0  0  0  0  0  0  0
    5.3410   -5.4697    2.0101 H   0  0  0  0  0  0  0  0  0  0  0  0
    2.5058   -6.5626    2.3382 H   0  0  0  0  0  0  0  0  0  0  0  0
    3.7862   -6.5918    3.5597 H   0  0  0  0  0  0  0  0  0  0  0  0
    3.9236   -7.5801    2.1085 H   0  0  0  0  0  0  0  0  0  0  0  0
    4.7288   -6.6461   -0.0387 H   0  0  0  0  0  0  0  0  0  0  0  0
    3.1274   -5.9458   -0.0189 H   0  0  0  0  0  0  0  0  0  0  0  0
    5.2833   -4.9571   -1.3983 H   0  0  0  0  0  0  0  0  0  0  0  0
    3.6808   -4.2621   -1.0820 H   0  0  0  0  0  0  0  0  0  0  0  0
    6.0471   -3.8543    0.7002 H   0  0  0  0  0  0  0  0  0  0  0  0
  1  2  1  0
  1 26  1  0
  1 27  1  0
  1 28  1  0
  2  3  1  0
  2 29  1  0
  2 30  1  0
  3  4  1  0
  4  5  2  0
  4  6  1  0
  7  6  1  6
  7 22  1  0
  7  8  1  0
  7  9  1  0
  8 31  1  0
  8 32  1  0
  8 33  1  0
  9 10  1  0
  9 34  1  0
  9 35  1  0
 10 11  1  0
 11 23  1  0
 11 12  1  0
 11 36  1  6
 12 13  1  0
 13 25  1  0
 13 14  1  1
 13 15  1  0
 14 37  1  0
 14 38  1  0
 14 39  1  0
 15 16  1  0
 15 40  1  0
 15 41  1  0
 16 17  1  0
 16 42  1  0
 16 43  1  0
 17 23  1  0
 17 18  1  0
 17 44  1  6
 18 19  1  0
 18 20  1  0
 18 45  1  1
 19 46  1  0
 19 47  1  0
 19 48  1  0
 20 21  1  0
 20 49  1  0
 20 50  1  0
 21 22  1  0
 21 51  1  0
 21 52  1  0
 22 23  1  0
 22 53  1  1
 23 24  1  6
 24 25  1  0
M  END
>  <i_m_ct_stereo_status>  (50) 
1

>  <s_m_source_file>  (50) 
/var/tmp/pbs.5083856.sched01/tmphzvygrdv/20hie1wr_j.sdf

>  <i_m_source_file_index>  (50) 
1

>  <i_lp_mmshare_version>  (50) 
48012

>  <i_f3d_flags>  (50) 
0

>  <s_epik_input>  (50) 
W0NIM11bQ0gyXU9DKD1TKU9bQ0BAXShbQ0gzXSkoW0NIMl1PW0NASF0xW0NAXTIzNClbQ0BASF0zW0NIMl1bQ0gyXVtDQEhdKFtDSDNdKVtDQEhdMltDSDJdW0NIMl1bQ0BdKE8xKShbQ0gzXSlPTzQ=

>  <s_epik_cmdline>  (50) 
J2VwaWtfcHl0aG9uJywgJy1waHQnLCAnMi4wJywgJy1waCcsICc3LjAnLCAnLXRuJywgJzgnLCAnLW1hJywgJzIwMCcsICctaW1hZScsICc8aW5maWxlLm1hZT4nLCAnLW9tYWUnLCAnPG91dGZpbGUubWFlPic=

>  <r_lp_tautomer_probability>  (50) 
1

>  <r_epik_Ionization_Penalty>  (50) 
3.68363e-15

>  <r_epik_Ionization_Penalty_Charging>  (50) 
0

>  <r_epik_Ionization_Penalty_Neutral>  (50) 
3.68363e-15

>  <r_epik_State_Penalty>  (50) 
-0

>  <r_epik_Charging_Adjusted_Penalty>  (50) 
0

>  <i_epik_Tot_Q>  (50) 
0

>  <i_epik_Tot_abs_Q>  (50) 
0

>  <s_epik_Chemistry_Notes>  (50) 
This compound contains an acetal/aminal-like group ( X-CH(R)-Y where X, Y are N, S, or O) that may be acid/base labile, releasing an aldehyde.

>  <s_lp_Force_Field>  (50) 
OPLS3e

>  <r_lp_Energy>  (50) 
73.2741

>  <b_lp_Chiralities_Consistent>  (50) 
1

>  <s_lp_Variant>  (50) 
14:0-1

>  <s_i_glide_gridfile>  (50) 
pfpi4k_grid

>  <i_i_glide_lignum>  (50) 
1

>  <i_i_glide_rotatable_bonds>  (50) 
4

>  <r_i_docking_score>  (50) 
-2.34671

>  <r_i_glide_ligand_efficiency>  (50) 
-0.0938684

>  <r_i_glide_ligand_efficiency_sa>  (50) 
-0.274473

>  <r_i_glide_ligand_efficiency_ln>  (50) 
-0.556241

>  <r_i_glide_gscore>  (50) 
-2.34671

>  <r_i_glide_lipo>  (50) 
-0.412508

>  <r_i_glide_hbond>  (50) 
0

>  <r_i_glide_metal>  (50) 
-0

>  <r_i_glide_rewards>  (50) 
-1.13754

>  <r_i_glide_evdw>  (50) 
-29.0008

>  <r_i_glide_ecoul>  (50) 
1.79343

>  <r_i_glide_erotb>  (50) 
0.417644

>  <r_i_glide_esite>  (50) 
-0.033285

>  <r_i_glide_emodel>  (50) 
-26.2811

>  <r_i_glide_energy>  (50) 
-27.2074

>  <r_i_glide_einternal>  (50) 
4.90276

>  <r_i_glide_intrahb_reward>  (50) 
-0

>  <i_i_glide_confnum>  (50) 
4

>  <i_i_glide_posenum>  (50) 
37

>  <r_i_glide_eff_state_penalty>  (50) 
0

>  <ligand_id>  (50) 
14

>  <original_smiles>  (50) 
CCOC(=S)OC1(C)COC2OC3(C)CCC4C(C)CCC1C24OO3

>  <smiles>  (50) 
[H]C([H])([H])C([H])([H])OC(=S)OC1(C([H])([H])[H])C([H])([H])OC2([H])OC3(C([H])([H])[H])OOC24C([H])(C([H])([H])C3([H])[H])C([H])(C([H])([H])[H])C([H])([H])C([H])([H])C14[H]

$$$$
14:0:2
     RDKit          3D

 53 56  0  0  1  0  0  0  0  0999 V2000
   -0.9940    0.7825    5.1914 C   0  0  0  0  0  0  0  0  0  0  0  0
   -1.0279   -0.3126    4.0992 C   0  0  0  0  0  0  0  0  0  0  0  0
    0.2480   -0.9820    4.0808 O   0  0  0  0  0  0  0  0  0  0  0  0
    1.4124   -0.5046    3.5302 C   0  0  0  0  0  0  0  0  0  0  0  0
    1.3861    0.8672    2.5123 S   0  0  0  0  0  0  0  0  0  0  0  0
    2.5225   -1.2679    3.8531 O   0  0  0  0  0  0  0  0  0  0  0  0
    3.8839   -1.0719    3.4003 C   0  0  1  0  0  0  0  0  0  0  0  0
    4.3898    0.3937    3.5828 C   0  0  0  0  0  0  0  0  0  0  0  0
    4.7759   -1.9984    4.2860 C   0  0  0  0  0  0  0  0  0  0  0  0
    5.1033   -3.2905    3.7207 O   0  0  0  0  0  0  0  0  0  0  0  0
    3.9982   -3.8741    3.1301 C   0  0  2  0  0  0  0  0  0  0  0  0
    4.0237   -5.2482    3.0144 O   0  0  0  0  0  0  0  0  0  0  0  0
    2.9929   -5.7209    2.1498 C   0  0  2  0  0  0  0  0  0  0  0  0
    2.4060   -6.9944    2.7599 C   0  0  0  0  0  0  0  0  0  0  0  0
    3.6801   -6.1023    0.8305 C   0  0  0  0  0  0  0  0  0  0  0  0
    4.7230   -5.0764    0.4030 C   0  0  0  0  0  0  0  0  0  0  0  0
    4.0890   -3.6849    0.3934 C   0  0  2  0  0  0  0  0  0  0  0  0
    4.8271   -2.6405   -0.5033 C   0  0  1  0  0  0  0  0  0  0  0  0
    5.0273   -3.1389   -1.9432 C   0  0  0  0  0  0  0  0  0  0  0  0
    4.0546   -1.3053   -0.5671 C   0  0  0  0  0  0  0  0  0  0  0  0
    3.5871   -0.7953    0.7925 C   0  0  0  0  0  0  0  0  0  0  0  0
    4.0836   -1.6391    1.9633 C   0  0  2  0  0  0  0  0  0  0  0  0
    3.6221   -3.1342    1.8057 C   0  0  2  0  0  0  0  0  0  0  0  0
    2.2192   -3.3206    1.7887 O   0  0  0  0  0  0  0  0  0  0  0  0
    1.8594   -4.8233    1.9714 O   0  0  0  0  0  0  0  0  0  0  0  0
   -1.9402    1.3279    5.1810 H   0  0  0  0  0  0  0  0  0  0  0  0
   -0.1971    1.5150    5.0366 H   0  0  0  0  0  0  0  0  0  0  0  0
   -0.8306    0.3434    6.1799 H   0  0  0  0  0  0  0  0  0  0  0  0
   -1.7874   -1.0739    4.3170 H   0  0  0  0  0  0  0  0  0  0  0  0
   -1.3101    0.1034    3.1321 H   0  0  0  0  0  0  0  0  0  0  0  0
    5.3961    0.4899    3.1738 H   0  0  0  0  0  0  0  0  0  0  0  0
    4.4611    0.5925    4.6446 H   0  0  0  0  0  0  0  0  0  0  0  0
    3.7809    1.1309    3.1279 H   0  0  0  0  0  0  0  0  0  0  0  0
    5.7516   -1.5509    4.4570 H   0  0  0  0  0  0  0  0  0  0  0  0
    4.3613   -2.1439    5.2898 H   0  0  0  0  0  0  0  0  0  0  0  0
    3.2034   -3.7428    3.8658 H   0  0  0  0  0  0  0  0  0  0  0  0
    1.9250   -6.7884    3.7159 H   0  0  0  0  0  0  0  0  0  0  0  0
    3.1834   -7.7383    2.9306 H   0  0  0  0  0  0  0  0  0  0  0  0
    1.6642   -7.4397    2.0957 H   0  0  0  0  0  0  0  0  0  0  0  0
    4.2037   -7.0517    0.9283 H   0  0  0  0  0  0  0  0  0  0  0  0
    2.9355   -6.2423    0.0451 H   0  0  0  0  0  0  0  0  0  0  0  0
    5.6015   -5.0870    1.0519 H   0  0  0  0  0  0  0  0  0  0  0  0
    5.0563   -5.3878   -0.5861 H   0  0  0  0  0  0  0  0  0  0  0  0
    3.1635   -3.8168   -0.1711 H   0  0  0  0  0  0  0  0  0  0  0  0
    5.8120   -2.4481   -0.0761 H   0  0  0  0  0  0  0  0  0  0  0  0
    4.0740   -3.4515   -2.3720 H   0  0  0  0  0  0  0  0  0  0  0  0
    5.7144   -3.9826   -1.9913 H   0  0  0  0  0  0  0  0  0  0  0  0
    5.4387   -2.3508   -2.5804 H   0  0  0  0  0  0  0  0  0  0  0  0
    4.6549   -0.5297   -1.0436 H   0  0  0  0  0  0  0  0  0  0  0  0
    3.1598   -1.4199   -1.1800 H   0  0  0  0  0  0  0  0  0  0  0  0
    3.8877    0.2440    0.9182 H   0  0  0  0  0  0  0  0  0  0  0  0
    2.5024   -0.8380    0.7722 H   0  0  0  0  0  0  0  0  0  0  0  0
    5.1732   -1.6434    1.8589 H   0  0  0  0  0  0  0  0  0  0  0  0
  1  2  1  0
  1 26  1  0
  1 27  1  0
  1 28  1  0
  2  3  1  0
  2 29  1  0
  2 30  1  0
  3  4  1  0
  4  5  2  0
  4  6  1  0
  7  6  1  1
  7 22  1  0
  7  8  1  0
  7  9  1  0
  8 31  1  0
  8 32  1  0
  8 33  1  0
  9 10  1  0
  9 34  1  0
  9 35  1  0
 10 11  1  0
 11 23  1  0
 11 12  1  0
 11 36  1  1
 12 13  1  0
 13 25  1  0
 13 14  1  1
 13 15  1  0
 14 37  1  0
 14 38  1  0
 14 39  1  0
 15 16  1  0
 15 40  1  0
 15 41  1  0
 16 17  1  0
 16 42  1  0
 16 43  1  0
 17 23  1  0
 17 18  1  0
 17 44  1  6
 18 19  1  0
 18 20  1  0
 18 45  1  1
 19 46  1  0
 19 47  1  0
 19 48  1  0
 20 21  1  0
 20 49  1  0
 20 50  1  0
 21 22  1  0
 21 51  1  0
 21 52  1  0
 22 23  1  0
 22 53  1  6
 23 24  1  6
 24 25  1  0
M  END
>  <i_m_ct_stereo_status>  (51) 
1

>  <s_m_source_file>  (51) 
/var/tmp/pbs.5083856.sched01/tmphzvygrdv/20hie1wr_j.sdf

>  <i_m_source_file_index>  (51) 
1

>  <i_lp_mmshare_version>  (51) 
48012

>  <i_f3d_flags>  (51) 
0

>  <s_epik_input>  (51) 
W0NIM11bQ0gyXU9DKD1TKU9bQ0BAXShbQ0gzXSkoW0NIMl1PW0NASF0xW0NAXTIzNClbQ0BASF0zW0NIMl1bQ0gyXVtDQEhdKFtDSDNdKVtDQEhdMltDSDJdW0NIMl1bQ0BdKE8xKShbQ0gzXSlPTzQ=

>  <s_epik_cmdline>  (51) 
J2VwaWtfcHl0aG9uJywgJy1waHQnLCAnMi4wJywgJy1waCcsICc3LjAnLCAnLXRuJywgJzgnLCAnLW1hJywgJzIwMCcsICctaW1hZScsICc8aW5maWxlLm1hZT4nLCAnLW9tYWUnLCAnPG91dGZpbGUubWFlPic=

>  <r_lp_tautomer_probability>  (51) 
1

>  <r_epik_Ionization_Penalty>  (51) 
3.68363e-15

>  <r_epik_Ionization_Penalty_Charging>  (51) 
0

>  <r_epik_Ionization_Penalty_Neutral>  (51) 
3.68363e-15

>  <r_epik_State_Penalty>  (51) 
-0

>  <r_epik_Charging_Adjusted_Penalty>  (51) 
0

>  <i_epik_Tot_Q>  (51) 
0

>  <i_epik_Tot_abs_Q>  (51) 
0

>  <s_epik_Chemistry_Notes>  (51) 
This compound contains an acetal/aminal-like group ( X-CH(R)-Y where X, Y are N, S, or O) that may be acid/base labile, releasing an aldehyde.

>  <s_lp_Force_Field>  (51) 
OPLS3e

>  <r_lp_Energy>  (51) 
73.2741

>  <b_lp_Chiralities_Consistent>  (51) 
1

>  <s_lp_Variant>  (51) 
14:0-1

>  <s_i_glide_gridfile>  (51) 
pfpi4k_grid

>  <i_i_glide_lignum>  (51) 
1

>  <i_i_glide_rotatable_bonds>  (51) 
4

>  <r_i_docking_score>  (51) 
-1.68192

>  <r_i_glide_ligand_efficiency>  (51) 
-0.0672766

>  <r_i_glide_ligand_efficiency_sa>  (51) 
-0.196718

>  <r_i_glide_ligand_efficiency_ln>  (51) 
-0.398664

>  <r_i_glide_gscore>  (51) 
-1.68192

>  <r_i_glide_lipo>  (51) 
-0.265607

>  <r_i_glide_hbond>  (51) 
-0.0127689

>  <r_i_glide_metal>  (51) 
-0

>  <r_i_glide_rewards>  (51) 
-0.869879

>  <r_i_glide_evdw>  (51) 
-20.9059

>  <r_i_glide_ecoul>  (51) 
0.859756

>  <r_i_glide_erotb>  (51) 
0.417644

>  <r_i_glide_esite>  (51) 
-0.0349745

>  <r_i_glide_emodel>  (51) 
-18.6383

>  <r_i_glide_energy>  (51) 
-20.0461

>  <r_i_glide_einternal>  (51) 
4.7341

>  <r_i_glide_intrahb_reward>  (51) 
-0

>  <i_i_glide_confnum>  (51) 
4

>  <i_i_glide_posenum>  (51) 
11

>  <r_i_glide_eff_state_penalty>  (51) 
0

>  <ligand_id>  (51) 
14

>  <original_smiles>  (51) 
CCOC(=S)OC1(C)COC2OC3(C)CCC4C(C)CCC1C24OO3

>  <smiles>  (51) 
[H]C([H])([H])C([H])([H])OC(=S)OC1(C([H])([H])[H])C([H])([H])OC2([H])OC3(C([H])([H])[H])OOC24C([H])(C([H])([H])C3([H])[H])C([H])(C([H])([H])[H])C([H])([H])C([H])([H])C14[H]

$$$$
15:0:0
     RDKit          3D

 41 44  0  0  1  0  0  0  0  0999 V2000
    1.6537   -3.8507   -1.5315 C   0  0  0  0  0  0  0  0  0  0  0  0
    2.7563   -3.3331   -0.9523 C   0  0  0  0  0  0  0  0  0  0  0  0
    3.1468   -3.8318    0.3967 C   0  0  0  0  0  0  0  0  0  0  0  0
    2.5194   -4.7278    0.9635 O   0  0  0  0  0  0  0  0  0  0  0  0
    4.3446   -3.2099    1.1510 C   0  0  1  0  0  0  0  0  0  0  0  0
    5.4481   -4.2666    1.2816 C   0  0  0  0  0  0  0  0  0  0  0  0
    5.3161   -5.2765    2.4052 C   0  0  0  0  0  0  0  0  0  0  0  0
    6.4824   -4.2948    0.4195 C   0  0  0  0  0  0  0  0  0  0  0  0
    6.6572   -3.2658   -0.6882 C   0  0  1  0  0  0  0  0  0  0  0  0
    8.1405   -3.2392   -1.1182 C   0  0  0  0  0  0  0  0  0  0  0  0
    5.6987   -3.6379   -1.8678 C   0  0  0  0  0  0  0  0  0  0  0  0
    4.7029   -2.5803   -2.4580 C   0  0  1  0  0  0  0  0  0  0  0  0
    4.1875   -3.1518   -3.8048 C   0  0  0  0  0  0  0  0  0  0  0  0
    3.5197   -2.1304   -1.5219 C   0  0  1  0  0  0  0  0  0  0  0  0
    2.6558   -1.3425   -2.3250 O   0  0  0  0  0  0  0  0  0  0  0  0
    3.8948   -1.1790   -0.3641 C   0  0  0  0  0  0  0  0  0  0  0  0
    4.8885   -1.8981    0.5127 C   0  0  1  0  0  0  0  0  0  0  0  0
    5.6542   -1.0660    1.5481 C   0  0  0  0  0  0  0  0  0  0  0  0
    5.3649   -0.3356    2.4909 O   0  0  0  0  0  0  0  0  0  0  0  0
    6.8756   -1.4929    1.1023 O   0  0  0  0  0  0  0  0  0  0  0  0
    6.2489   -1.9297   -0.1335 C   0  0  1  0  0  0  0  0  0  0  0  0
    1.2961   -3.4602   -2.4772 H   0  0  0  0  0  0  0  0  0  0  0  0
    1.0918   -4.6631   -1.1136 H   0  0  0  0  0  0  0  0  0  0  0  0
    3.9886   -2.9766    2.1613 H   0  0  0  0  0  0  0  0  0  0  0  0
    5.2300   -4.7725    3.3711 H   0  0  0  0  0  0  0  0  0  0  0  0
    6.1948   -5.9218    2.4371 H   0  0  0  0  0  0  0  0  0  0  0  0
    4.4430   -5.9177    2.2612 H   0  0  0  0  0  0  0  0  0  0  0  0
    7.2476   -5.0493    0.5268 H   0  0  0  0  0  0  0  0  0  0  0  0
    8.3141   -2.5214   -1.9203 H   0  0  0  0  0  0  0  0  0  0  0  0
    8.4890   -4.2106   -1.4780 H   0  0  0  0  0  0  0  0  0  0  0  0
    8.7950   -2.9734   -0.2843 H   0  0  0  0  0  0  0  0  0  0  0  0
    6.3306   -3.9538   -2.6958 H   0  0  0  0  0  0  0  0  0  0  0  0
    5.1273   -4.5376   -1.6109 H   0  0  0  0  0  0  0  0  0  0  0  0
    5.2779   -1.6883   -2.7164 H   0  0  0  0  0  0  0  0  0  0  0  0
    3.5661   -4.0357   -3.6721 H   0  0  0  0  0  0  0  0  0  0  0  0
    5.0124   -3.4572   -4.4440 H   0  0  0  0  0  0  0  0  0  0  0  0
    3.5985   -2.4237   -4.3583 H   0  0  0  0  0  0  0  0  0  0  0  0
    1.8945   -1.1459   -1.7623 H   0  0  0  0  0  0  0  0  0  0  0  0
    4.3216   -0.2574   -0.7673 H   0  0  0  0  0  0  0  0  0  0  0  0
    3.0180   -0.8683    0.2106 H   0  0  0  0  0  0  0  0  0  0  0  0
    6.3427   -1.1391   -0.8739 H   0  0  0  0  0  0  0  0  0  0  0  0
  1  2  2  0
  1 22  1  0
  1 23  1  0
  2 14  1  0
  2  3  1  0
  3  4  2  0
  3  5  1  0
  5 17  1  0
  5  6  1  0
  5 24  1  1
  6  7  1  0
  6  8  2  0
  7 25  1  0
  7 26  1  0
  7 27  1  0
  8  9  1  0
  8 28  1  0
  9 21  1  0
  9 10  1  6
  9 11  1  0
 10 29  1  0
 10 30  1  0
 10 31  1  0
 11 12  1  0
 11 32  1  0
 11 33  1  0
 12 13  1  0
 12 14  1  0
 12 34  1  6
 13 35  1  0
 13 36  1  0
 13 37  1  0
 14 15  1  6
 14 16  1  0
 15 38  1  0
 16 17  1  0
 16 39  1  0
 16 40  1  0
 17 21  1  0
 17 18  1  1
 18 19  2  0
 18 20  1  0
 20 21  1  0
 21 41  1  6
M  END
>  <i_m_ct_stereo_status>  (52) 
1

>  <s_m_source_file>  (52) 
/var/tmp/pbs.5083856.sched01/tmphzvygrdv/20hie1wr_j.sdf

>  <i_m_source_file_index>  (52) 
2

>  <i_lp_mmshare_version>  (52) 
48012

>  <i_f3d_flags>  (52) 
0

>  <s_epik_input>  (52) 
W0NAXTEyM1tDSF00Qyg9TylDKD1bQ0gyXSlbQ0BAXShbT0hdKShbQ0gyXTEpW0NASF0oW0NIM10pW0NIMl1bQ0BdKFtDSDNdKShbQ0hdPUM0W0NIM10pW0NAQEhdM09DMj1P

>  <s_epik_cmdline>  (52) 
J2VwaWtfcHl0aG9uJywgJy1waHQnLCAnMi4wJywgJy1waCcsICc3LjAnLCAnLXRuJywgJzgnLCAnLW1hJywgJzIwMCcsICctaW1hZScsICc8aW5maWxlLm1hZT4nLCAnLW9tYWUnLCAnPG91dGZpbGUubWFlPic=

>  <r_lp_tautomer_probability>  (52) 
1

>  <r_epik_Ionization_Penalty>  (52) 
4.09287e-07

>  <r_epik_Ionization_Penalty_Charging>  (52) 
0

>  <r_epik_Ionization_Penalty_Neutral>  (52) 
4.09287e-07

>  <r_epik_State_Penalty>  (52) 
-0

>  <r_epik_Charging_Adjusted_Penalty>  (52) 
0

>  <i_epik_Tot_Q>  (52) 
0

>  <i_epik_Tot_abs_Q>  (52) 
0

>  <s_epik_Chemistry_Notes>  (52) 
This compound has an ester and may undergo hydrolysis at high or low pH.

>  <s_lp_Force_Field>  (52) 
OPLS3e

>  <r_lp_Energy>  (52) 
47.877

>  <b_lp_Chiralities_Consistent>  (52) 
1

>  <s_lp_Variant>  (52) 
15:0-1

>  <s_i_glide_gridfile>  (52) 
pfpi4k_grid

>  <i_i_glide_lignum>  (52) 
2

>  <i_i_glide_rotatable_bonds>  (52) 
1

>  <r_i_docking_score>  (52) 
-4.59404

>  <r_i_glide_ligand_efficiency>  (52) 
-0.218764

>  <r_i_glide_ligand_efficiency_sa>  (52) 
-0.603552

>  <r_i_glide_ligand_efficiency_ln>  (52) 
-1.13587

>  <r_i_glide_gscore>  (52) 
-4.59404

>  <r_i_glide_lipo>  (52) 
-0.690626

>  <r_i_glide_hbond>  (52) 
-0.237668

>  <r_i_glide_metal>  (52) 
-0

>  <r_i_glide_rewards>  (52) 
-1.61812

>  <r_i_glide_evdw>  (52) 
-20.6759

>  <r_i_glide_ecoul>  (52) 
-6.68564

>  <r_i_glide_erotb>  (52) 
0

>  <r_i_glide_esite>  (52) 
-0.0109746

>  <r_i_glide_emodel>  (52) 
-35.5012

>  <r_i_glide_energy>  (52) 
-27.3616

>  <r_i_glide_einternal>  (52) 
0.0781988

>  <r_i_glide_intrahb_reward>  (52) 
-0

>  <i_i_glide_confnum>  (52) 
1

>  <i_i_glide_posenum>  (52) 
39

>  <r_i_glide_eff_state_penalty>  (52) 
0

>  <ligand_id>  (52) 
15

>  <original_smiles>  (52) 
C=C1C(=O)C2C(C)=CC3(C)CC(C)C1(O)CC21C(=O)OC31

>  <smiles>  (52) 
[H]OC12C(=C([H])[H])C(=O)C3([H])C(C([H])([H])[H])=C([H])C(C([H])([H])[H])(C([H])([H])C1([H])C([H])([H])[H])C1([H])OC(=O)C31C2([H])[H]

$$$$
15:0:1
     RDKit          3D

 41 44  0  0  1  0  0  0  0  0999 V2000
    5.1494   -0.6839   -0.1088 C   0  0  0  0  0  0  0  0  0  0  0  0
    5.1425   -1.8856    0.5000 C   0  0  0  0  0  0  0  0  0  0  0  0
    5.0570   -1.9304    1.9885 C   0  0  0  0  0  0  0  0  0  0  0  0
    4.9687   -0.9056    2.6666 O   0  0  0  0  0  0  0  0  0  0  0  0
    5.0925   -3.2857    2.7367 C   0  0  1  0  0  0  0  0  0  0  0  0
    3.7413   -3.5222    3.4202 C   0  0  0  0  0  0  0  0  0  0  0  0
    3.4957   -2.8369    4.7526 C   0  0  0  0  0  0  0  0  0  0  0  0
    2.8071   -4.3034    2.8450 C   0  0  0  0  0  0  0  0  0  0  0  0
    3.0485   -5.0351    1.5346 C   0  0  1  0  0  0  0  0  0  0  0  0
    2.0603   -6.2086    1.4274 C   0  0  0  0  0  0  0  0  0  0  0  0
    2.8758   -4.0170    0.3569 C   0  0  0  0  0  0  0  0  0  0  0  0
    4.0152   -3.8466   -0.7194 C   0  0  1  0  0  0  0  0  0  0  0  0
    3.3919   -3.0585   -1.9052 C   0  0  0  0  0  0  0  0  0  0  0  0
    5.3850   -3.2010   -0.2433 C   0  0  1  0  0  0  0  0  0  0  0  0
    6.1778   -2.9766   -1.3978 O   0  0  0  0  0  0  0  0  0  0  0  0
    6.2899   -4.1178    0.6157 C   0  0  0  0  0  0  0  0  0  0  0  0
    5.5125   -4.5013    1.8515 C   0  0  1  0  0  0  0  0  0  0  0  0
    6.0784   -5.6385    2.7208 C   0  0  0  0  0  0  0  0  0  0  0  0
    7.1303   -5.8745    3.3079 O   0  0  0  0  0  0  0  0  0  0  0  0
    4.9042   -6.3356    2.6964 O   0  0  0  0  0  0  0  0  0  0  0  0
    4.4685   -5.5532    1.5492 C   0  0  1  0  0  0  0  0  0  0  0  0
    5.2637   -0.5894   -1.1785 H   0  0  0  0  0  0  0  0  0  0  0  0
    5.0376    0.2362    0.4453 H   0  0  0  0  0  0  0  0  0  0  0  0
    5.8155   -3.1680    3.5406 H   0  0  0  0  0  0  0  0  0  0  0  0
    4.2742   -3.0956    5.4697 H   0  0  0  0  0  0  0  0  0  0  0  0
    2.5381   -3.1458    5.1680 H   0  0  0  0  0  0  0  0  0  0  0  0
    3.4711   -1.7536    4.6389 H   0  0  0  0  0  0  0  0  0  0  0  0
    1.8631   -4.4644    3.3394 H   0  0  0  0  0  0  0  0  0  0  0  0
    2.2022   -6.7537    0.4976 H   0  0  0  0  0  0  0  0  0  0  0  0
    1.0291   -5.8637    1.4611 H   0  0  0  0  0  0  0  0  0  0  0  0
    2.1933   -6.9140    2.2515 H   0  0  0  0  0  0  0  0  0  0  0  0
    1.9634   -4.2980   -0.1674 H   0  0  0  0  0  0  0  0  0  0  0  0
    2.6426   -3.0288    0.7583 H   0  0  0  0  0  0  0  0  0  0  0  0
    4.2385   -4.8380   -1.1178 H   0  0  0  0  0  0  0  0  0  0  0  0
    3.1194   -2.0373   -1.6305 H   0  0  0  0  0  0  0  0  0  0  0  0
    2.4780   -3.5447   -2.2560 H   0  0  0  0  0  0  0  0  0  0  0  0
    4.0485   -3.0110   -2.7740 H   0  0  0  0  0  0  0  0  0  0  0  0
    5.6354   -3.1559   -2.1538 H   0  0  0  0  0  0  0  0  0  0  0  0
    6.5809   -5.0047    0.0498 H   0  0  0  0  0  0  0  0  0  0  0  0
    7.2217   -3.6161    0.8799 H   0  0  0  0  0  0  0  0  0  0  0  0
    4.7121   -6.1006    0.6357 H   0  0  0  0  0  0  0  0  0  0  0  0
  1  2  2  0
  1 22  1  0
  1 23  1  0
  2 14  1  0
  2  3  1  0
  3  4  2  0
  3  5  1  0
  5 17  1  0
  5  6  1  0
  5 24  1  1
  6  7  1  0
  6  8  2  0
  7 25  1  0
  7 26  1  0
  7 27  1  0
  8  9  1  0
  8 28  1  0
  9 21  1  0
  9 10  1  6
  9 11  1  0
 10 29  1  0
 10 30  1  0
 10 31  1  0
 11 12  1  0
 11 32  1  0
 11 33  1  0
 12 13  1  0
 12 14  1  0
 12 34  1  6
 13 35  1  0
 13 36  1  0
 13 37  1  0
 14 15  1  6
 14 16  1  0
 15 38  1  0
 16 17  1  0
 16 39  1  0
 16 40  1  0
 17 21  1  0
 17 18  1  1
 18 19  2  0
 18 20  1  0
 20 21  1  0
 21 41  1  6
M  END
>  <i_m_ct_stereo_status>  (53) 
1

>  <s_m_source_file>  (53) 
/var/tmp/pbs.5083856.sched01/tmphzvygrdv/20hie1wr_j.sdf

>  <i_m_source_file_index>  (53) 
2

>  <i_lp_mmshare_version>  (53) 
48012

>  <i_f3d_flags>  (53) 
0

>  <s_epik_input>  (53) 
W0NAXTEyM1tDSF00Qyg9TylDKD1bQ0gyXSlbQ0BAXShbT0hdKShbQ0gyXTEpW0NASF0oW0NIM10pW0NIMl1bQ0BdKFtDSDNdKShbQ0hdPUM0W0NIM10pW0NAQEhdM09DMj1P

>  <s_epik_cmdline>  (53) 
J2VwaWtfcHl0aG9uJywgJy1waHQnLCAnMi4wJywgJy1waCcsICc3LjAnLCAnLXRuJywgJzgnLCAnLW1hJywgJzIwMCcsICctaW1hZScsICc8aW5maWxlLm1hZT4nLCAnLW9tYWUnLCAnPG91dGZpbGUubWFlPic=

>  <r_lp_tautomer_probability>  (53) 
1

>  <r_epik_Ionization_Penalty>  (53) 
4.09287e-07

>  <r_epik_Ionization_Penalty_Charging>  (53) 
0

>  <r_epik_Ionization_Penalty_Neutral>  (53) 
4.09287e-07

>  <r_epik_State_Penalty>  (53) 
-0

>  <r_epik_Charging_Adjusted_Penalty>  (53) 
0

>  <i_epik_Tot_Q>  (53) 
0

>  <i_epik_Tot_abs_Q>  (53) 
0

>  <s_epik_Chemistry_Notes>  (53) 
This compound has an ester and may undergo hydrolysis at high or low pH.

>  <s_lp_Force_Field>  (53) 
OPLS3e

>  <r_lp_Energy>  (53) 
47.877

>  <b_lp_Chiralities_Consistent>  (53) 
1

>  <s_lp_Variant>  (53) 
15:0-1

>  <s_i_glide_gridfile>  (53) 
pfpi4k_grid

>  <i_i_glide_lignum>  (53) 
2

>  <i_i_glide_rotatable_bonds>  (53) 
1

>  <r_i_docking_score>  (53) 
-3.1051

>  <r_i_glide_ligand_efficiency>  (53) 
-0.147862

>  <r_i_glide_ligand_efficiency_sa>  (53) 
-0.407939

>  <r_i_glide_ligand_efficiency_ln>  (53) 
-0.767729

>  <r_i_glide_gscore>  (53) 
-3.1051

>  <r_i_glide_lipo>  (53) 
-0.31534

>  <r_i_glide_hbond>  (53) 
0

>  <r_i_glide_metal>  (53) 
-0

>  <r_i_glide_rewards>  (53) 
-1.56416

>  <r_i_glide_evdw>  (53) 
-20.8751

>  <r_i_glide_ecoul>  (53) 
-1.21225

>  <r_i_glide_erotb>  (53) 
0

>  <r_i_glide_esite>  (53) 
0

>  <r_i_glide_emodel>  (53) 
-27.2259

>  <r_i_glide_energy>  (53) 
-22.0873

>  <r_i_glide_einternal>  (53) 
0.721005

>  <r_i_glide_intrahb_reward>  (53) 
-0

>  <i_i_glide_confnum>  (53) 
1

>  <i_i_glide_posenum>  (53) 
40

>  <r_i_glide_eff_state_penalty>  (53) 
0

>  <ligand_id>  (53) 
15

>  <original_smiles>  (53) 
C=C1C(=O)C2C(C)=CC3(C)CC(C)C1(O)CC21C(=O)OC31

>  <smiles>  (53) 
[H]OC12C(=C([H])[H])C(=O)C3([H])C(C([H])([H])[H])=C([H])C(C([H])([H])[H])(C([H])([H])C1([H])C([H])([H])[H])C1([H])OC(=O)C31C2([H])[H]

$$$$
16:0:0
     RDKit          3D

 66 70  0  0  1  0  0  0  0  0999 V2000
   -1.2606   -7.0374    4.4797 C   0  0  0  0  0  0  0  0  0  0  0  0
   -0.1647   -7.3337    5.2058 C   0  0  0  0  0  0  0  0  0  0  0  0
    1.1114   -8.0112    4.7025 C   0  0  1  0  0  0  0  0  0  0  0  0
    1.2217   -9.3744    5.4103 C   0  0  0  0  0  0  0  0  0  0  0  0
    1.1254   -8.2438    3.1769 C   0  0  0  0  0  0  0  0  0  0  0  0
    1.5158   -6.9547    2.4780 C   0  0  0  0  0  0  0  0  0  0  0  0
    0.7290   -6.3250    1.7599 O   0  0  0  0  0  0  0  0  0  0  0  0
    2.9548   -6.5232    2.8290 C   0  0  1  0  0  0  0  0  0  0  0  0
    3.6074   -5.4041    1.9039 C   0  0  2  0  0  0  0  0  0  0  0  0
    3.2886   -5.8344    0.4470 C   0  0  0  0  0  0  0  0  0  0  0  0
    5.1584   -5.4010    1.9988 C   0  0  0  0  0  0  0  0  0  0  0  0
    5.8505   -4.2805    1.1905 C   0  0  0  0  0  0  0  0  0  0  0  0
    5.3339   -2.8663    1.5384 C   0  0  1  0  0  0  0  0  0  0  0  0
    6.0703   -1.8337    0.6477 C   0  0  0  0  0  0  0  0  0  0  0  0
    7.2335   -1.5246    0.8787 O   0  0  0  0  0  0  0  0  0  0  0  0
    5.4296   -1.3481   -0.4399 O   0  0  0  0  0  0  0  0  0  0  0  0
    4.0418   -1.5065   -0.7331 C   0  0  1  0  0  0  0  0  0  0  0  0
    3.8822   -1.5564   -2.2274 C   0  0  0  0  0  0  0  0  0  0  0  0
    3.9202   -0.4459   -3.1160 C   0  0  0  0  0  0  0  0  0  0  0  0
    3.7530   -0.9485   -4.3700 C   0  0  0  0  0  0  0  0  0  0  0  0
    3.6320   -2.2981   -4.3306 O   0  0  0  0  0  0  0  0  0  0  0  0
    3.7018   -2.6550   -3.0287 C   0  0  0  0  0  0  0  0  0  0  0  0
    3.3820   -2.6938    0.0005 C   0  0  0  0  0  0  0  0  0  0  0  0
    3.7816   -2.7525    1.4985 C   0  0  2  0  0  0  0  0  0  0  0  0
    3.3431   -1.4060    2.1549 C   0  0  0  0  0  0  0  0  0  0  0  0
    3.0924   -3.9604    2.2834 C   0  0  2  0  0  0  0  0  0  0  0  0
    3.1670   -3.7744    3.8416 C   0  0  0  0  0  0  0  0  0  0  0  0
    2.4462   -4.8434    4.6941 C   0  0  1  0  0  0  0  0  0  0  0  0
    1.0703   -4.6539    4.4442 O   0  0  0  0  0  0  0  0  0  0  0  0
    2.9562   -6.2730    4.3691 C   0  0  2  0  0  0  0  0  0  0  0  0
    4.3596   -6.4685    5.0039 C   0  0  0  0  0  0  0  0  0  0  0  0
    2.2991   -7.3158    5.1369 O   0  0  0  0  0  0  0  0  0  0  0  0
   -1.3303   -7.2373    3.4241 H   0  0  0  0  0  0  0  0  0  0  0  0
   -2.1259   -6.5837    4.9414 H   0  0  0  0  0  0  0  0  0  0  0  0
   -0.1635   -7.0960    6.2584 H   0  0  0  0  0  0  0  0  0  0  0  0
    0.3820  -10.0244    5.1567 H   0  0  0  0  0  0  0  0  0  0  0  0
    1.2384   -9.2736    6.4975 H   0  0  0  0  0  0  0  0  0  0  0  0
    2.1367   -9.8931    5.1243 H   0  0  0  0  0  0  0  0  0  0  0  0
    1.8592   -9.0110    2.9228 H   0  0  0  0  0  0  0  0  0  0  0  0
    0.1644   -8.6138    2.8148 H   0  0  0  0  0  0  0  0  0  0  0  0
    3.5346   -7.4304    2.6651 H   0  0  0  0  0  0  0  0  0  0  0  0
    4.0667   -5.6229   -0.2799 H   0  0  0  0  0  0  0  0  0  0  0  0
    2.3664   -5.3942    0.0649 H   0  0  0  0  0  0  0  0  0  0  0  0
    3.1974   -6.9175    0.3985 H   0  0  0  0  0  0  0  0  0  0  0  0
    5.4860   -5.2624    3.0180 H   0  0  0  0  0  0  0  0  0  0  0  0
    5.5547   -6.3733    1.6980 H   0  0  0  0  0  0  0  0  0  0  0  0
    6.9204   -4.3255    1.4035 H   0  0  0  0  0  0  0  0  0  0  0  0
    5.7811   -4.4597    0.1169 H   0  0  0  0  0  0  0  0  0  0  0  0
    5.6482   -2.6613    2.5607 H   0  0  0  0  0  0  0  0  0  0  0  0
    3.5234   -0.5908   -0.4420 H   0  0  0  0  0  0  0  0  0  0  0  0
    4.0604    0.5983   -2.8764 H   0  0  0  0  0  0  0  0  0  0  0  0
    3.6990   -0.5028   -5.3490 H   0  0  0  0  0  0  0  0  0  0  0  0
    3.6209   -3.7192   -2.8567 H   0  0  0  0  0  0  0  0  0  0  0  0
    2.3001   -2.6625   -0.1273 H   0  0  0  0  0  0  0  0  0  0  0  0
    3.7342   -3.5748   -0.5105 H   0  0  0  0  0  0  0  0  0  0  0  0
    2.2547   -1.3503    2.2370 H   0  0  0  0  0  0  0  0  0  0  0  0
    3.6697   -0.5206    1.6151 H   0  0  0  0  0  0  0  0  0  0  0  0
    3.7778   -1.2796    3.1499 H   0  0  0  0  0  0  0  0  0  0  0  0
    2.0327   -3.9214    2.0271 H   0  0  0  0  0  0  0  0  0  0  0  0
    4.2118   -3.7091    4.1379 H   0  0  0  0  0  0  0  0  0  0  0  0
    2.7244   -2.8267    4.1405 H   0  0  0  0  0  0  0  0  0  0  0  0
    2.6200   -4.6340    5.7519 H   0  0  0  0  0  0  0  0  0  0  0  0
    0.8475   -3.7650    4.6831 H   0  0  0  0  0  0  0  0  0  0  0  0
    4.9834   -5.5784    4.9890 H   0  0  0  0  0  0  0  0  0  0  0  0
    4.9067   -7.2798    4.5212 H   0  0  0  0  0  0  0  0  0  0  0  0
    4.2819   -6.7261    6.0631 H   0  0  0  0  0  0  0  0  0  0  0  0
  1  2  2  0
  1 33  1  0
  1 34  1  0
  2  3  1  0
  2 35  1  0
  3 32  1  0
  3  4  1  1
  3  5  1  0
  4 36  1  0
  4 37  1  0
  4 38  1  0
  5  6  1  0
  5 39  1  0
  5 40  1  0
  6  7  2  0
  6  8  1  0
  8 30  1  0
  8  9  1  0
  8 41  1  1
  9 26  1  0
  9 10  1  6
  9 11  1  0
 10 42  1  0
 10 43  1  0
 10 44  1  0
 11 12  1  0
 11 45  1  0
 11 46  1  0
 12 13  1  0
 12 47  1  0
 12 48  1  0
 13 24  1  0
 13 14  1  0
 13 49  1  1
 14 15  2  0
 14 16  1  0
 16 17  1  0
 17 18  1  0
 17 23  1  0
 17 50  1  1
 18 22  2  0
 18 19  1  0
 19 20  2  0
 19 51  1  0
 20 21  1  0
 20 52  1  0
 21 22  1  0
 22 53  1  0
 23 24  1  0
 23 54  1  0
 23 55  1  0
 24 25  1  1
 24 26  1  0
 25 56  1  0
 25 57  1  0
 25 58  1  0
 26 27  1  0
 26 59  1  6
 27 28  1  0
 27 60  1  0
 27 61  1  0
 28 29  1  0
 28 30  1  0
 28 62  1  1
 29 63  1  0
 30 31  1  1
 30 32  1  0
 31 64  1  0
 31 65  1  0
 31 66  1  0
M  END
>  <i_m_ct_stereo_status>  (54) 
1

>  <s_m_source_file>  (54) 
/var/tmp/pbs.5083856.sched01/tmphzvygrdv/20hie1wr_j.sdf

>  <i_m_source_file_index>  (54) 
3

>  <i_lp_mmshare_version>  (54) 
48012

>  <i_f3d_flags>  (54) 
0

>  <s_epik_input>  (54) 
Tz1DMVtDSDJdW0NAXShbQ0gzXSkoW0NIXT1bQ0gyXSlPW0NAQF0oW0NIM10pKFtDQEBIXTFbQ0BdMjNbQ0gzXSlbQ0BIXShbT0hdKVtDSDJdW0NASF0zW0NAQF00KFtDSDNdKVtDQEBIXShbQ0gyXVtDSDJdMilDKD1PKU9bQ0BIXShbQ0gyXTQpYzVbY0hdW2NIXW9bY0hdNQ==

>  <s_epik_cmdline>  (54) 
J2VwaWtfcHl0aG9uJywgJy1waHQnLCAnMi4wJywgJy1waCcsICc3LjAnLCAnLXRuJywgJzgnLCAnLW1hJywgJzIwMCcsICctaW1hZScsICc8aW5maWxlLm1hZT4nLCAnLW9tYWUnLCAnPG91dGZpbGUubWFlPic=

>  <r_lp_tautomer_probability>  (54) 
1

>  <r_epik_Ionization_Penalty>  (54) 
5.2135e-08

>  <r_epik_Ionization_Penalty_Charging>  (54) 
0

>  <r_epik_Ionization_Penalty_Neutral>  (54) 
5.2135e-08

>  <r_epik_State_Penalty>  (54) 
-0

>  <r_epik_Charging_Adjusted_Penalty>  (54) 
0

>  <i_epik_Tot_Q>  (54) 
0

>  <i_epik_Tot_abs_Q>  (54) 
0

>  <s_epik_Chemistry_Notes>  (54) 
This compound has an ester and may undergo hydrolysis at high or low pH.

>  <s_lp_Force_Field>  (54) 
OPLS3e

>  <r_lp_Energy>  (54) 
56.4624

>  <b_lp_Chiralities_Consistent>  (54) 
1

>  <s_lp_Variant>  (54) 
16:0-1

>  <s_i_glide_gridfile>  (54) 
pfpi4k_grid

>  <i_i_glide_lignum>  (54) 
3

>  <i_i_glide_rotatable_bonds>  (54) 
3

>  <r_i_docking_score>  (54) 
-3.76761

>  <r_i_glide_ligand_efficiency>  (54) 
-0.117738

>  <r_i_glide_ligand_efficiency_sa>  (54) 
-0.373794

>  <r_i_glide_ligand_efficiency_ln>  (54) 
-0.84367

>  <r_i_glide_gscore>  (54) 
-3.76761

>  <r_i_glide_lipo>  (54) 
-0.474237

>  <r_i_glide_hbond>  (54) 
-0.441111

>  <r_i_glide_metal>  (54) 
-0

>  <r_i_glide_rewards>  (54) 
-0.535543

>  <r_i_glide_evdw>  (54) 
-36.1933

>  <r_i_glide_ecoul>  (54) 
-4.56943

>  <r_i_glide_erotb>  (54) 
0.204082

>  <r_i_glide_esite>  (54) 
-0.0257188

>  <r_i_glide_emodel>  (54) 
-49.9001

>  <r_i_glide_energy>  (54) 
-40.7627

>  <r_i_glide_einternal>  (54) 
1.51713

>  <r_i_glide_intrahb_reward>  (54) 
-0

>  <i_i_glide_confnum>  (54) 
1

>  <i_i_glide_posenum>  (54) 
35

>  <r_i_glide_eff_state_penalty>  (54) 
0

>  <ligand_id>  (54) 
16

>  <original_smiles>  (54) 
C=CC1(C)CC(=O)C2C3(C)CCC4C(=O)OC(c5ccoc5)CC4(C)C3CC(O)C2(C)O1

>  <smiles>  (54) 
[H]OC1([H])C([H])([H])C2([H])C3(C([H])([H])[H])C([H])([H])C([H])(c4c([H])oc([H])c4[H])OC(=O)C3([H])C([H])([H])C([H])([H])C2(C([H])([H])[H])C2([H])C(=O)C([H])([H])C(C([H])=C([H])[H])(C([H])([H])[H])OC12C([H])([H])[H]

$$$$
16:0:1
     RDKit          3D

 66 70  0  0  1  0  0  0  0  0999 V2000
   -1.2964   -7.0607    4.4776 C   0  0  0  0  0  0  0  0  0  0  0  0
   -0.2100   -7.3318    5.2311 C   0  0  0  0  0  0  0  0  0  0  0  0
    1.0846   -8.0006    4.7708 C   0  0  1  0  0  0  0  0  0  0  0  0
    1.2080   -9.3449    5.5108 C   0  0  0  0  0  0  0  0  0  0  0  0
    1.1388   -8.2639    3.2528 C   0  0  0  0  0  0  0  0  0  0  0  0
    1.5120   -6.9721    2.5445 C   0  0  0  0  0  0  0  0  0  0  0  0
    0.7147   -6.3377    1.8440 O   0  0  0  0  0  0  0  0  0  0  0  0
    2.9314   -6.5030    2.9109 C   0  0  1  0  0  0  0  0  0  0  0  0
    3.5655   -5.3841    1.9743 C   0  0  2  0  0  0  0  0  0  0  0  0
    3.2883   -5.8501    0.5133 C   0  0  0  0  0  0  0  0  0  0  0  0
    5.1124   -5.3379    2.1064 C   0  0  0  0  0  0  0  0  0  0  0  0
    5.7910   -4.2127    1.2974 C   0  0  0  0  0  0  0  0  0  0  0  0
    5.2250   -2.8138    1.6141 C   0  0  1  0  0  0  0  0  0  0  0  0
    5.9518   -1.7797    0.7314 C   0  0  0  0  0  0  0  0  0  0  0  0
    7.0994   -1.4564    0.9995 O   0  0  0  0  0  0  0  0  0  0  0  0
    5.3359   -1.3288   -0.3857 O   0  0  0  0  0  0  0  0  0  0  0  0
    3.9595   -1.5215   -0.7161 C   0  0  1  0  0  0  0  0  0  0  0  0
    3.8343   -1.6046   -2.2141 C   0  0  0  0  0  0  0  0  0  0  0  0
    3.8127   -0.5064   -3.1211 C   0  0  0  0  0  0  0  0  0  0  0  0
    3.7051   -1.0360   -4.3684 C   0  0  0  0  0  0  0  0  0  0  0  0
    3.6874   -2.3920   -4.3178 O   0  0  0  0  0  0  0  0  0  0  0  0
    3.7518   -2.7197   -3.0077 C   0  0  0  0  0  0  0  0  0  0  0  0
    3.3074   -2.7087    0.0270 C   0  0  0  0  0  0  0  0  0  0  0  0
    3.6773   -2.7341    1.5337 C   0  0  2  0  0  0  0  0  0  0  0  0
    3.1932   -1.3869    2.1574 C   0  0  0  0  0  0  0  0  0  0  0  0
    3.0046   -3.9471    2.3215 C   0  0  2  0  0  0  0  0  0  0  0  0
    3.0400   -3.7286    3.8802 C   0  0  0  0  0  0  0  0  0  0  0  0
    2.3316   -4.7992    4.7393 C   0  0  1  0  0  0  0  0  0  0  0  0
    0.9533   -4.6374    4.4746 O   0  0  0  0  0  0  0  0  0  0  0  0
    2.8878   -6.2187    4.4453 C   0  0  2  0  0  0  0  0  0  0  0  0
    4.2788   -6.3665    5.1175 C   0  0  0  0  0  0  0  0  0  0  0  0
    2.2495   -7.2719    5.2126 O   0  0  0  0  0  0  0  0  0  0  0  0
   -1.3417   -7.2792    3.4235 H   0  0  0  0  0  0  0  0  0  0  0  0
   -2.1790   -6.6175    4.9135 H   0  0  0  0  0  0  0  0  0  0  0  0
   -0.2331   -7.0773    6.2799 H   0  0  0  0  0  0  0  0  0  0  0  0
    0.3904  -10.0214    5.2533 H   0  0  0  0  0  0  0  0  0  0  0  0
    1.2000   -9.2241    6.5956 H   0  0  0  0  0  0  0  0  0  0  0  0
    2.1406   -9.8475    5.2549 H   0  0  0  0  0  0  0  0  0  0  0  0
    1.8925   -9.0222    3.0302 H   0  0  0  0  0  0  0  0  0  0  0  0
    0.1921   -8.6629    2.8819 H   0  0  0  0  0  0  0  0  0  0  0  0
    3.5389   -7.3981    2.7804 H   0  0  0  0  0  0  0  0  0  0  0  0
    4.0777   -5.6328   -0.2002 H   0  0  0  0  0  0  0  0  0  0  0  0
    2.3639   -5.4382    0.1068 H   0  0  0  0  0  0  0  0  0  0  0  0
    3.2140   -6.9372    0.4827 H   0  0  0  0  0  0  0  0  0  0  0  0
    5.4117   -5.1685    3.1308 H   0  0  0  0  0  0  0  0  0  0  0  0
    5.5441   -6.3031    1.8326 H   0  0  0  0  0  0  0  0  0  0  0  0
    6.8573   -4.2219    1.5353 H   0  0  0  0  0  0  0  0  0  0  0  0
    5.7524   -4.4107    0.2252 H   0  0  0  0  0  0  0  0  0  0  0  0
    5.5129   -2.5777    2.6356 H   0  0  0  0  0  0  0  0  0  0  0  0
    3.4085   -0.6161   -0.4523 H   0  0  0  0  0  0  0  0  0  0  0  0
    3.8615    0.5499   -2.8943 H   0  0  0  0  0  0  0  0  0  0  0  0
    3.6386   -0.6062   -5.3517 H   0  0  0  0  0  0  0  0  0  0  0  0
    3.7473   -3.7836   -2.8081 H   0  0  0  0  0  0  0  0  0  0  0  0
    2.2295   -2.7018   -0.1239 H   0  0  0  0  0  0  0  0  0  0  0  0
    3.6929   -3.5899   -0.4601 H   0  0  0  0  0  0  0  0  0  0  0  0
    2.1025   -1.3569    2.2166 H   0  0  0  0  0  0  0  0  0  0  0  0
    3.5086   -0.5040    1.6068 H   0  0  0  0  0  0  0  0  0  0  0  0
    3.6025   -1.2314    3.1586 H   0  0  0  0  0  0  0  0  0  0  0  0
    1.9511   -3.9323    2.0404 H   0  0  0  0  0  0  0  0  0  0  0  0
    4.0751   -3.6295    4.1977 H   0  0  0  0  0  0  0  0  0  0  0  0
    2.5636   -2.7904    4.1550 H   0  0  0  0  0  0  0  0  0  0  0  0
    2.4834   -4.5681    5.7953 H   0  0  0  0  0  0  0  0  0  0  0  0
    0.8123   -4.7960    3.5514 H   0  0  0  0  0  0  0  0  0  0  0  0
    4.8793   -5.4598    5.1004 H   0  0  0  0  0  0  0  0  0  0  0  0
    4.8597   -7.1716    4.6647 H   0  0  0  0  0  0  0  0  0  0  0  0
    4.1850   -6.6059    6.1792 H   0  0  0  0  0  0  0  0  0  0  0  0
  1  2  2  0
  1 33  1  0
  1 34  1  0
  2  3  1  0
  2 35  1  0
  3 32  1  0
  3  4  1  1
  3  5  1  0
  4 36  1  0
  4 37  1  0
  4 38  1  0
  5  6  1  0
  5 39  1  0
  5 40  1  0
  6  7  2  0
  6  8  1  0
  8 30  1  0
  8  9  1  0
  8 41  1  1
  9 26  1  0
  9 10  1  6
  9 11  1  0
 10 42  1  0
 10 43  1  0
 10 44  1  0
 11 12  1  0
 11 45  1  0
 11 46  1  0
 12 13  1  0
 12 47  1  0
 12 48  1  0
 13 24  1  0
 13 14  1  0
 13 49  1  1
 14 15  2  0
 14 16  1  0
 16 17  1  0
 17 18  1  0
 17 23  1  0
 17 50  1  1
 18 22  2  0
 18 19  1  0
 19 20  2  0
 19 51  1  0
 20 21  1  0
 20 52  1  0
 21 22  1  0
 22 53  1  0
 23 24  1  0
 23 54  1  0
 23 55  1  0
 24 25  1  1
 24 26  1  0
 25 56  1  0
 25 57  1  0
 25 58  1  0
 26 27  1  0
 26 59  1  6
 27 28  1  0
 27 60  1  0
 27 61  1  0
 28 29  1  0
 28 30  1  0
 28 62  1  1
 29 63  1  0
 30 31  1  1
 30 32  1  0
 31 64  1  0
 31 65  1  0
 31 66  1  0
M  END
>  <i_m_ct_stereo_status>  (55) 
1

>  <s_m_source_file>  (55) 
/var/tmp/pbs.5083856.sched01/tmphzvygrdv/20hie1wr_j.sdf

>  <i_m_source_file_index>  (55) 
3

>  <i_lp_mmshare_version>  (55) 
48012

>  <i_f3d_flags>  (55) 
0

>  <s_epik_input>  (55) 
Tz1DMVtDSDJdW0NAXShbQ0gzXSkoW0NIXT1bQ0gyXSlPW0NAQF0oW0NIM10pKFtDQEBIXTFbQ0BdMjNbQ0gzXSlbQ0BIXShbT0hdKVtDSDJdW0NASF0zW0NAQF00KFtDSDNdKVtDQEBIXShbQ0gyXVtDSDJdMilDKD1PKU9bQ0BIXShbQ0gyXTQpYzVbY0hdW2NIXW9bY0hdNQ==

>  <s_epik_cmdline>  (55) 
J2VwaWtfcHl0aG9uJywgJy1waHQnLCAnMi4wJywgJy1waCcsICc3LjAnLCAnLXRuJywgJzgnLCAnLW1hJywgJzIwMCcsICctaW1hZScsICc8aW5maWxlLm1hZT4nLCAnLW9tYWUnLCAnPG91dGZpbGUubWFlPic=

>  <r_lp_tautomer_probability>  (55) 
1

>  <r_epik_Ionization_Penalty>  (55) 
5.2135e-08

>  <r_epik_Ionization_Penalty_Charging>  (55) 
0

>  <r_epik_Ionization_Penalty_Neutral>  (55) 
5.2135e-08

>  <r_epik_State_Penalty>  (55) 
-0

>  <r_epik_Charging_Adjusted_Penalty>  (55) 
0

>  <i_epik_Tot_Q>  (55) 
0

>  <i_epik_Tot_abs_Q>  (55) 
0

>  <s_epik_Chemistry_Notes>  (55) 
This compound has an ester and may undergo hydrolysis at high or low pH.

>  <s_lp_Force_Field>  (55) 
OPLS3e

>  <r_lp_Energy>  (55) 
56.4624

>  <b_lp_Chiralities_Consistent>  (55) 
1

>  <s_lp_Variant>  (55) 
16:0-1

>  <s_i_glide_gridfile>  (55) 
pfpi4k_grid

>  <i_i_glide_lignum>  (55) 
3

>  <i_i_glide_rotatable_bonds>  (55) 
3

>  <r_i_docking_score>  (55) 
-3.67119

>  <r_i_glide_ligand_efficiency>  (55) 
-0.114725

>  <r_i_glide_ligand_efficiency_sa>  (55) 
-0.364228

>  <r_i_glide_ligand_efficiency_ln>  (55) 
-0.82208

>  <r_i_glide_gscore>  (55) 
-3.67119

>  <r_i_glide_lipo>  (55) 
-0.383769

>  <r_i_glide_hbond>  (55) 
-0.419585

>  <r_i_glide_metal>  (55) 
-0

>  <r_i_glide_rewards>  (55) 
-0.539872

>  <r_i_glide_evdw>  (55) 
-36.1402

>  <r_i_glide_ecoul>  (55) 
-4.66893

>  <r_i_glide_erotb>  (55) 
0.204082

>  <r_i_glide_esite>  (55) 
-0.0246994

>  <r_i_glide_emodel>  (55) 
-49.917

>  <r_i_glide_energy>  (55) 
-40.8091

>  <r_i_glide_einternal>  (55) 
1.16541

>  <r_i_glide_intrahb_reward>  (55) 
-0

>  <i_i_glide_confnum>  (55) 
4

>  <i_i_glide_posenum>  (55) 
1

>  <r_i_glide_eff_state_penalty>  (55) 
0

>  <ligand_id>  (55) 
16

>  <original_smiles>  (55) 
C=CC1(C)CC(=O)C2C3(C)CCC4C(=O)OC(c5ccoc5)CC4(C)C3CC(O)C2(C)O1

>  <smiles>  (55) 
[H]OC1([H])C([H])([H])C2([H])C3(C([H])([H])[H])C([H])([H])C([H])(c4c([H])oc([H])c4[H])OC(=O)C3([H])C([H])([H])C([H])([H])C2(C([H])([H])[H])C2([H])C(=O)C([H])([H])C(C([H])=C([H])[H])(C([H])([H])[H])OC12C([H])([H])[H]

$$$$
16:0:2
     RDKit          3D

 66 70  0  0  1  0  0  0  0  0999 V2000
   -1.1751   -8.0676    3.6988 C   0  0  0  0  0  0  0  0  0  0  0  0
   -0.1855   -8.2940    4.5805 C   0  0  0  0  0  0  0  0  0  0  0  0
    1.2547   -8.7239    4.2736 C   0  0  1  0  0  0  0  0  0  0  0  0
    1.5091  -10.0646    4.9866 C   0  0  0  0  0  0  0  0  0  0  0  0
    1.5449   -8.9099    2.7669 C   0  0  0  0  0  0  0  0  0  0  0  0
    1.8072   -7.5561    2.1340 C   0  0  0  0  0  0  0  0  0  0  0  0
    1.0380   -7.0470    1.3112 O   0  0  0  0  0  0  0  0  0  0  0  0
    3.0710   -6.8842    2.7015 C   0  0  1  0  0  0  0  0  0  0  0  0
    3.6323   -5.6407    1.8838 C   0  0  2  0  0  0  0  0  0  0  0  0
    3.6322   -6.0764    0.3932 C   0  0  0  0  0  0  0  0  0  0  0  0
    5.1225   -5.3506    2.2180 C   0  0  0  0  0  0  0  0  0  0  0  0
    5.7012   -4.1022    1.5233 C   0  0  0  0  0  0  0  0  0  0  0  0
    4.8791   -2.8258    1.7959 C   0  0  1  0  0  0  0  0  0  0  0  0
    5.5316   -1.6437    1.0586 C   0  0  0  0  0  0  0  0  0  0  0  0
    6.5418   -1.1252    1.5229 O   0  0  0  0  0  0  0  0  0  0  0  0
    5.0168   -1.2649   -0.1434 O   0  0  0  0  0  0  0  0  0  0  0  0
    3.7409   -1.6544   -0.6609 C   0  0  1  0  0  0  0  0  0  0  0  0
    3.8123   -1.6964   -2.1722 C   0  0  0  0  0  0  0  0  0  0  0  0
    3.8332   -0.5688   -3.0470 C   0  0  0  0  0  0  0  0  0  0  0  0
    3.9009   -1.0533   -4.3210 C   0  0  0  0  0  0  0  0  0  0  0  0
    3.9381   -2.4113   -4.3143 O   0  0  0  0  0  0  0  0  0  0  0  0
    3.8720   -2.7826   -3.0059 C   0  0  0  0  0  0  0  0  0  0  0  0
    3.1928   -2.9536   -0.0318 C   0  0  0  0  0  0  0  0  0  0  0  0
    3.3633   -2.9886    1.5124 C   0  0  2  0  0  0  0  0  0  0  0  0
    2.5894   -1.7623    2.0935 C   0  0  0  0  0  0  0  0  0  0  0  0
    2.8007   -4.3234    2.1775 C   0  0  2  0  0  0  0  0  0  0  0  0
    2.5986   -4.1668    3.7310 C   0  0  0  0  0  0  0  0  0  0  0  0
    1.9774   -5.3761    4.4671 C   0  0  1  0  0  0  0  0  0  0  0  0
    0.6360   -5.4577    4.0336 O   0  0  0  0  0  0  0  0  0  0  0  0
    2.7871   -6.6750    4.2226 C   0  0  2  0  0  0  0  0  0  0  0  0
    4.0852   -6.6282    5.0669 C   0  0  0  0  0  0  0  0  0  0  0  0
    2.2147   -7.8364    4.8816 O   0  0  0  0  0  0  0  0  0  0  0  0
   -1.0246   -8.1509    2.6336 H   0  0  0  0  0  0  0  0  0  0  0  0
   -2.1695   -7.7987    4.0283 H   0  0  0  0  0  0  0  0  0  0  0  0
   -0.4123   -8.1925    5.6314 H   0  0  0  0  0  0  0  0  0  0  0  0
    0.8533  -10.8506    4.6111 H   0  0  0  0  0  0  0  0  0  0  0  0
    1.3481   -9.9940    6.0647 H   0  0  0  0  0  0  0  0  0  0  0  0
    2.5388  -10.3982    4.8424 H   0  0  0  0  0  0  0  0  0  0  0  0
    2.4321   -9.5320    2.6299 H   0  0  0  0  0  0  0  0  0  0  0  0
    0.7285   -9.4303    2.2640 H   0  0  0  0  0  0  0  0  0  0  0  0
    3.8297   -7.6645    2.6329 H   0  0  0  0  0  0  0  0  0  0  0  0
    4.4499   -5.6887   -0.2068 H   0  0  0  0  0  0  0  0  0  0  0  0
    2.7048   -5.8024   -0.1123 H   0  0  0  0  0  0  0  0  0  0  0  0
    3.7611   -7.1529    0.2995 H   0  0  0  0  0  0  0  0  0  0  0  0
    5.2597   -5.1809    3.2775 H   0  0  0  0  0  0  0  0  0  0  0  0
    5.7325   -6.2247    1.9780 H   0  0  0  0  0  0  0  0  0  0  0  0
    6.7148   -3.9504    1.8954 H   0  0  0  0  0  0  0  0  0  0  0  0
    5.8275   -4.2547    0.4504 H   0  0  0  0  0  0  0  0  0  0  0  0
    4.9892   -2.5939    2.8552 H   0  0  0  0  0  0  0  0  0  0  0  0
    3.0272   -0.8501   -0.4595 H   0  0  0  0  0  0  0  0  0  0  0  0
    3.8143    0.4752   -2.7769 H   0  0  0  0  0  0  0  0  0  0  0  0
    3.9485   -0.5801   -5.2860 H   0  0  0  0  0  0  0  0  0  0  0  0
    3.8939   -3.8529   -2.8430 H   0  0  0  0  0  0  0  0  0  0  0  0
    2.1506   -3.1125   -0.3237 H   0  0  0  0  0  0  0  0  0  0  0  0
    3.7658   -3.7474   -0.4817 H   0  0  0  0  0  0  0  0  0  0  0  0
    1.5082   -1.9084    2.0094 H   0  0  0  0  0  0  0  0  0  0  0  0
    2.8229   -0.8187    1.6033 H   0  0  0  0  0  0  0  0  0  0  0  0
    2.8371   -1.5857    3.1431 H   0  0  0  0  0  0  0  0  0  0  0  0
    1.8051   -4.4750    1.7628 H   0  0  0  0  0  0  0  0  0  0  0  0
    3.5527   -3.9150    4.1903 H   0  0  0  0  0  0  0  0  0  0  0  0
    1.9378   -3.3335    3.9586 H   0  0  0  0  0  0  0  0  0  0  0  0
    1.9518   -5.1661    5.5376 H   0  0  0  0  0  0  0  0  0  0  0  0
    0.2433   -6.2015    4.4657 H   0  0  0  0  0  0  0  0  0  0  0  0
    4.5271   -5.6372    5.1456 H   0  0  0  0  0  0  0  0  0  0  0  0
    4.8397   -7.3132    4.6754 H   0  0  0  0  0  0  0  0  0  0  0  0
    3.8956   -6.9228    6.1026 H   0  0  0  0  0  0  0  0  0  0  0  0
  1  2  2  0
  1 33  1  0
  1 34  1  0
  2  3  1  0
  2 35  1  0
  3 32  1  0
  3  4  1  1
  3  5  1  0
  4 36  1  0
  4 37  1  0
  4 38  1  0
  5  6  1  0
  5 39  1  0
  5 40  1  0
  6  7  2  0
  6  8  1  0
  8 30  1  0
  8  9  1  0
  8 41  1  1
  9 26  1  0
  9 10  1  6
  9 11  1  0
 10 42  1  0
 10 43  1  0
 10 44  1  0
 11 12  1  0
 11 45  1  0
 11 46  1  0
 12 13  1  0
 12 47  1  0
 12 48  1  0
 13 24  1  0
 13 14  1  0
 13 49  1  1
 14 15  2  0
 14 16  1  0
 16 17  1  0
 17 18  1  0
 17 23  1  0
 17 50  1  6
 18 22  2  0
 18 19  1  0
 19 20  2  0
 19 51  1  0
 20 21  1  0
 20 52  1  0
 21 22  1  0
 22 53  1  0
 23 24  1  0
 23 54  1  0
 23 55  1  0
 24 25  1  1
 24 26  1  0
 25 56  1  0
 25 57  1  0
 25 58  1  0
 26 27  1  0
 26 59  1  6
 27 28  1  0
 27 60  1  0
 27 61  1  0
 28 29  1  0
 28 30  1  0
 28 62  1  1
 29 63  1  0
 30 31  1  1
 30 32  1  0
 31 64  1  0
 31 65  1  0
 31 66  1  0
M  END
>  <i_m_ct_stereo_status>  (56) 
1

>  <s_m_source_file>  (56) 
/var/tmp/pbs.5083856.sched01/tmphzvygrdv/20hie1wr_j.sdf

>  <i_m_source_file_index>  (56) 
3

>  <i_lp_mmshare_version>  (56) 
48012

>  <i_f3d_flags>  (56) 
0

>  <s_epik_input>  (56) 
Tz1DMVtDSDJdW0NAXShbQ0gzXSkoW0NIXT1bQ0gyXSlPW0NAQF0oW0NIM10pKFtDQEBIXTFbQ0BdMjNbQ0gzXSlbQ0BIXShbT0hdKVtDSDJdW0NASF0zW0NAQF00KFtDSDNdKVtDQEBIXShbQ0gyXVtDSDJdMilDKD1PKU9bQ0BIXShbQ0gyXTQpYzVbY0hdW2NIXW9bY0hdNQ==

>  <s_epik_cmdline>  (56) 
J2VwaWtfcHl0aG9uJywgJy1waHQnLCAnMi4wJywgJy1waCcsICc3LjAnLCAnLXRuJywgJzgnLCAnLW1hJywgJzIwMCcsICctaW1hZScsICc8aW5maWxlLm1hZT4nLCAnLW9tYWUnLCAnPG91dGZpbGUubWFlPic=

>  <r_lp_tautomer_probability>  (56) 
1

>  <r_epik_Ionization_Penalty>  (56) 
5.2135e-08

>  <r_epik_Ionization_Penalty_Charging>  (56) 
0

>  <r_epik_Ionization_Penalty_Neutral>  (56) 
5.2135e-08

>  <r_epik_State_Penalty>  (56) 
-0

>  <r_epik_Charging_Adjusted_Penalty>  (56) 
0

>  <i_epik_Tot_Q>  (56) 
0

>  <i_epik_Tot_abs_Q>  (56) 
0

>  <s_epik_Chemistry_Notes>  (56) 
This compound has an ester and may undergo hydrolysis at high or low pH.

>  <s_lp_Force_Field>  (56) 
OPLS3e

>  <r_lp_Energy>  (56) 
56.4624

>  <b_lp_Chiralities_Consistent>  (56) 
1

>  <s_lp_Variant>  (56) 
16:0-1

>  <s_i_glide_gridfile>  (56) 
pfpi4k_grid

>  <i_i_glide_lignum>  (56) 
3

>  <i_i_glide_rotatable_bonds>  (56) 
3

>  <r_i_docking_score>  (56) 
-3.35468

>  <r_i_glide_ligand_efficiency>  (56) 
-0.104834

>  <r_i_glide_ligand_efficiency_sa>  (56) 
-0.332827

>  <r_i_glide_ligand_efficiency_ln>  (56) 
-0.751205

>  <r_i_glide_gscore>  (56) 
-3.35468

>  <r_i_glide_lipo>  (56) 
-0.372355

>  <r_i_glide_hbond>  (56) 
-0.32

>  <r_i_glide_metal>  (56) 
-0

>  <r_i_glide_rewards>  (56) 
-0.537055

>  <r_i_glide_evdw>  (56) 
-37.8199

>  <r_i_glide_ecoul>  (56) 
-2.78593

>  <r_i_glide_erotb>  (56) 
0.204082

>  <r_i_glide_esite>  (56) 
-0.0204719

>  <r_i_glide_emodel>  (56) 
-48.7543

>  <r_i_glide_energy>  (56) 
-40.6058

>  <r_i_glide_einternal>  (56) 
1.40215

>  <r_i_glide_intrahb_reward>  (56) 
-0

>  <i_i_glide_confnum>  (56) 
4

>  <i_i_glide_posenum>  (56) 
11

>  <r_i_glide_eff_state_penalty>  (56) 
0

>  <ligand_id>  (56) 
16

>  <original_smiles>  (56) 
C=CC1(C)CC(=O)C2C3(C)CCC4C(=O)OC(c5ccoc5)CC4(C)C3CC(O)C2(C)O1

>  <smiles>  (56) 
[H]OC1([H])C([H])([H])C2([H])C3(C([H])([H])[H])C([H])([H])C([H])(c4c([H])oc([H])c4[H])OC(=O)C3([H])C([H])([H])C([H])([H])C2(C([H])([H])[H])C2([H])C(=O)C([H])([H])C(C([H])=C([H])[H])(C([H])([H])[H])OC12C([H])([H])[H]

$$$$
17:0:0
     RDKit          3D

 64 70  0  0  1  0  0  0  0  0999 V2000
    3.1126  -12.4948    4.6760 C   0  0  0  0  0  0  0  0  0  0  0  0
    3.1412  -12.1645    3.2237 N   0  0  0  0  0  0  0  0  0  0  0  0
    3.4876  -10.7618    2.8435 C   0  0  2  0  0  0  0  0  0  0  0  0
    5.0050  -10.4126    3.1714 C   0  0  1  0  0  0  0  0  0  0  0  0
    5.8006  -10.7588    2.0466 O   0  0  0  0  0  0  0  0  0  0  0  0
    5.5054   -8.9976    3.7345 C   0  0  1  0  0  0  0  0  0  0  0  0
    5.0914   -7.6521    3.0559 C   0  0  1  0  0  0  0  0  0  0  0  0
    5.2345   -7.5222    1.5632 N   0  0  2  0  0  0  0  0  0  0  0  0
    5.3392   -6.1202    1.0470 C   0  0  0  0  0  0  0  0  0  0  0  0
    6.5283   -5.3281    1.5736 C   0  0  0  0  0  0  0  0  0  0  0  0
    7.1026   -4.1918    0.7487 C   0  0  0  0  0  0  0  0  0  0  0  0
    7.8873   -5.4642    0.9221 C   0  0  0  0  0  0  0  0  0  0  0  0
    4.2268   -8.2781    0.7808 C   0  0  0  0  0  0  0  0  0  0  0  0
    2.8140   -8.1454    1.3670 C   0  0  0  0  0  0  0  0  0  0  0  0
    2.7127   -8.3348    2.9061 C   0  0  1  0  0  0  0  0  0  0  0  0
    1.4593   -7.7690    3.3100 C   0  0  0  0  0  0  0  0  0  0  0  0
    1.4602   -6.4660    3.7287 C   0  0  0  0  0  0  0  0  0  0  0  0
    0.2077   -5.9567    4.0960 C   0  0  0  0  0  0  0  0  0  0  0  0
   -0.9144   -6.8477    4.0230 C   0  0  0  0  0  0  0  0  0  0  0  0
   -0.7784   -8.2308    3.6768 C   0  0  0  0  0  0  0  0  0  0  0  0
   -1.8712   -9.0438    3.6771 O   0  0  0  0  0  0  0  0  0  0  0  0
    0.4917   -8.7280    3.3280 C   0  0  0  0  0  0  0  0  0  0  0  0
    1.0359   -9.9749    3.1002 O   0  0  0  0  0  0  0  0  0  0  0  0
    2.4505   -9.7723    3.3846 C   0  0  1  0  0  0  0  0  0  0  0  0
    2.9424   -6.0809    3.7827 C   0  0  0  0  0  0  0  0  0  0  0  0
    3.6986   -7.4573    3.6618 C   0  0  2  0  0  0  0  0  0  0  0  0
    3.8452   -7.9388    5.0079 O   0  0  0  0  0  0  0  0  0  0  0  0
    5.0577   -8.6682    5.2013 C   0  0  0  0  0  0  0  0  0  0  0  0
    4.7786   -9.8439    6.1502 C   0  0  0  0  0  0  0  0  0  0  0  0
    6.0366   -7.7510    5.9657 C   0  0  0  0  0  0  0  0  0  0  0  0
    2.7865  -13.5027    4.8784 H   0  0  0  0  0  0  0  0  0  0  0  0
    2.4101  -11.8672    5.2282 H   0  0  0  0  0  0  0  0  0  0  0  0
    4.1089  -12.4493    5.1131 H   0  0  0  0  0  0  0  0  0  0  0  0
    3.7862  -12.7861    2.7565 H   0  0  0  0  0  0  0  0  0  0  0  0
    3.3413  -10.7137    1.7679 H   0  0  0  0  0  0  0  0  0  0  0  0
    5.3570  -11.1261    3.9147 H   0  0  0  0  0  0  0  0  0  0  0  0
    5.3167  -11.3826    1.5018 H   0  0  0  0  0  0  0  0  0  0  0  0
    6.5974   -9.0659    3.7253 H   0  0  0  0  0  0  0  0  0  0  0  0
    5.7492   -6.9066    3.4737 H   0  0  0  0  0  0  0  0  0  0  0  0
    5.4456   -6.1455   -0.0381 H   0  0  0  0  0  0  0  0  0  0  0  0
    4.4287   -5.5562    1.2297 H   0  0  0  0  0  0  0  0  0  0  0  0
    6.5068   -5.1044    2.6414 H   0  0  0  0  0  0  0  0  0  0  0  0
    6.6668   -3.9901   -0.2285 H   0  0  0  0  0  0  0  0  0  0  0  0
    7.4706   -3.3165    1.2811 H   0  0  0  0  0  0  0  0  0  0  0  0
    8.7504   -5.4474    1.5856 H   0  0  0  0  0  0  0  0  0  0  0  0
    7.9607   -6.1459    0.0780 H   0  0  0  0  0  0  0  0  0  0  0  0
    4.2199   -7.9338   -0.2528 H   0  0  0  0  0  0  0  0  0  0  0  0
    4.5156   -9.3115    0.6772 H   0  0  0  0  0  0  0  0  0  0  0  0
    2.4511   -7.1466    1.1018 H   0  0  0  0  0  0  0  0  0  0  0  0
    2.1247   -8.8453    0.8877 H   0  0  0  0  0  0  0  0  0  0  0  0
    0.0917   -4.9368    4.4379 H   0  0  0  0  0  0  0  0  0  0  0  0
   -1.8954   -6.4837    4.2693 H   0  0  0  0  0  0  0  0  0  0  0  0
   -1.8222   -9.8239    4.2543 H   0  0  0  0  0  0  0  0  0  0  0  0
    2.4828   -9.7868    4.4677 H   0  0  0  0  0  0  0  0  0  0  0  0
    3.1470   -5.4146    2.9514 H   0  0  0  0  0  0  0  0  0  0  0  0
    3.1999   -5.5625    4.7070 H   0  0  0  0  0  0  0  0  0  0  0  0
    5.6588  -10.4687    6.3094 H   0  0  0  0  0  0  0  0  0  0  0  0
    3.9775  -10.4368    5.7694 H   0  0  0  0  0  0  0  0  0  0  0  0
    4.4348   -9.4978    7.1271 H   0  0  0  0  0  0  0  0  0  0  0  0
    7.0230   -8.2131    6.0413 H   0  0  0  0  0  0  0  0  0  0  0  0
    5.6801   -7.6056    6.9863 H   0  0  0  0  0  0  0  0  0  0  0  0
    6.1474   -6.7542    5.5381 H   0  0  0  0  0  0  0  0  0  0  0  0
    2.2206  -12.3724    2.8598 H   0  0  0  0  0  0  0  0  0  0  0  0
    6.1238   -7.9374    1.3304 H   0  0  0  0  0  0  0  0  0  0  0  0
  1  2  1  0
  1 31  1  0
  1 32  1  0
  1 33  1  0
  2  3  1  0
  2 34  1  0
  2 63  1  0
  3 24  1  0
  3  4  1  0
  3 35  1  6
  4  5  1  0
  4  6  1  0
  4 36  1  1
  5 37  1  0
  6 28  1  0
  6  7  1  0
  6 38  1  1
  7 26  1  0
  7  8  1  0
  7 39  1  1
  8  9  1  0
  8 13  1  0
  8 64  1  6
  9 10  1  0
  9 40  1  0
  9 41  1  0
 10 12  1  0
 10 11  1  0
 10 42  1  0
 11 12  1  0
 11 43  1  0
 11 44  1  0
 12 45  1  0
 12 46  1  0
 13 14  1  0
 13 47  1  0
 13 48  1  0
 15 14  1  6
 14 49  1  0
 14 50  1  0
 15 24  1  0
 15 26  1  0
 15 16  1  0
 16 22  1  0
 16 17  2  0
 17 18  1  0
 17 25  1  0
 18 19  2  0
 18 51  1  0
 19 20  1  0
 19 52  1  0
 20 21  1  0
 20 22  2  0
 21 53  1  0
 22 23  1  0
 23 24  1  0
 24 54  1  1
 25 26  1  0
 25 55  1  0
 25 56  1  0
 26 27  1  1
 27 28  1  0
 28 29  1  0
 28 30  1  0
 29 57  1  0
 29 58  1  0
 29 59  1  0
 30 60  1  0
 30 61  1  0
 30 62  1  0
M  CHG  2   2   1   8   1
M  END
>  <i_m_ct_stereo_status>  (57) 
1

>  <s_m_source_file>  (57) 
/var/tmp/pbs.5083856.sched01/tmphzvygrdv/20hie1wr_j.sdf

>  <i_m_source_file_index>  (57) 
4

>  <i_lp_mmshare_version>  (57) 
48012

>  <i_f3d_flags>  (57) 
0

>  <s_epik_input>  (57) 
W0NIMl0xW0NIMl1bQ0hdMVtDSDJdTihbQ0gyXVtDSDJdMilbQ0BASF0oW0NAXTM0W0NAXTI1NilbQ0BASF0oQyhPNCkoW0NIM10pW0NIM10pW0NASF0oW09IXSlbQ0BASF0oW05IXVtDSDNdKVtDQEBIXTZPYzdjNWMoW0NIMl0zKVtjSF1bY0hdYzdbT0hd

>  <s_epik_cmdline>  (57) 
J2VwaWtfcHl0aG9uJywgJy1waHQnLCAnMi4wJywgJy1waCcsICc3LjAnLCAnLXRuJywgJzgnLCAnLW1hJywgJzIwMCcsICctaW1hZScsICc8aW5maWxlLm1hZT4nLCAnLW9tYWUnLCAnPG91dGZpbGUubWFlPic=

>  <r_lp_tautomer_probability>  (57) 
1

>  <r_epik_Ionization_Penalty>  (57) 
0.367376

>  <r_epik_Ionization_Penalty_Charging>  (57) 
0.361169

>  <r_epik_Ionization_Penalty_Neutral>  (57) 
0.00620704

>  <r_epik_State_Penalty>  (57) 
0.314829

>  <r_epik_Charging_Adjusted_Penalty>  (57) 
0.675998

>  <i_epik_Tot_Q>  (57) 
2

>  <i_epik_Tot_abs_Q>  (57) 
2

>  <s_lp_Force_Field>  (57) 
OPLS3e

>  <r_lp_Energy>  (57) 
115.151

>  <b_lp_Chiralities_Consistent>  (57) 
1

>  <s_lp_Variant>  (57) 
17:0-1

>  <s_i_glide_gridfile>  (57) 
pfpi4k_grid

>  <i_i_glide_lignum>  (57) 
4

>  <i_i_glide_rotatable_bonds>  (57) 
5

>  <r_i_docking_score>  (57) 
-4.0278

>  <r_i_glide_ligand_efficiency>  (57) 
-0.13426

>  <r_i_glide_ligand_efficiency_sa>  (57) 
-0.417177

>  <r_i_glide_ligand_efficiency_ln>  (57) 
-0.91516

>  <r_i_glide_gscore>  (57) 
-4.0278

>  <r_i_glide_lipo>  (57) 
-0.402153

>  <r_i_glide_hbond>  (57) 
-0.152

>  <r_i_glide_metal>  (57) 
-0

>  <r_i_glide_rewards>  (57) 
-0.582697

>  <r_i_glide_evdw>  (57) 
-16.7834

>  <r_i_glide_ecoul>  (57) 
-14.8569

>  <r_i_glide_erotb>  (57) 
0.229728

>  <r_i_glide_esite>  (57) 
-0.0529809

>  <r_i_glide_emodel>  (57) 
-40.1082

>  <r_i_glide_energy>  (57) 
-31.6402

>  <r_i_glide_einternal>  (57) 
6.12268

>  <r_i_glide_intrahb_reward>  (57) 
-0

>  <i_i_glide_confnum>  (57) 
4

>  <i_i_glide_posenum>  (57) 
10

>  <r_i_glide_eff_state_penalty>  (57) 
0

>  <ligand_id>  (57) 
17

>  <original_smiles>  (57) 
CNC1C(O)C2C3N(CC4CC4)CCC45c6c(ccc(O)c6OC14)CC35OC2(C)C

>  <smiles>  (57) 
[H]Oc1c([H])c([H])c2c3c1OC1([H])C34C([H])([H])C([H])([H])[N+]([H])(C([H])([H])C3([H])C([H])([H])C3([H])[H])C3([H])C([H])(C([H])(O[H])C1([H])[N+]([H])([H])C([H])([H])[H])C(C([H])([H])[H])(C([H])([H])[H])OC43C2([H])[H]

$$$$
17:0:1
     RDKit          3D

 64 70  0  0  1  0  0  0  0  0999 V2000
    5.0514  -12.2918    6.9141 C   0  0  0  0  0  0  0  0  0  0  0  0
    3.8085  -11.6417    6.4581 N   0  0  0  0  0  0  0  0  0  0  0  0
    3.9084  -10.1850    6.1894 C   0  0  2  0  0  0  0  0  0  0  0  0
    4.2512   -9.3673    7.5110 C   0  0  1  0  0  0  0  0  0  0  0  0
    5.6562   -9.2576    7.6556 O   0  0  0  0  0  0  0  0  0  0  0  0
    3.6062   -7.9637    7.9105 C   0  0  1  0  0  0  0  0  0  0  0  0
    3.5129   -6.7736    6.9124 C   0  0  1  0  0  0  0  0  0  0  0  0
    4.7437   -6.3839    6.1361 N   0  0  2  0  0  0  0  0  0  0  0  0
    4.7664   -4.9752    5.6271 C   0  0  0  0  0  0  0  0  0  0  0  0
    4.8171   -3.8969    6.6939 C   0  0  0  0  0  0  0  0  0  0  0  0
    5.1340   -2.4708    6.2928 C   0  0  0  0  0  0  0  0  0  0  0  0
    6.1318   -3.2704    7.0874 C   0  0  0  0  0  0  0  0  0  0  0  0
    5.1057   -7.3308    5.0512 C   0  0  0  0  0  0  0  0  0  0  0  0
    3.8859   -7.8011    4.2533 C   0  0  0  0  0  0  0  0  0  0  0  0
    2.6605   -8.2401    5.1061 C   0  0  1  0  0  0  0  0  0  0  0  0
    1.5221   -8.2231    4.2320 C   0  0  0  0  0  0  0  0  0  0  0  0
    0.7793   -7.0701    4.1799 C   0  0  0  0  0  0  0  0  0  0  0  0
   -0.3165   -7.1050    3.2915 C   0  0  0  0  0  0  0  0  0  0  0  0
   -0.5341   -8.3111    2.5544 C   0  0  0  0  0  0  0  0  0  0  0  0
    0.2528   -9.4933    2.7750 C   0  0  0  0  0  0  0  0  0  0  0  0
   -0.0108  -10.6363    2.0880 O   0  0  0  0  0  0  0  0  0  0  0  0
    1.3204   -9.4561    3.7007 C   0  0  0  0  0  0  0  0  0  0  0  0
    2.1870  -10.3794    4.2588 O   0  0  0  0  0  0  0  0  0  0  0  0
    2.6186   -9.7307    5.4925 C   0  0  1  0  0  0  0  0  0  0  0  0
    1.3456   -6.1953    5.3017 C   0  0  0  0  0  0  0  0  0  0  0  0
    2.2643   -7.1818    6.1222 C   0  0  2  0  0  0  0  0  0  0  0  0
    1.4073   -7.7707    7.1152 O   0  0  0  0  0  0  0  0  0  0  0  0
    2.1024   -8.0509    8.3306 C   0  0  0  0  0  0  0  0  0  0  0  0
    1.6087   -9.3993    8.9039 C   0  0  0  0  0  0  0  0  0  0  0  0
    1.6759   -6.9648    9.3520 C   0  0  0  0  0  0  0  0  0  0  0  0
    4.8879  -13.3534    7.0694 H   0  0  0  0  0  0  0  0  0  0  0  0
    5.4035  -11.8904    7.8644 H   0  0  0  0  0  0  0  0  0  0  0  0
    5.8592  -12.1772    6.1861 H   0  0  0  0  0  0  0  0  0  0  0  0
    3.5340  -12.1009    5.6011 H   0  0  0  0  0  0  0  0  0  0  0  0
    4.7180  -10.0874    5.4616 H   0  0  0  0  0  0  0  0  0  0  0  0
    4.0079  -10.0211    8.3475 H   0  0  0  0  0  0  0  0  0  0  0  0
    6.0319   -8.7663    6.9440 H   0  0  0  0  0  0  0  0  0  0  0  0
    4.1635   -7.6340    8.7921 H   0  0  0  0  0  0  0  0  0  0  0  0
    3.2622   -5.9088    7.5020 H   0  0  0  0  0  0  0  0  0  0  0  0
    5.6502   -4.8194    5.0141 H   0  0  0  0  0  0  0  0  0  0  0  0
    3.9408   -4.7856    4.9512 H   0  0  0  0  0  0  0  0  0  0  0  0
    4.0487   -3.9413    7.4601 H   0  0  0  0  0  0  0  0  0  0  0  0
    5.3722   -2.2554    5.2524 H   0  0  0  0  0  0  0  0  0  0  0  0
    4.6265   -1.6654    6.8208 H   0  0  0  0  0  0  0  0  0  0  0  0
    6.2575   -3.0204    8.1391 H   0  0  0  0  0  0  0  0  0  0  0  0
    7.0276   -3.6187    6.5767 H   0  0  0  0  0  0  0  0  0  0  0  0
    5.8230   -6.8841    4.3693 H   0  0  0  0  0  0  0  0  0  0  0  0
    5.6581   -8.1632    5.4486 H   0  0  0  0  0  0  0  0  0  0  0  0
    3.5994   -6.9717    3.6052 H   0  0  0  0  0  0  0  0  0  0  0  0
    4.1848   -8.5922    3.5631 H   0  0  0  0  0  0  0  0  0  0  0  0
   -0.9835   -6.2673    3.1967 H   0  0  0  0  0  0  0  0  0  0  0  0
   -1.3390   -8.3399    1.8318 H   0  0  0  0  0  0  0  0  0  0  0  0
   -0.1842  -10.4620    1.1548 H   0  0  0  0  0  0  0  0  0  0  0  0
    1.7790   -9.9228    6.1607 H   0  0  0  0  0  0  0  0  0  0  0  0
    1.9002   -5.3884    4.8339 H   0  0  0  0  0  0  0  0  0  0  0  0
    0.5690   -5.7460    5.9299 H   0  0  0  0  0  0  0  0  0  0  0  0
    2.0714   -9.6269    9.8631 H   0  0  0  0  0  0  0  0  0  0  0  0
    1.7885  -10.2541    8.2587 H   0  0  0  0  0  0  0  0  0  0  0  0
    0.5336   -9.3782    9.0667 H   0  0  0  0  0  0  0  0  0  0  0  0
    2.2527   -7.0273   10.2757 H   0  0  0  0  0  0  0  0  0  0  0  0
    0.6303   -7.0864    9.6343 H   0  0  0  0  0  0  0  0  0  0  0  0
    1.7596   -5.9444    8.9830 H   0  0  0  0  0  0  0  0  0  0  0  0
    3.0626  -11.8391    7.1229 H   0  0  0  0  0  0  0  0  0  0  0  0
    5.5157   -6.3925    6.7899 H   0  0  0  0  0  0  0  0  0  0  0  0
  1  2  1  0
  1 31  1  0
  1 32  1  0
  1 33  1  0
  2  3  1  0
  2 34  1  0
  2 63  1  0
  3 24  1  0
  3  4  1  0
  3 35  1  6
  4  5  1  0
  4  6  1  0
  4 36  1  1
  5 37  1  0
  6 28  1  0
  6  7  1  0
  6 38  1  1
  7 26  1  0
  7  8  1  0
  7 39  1  1
  8  9  1  0
  8 13  1  0
  8 64  1  1
  9 10  1  0
  9 40  1  0
  9 41  1  0
 10 12  1  0
 10 11  1  0
 10 42  1  0
 11 12  1  0
 11 43  1  0
 11 44  1  0
 12 45  1  0
 12 46  1  0
 13 14  1  0
 13 47  1  0
 13 48  1  0
 15 14  1  6
 14 49  1  0
 14 50  1  0
 15 24  1  0
 15 26  1  0
 15 16  1  0
 16 22  1  0
 16 17  2  0
 17 18  1  0
 17 25  1  0
 18 19  2  0
 18 51  1  0
 19 20  1  0
 19 52  1  0
 20 21  1  0
 20 22  2  0
 21 53  1  0
 22 23  1  0
 23 24  1  0
 24 54  1  1
 25 26  1  0
 25 55  1  0
 25 56  1  0
 26 27  1  1
 27 28  1  0
 28 29  1  0
 28 30  1  0
 29 57  1  0
 29 58  1  0
 29 59  1  0
 30 60  1  0
 30 61  1  0
 30 62  1  0
M  CHG  2   2   1   8   1
M  END
>  <i_m_ct_stereo_status>  (58) 
1

>  <s_m_source_file>  (58) 
/var/tmp/pbs.5083856.sched01/tmphzvygrdv/20hie1wr_j.sdf

>  <i_m_source_file_index>  (58) 
4

>  <i_lp_mmshare_version>  (58) 
48012

>  <i_f3d_flags>  (58) 
0

>  <s_epik_input>  (58) 
W0NIMl0xW0NIMl1bQ0hdMVtDSDJdTihbQ0gyXVtDSDJdMilbQ0BASF0oW0NAXTM0W0NAXTI1NilbQ0BASF0oQyhPNCkoW0NIM10pW0NIM10pW0NASF0oW09IXSlbQ0BASF0oW05IXVtDSDNdKVtDQEBIXTZPYzdjNWMoW0NIMl0zKVtjSF1bY0hdYzdbT0hd

>  <s_epik_cmdline>  (58) 
J2VwaWtfcHl0aG9uJywgJy1waHQnLCAnMi4wJywgJy1waCcsICc3LjAnLCAnLXRuJywgJzgnLCAnLW1hJywgJzIwMCcsICctaW1hZScsICc8aW5maWxlLm1hZT4nLCAnLW9tYWUnLCAnPG91dGZpbGUubWFlPic=

>  <r_lp_tautomer_probability>  (58) 
1

>  <r_epik_Ionization_Penalty>  (58) 
0.367376

>  <r_epik_Ionization_Penalty_Charging>  (58) 
0.361169

>  <r_epik_Ionization_Penalty_Neutral>  (58) 
0.00620704

>  <r_epik_State_Penalty>  (58) 
0.314829

>  <r_epik_Charging_Adjusted_Penalty>  (58) 
0.675998

>  <i_epik_Tot_Q>  (58) 
2

>  <i_epik_Tot_abs_Q>  (58) 
2

>  <s_lp_Force_Field>  (58) 
OPLS3e

>  <r_lp_Energy>  (58) 
115.151

>  <b_lp_Chiralities_Consistent>  (58) 
1

>  <s_lp_Variant>  (58) 
17:0-1

>  <s_i_glide_gridfile>  (58) 
pfpi4k_grid

>  <i_i_glide_lignum>  (58) 
4

>  <i_i_glide_rotatable_bonds>  (58) 
5

>  <r_i_docking_score>  (58) 
-2.84221

>  <r_i_glide_ligand_efficiency>  (58) 
-0.0947402

>  <r_i_glide_ligand_efficiency_sa>  (58) 
-0.29438

>  <r_i_glide_ligand_efficiency_ln>  (58) 
-0.64578

>  <r_i_glide_gscore>  (58) 
-2.84221

>  <r_i_glide_lipo>  (58) 
-0.0143385

>  <r_i_glide_hbond>  (58) 
-0.2

>  <r_i_glide_metal>  (58) 
-0

>  <r_i_glide_rewards>  (58) 
-0.582697

>  <r_i_glide_evdw>  (58) 
-11.9962

>  <r_i_glide_ecoul>  (58) 
-10.5126

>  <r_i_glide_erotb>  (58) 
0.229728

>  <r_i_glide_esite>  (58) 
-0.0982005

>  <r_i_glide_emodel>  (58) 
-29.7881

>  <r_i_glide_energy>  (58) 
-22.5088

>  <r_i_glide_einternal>  (58) 
2.13001

>  <r_i_glide_intrahb_reward>  (58) 
-0

>  <i_i_glide_confnum>  (58) 
4

>  <i_i_glide_posenum>  (58) 
3

>  <r_i_glide_eff_state_penalty>  (58) 
0

>  <ligand_id>  (58) 
17

>  <original_smiles>  (58) 
CNC1C(O)C2C3N(CC4CC4)CCC45c6c(ccc(O)c6OC14)CC35OC2(C)C

>  <smiles>  (58) 
[H]Oc1c([H])c([H])c2c3c1OC1([H])C34C([H])([H])C([H])([H])[N+]([H])(C([H])([H])C3([H])C([H])([H])C3([H])[H])C3([H])C([H])(C([H])(O[H])C1([H])[N+]([H])([H])C([H])([H])[H])C(C([H])([H])[H])(C([H])([H])[H])OC43C2([H])[H]

$$$$
17:0:2
     RDKit          3D

 64 70  0  0  1  0  0  0  0  0999 V2000
    6.1881   -4.9725    6.7547 C   0  0  0  0  0  0  0  0  0  0  0  0
    6.4982   -6.1462    5.9066 N   0  0  0  0  0  0  0  0  0  0  0  0
    5.4288   -6.5602    4.9687 C   0  0  2  0  0  0  0  0  0  0  0  0
    5.5299   -8.1193    4.6507 C   0  0  1  0  0  0  0  0  0  0  0  0
    4.7244   -8.8017    5.5897 O   0  0  0  0  0  0  0  0  0  0  0  0
    5.2747   -8.7845    3.2180 C   0  0  1  0  0  0  0  0  0  0  0  0
    4.0266   -8.4297    2.3360 C   0  0  1  0  0  0  0  0  0  0  0  0
    2.6682   -8.4277    2.9767 N   0  0  2  0  0  0  0  0  0  0  0  0
    1.5322   -8.5765    2.0180 C   0  0  0  0  0  0  0  0  0  0  0  0
    0.3810   -9.4074    2.5808 C   0  0  0  0  0  0  0  0  0  0  0  0
   -1.0494   -9.1400    2.1357 C   0  0  0  0  0  0  0  0  0  0  0  0
   -0.6399   -8.8163    3.5402 C   0  0  0  0  0  0  0  0  0  0  0  0
    2.4437   -7.3018    3.9132 C   0  0  0  0  0  0  0  0  0  0  0  0
    2.9226   -5.9631    3.3401 C   0  0  0  0  0  0  0  0  0  0  0  0
    4.3491   -5.9901    2.7277 C   0  0  1  0  0  0  0  0  0  0  0  0
    4.4695   -4.8282    1.8885 C   0  0  0  0  0  0  0  0  0  0  0  0
    4.1760   -4.9706    0.5564 C   0  0  0  0  0  0  0  0  0  0  0  0
    4.2835   -3.7988   -0.2089 C   0  0  0  0  0  0  0  0  0  0  0  0
    4.7072   -2.6013    0.4585 C   0  0  0  0  0  0  0  0  0  0  0  0
    5.0927   -2.5970    1.8433 C   0  0  0  0  0  0  0  0  0  0  0  0
    5.5646   -1.4602    2.4314 O   0  0  0  0  0  0  0  0  0  0  0  0
    4.9965   -3.7923    2.5914 C   0  0  0  0  0  0  0  0  0  0  0  0
    5.3925   -4.2114    3.8404 O   0  0  0  0  0  0  0  0  0  0  0  0
    5.4777   -5.6646    3.7160 C   0  0  1  0  0  0  0  0  0  0  0  0
    3.9725   -6.4793    0.3819 C   0  0  0  0  0  0  0  0  0  0  0  0
    4.5263   -7.1131    1.7124 C   0  0  2  0  0  0  0  0  0  0  0  0
    5.9285   -7.3309    1.4995 O   0  0  0  0  0  0  0  0  0  0  0  0
    6.4080   -8.4876    2.1869 C   0  0  0  0  0  0  0  0  0  0  0  0
    7.8153   -8.1981    2.7593 C   0  0  0  0  0  0  0  0  0  0  0  0
    6.5805   -9.6057    1.1292 C   0  0  0  0  0  0  0  0  0  0  0  0
    7.0316   -4.7496    7.4141 H   0  0  0  0  0  0  0  0  0  0  0  0
    5.3121   -5.1563    7.3837 H   0  0  0  0  0  0  0  0  0  0  0  0
    5.9998   -4.0667    6.1740 H   0  0  0  0  0  0  0  0  0  0  0  0
    7.3392   -5.9487    5.3744 H   0  0  0  0  0  0  0  0  0  0  0  0
    4.4991   -6.3657    5.4979 H   0  0  0  0  0  0  0  0  0  0  0  0
    6.5301   -8.4385    4.9502 H   0  0  0  0  0  0  0  0  0  0  0  0
    4.9033   -9.7289    5.5386 H   0  0  0  0  0  0  0  0  0  0  0  0
    5.2639   -9.8620    3.3929 H   0  0  0  0  0  0  0  0  0  0  0  0
    3.9617   -9.1908    1.5589 H   0  0  0  0  0  0  0  0  0  0  0  0
    1.1408   -7.6000    1.7224 H   0  0  0  0  0  0  0  0  0  0  0  0
    1.8365   -9.0529    1.0839 H   0  0  0  0  0  0  0  0  0  0  0  0
    0.6194  -10.4687    2.6936 H   0  0  0  0  0  0  0  0  0  0  0  0
   -1.2290   -8.2928    1.4777 H   0  0  0  0  0  0  0  0  0  0  0  0
   -1.7489   -9.9663    2.0288 H   0  0  0  0  0  0  0  0  0  0  0  0
   -0.9856   -9.4532    4.3434 H   0  0  0  0  0  0  0  0  0  0  0  0
   -0.6326   -7.7613    3.7920 H   0  0  0  0  0  0  0  0  0  0  0  0
    1.3914   -7.1760    4.1460 H   0  0  0  0  0  0  0  0  0  0  0  0
    2.8714   -7.5129    4.8842 H   0  0  0  0  0  0  0  0  0  0  0  0
    2.2150   -5.6745    2.5594 H   0  0  0  0  0  0  0  0  0  0  0  0
    2.8358   -5.1858    4.0956 H   0  0  0  0  0  0  0  0  0  0  0  0
    4.0747   -3.8004   -1.2724 H   0  0  0  0  0  0  0  0  0  0  0  0
    4.7664   -1.6873   -0.1006 H   0  0  0  0  0  0  0  0  0  0  0  0
    5.5696   -0.7092    1.8642 H   0  0  0  0  0  0  0  0  0  0  0  0
    6.4480   -5.8042    3.2460 H   0  0  0  0  0  0  0  0  0  0  0  0
    2.9060   -6.6506    0.2657 H   0  0  0  0  0  0  0  0  0  0  0  0
    4.4962   -6.8632   -0.4966 H   0  0  0  0  0  0  0  0  0  0  0  0
    8.2374   -9.0761    3.2454 H   0  0  0  0  0  0  0  0  0  0  0  0
    7.8509   -7.3843    3.4758 H   0  0  0  0  0  0  0  0  0  0  0  0
    8.4986   -7.9147    1.9605 H   0  0  0  0  0  0  0  0  0  0  0  0
    6.8246  -10.5622    1.5909 H   0  0  0  0  0  0  0  0  0  0  0  0
    7.4024   -9.3618    0.4597 H   0  0  0  0  0  0  0  0  0  0  0  0
    5.7098   -9.7588    0.4953 H   0  0  0  0  0  0  0  0  0  0  0  0
    6.6831   -6.9235    6.5320 H   0  0  0  0  0  0  0  0  0  0  0  0
    2.6238   -9.2768    3.5344 H   0  0  0  0  0  0  0  0  0  0  0  0
  1  2  1  0
  1 31  1  0
  1 32  1  0
  1 33  1  0
  2  3  1  0
  2 34  1  0
  2 63  1  0
  3 24  1  0
  3  4  1  0
  3 35  1  1
  4  5  1  0
  4  6  1  0
  4 36  1  1
  5 37  1  0
  6 28  1  0
  6  7  1  0
  6 38  1  1
  7 26  1  0
  7  8  1  0
  7 39  1  6
  8  9  1  0
  8 13  1  0
  8 64  1  1
  9 10  1  0
  9 40  1  0
  9 41  1  0
 10 12  1  0
 10 11  1  0
 10 42  1  0
 11 12  1  0
 11 43  1  0
 11 44  1  0
 12 45  1  0
 12 46  1  0
 13 14  1  0
 13 47  1  0
 13 48  1  0
 15 14  1  1
 14 49  1  0
 14 50  1  0
 15 24  1  0
 15 26  1  0
 15 16  1  0
 16 22  1  0
 16 17  2  0
 17 18  1  0
 17 25  1  0
 18 19  2  0
 18 51  1  0
 19 20  1  0
 19 52  1  0
 20 21  1  0
 20 22  2  0
 21 53  1  0
 22 23  1  0
 23 24  1  0
 24 54  1  6
 25 26  1  0
 25 55  1  0
 25 56  1  0
 26 27  1  6
 27 28  1  0
 28 29  1  0
 28 30  1  0
 29 57  1  0
 29 58  1  0
 29 59  1  0
 30 60  1  0
 30 61  1  0
 30 62  1  0
M  CHG  2   2   1   8   1
M  END
>  <i_m_ct_stereo_status>  (59) 
1

>  <s_m_source_file>  (59) 
/var/tmp/pbs.5083856.sched01/tmphzvygrdv/20hie1wr_j.sdf

>  <i_m_source_file_index>  (59) 
4

>  <i_lp_mmshare_version>  (59) 
48012

>  <i_f3d_flags>  (59) 
0

>  <s_epik_input>  (59) 
W0NIMl0xW0NIMl1bQ0hdMVtDSDJdTihbQ0gyXVtDSDJdMilbQ0BASF0oW0NAXTM0W0NAXTI1NilbQ0BASF0oQyhPNCkoW0NIM10pW0NIM10pW0NASF0oW09IXSlbQ0BASF0oW05IXVtDSDNdKVtDQEBIXTZPYzdjNWMoW0NIMl0zKVtjSF1bY0hdYzdbT0hd

>  <s_epik_cmdline>  (59) 
J2VwaWtfcHl0aG9uJywgJy1waHQnLCAnMi4wJywgJy1waCcsICc3LjAnLCAnLXRuJywgJzgnLCAnLW1hJywgJzIwMCcsICctaW1hZScsICc8aW5maWxlLm1hZT4nLCAnLW9tYWUnLCAnPG91dGZpbGUubWFlPic=

>  <r_lp_tautomer_probability>  (59) 
1

>  <r_epik_Ionization_Penalty>  (59) 
0.367376

>  <r_epik_Ionization_Penalty_Charging>  (59) 
0.361169

>  <r_epik_Ionization_Penalty_Neutral>  (59) 
0.00620704

>  <r_epik_State_Penalty>  (59) 
0.314829

>  <r_epik_Charging_Adjusted_Penalty>  (59) 
0.675998

>  <i_epik_Tot_Q>  (59) 
2

>  <i_epik_Tot_abs_Q>  (59) 
2

>  <s_lp_Force_Field>  (59) 
OPLS3e

>  <r_lp_Energy>  (59) 
115.151

>  <b_lp_Chiralities_Consistent>  (59) 
1

>  <s_lp_Variant>  (59) 
17:0-1

>  <s_i_glide_gridfile>  (59) 
pfpi4k_grid

>  <i_i_glide_lignum>  (59) 
4

>  <i_i_glide_rotatable_bonds>  (59) 
5

>  <r_i_docking_score>  (59) 
-2.47016

>  <r_i_glide_ligand_efficiency>  (59) 
-0.0823388

>  <r_i_glide_ligand_efficiency_sa>  (59) 
-0.255846

>  <r_i_glide_ligand_efficiency_ln>  (59) 
-0.561248

>  <r_i_glide_gscore>  (59) 
-2.47016

>  <r_i_glide_lipo>  (59) 
-0.536204

>  <r_i_glide_hbond>  (59) 
0

>  <r_i_glide_metal>  (59) 
-0

>  <r_i_glide_rewards>  (59) 
-0.582697

>  <r_i_glide_evdw>  (59) 
-21.4398

>  <r_i_glide_ecoul>  (59) 
-3.3525

>  <r_i_glide_erotb>  (59) 
0.229728

>  <r_i_glide_esite>  (59) 
-0.00612464

>  <r_i_glide_emodel>  (59) 
-30.5677

>  <r_i_glide_energy>  (59) 
-24.7923

>  <r_i_glide_einternal>  (59) 
3.60245

>  <r_i_glide_intrahb_reward>  (59) 
-0

>  <i_i_glide_confnum>  (59) 
4

>  <i_i_glide_posenum>  (59) 
6

>  <r_i_glide_eff_state_penalty>  (59) 
0

>  <ligand_id>  (59) 
17

>  <original_smiles>  (59) 
CNC1C(O)C2C3N(CC4CC4)CCC45c6c(ccc(O)c6OC14)CC35OC2(C)C

>  <smiles>  (59) 
[H]Oc1c([H])c([H])c2c3c1OC1([H])C34C([H])([H])C([H])([H])[N+]([H])(C([H])([H])C3([H])C([H])([H])C3([H])[H])C3([H])C([H])(C([H])(O[H])C1([H])[N+]([H])([H])C([H])([H])[H])C(C([H])([H])[H])(C([H])([H])[H])OC43C2([H])[H]

$$$$
17:1:0
     RDKit          3D

 63 69  0  0  1  0  0  0  0  0999 V2000
    4.3667  -12.3918    3.8827 C   0  0  0  0  0  0  0  0  0  0  0  0
    3.4759  -11.7422    2.8830 N   0  0  0  0  0  0  0  0  0  0  0  0
    3.4123  -10.2406    2.8454 C   0  0  2  0  0  0  0  0  0  0  0  0
    4.7507   -9.5853    2.3000 C   0  0  1  0  0  0  0  0  0  0  0  0
    4.6168   -9.4633    0.8972 O   0  0  0  0  0  0  0  0  0  0  0  0
    5.3947   -8.2361    2.8748 C   0  0  1  0  0  0  0  0  0  0  0  0
    4.5448   -6.9479    3.0938 C   0  0  1  0  0  0  0  0  0  0  0  0
    3.6635   -6.4017    2.0504 N   0  0  0  0  0  0  0  0  0  0  0  0
    4.3923   -6.0179    0.8346 C   0  0  0  0  0  0  0  0  0  0  0  0
    3.6825   -4.9821   -0.0116 C   0  0  0  0  0  0  0  0  0  0  0  0
    4.4665   -4.1367   -0.9896 C   0  0  0  0  0  0  0  0  0  0  0  0
    3.9157   -3.5209    0.2722 C   0  0  0  0  0  0  0  0  0  0  0  0
    2.4584   -7.1887    1.7911 C   0  0  0  0  0  0  0  0  0  0  0  0
    1.7594   -7.6663    3.0643 C   0  0  0  0  0  0  0  0  0  0  0  0
    2.7110   -8.1964    4.1773 C   0  0  1  0  0  0  0  0  0  0  0  0
    2.0091   -8.0720    5.4183 C   0  0  0  0  0  0  0  0  0  0  0  0
    2.1727   -6.9267    6.1379 C   0  0  0  0  0  0  0  0  0  0  0  0
    1.4154   -6.8324    7.3248 C   0  0  0  0  0  0  0  0  0  0  0  0
    0.5981   -7.9558    7.6611 C   0  0  0  0  0  0  0  0  0  0  0  0
    0.5975   -9.1589    6.8862 C   0  0  0  0  0  0  0  0  0  0  0  0
   -0.1340  -10.2231    7.2949 O   0  0  0  0  0  0  0  0  0  0  0  0
    1.3702   -9.2378    5.7074 C   0  0  0  0  0  0  0  0  0  0  0  0
    1.7084  -10.2314    4.8079 O   0  0  0  0  0  0  0  0  0  0  0  0
    2.9305   -9.7073    4.1997 C   0  0  1  0  0  0  0  0  0  0  0  0
    3.2913   -6.1780    5.4079 C   0  0  0  0  0  0  0  0  0  0  0  0
    3.8922   -7.2661    4.4356 C   0  0  2  0  0  0  0  0  0  0  0  0
    4.9337   -7.9506    5.1646 O   0  0  0  0  0  0  0  0  0  0  0  0
    6.0126   -8.3426    4.3101 C   0  0  0  0  0  0  0  0  0  0  0  0
    6.5039   -9.7309    4.7649 C   0  0  0  0  0  0  0  0  0  0  0  0
    7.1824   -7.3654    4.5652 C   0  0  0  0  0  0  0  0  0  0  0  0
    4.3126  -13.4773    3.7873 H   0  0  0  0  0  0  0  0  0  0  0  0
    4.0424  -12.1471    4.8903 H   0  0  0  0  0  0  0  0  0  0  0  0
    5.3974  -12.0630    3.7580 H   0  0  0  0  0  0  0  0  0  0  0  0
    3.8038  -12.0269    1.9447 H   0  0  0  0  0  0  0  0  0  0  0  0
    2.6203  -10.0440    2.1340 H   0  0  0  0  0  0  0  0  0  0  0  0
    5.5422  -10.3289    2.3855 H   0  0  0  0  0  0  0  0  0  0  0  0
    4.5077  -10.3424    0.5293 H   0  0  0  0  0  0  0  0  0  0  0  0
    6.2135   -7.9943    2.1883 H   0  0  0  0  0  0  0  0  0  0  0  0
    5.2445   -6.1465    3.2767 H   0  0  0  0  0  0  0  0  0  0  0  0
    5.3669   -5.6006    1.0972 H   0  0  0  0  0  0  0  0  0  0  0  0
    4.6071   -6.8882    0.2219 H   0  0  0  0  0  0  0  0  0  0  0  0
    2.6864   -5.2663   -0.3289 H   0  0  0  0  0  0  0  0  0  0  0  0
    5.5396   -4.3022   -1.0502 H   0  0  0  0  0  0  0  0  0  0  0  0
    3.9814   -3.8599   -1.9256 H   0  0  0  0  0  0  0  0  0  0  0  0
    3.0624   -2.8506    0.1773 H   0  0  0  0  0  0  0  0  0  0  0  0
    4.6112   -3.2854    1.0735 H   0  0  0  0  0  0  0  0  0  0  0  0
    1.7501   -6.5697    1.2522 H   0  0  0  0  0  0  0  0  0  0  0  0
    2.6690   -8.0238    1.1273 H   0  0  0  0  0  0  0  0  0  0  0  0
    1.1988   -6.8135    3.4536 H   0  0  0  0  0  0  0  0  0  0  0  0
    1.0004   -8.4172    2.8189 H   0  0  0  0  0  0  0  0  0  0  0  0
    1.4627   -5.9586    7.9749 H   0  0  0  0  0  0  0  0  0  0  0  0
   -0.0209   -7.9202    8.5420 H   0  0  0  0  0  0  0  0  0  0  0  0
    0.3440  -11.0639    7.2614 H   0  0  0  0  0  0  0  0  0  0  0  0
    3.6776   -9.9375    4.9500 H   0  0  0  0  0  0  0  0  0  0  0  0
    2.8477   -5.3623    4.8447 H   0  0  0  0  0  0  0  0  0  0  0  0
    4.0492   -5.7740    6.0802 H   0  0  0  0  0  0  0  0  0  0  0  0
    7.3287  -10.0859    4.1416 H   0  0  0  0  0  0  0  0  0  0  0  0
    5.7038  -10.4571    4.7351 H   0  0  0  0  0  0  0  0  0  0  0  0
    6.8715   -9.6925    5.7966 H   0  0  0  0  0  0  0  0  0  0  0  0
    8.0225   -7.5766    3.8959 H   0  0  0  0  0  0  0  0  0  0  0  0
    7.5577   -7.4862    5.5853 H   0  0  0  0  0  0  0  0  0  0  0  0
    6.9240   -6.3096    4.4605 H   0  0  0  0  0  0  0  0  0  0  0  0
    2.5398  -12.1032    3.0097 H   0  0  0  0  0  0  0  0  0  0  0  0
  1  2  1  0
  1 31  1  0
  1 32  1  0
  1 33  1  0
  2  3  1  0
  2 34  1  0
  2 63  1  0
  3 24  1  0
  3  4  1  0
  3 35  1  6
  4  5  1  0
  4  6  1  0
  4 36  1  6
  5 37  1  0
  6 28  1  0
  6  7  1  0
  6 38  1  6
  7 26  1  0
  7  8  1  0
  7 39  1  1
  8  9  1  0
  8 13  1  0
  9 10  1  0
  9 40  1  0
  9 41  1  0
 10 12  1  0
 10 11  1  0
 10 42  1  0
 11 12  1  0
 11 43  1  0
 11 44  1  0
 12 45  1  0
 12 46  1  0
 13 14  1  0
 13 47  1  0
 13 48  1  0
 15 14  1  6
 14 49  1  0
 14 50  1  0
 15 24  1  0
 15 26  1  0
 15 16  1  0
 16 22  1  0
 16 17  2  0
 17 18  1  0
 17 25  1  0
 18 19  2  0
 18 51  1  0
 19 20  1  0
 19 52  1  0
 20 21  1  0
 20 22  2  0
 21 53  1  0
 22 23  1  0
 23 24  1  0
 24 54  1  1
 25 26  1  0
 25 55  1  0
 25 56  1  0
 26 27  1  1
 27 28  1  0
 28 29  1  0
 28 30  1  0
 29 57  1  0
 29 58  1  0
 29 59  1  0
 30 60  1  0
 30 61  1  0
 30 62  1  0
M  CHG  1   2   1
M  END
>  <i_m_ct_stereo_status>  (60) 
1

>  <s_m_source_file>  (60) 
/var/tmp/pbs.5083856.sched01/tmphzvygrdv/20hie1wr_j.sdf

>  <i_m_source_file_index>  (60) 
5

>  <i_lp_mmshare_version>  (60) 
48012

>  <i_f3d_flags>  (60) 
0

>  <s_epik_input>  (60) 
W0NIMl0xW0NIMl1bQ0hdMVtDSDJdTihbQ0gyXVtDSDJdMilbQ0BASF0oW0NAXTM0W0NAXTI1NilbQ0BASF0oQyhPNCkoW0NIM10pW0NIM10pW0NASF0oW09IXSlbQ0BASF0oW05IXVtDSDNdKVtDQEBIXTZPYzdjNWMoW0NIMl0zKVtjSF1bY0hdYzdbT0hd

>  <s_epik_cmdline>  (60) 
J2VwaWtfcHl0aG9uJywgJy1waHQnLCAnMi4wJywgJy1waCcsICc3LjAnLCAnLXRuJywgJzgnLCAnLW1hJywgJzIwMCcsICctaW1hZScsICc8aW5maWxlLm1hZT4nLCAnLW9tYWUnLCAnPG91dGZpbGUubWFlPic=

>  <r_lp_tautomer_probability>  (60) 
1

>  <r_epik_Ionization_Penalty>  (60) 
0.715195

>  <r_epik_Ionization_Penalty_Charging>  (60) 
0.0515171

>  <r_epik_Ionization_Penalty_Neutral>  (60) 
0.663678

>  <r_epik_State_Penalty>  (60) 
0.794015

>  <r_epik_Charging_Adjusted_Penalty>  (60) 
0.845532

>  <i_epik_Tot_Q>  (60) 
1

>  <i_epik_Tot_abs_Q>  (60) 
1

>  <s_lp_Force_Field>  (60) 
OPLS3e

>  <r_lp_Energy>  (60) 
101.174

>  <b_lp_Chiralities_Consistent>  (60) 
1

>  <s_lp_Variant>  (60) 
17:0-2

>  <s_i_glide_gridfile>  (60) 
pfpi4k_grid

>  <i_i_glide_lignum>  (60) 
5

>  <i_i_glide_rotatable_bonds>  (60) 
5

>  <r_i_docking_score>  (60) 
-3.70019

>  <r_i_glide_ligand_efficiency>  (60) 
-0.12334

>  <r_i_glide_ligand_efficiency_sa>  (60) 
-0.383245

>  <r_i_glide_ligand_efficiency_ln>  (60) 
-0.840724

>  <r_i_glide_gscore>  (60) 
-3.70019

>  <r_i_glide_lipo>  (60) 
-0.108839

>  <r_i_glide_hbond>  (60) 
-0.352

>  <r_i_glide_metal>  (60) 
-0

>  <r_i_glide_rewards>  (60) 
-0.589569

>  <r_i_glide_evdw>  (60) 
-15.8925

>  <r_i_glide_ecoul>  (60) 
-13.3231

>  <r_i_glide_erotb>  (60) 
0.23074

>  <r_i_glide_esite>  (60) 
-0.0874266

>  <r_i_glide_emodel>  (60) 
-36.7849

>  <r_i_glide_energy>  (60) 
-29.2156

>  <r_i_glide_einternal>  (60) 
4.66904

>  <r_i_glide_intrahb_reward>  (60) 
-0

>  <i_i_glide_confnum>  (60) 
4

>  <i_i_glide_posenum>  (60) 
29

>  <r_i_glide_eff_state_penalty>  (60) 
0

>  <ligand_id>  (60) 
17

>  <original_smiles>  (60) 
CNC1C(O)C2C3N(CC4CC4)CCC45c6c(ccc(O)c6OC14)CC35OC2(C)C

>  <smiles>  (60) 
[H]Oc1c([H])c([H])c2c3c1OC1([H])C34C([H])([H])C([H])([H])N(C([H])([H])C3([H])C([H])([H])C3([H])[H])C3([H])C([H])(C([H])(O[H])C1([H])[N+]([H])([H])C([H])([H])[H])C(C([H])([H])[H])(C([H])([H])[H])OC34C2([H])[H]

$$$$
17:1:1
     RDKit          3D

 63 69  0  0  1  0  0  0  0  0999 V2000
    3.4976  -12.4174    4.2658 C   0  0  0  0  0  0  0  0  0  0  0  0
    3.4351  -11.8262    2.9117 N   0  0  0  0  0  0  0  0  0  0  0  0
    3.7205  -10.3793    2.7690 C   0  0  2  0  0  0  0  0  0  0  0  0
    5.2085   -9.9973    3.1948 C   0  0  1  0  0  0  0  0  0  0  0  0
    6.0205  -10.1197    2.0353 O   0  0  0  0  0  0  0  0  0  0  0  0
    5.6078   -8.6656    3.9937 C   0  0  1  0  0  0  0  0  0  0  0  0
    5.1275   -7.2633    3.5165 C   0  0  1  0  0  0  0  0  0  0  0  0
    5.2758   -6.8147    2.1273 N   0  0  0  0  0  0  0  0  0  0  0  0
    6.6722   -6.7735    1.6940 C   0  0  0  0  0  0  0  0  0  0  0  0
    6.9571   -5.7637    0.6034 C   0  0  0  0  0  0  0  0  0  0  0  0
    8.3798   -5.3025    0.3395 C   0  0  0  0  0  0  0  0  0  0  0  0
    7.3964   -4.3744    1.0013 C   0  0  0  0  0  0  0  0  0  0  0  0
    4.3860   -7.4730    1.1769 C   0  0  0  0  0  0  0  0  0  0  0  0
    2.9420   -7.6079    1.6816 C   0  0  0  0  0  0  0  0  0  0  0  0
    2.8069   -8.0301    3.1808 C   0  0  1  0  0  0  0  0  0  0  0  0
    1.5129   -7.5869    3.6198 C   0  0  0  0  0  0  0  0  0  0  0  0
    1.4350   -6.3470    4.2004 C   0  0  0  0  0  0  0  0  0  0  0  0
    0.1450   -5.9473    4.5763 C   0  0  0  0  0  0  0  0  0  0  0  0
   -0.9331   -6.8709    4.3478 C   0  0  0  0  0  0  0  0  0  0  0  0
   -0.7134   -8.1979    3.8316 C   0  0  0  0  0  0  0  0  0  0  0  0
   -1.7601   -9.0552    3.6677 O   0  0  0  0  0  0  0  0  0  0  0  0
    0.5990   -8.5880    3.4743 C   0  0  0  0  0  0  0  0  0  0  0  0
    1.2103   -9.7584    3.0901 O   0  0  0  0  0  0  0  0  0  0  0  0
    2.6145   -9.5373    3.4280 C   0  0  1  0  0  0  0  0  0  0  0  0
    2.9008   -5.9139    4.3564 C   0  0  0  0  0  0  0  0  0  0  0  0
    3.7200   -7.2306    4.1045 C   0  0  2  0  0  0  0  0  0  0  0  0
    3.8585   -7.8946    5.3688 O   0  0  0  0  0  0  0  0  0  0  0  0
    5.1086   -8.5772    5.4778 C   0  0  0  0  0  0  0  0  0  0  0  0
    4.8818   -9.8974    6.2331 C   0  0  0  0  0  0  0  0  0  0  0  0
    6.0261   -7.7369    6.3941 C   0  0  0  0  0  0  0  0  0  0  0  0
    3.3801  -13.4887    4.2664 H   0  0  0  0  0  0  0  0  0  0  0  0
    2.7287  -11.9960    4.9281 H   0  0  0  0  0  0  0  0  0  0  0  0
    4.4773  -12.3147    4.7308 H   0  0  0  0  0  0  0  0  0  0  0  0
    4.0550  -12.3198    2.2709 H   0  0  0  0  0  0  0  0  0  0  0  0
    3.6239  -10.1984    1.6982 H   0  0  0  0  0  0  0  0  0  0  0  0
    5.6033  -10.7913    3.8228 H   0  0  0  0  0  0  0  0  0  0  0  0
    5.7194  -10.8556    1.5240 H   0  0  0  0  0  0  0  0  0  0  0  0
    6.6993   -8.6667    4.0142 H   0  0  0  0  0  0  0  0  0  0  0  0
    5.7073   -6.5385    4.0834 H   0  0  0  0  0  0  0  0  0  0  0  0
    7.3291   -6.5328    2.5333 H   0  0  0  0  0  0  0  0  0  0  0  0
    6.9965   -7.7565    1.3509 H   0  0  0  0  0  0  0  0  0  0  0  0
    6.3023   -5.8336   -0.2654 H   0  0  0  0  0  0  0  0  0  0  0  0
    9.1641   -5.7370    0.9580 H   0  0  0  0  0  0  0  0  0  0  0  0
    8.6712   -5.0548   -0.6783 H   0  0  0  0  0  0  0  0  0  0  0  0
    7.0085   -3.5409    0.4158 H   0  0  0  0  0  0  0  0  0  0  0  0
    7.4970   -4.1983    2.0656 H   0  0  0  0  0  0  0  0  0  0  0  0
    4.3468   -6.8834    0.2580 H   0  0  0  0  0  0  0  0  0  0  0  0
    4.7751   -8.4355    0.8688 H   0  0  0  0  0  0  0  0  0  0  0  0
    2.4827   -6.6260    1.5525 H   0  0  0  0  0  0  0  0  0  0  0  0
    2.3701   -8.2824    1.0445 H   0  0  0  0  0  0  0  0  0  0  0  0
   -0.0303   -4.9833    5.0356 H   0  0  0  0  0  0  0  0  0  0  0  0
   -1.9324   -6.5832    4.5947 H   0  0  0  0  0  0  0  0  0  0  0  0
   -1.7989   -9.7971    4.2842 H   0  0  0  0  0  0  0  0  0  0  0  0
    2.6265   -9.7252    4.4993 H   0  0  0  0  0  0  0  0  0  0  0  0
    3.1236   -5.1637    3.6003 H   0  0  0  0  0  0  0  0  0  0  0  0
    3.1086   -5.4871    5.3386 H   0  0  0  0  0  0  0  0  0  0  0  0
    5.8011  -10.4815    6.3352 H   0  0  0  0  0  0  0  0  0  0  0  0
    4.1365  -10.4833    5.7428 H   0  0  0  0  0  0  0  0  0  0  0  0
    4.4877   -9.7205    7.2395 H   0  0  0  0  0  0  0  0  0  0  0  0
    7.0197   -8.1834    6.4662 H   0  0  0  0  0  0  0  0  0  0  0  0
    5.6187   -7.7099    7.4075 H   0  0  0  0  0  0  0  0  0  0  0  0
    6.1405   -6.6990    6.0841 H   0  0  0  0  0  0  0  0  0  0  0  0
    2.4959  -11.9878    2.5537 H   0  0  0  0  0  0  0  0  0  0  0  0
  1  2  1  0
  1 31  1  0
  1 32  1  0
  1 33  1  0
  2  3  1  0
  2 34  1  0
  2 63  1  0
  3 24  1  0
  3  4  1  0
  3 35  1  6
  4  5  1  0
  4  6  1  0
  4 36  1  1
  5 37  1  0
  6 28  1  0
  6  7  1  0
  6 38  1  1
  7 26  1  0
  7  8  1  0
  7 39  1  1
  8  9  1  0
  8 13  1  0
  9 10  1  0
  9 40  1  0
  9 41  1  0
 10 12  1  0
 10 11  1  0
 10 42  1  0
 11 12  1  0
 11 43  1  0
 11 44  1  0
 12 45  1  0
 12 46  1  0
 13 14  1  0
 13 47  1  0
 13 48  1  0
 15 14  1  6
 14 49  1  0
 14 50  1  0
 15 24  1  0
 15 26  1  0
 15 16  1  0
 16 22  1  0
 16 17  2  0
 17 18  1  0
 17 25  1  0
 18 19  2  0
 18 51  1  0
 19 20  1  0
 19 52  1  0
 20 21  1  0
 20 22  2  0
 21 53  1  0
 22 23  1  0
 23 24  1  0
 24 54  1  1
 25 26  1  0
 25 55  1  0
 25 56  1  0
 26 27  1  1
 27 28  1  0
 28 29  1  0
 28 30  1  0
 29 57  1  0
 29 58  1  0
 29 59  1  0
 30 60  1  0
 30 61  1  0
 30 62  1  0
M  CHG  1   2   1
M  END
>  <i_m_ct_stereo_status>  (61) 
1

>  <s_m_source_file>  (61) 
/var/tmp/pbs.5083856.sched01/tmphzvygrdv/20hie1wr_j.sdf

>  <i_m_source_file_index>  (61) 
5

>  <i_lp_mmshare_version>  (61) 
48012

>  <i_f3d_flags>  (61) 
0

>  <s_epik_input>  (61) 
W0NIMl0xW0NIMl1bQ0hdMVtDSDJdTihbQ0gyXVtDSDJdMilbQ0BASF0oW0NAXTM0W0NAXTI1NilbQ0BASF0oQyhPNCkoW0NIM10pW0NIM10pW0NASF0oW09IXSlbQ0BASF0oW05IXVtDSDNdKVtDQEBIXTZPYzdjNWMoW0NIMl0zKVtjSF1bY0hdYzdbT0hd

>  <s_epik_cmdline>  (61) 
J2VwaWtfcHl0aG9uJywgJy1waHQnLCAnMi4wJywgJy1waCcsICc3LjAnLCAnLXRuJywgJzgnLCAnLW1hJywgJzIwMCcsICctaW1hZScsICc8aW5maWxlLm1hZT4nLCAnLW9tYWUnLCAnPG91dGZpbGUubWFlPic=

>  <r_lp_tautomer_probability>  (61) 
1

>  <r_epik_Ionization_Penalty>  (61) 
0.715195

>  <r_epik_Ionization_Penalty_Charging>  (61) 
0.0515171

>  <r_epik_Ionization_Penalty_Neutral>  (61) 
0.663678

>  <r_epik_State_Penalty>  (61) 
0.794015

>  <r_epik_Charging_Adjusted_Penalty>  (61) 
0.845532

>  <i_epik_Tot_Q>  (61) 
1

>  <i_epik_Tot_abs_Q>  (61) 
1

>  <s_lp_Force_Field>  (61) 
OPLS3e

>  <r_lp_Energy>  (61) 
101.174

>  <b_lp_Chiralities_Consistent>  (61) 
1

>  <s_lp_Variant>  (61) 
17:0-2

>  <s_i_glide_gridfile>  (61) 
pfpi4k_grid

>  <i_i_glide_lignum>  (61) 
5

>  <i_i_glide_rotatable_bonds>  (61) 
5

>  <r_i_docking_score>  (61) 
-3.56312

>  <r_i_glide_ligand_efficiency>  (61) 
-0.118771

>  <r_i_glide_ligand_efficiency_sa>  (61) 
-0.369048

>  <r_i_glide_ligand_efficiency_ln>  (61) 
-0.809579

>  <r_i_glide_gscore>  (61) 
-3.56312

>  <r_i_glide_lipo>  (61) 
-0.416093

>  <r_i_glide_hbond>  (61) 
-0.125843

>  <r_i_glide_metal>  (61) 
-0

>  <r_i_glide_rewards>  (61) 
-0.589569

>  <r_i_glide_evdw>  (61) 
-17.2579

>  <r_i_glide_ecoul>  (61) 
-11.4367

>  <r_i_glide_erotb>  (61) 
0.23074

>  <r_i_glide_esite>  (61) 
-0.083943

>  <r_i_glide_emodel>  (61) 
-34.8005

>  <r_i_glide_energy>  (61) 
-28.6947

>  <r_i_glide_einternal>  (61) 
7.23546

>  <r_i_glide_intrahb_reward>  (61) 
-0

>  <i_i_glide_confnum>  (61) 
4

>  <i_i_glide_posenum>  (61) 
9

>  <r_i_glide_eff_state_penalty>  (61) 
0

>  <ligand_id>  (61) 
17

>  <original_smiles>  (61) 
CNC1C(O)C2C3N(CC4CC4)CCC45c6c(ccc(O)c6OC14)CC35OC2(C)C

>  <smiles>  (61) 
[H]Oc1c([H])c([H])c2c3c1OC1([H])C34C([H])([H])C([H])([H])N(C([H])([H])C3([H])C([H])([H])C3([H])[H])C3([H])C([H])(C([H])(O[H])C1([H])[N+]([H])([H])C([H])([H])[H])C(C([H])([H])[H])(C([H])([H])[H])OC34C2([H])[H]

$$$$
17:1:2
     RDKit          3D

 63 69  0  0  1  0  0  0  0  0999 V2000
    5.5087  -11.0790    3.0606 C   0  0  0  0  0  0  0  0  0  0  0  0
    5.5489  -10.3289    1.7606 N   0  0  0  0  0  0  0  0  0  0  0  0
    5.3984   -8.8281    1.8038 C   0  0  2  0  0  0  0  0  0  0  0  0
    6.6839   -8.1072    2.3803 C   0  0  1  0  0  0  0  0  0  0  0  0
    7.5495   -7.8971    1.2791 O   0  0  0  0  0  0  0  0  0  0  0  0
    6.6490   -6.7708    3.2788 C   0  0  1  0  0  0  0  0  0  0  0  0
    5.7837   -5.5321    2.8777 C   0  0  1  0  0  0  0  0  0  0  0  0
    5.8288   -4.9255    1.5345 N   0  0  0  0  0  0  0  0  0  0  0  0
    7.1547   -4.4277    1.1787 C   0  0  0  0  0  0  0  0  0  0  0  0
    7.1981   -3.4592    0.0050 C   0  0  0  0  0  0  0  0  0  0  0  0
    8.3977   -2.5575   -0.2196 C   0  0  0  0  0  0  0  0  0  0  0  0
    7.0924   -1.9728    0.2612 C   0  0  0  0  0  0  0  0  0  0  0  0
    5.2185   -5.7372    0.4946 C   0  0  0  0  0  0  0  0  0  0  0  0
    3.8678   -6.3149    0.8971 C   0  0  0  0  0  0  0  0  0  0  0  0
    3.8137   -6.8969    2.3348 C   0  0  1  0  0  0  0  0  0  0  0  0
    2.4238   -6.8961    2.7134 C   0  0  0  0  0  0  0  0  0  0  0  0
    1.9736   -5.8038    3.4021 C   0  0  0  0  0  0  0  0  0  0  0  0
    0.6065   -5.8397    3.7531 C   0  0  0  0  0  0  0  0  0  0  0  0
   -0.1169   -7.0096    3.3929 C   0  0  0  0  0  0  0  0  0  0  0  0
    0.4815   -8.1336    2.7639 C   0  0  0  0  0  0  0  0  0  0  0  0
   -0.2506   -9.2526    2.5004 O   0  0  0  0  0  0  0  0  0  0  0  0
    1.8496   -8.0782    2.4255 C   0  0  0  0  0  0  0  0  0  0  0  0
    2.7978   -8.9846    1.9843 O   0  0  0  0  0  0  0  0  0  0  0  0
    4.0610   -8.4137    2.4410 C   0  0  1  0  0  0  0  0  0  0  0  0
    3.2230   -4.9751    3.6888 C   0  0  0  0  0  0  0  0  0  0  0  0
    4.4058   -5.9659    3.3830 C   0  0  2  0  0  0  0  0  0  0  0  0
    4.7115   -6.6622    4.6000 O   0  0  0  0  0  0  0  0  0  0  0  0
    6.1007   -6.9517    4.7284 C   0  0  0  0  0  0  0  0  0  0  0  0
    6.2220   -8.3447    5.3639 C   0  0  0  0  0  0  0  0  0  0  0  0
    6.7032   -5.9628    5.7507 C   0  0  0  0  0  0  0  0  0  0  0  0
    5.5016  -12.1691    2.8358 H   0  0  0  0  0  0  0  0  0  0  0  0
    4.5759  -10.8758    3.6042 H   0  0  0  0  0  0  0  0  0  0  0  0
    6.3622  -10.8244    3.6986 H   0  0  0  0  0  0  0  0  0  0  0  0
    6.4308  -10.5005    1.3229 H   0  0  0  0  0  0  0  0  0  0  0  0
    5.3228   -8.5496    0.7445 H   0  0  0  0  0  0  0  0  0  0  0  0
    7.2361   -8.8285    2.9746 H   0  0  0  0  0  0  0  0  0  0  0  0
    8.4505   -7.7792    1.5862 H   0  0  0  0  0  0  0  0  0  0  0  0
    7.6878   -6.4383    3.3446 H   0  0  0  0  0  0  0  0  0  0  0  0
    6.1207   -4.7268    3.5269 H   0  0  0  0  0  0  0  0  0  0  0  0
    7.6136   -3.9407    2.0345 H   0  0  0  0  0  0  0  0  0  0  0  0
    7.7896   -5.2771    0.9433 H   0  0  0  0  0  0  0  0  0  0  0  0
    6.7660   -3.8488   -0.9185 H   0  0  0  0  0  0  0  0  0  0  0  0
    9.2298   -2.6192    0.4857 H   0  0  0  0  0  0  0  0  0  0  0  0
    8.6781   -2.3634   -1.2549 H   0  0  0  0  0  0  0  0  0  0  0  0
    6.4747   -1.4186   -0.4420 H   0  0  0  0  0  0  0  0  0  0  0  0
    7.0173   -1.6602    1.3047 H   0  0  0  0  0  0  0  0  0  0  0  0
    5.0035   -5.1345   -0.3914 H   0  0  0  0  0  0  0  0  0  0  0  0
    5.8973   -6.5078    0.1619 H   0  0  0  0  0  0  0  0  0  0  0  0
    3.1591   -5.4863    0.8431 H   0  0  0  0  0  0  0  0  0  0  0  0
    3.5410   -7.0472    0.1677 H   0  0  0  0  0  0  0  0  0  0  0  0
    0.1622   -5.0324    4.3091 H   0  0  0  0  0  0  0  0  0  0  0  0
   -1.1728   -7.0747    3.6216 H   0  0  0  0  0  0  0  0  0  0  0  0
    0.1502   -9.8413    1.8888 H   0  0  0  0  0  0  0  0  0  0  0  0
    4.0711   -8.6696    3.5003 H   0  0  0  0  0  0  0  0  0  0  0  0
    3.2621   -4.1256    3.0122 H   0  0  0  0  0  0  0  0  0  0  0  0
    3.2595   -4.6123    4.7133 H   0  0  0  0  0  0  0  0  0  0  0  0
    7.2717   -8.6518    5.4292 H   0  0  0  0  0  0  0  0  0  0  0  0
    5.6672   -9.0656    4.7947 H   0  0  0  0  0  0  0  0  0  0  0  0
    5.8466   -8.3253    6.4020 H   0  0  0  0  0  0  0  0  0  0  0  0
    7.7807   -6.1175    5.8392 H   0  0  0  0  0  0  0  0  0  0  0  0
    6.2767   -6.1598    6.7385 H   0  0  0  0  0  0  0  0  0  0  0  0
    6.5166   -4.9079    5.5383 H   0  0  0  0  0  0  0  0  0  0  0  0
    4.8312  -10.7318    1.1818 H   0  0  0  0  0  0  0  0  0  0  0  0
  1  2  1  0
  1 31  1  0
  1 32  1  0
  1 33  1  0
  2  3  1  0
  2 34  1  0
  2 63  1  0
  3 24  1  0
  3  4  1  0
  3 35  1  6
  4  5  1  0
  4  6  1  0
  4 36  1  1
  5 37  1  0
  6 28  1  0
  6  7  1  0
  6 38  1  1
  7 26  1  0
  7  8  1  0
  7 39  1  1
  8  9  1  0
  8 13  1  0
  9 10  1  0
  9 40  1  0
  9 41  1  0
 10 12  1  0
 10 11  1  0
 10 42  1  0
 11 12  1  0
 11 43  1  0
 11 44  1  0
 12 45  1  0
 12 46  1  0
 13 14  1  0
 13 47  1  0
 13 48  1  0
 15 14  1  6
 14 49  1  0
 14 50  1  0
 15 24  1  0
 15 26  1  0
 15 16  1  0
 16 22  1  0
 16 17  2  0
 17 18  1  0
 17 25  1  0
 18 19  2  0
 18 51  1  0
 19 20  1  0
 19 52  1  0
 20 21  1  0
 20 22  2  0
 21 53  1  0
 22 23  1  0
 23 24  1  0
 24 54  1  1
 25 26  1  0
 25 55  1  0
 25 56  1  0
 26 27  1  1
 27 28  1  0
 28 29  1  0
 28 30  1  0
 29 57  1  0
 29 58  1  0
 29 59  1  0
 30 60  1  0
 30 61  1  0
 30 62  1  0
M  CHG  1   2   1
M  END
>  <i_m_ct_stereo_status>  (62) 
1

>  <s_m_source_file>  (62) 
/var/tmp/pbs.5083856.sched01/tmphzvygrdv/20hie1wr_j.sdf

>  <i_m_source_file_index>  (62) 
5

>  <i_lp_mmshare_version>  (62) 
48012

>  <i_f3d_flags>  (62) 
0

>  <s_epik_input>  (62) 
W0NIMl0xW0NIMl1bQ0hdMVtDSDJdTihbQ0gyXVtDSDJdMilbQ0BASF0oW0NAXTM0W0NAXTI1NilbQ0BASF0oQyhPNCkoW0NIM10pW0NIM10pW0NASF0oW09IXSlbQ0BASF0oW05IXVtDSDNdKVtDQEBIXTZPYzdjNWMoW0NIMl0zKVtjSF1bY0hdYzdbT0hd

>  <s_epik_cmdline>  (62) 
J2VwaWtfcHl0aG9uJywgJy1waHQnLCAnMi4wJywgJy1waCcsICc3LjAnLCAnLXRuJywgJzgnLCAnLW1hJywgJzIwMCcsICctaW1hZScsICc8aW5maWxlLm1hZT4nLCAnLW9tYWUnLCAnPG91dGZpbGUubWFlPic=

>  <r_lp_tautomer_probability>  (62) 
1

>  <r_epik_Ionization_Penalty>  (62) 
0.715195

>  <r_epik_Ionization_Penalty_Charging>  (62) 
0.0515171

>  <r_epik_Ionization_Penalty_Neutral>  (62) 
0.663678

>  <r_epik_State_Penalty>  (62) 
0.794015

>  <r_epik_Charging_Adjusted_Penalty>  (62) 
0.845532

>  <i_epik_Tot_Q>  (62) 
1

>  <i_epik_Tot_abs_Q>  (62) 
1

>  <s_lp_Force_Field>  (62) 
OPLS3e

>  <r_lp_Energy>  (62) 
101.174

>  <b_lp_Chiralities_Consistent>  (62) 
1

>  <s_lp_Variant>  (62) 
17:0-2

>  <s_i_glide_gridfile>  (62) 
pfpi4k_grid

>  <i_i_glide_lignum>  (62) 
5

>  <i_i_glide_rotatable_bonds>  (62) 
5

>  <r_i_docking_score>  (62) 
-3.20599

>  <r_i_glide_ligand_efficiency>  (62) 
-0.106866

>  <r_i_glide_ligand_efficiency_sa>  (62) 
-0.332058

>  <r_i_glide_ligand_efficiency_ln>  (62) 
-0.728436

>  <r_i_glide_gscore>  (62) 
-3.20599

>  <r_i_glide_lipo>  (62) 
-0.541603

>  <r_i_glide_hbond>  (62) 
-0.212996

>  <r_i_glide_metal>  (62) 
-0

>  <r_i_glide_rewards>  (62) 
-0.589569

>  <r_i_glide_evdw>  (62) 
-21.6026

>  <r_i_glide_ecoul>  (62) 
-6.11692

>  <r_i_glide_erotb>  (62) 
0.23074

>  <r_i_glide_esite>  (62) 
-0.0948926

>  <r_i_glide_emodel>  (62) 
-35.6167

>  <r_i_glide_energy>  (62) 
-27.7195

>  <r_i_glide_einternal>  (62) 
2.93512

>  <r_i_glide_intrahb_reward>  (62) 
-0

>  <i_i_glide_confnum>  (62) 
4

>  <i_i_glide_posenum>  (62) 
2

>  <r_i_glide_eff_state_penalty>  (62) 
0

>  <ligand_id>  (62) 
17

>  <original_smiles>  (62) 
CNC1C(O)C2C3N(CC4CC4)CCC45c6c(ccc(O)c6OC14)CC35OC2(C)C

>  <smiles>  (62) 
[H]Oc1c([H])c([H])c2c3c1OC1([H])C34C([H])([H])C([H])([H])N(C([H])([H])C3([H])C([H])([H])C3([H])[H])C3([H])C([H])(C([H])(O[H])C1([H])[N+]([H])([H])C([H])([H])[H])C(C([H])([H])[H])(C([H])([H])[H])OC34C2([H])[H]

$$$$
17:2:0
     RDKit          3D

 63 69  0  0  1  0  0  0  0  0999 V2000
   -2.0697    3.0733    8.2305 C   0  0  0  0  0  0  0  0  0  0  0  0
   -2.6374    2.7581    6.9065 N   0  0  0  0  0  0  0  0  0  0  0  0
   -1.7490    2.1706    5.8631 C   0  0  2  0  0  0  0  0  0  0  0  0
   -1.2278    0.7063    6.2524 C   0  0  1  0  0  0  0  0  0  0  0  0
   -2.1368   -0.2556    5.7384 O   0  0  0  0  0  0  0  0  0  0  0  0
    0.2583    0.1548    6.0244 C   0  0  1  0  0  0  0  0  0  0  0  0
    0.9690    0.3068    4.6342 C   0  0  1  0  0  0  0  0  0  0  0  0
    0.2344   -0.0955    3.3833 N   0  0  2  0  0  0  0  0  0  0  0  0
    1.1515   -0.4559    2.2530 C   0  0  0  0  0  0  0  0  0  0  0  0
    1.7731   -1.8298    2.3945 C   0  0  0  0  0  0  0  0  0  0  0  0
    3.1992   -1.9632    2.8526 C   0  0  0  0  0  0  0  0  0  0  0  0
    2.8430   -2.2388    1.4112 C   0  0  0  0  0  0  0  0  0  0  0  0
   -0.8322    0.8524    2.9568 C   0  0  0  0  0  0  0  0  0  0  0  0
   -0.4101    2.3119    3.0792 C   0  0  0  0  0  0  0  0  0  0  0  0
    0.2964    2.6777    4.3989 C   0  0  1  0  0  0  0  0  0  0  0  0
    0.9809    3.9187    4.1586 C   0  0  0  0  0  0  0  0  0  0  0  0
    2.2967    3.8560    3.7750 C   0  0  0  0  0  0  0  0  0  0  0  0
    2.9051    5.0911    3.4885 C   0  0  0  0  0  0  0  0  0  0  0  0
    2.1264    6.2690    3.7171 C   0  0  0  0  0  0  0  0  0  0  0  0
    0.8109    6.2138    4.2967 C   0  0  0  0  0  0  0  0  0  0  0  0
    0.1837    7.3844    4.6026 O   0  0  0  0  0  0  0  0  0  0  0  0
    0.2054    4.9744    4.5146 C   0  0  0  0  0  0  0  0  0  0  0  0
   -0.9467    4.5253    5.1260 O   0  0  0  0  0  0  0  0  0  0  0  0
   -0.6161    3.1601    5.5222 C   0  0  1  0  0  0  0  0  0  0  0  0
    2.6738    2.3826    3.9070 C   0  0  0  0  0  0  0  0  0  0  0  0
    1.4679    1.7602    4.7204 C   0  0  2  0  0  0  0  0  0  0  0  0
    1.8491    1.8709    6.1066 O   0  0  0  0  0  0  0  0  0  0  0  0
    1.3686    0.7971    6.9238 C   0  0  0  0  0  0  0  0  0  0  0  0
    0.9639    1.3658    8.2870 C   0  0  0  0  0  0  0  0  0  0  0  0
    2.5640   -0.1316    7.2184 C   0  0  0  0  0  0  0  0  0  0  0  0
   -2.7833    3.5695    8.8997 H   0  0  0  0  0  0  0  0  0  0  0  0
   -1.2155    3.7423    8.1497 H   0  0  0  0  0  0  0  0  0  0  0  0
   -1.7201    2.1659    8.7206 H   0  0  0  0  0  0  0  0  0  0  0  0
   -3.4324    2.1389    7.0316 H   0  0  0  0  0  0  0  0  0  0  0  0
   -2.3464    2.0849    4.9458 H   0  0  0  0  0  0  0  0  0  0  0  0
   -1.3847    0.5624    7.3117 H   0  0  0  0  0  0  0  0  0  0  0  0
   -2.1939   -0.1725    4.8008 H   0  0  0  0  0  0  0  0  0  0  0  0
    0.2133   -0.9144    6.2648 H   0  0  0  0  0  0  0  0  0  0  0  0
    1.8276   -0.3574    4.6599 H   0  0  0  0  0  0  0  0  0  0  0  0
    0.6301   -0.4327    1.2937 H   0  0  0  0  0  0  0  0  0  0  0  0
    1.9358    0.2889    2.1379 H   0  0  0  0  0  0  0  0  0  0  0  0
    1.0679   -2.6198    2.6513 H   0  0  0  0  0  0  0  0  0  0  0  0
    3.7458   -1.0461    3.0713 H   0  0  0  0  0  0  0  0  0  0  0  0
    3.4340   -2.8126    3.4850 H   0  0  0  0  0  0  0  0  0  0  0  0
    2.8972   -3.2753    1.0982 H   0  0  0  0  0  0  0  0  0  0  0  0
    3.1815   -1.5191    0.6658 H   0  0  0  0  0  0  0  0  0  0  0  0
   -1.1371    0.6462    1.9318 H   0  0  0  0  0  0  0  0  0  0  0  0
   -1.7466    0.6709    3.5098 H   0  0  0  0  0  0  0  0  0  0  0  0
    0.2556    2.5081    2.2450 H   0  0  0  0  0  0  0  0  0  0  0  0
   -1.2736    2.9461    2.9159 H   0  0  0  0  0  0  0  0  0  0  0  0
    3.9376    5.1503    3.1487 H   0  0  0  0  0  0  0  0  0  0  0  0
    2.5568    7.2151    3.4798 H   0  0  0  0  0  0  0  0  0  0  0  0
    0.1780    7.9302    3.8435 H   0  0  0  0  0  0  0  0  0  0  0  0
    0.0180    3.3122    6.3869 H   0  0  0  0  0  0  0  0  0  0  0  0
    2.7533    2.0057    2.8927 H   0  0  0  0  0  0  0  0  0  0  0  0
    3.6287    2.2094    4.4162 H   0  0  0  0  0  0  0  0  0  0  0  0
    0.5003    0.6147    8.9295 H   0  0  0  0  0  0  0  0  0  0  0  0
    0.2915    2.1841    8.1066 H   0  0  0  0  0  0  0  0  0  0  0  0
    1.8162    1.7890    8.8234 H   0  0  0  0  0  0  0  0  0  0  0  0
    2.2264   -1.0150    7.7688 H   0  0  0  0  0  0  0  0  0  0  0  0
    3.2635    0.3950    7.8743 H   0  0  0  0  0  0  0  0  0  0  0  0
    3.1309   -0.4424    6.3329 H   0  0  0  0  0  0  0  0  0  0  0  0
   -0.2382   -0.9753    3.5808 H   0  0  0  0  0  0  0  0  0  0  0  0
  1  2  1  0
  1 31  1  0
  1 32  1  0
  1 33  1  0
  2  3  1  0
  2 34  1  0
  3 24  1  0
  3  4  1  0
  3 35  1  6
  4  5  1  0
  4  6  1  0
  4 36  1  1
  5 37  1  0
  6 28  1  0
  6  7  1  0
  6 38  1  1
  7 26  1  0
  7  8  1  0
  7 39  1  1
  8  9  1  0
  8 13  1  0
  8 63  1  1
  9 10  1  0
  9 40  1  0
  9 41  1  0
 10 12  1  0
 10 11  1  0
 10 42  1  0
 11 12  1  0
 11 43  1  0
 11 44  1  0
 12 45  1  0
 12 46  1  0
 13 14  1  0
 13 47  1  0
 13 48  1  0
 15 14  1  6
 14 49  1  0
 14 50  1  0
 15 24  1  0
 15 26  1  0
 15 16  1  0
 16 22  1  0
 16 17  2  0
 17 18  1  0
 17 25  1  0
 18 19  2  0
 18 51  1  0
 19 20  1  0
 19 52  1  0
 20 21  1  0
 20 22  2  0
 21 53  1  0
 22 23  1  0
 23 24  1  0
 24 54  1  1
 25 26  1  0
 25 55  1  0
 25 56  1  0
 26 27  1  1
 27 28  1  0
 28 29  1  0
 28 30  1  0
 29 57  1  0
 29 58  1  0
 29 59  1  0
 30 60  1  0
 30 61  1  0
 30 62  1  0
M  CHG  1   8   1
M  END
>  <i_m_ct_stereo_status>  (63) 
1

>  <s_m_source_file>  (63) 
/var/tmp/pbs.5083856.sched01/tmpjjl8s0my/25cbzfdbe7.sdf

>  <i_m_source_file_index>  (63) 
1

>  <i_lp_mmshare_version>  (63) 
48012

>  <i_f3d_flags>  (63) 
0

>  <s_epik_input>  (63) 
W0NIMl0xW0NIMl1bQ0hdMVtDSDJdTihbQ0gyXVtDSDJdMilbQ0BASF0oW0NAXTM0W0NAXTI1NilbQ0BASF0oQyhPNCkoW0NIM10pW0NIM10pW0NASF0oW09IXSlbQ0BASF0oW05IXVtDSDNdKVtDQEBIXTZPYzdjNWMoW0NIMl0zKVtjSF1bY0hdYzdbT0hd

>  <s_epik_cmdline>  (63) 
J2VwaWtfcHl0aG9uJywgJy1waHQnLCAnMi4wJywgJy1waCcsICc3LjAnLCAnLXRuJywgJzgnLCAnLW1hJywgJzIwMCcsICctaW1hZScsICc8aW5maWxlLm1hZT4nLCAnLW9tYWUnLCAnPG91dGZpbGUubWFlPic=

>  <r_epik_Ionization_Penalty>  (63) 
1.0745

>  <r_epik_Ionization_Penalty_Charging>  (63) 
0.0871284

>  <r_epik_Ionization_Penalty_Neutral>  (63) 
0.987368

>  <r_epik_State_Penalty>  (63) 
1.20375

>  <r_epik_Charging_Adjusted_Penalty>  (63) 
1.29088

>  <i_epik_Tot_Q>  (63) 
1

>  <i_epik_Tot_abs_Q>  (63) 
1

>  <s_lp_Force_Field>  (63) 
OPLS3e

>  <r_lp_Energy>  (63) 
105.607

>  <b_lp_Chiralities_Consistent>  (63) 
1

>  <s_lp_Variant>  (63) 
17:0-3

>  <s_i_glide_gridfile>  (63) 
pfpi4k_grid

>  <i_i_glide_lignum>  (63) 
1

>  <i_i_glide_rotatable_bonds>  (63) 
5

>  <r_i_docking_score>  (63) 
-3.74263

>  <r_i_glide_ligand_efficiency>  (63) 
-0.124754

>  <r_i_glide_ligand_efficiency_sa>  (63) 
-0.38764

>  <r_i_glide_ligand_efficiency_ln>  (63) 
-0.850366

>  <r_i_glide_gscore>  (63) 
-3.74263

>  <r_i_glide_lipo>  (63) 
-0.0627628

>  <r_i_glide_hbond>  (63) 
-0.100109

>  <r_i_glide_metal>  (63) 
-0

>  <r_i_glide_rewards>  (63) 
-0.589569

>  <r_i_glide_evdw>  (63) 
-20.3014

>  <r_i_glide_ecoul>  (63) 
-14.1104

>  <r_i_glide_erotb>  (63) 
0.161518

>  <r_i_glide_esite>  (63) 
-0.0200718

>  <r_i_glide_emodel>  (63) 
-38.9266

>  <r_i_glide_energy>  (63) 
-34.4118

>  <r_i_glide_einternal>  (63) 
5.04686

>  <r_i_glide_intrahb_reward>  (63) 
-0

>  <i_i_glide_confnum>  (63) 
2

>  <i_i_glide_posenum>  (63) 
31

>  <r_i_glide_eff_state_penalty>  (63) 
0

>  <ligand_id>  (63) 
17

>  <original_smiles>  (63) 
CNC1C(O)C2C3N(CC4CC4)CCC45c6c(ccc(O)c6OC14)CC35OC2(C)C

>  <smiles>  (63) 
[H]Oc1c([H])c([H])c2c3c1OC1([H])C([H])(N([H])C([H])([H])[H])C([H])(O[H])C4([H])C(C([H])([H])[H])(C([H])([H])[H])OC5(C2([H])[H])C31C([H])([H])C([H])([H])[N+]([H])(C([H])([H])C1([H])C([H])([H])C1([H])[H])C45[H]

$$$$
17:2:1
     RDKit          3D

 63 69  0  0  1  0  0  0  0  0999 V2000
    3.2814   -6.9923    3.9604 C   0  0  0  0  0  0  0  0  0  0  0  0
    4.3763   -6.7159    3.0252 N   0  0  0  0  0  0  0  0  0  0  0  0
    4.1577   -5.5506    2.1633 C   0  0  2  0  0  0  0  0  0  0  0  0
    5.0222   -5.7025    0.8456 C   0  0  1  0  0  0  0  0  0  0  0  0
    4.2234   -6.3439   -0.1260 O   0  0  0  0  0  0  0  0  0  0  0  0
    5.8318   -4.5167    0.1560 C   0  0  1  0  0  0  0  0  0  0  0  0
    5.1897   -3.1292   -0.1446 C   0  0  1  0  0  0  0  0  0  0  0  0
    3.8440   -3.0742   -0.8081 N   0  0  2  0  0  0  0  0  0  0  0  0
    3.5924   -1.7775   -1.5051 C   0  0  0  0  0  0  0  0  0  0  0  0
    2.8333   -1.9600   -2.8082 C   0  0  0  0  0  0  0  0  0  0  0  0
    3.5550   -2.4048   -4.0585 C   0  0  0  0  0  0  0  0  0  0  0  0
    3.0562   -0.9867   -3.9518 C   0  0  0  0  0  0  0  0  0  0  0  0
    2.7103   -3.4657    0.0587 C   0  0  0  0  0  0  0  0  0  0  0  0
    2.8208   -2.8890    1.4752 C   0  0  0  0  0  0  0  0  0  0  0  0
    4.2310   -3.0031    2.1322 C   0  0  1  0  0  0  0  0  0  0  0  0
    4.2703   -2.0397    3.1958 C   0  0  0  0  0  0  0  0  0  0  0  0
    4.7669   -0.7961    2.9222 C   0  0  0  0  0  0  0  0  0  0  0  0
    4.7412    0.1102    3.9989 C   0  0  0  0  0  0  0  0  0  0  0  0
    4.2333   -0.3638    5.2542 C   0  0  0  0  0  0  0  0  0  0  0  0
    3.8381   -1.7255    5.4506 C   0  0  0  0  0  0  0  0  0  0  0  0
    3.4265   -2.1651    6.6740 O   0  0  0  0  0  0  0  0  0  0  0  0
    3.8913   -2.6225    4.3631 C   0  0  0  0  0  0  0  0  0  0  0  0
    3.7392   -3.9770    4.2016 O   0  0  0  0  0  0  0  0  0  0  0  0
    4.4638   -4.2712    2.9672 C   0  0  1  0  0  0  0  0  0  0  0  0
    5.3206   -0.9219    1.4964 C   0  0  0  0  0  0  0  0  0  0  0  0
    5.3344   -2.4762    1.2290 C   0  0  2  0  0  0  0  0  0  0  0  0
    6.6080   -2.9503    1.6791 O   0  0  0  0  0  0  0  0  0  0  0  0
    7.1002   -4.0557    0.9309 C   0  0  0  0  0  0  0  0  0  0  0  0
    7.7625   -5.1082    1.8501 C   0  0  0  0  0  0  0  0  0  0  0  0
    8.2293   -3.5017    0.0222 C   0  0  0  0  0  0  0  0  0  0  0  0
    3.5423   -7.7900    4.6591 H   0  0  0  0  0  0  0  0  0  0  0  0
    2.3824   -7.2843    3.4170 H   0  0  0  0  0  0  0  0  0  0  0  0
    3.0194   -6.1288    4.5638 H   0  0  0  0  0  0  0  0  0  0  0  0
    5.2266   -6.5668    3.5586 H   0  0  0  0  0  0  0  0  0  0  0  0
    3.1105   -5.5365    1.8748 H   0  0  0  0  0  0  0  0  0  0  0  0
    5.7599   -6.4846    1.0272 H   0  0  0  0  0  0  0  0  0  0  0  0
    3.8762   -5.7254   -0.7525 H   0  0  0  0  0  0  0  0  0  0  0  0
    6.1764   -4.9290   -0.7770 H   0  0  0  0  0  0  0  0  0  0  0  0
    5.8598   -2.6391   -0.8448 H   0  0  0  0  0  0  0  0  0  0  0  0
    3.0349   -1.0838   -0.8752 H   0  0  0  0  0  0  0  0  0  0  0  0
    4.5245   -1.2717   -1.7541 H   0  0  0  0  0  0  0  0  0  0  0  0
    1.8073   -2.3089   -2.6916 H   0  0  0  0  0  0  0  0  0  0  0  0
    4.6250   -2.5869   -3.9655 H   0  0  0  0  0  0  0  0  0  0  0  0
    3.0095   -3.0857   -4.7114 H   0  0  0  0  0  0  0  0  0  0  0  0
    2.2161   -0.7250   -4.5925 H   0  0  0  0  0  0  0  0  0  0  0  0
    3.7943   -0.1964   -3.8162 H   0  0  0  0  0  0  0  0  0  0  0  0
    1.7882   -3.1225   -0.4042 H   0  0  0  0  0  0  0  0  0  0  0  0
    2.5981   -4.5413    0.0951 H   0  0  0  0  0  0  0  0  0  0  0  0
    2.5492   -1.8318    1.4036 H   0  0  0  0  0  0  0  0  0  0  0  0
    2.0630   -3.3337    2.1232 H   0  0  0  0  0  0  0  0  0  0  0  0
    5.1020    1.1231    3.8978 H   0  0  0  0  0  0  0  0  0  0  0  0
    4.1687    0.3145    6.0885 H   0  0  0  0  0  0  0  0  0  0  0  0
    3.2468   -3.0932    6.6943 H   0  0  0  0  0  0  0  0  0  0  0  0
    5.4986   -4.3156    3.3030 H   0  0  0  0  0  0  0  0  0  0  0  0
    4.6529   -0.3963    0.8145 H   0  0  0  0  0  0  0  0  0  0  0  0
    6.3223   -0.5004    1.4053 H   0  0  0  0  0  0  0  0  0  0  0  0
    8.1933   -5.9314    1.2791 H   0  0  0  0  0  0  0  0  0  0  0  0
    7.0886   -5.5450    2.5793 H   0  0  0  0  0  0  0  0  0  0  0  0
    8.5796   -4.6649    2.4138 H   0  0  0  0  0  0  0  0  0  0  0  0
    8.5971   -4.2513   -0.6814 H   0  0  0  0  0  0  0  0  0  0  0  0
    9.0816   -3.1949    0.6276 H   0  0  0  0  0  0  0  0  0  0  0  0
    7.9493   -2.6212   -0.5531 H   0  0  0  0  0  0  0  0  0  0  0  0
    3.8549   -3.7392   -1.5694 H   0  0  0  0  0  0  0  0  0  0  0  0
  1  2  1  0
  1 31  1  0
  1 32  1  0
  1 33  1  0
  2  3  1  0
  2 34  1  0
  3 24  1  0
  3  4  1  0
  3 35  1  6
  4  5  1  0
  4  6  1  0
  4 36  1  1
  5 37  1  0
  6 28  1  0
  6  7  1  0
  6 38  1  6
  7 26  1  0
  7  8  1  0
  7 39  1  6
  8  9  1  0
  8 13  1  0
  8 63  1  6
  9 10  1  0
  9 40  1  0
  9 41  1  0
 10 12  1  0
 10 11  1  0
 10 42  1  0
 11 12  1  0
 11 43  1  0
 11 44  1  0
 12 45  1  0
 12 46  1  0
 13 14  1  0
 13 47  1  0
 13 48  1  0
 15 14  1  6
 14 49  1  0
 14 50  1  0
 15 24  1  0
 15 26  1  0
 15 16  1  0
 16 22  1  0
 16 17  2  0
 17 18  1  0
 17 25  1  0
 18 19  2  0
 18 51  1  0
 19 20  1  0
 19 52  1  0
 20 21  1  0
 20 22  2  0
 21 53  1  0
 22 23  1  0
 23 24  1  0
 24 54  1  1
 25 26  1  0
 25 55  1  0
 25 56  1  0
 26 27  1  1
 27 28  1  0
 28 29  1  0
 28 30  1  0
 29 57  1  0
 29 58  1  0
 29 59  1  0
 30 60  1  0
 30 61  1  0
 30 62  1  0
M  CHG  1   8   1
M  END
>  <i_m_ct_stereo_status>  (64) 
1

>  <s_m_source_file>  (64) 
/var/tmp/pbs.5083856.sched01/tmpjjl8s0my/25cbzfdbe7.sdf

>  <i_m_source_file_index>  (64) 
1

>  <i_lp_mmshare_version>  (64) 
48012

>  <i_f3d_flags>  (64) 
0

>  <s_epik_input>  (64) 
W0NIMl0xW0NIMl1bQ0hdMVtDSDJdTihbQ0gyXVtDSDJdMilbQ0BASF0oW0NAXTM0W0NAXTI1NilbQ0BASF0oQyhPNCkoW0NIM10pW0NIM10pW0NASF0oW09IXSlbQ0BASF0oW05IXVtDSDNdKVtDQEBIXTZPYzdjNWMoW0NIMl0zKVtjSF1bY0hdYzdbT0hd

>  <s_epik_cmdline>  (64) 
J2VwaWtfcHl0aG9uJywgJy1waHQnLCAnMi4wJywgJy1waCcsICc3LjAnLCAnLXRuJywgJzgnLCAnLW1hJywgJzIwMCcsICctaW1hZScsICc8aW5maWxlLm1hZT4nLCAnLW9tYWUnLCAnPG91dGZpbGUubWFlPic=

>  <r_epik_Ionization_Penalty>  (64) 
1.0745

>  <r_epik_Ionization_Penalty_Charging>  (64) 
0.0871284

>  <r_epik_Ionization_Penalty_Neutral>  (64) 
0.987368

>  <r_epik_State_Penalty>  (64) 
1.20375

>  <r_epik_Charging_Adjusted_Penalty>  (64) 
1.29088

>  <i_epik_Tot_Q>  (64) 
1

>  <i_epik_Tot_abs_Q>  (64) 
1

>  <s_lp_Force_Field>  (64) 
OPLS3e

>  <r_lp_Energy>  (64) 
105.607

>  <b_lp_Chiralities_Consistent>  (64) 
1

>  <s_lp_Variant>  (64) 
17:0-3

>  <s_i_glide_gridfile>  (64) 
pfpi4k_grid

>  <i_i_glide_lignum>  (64) 
1

>  <i_i_glide_rotatable_bonds>  (64) 
5

>  <r_i_docking_score>  (64) 
-3.54419

>  <r_i_glide_ligand_efficiency>  (64) 
-0.11814

>  <r_i_glide_ligand_efficiency_sa>  (64) 
-0.367087

>  <r_i_glide_ligand_efficiency_ln>  (64) 
-0.805278

>  <r_i_glide_gscore>  (64) 
-3.54419

>  <r_i_glide_lipo>  (64) 
-1.10818

>  <r_i_glide_hbond>  (64) 
-0.151438

>  <r_i_glide_metal>  (64) 
-0

>  <r_i_glide_rewards>  (64) 
-0.589569

>  <r_i_glide_evdw>  (64) 
-21.2804

>  <r_i_glide_ecoul>  (64) 
-5.7391

>  <r_i_glide_erotb>  (64) 
0.23074

>  <r_i_glide_esite>  (64) 
-0.000858267

>  <r_i_glide_emodel>  (64) 
-32.9433

>  <r_i_glide_energy>  (64) 
-27.0195

>  <r_i_glide_einternal>  (64) 
4.69666

>  <r_i_glide_intrahb_reward>  (64) 
-0

>  <i_i_glide_confnum>  (64) 
2

>  <i_i_glide_posenum>  (64) 
19

>  <r_i_glide_eff_state_penalty>  (64) 
0

>  <ligand_id>  (64) 
17

>  <original_smiles>  (64) 
CNC1C(O)C2C3N(CC4CC4)CCC45c6c(ccc(O)c6OC14)CC35OC2(C)C

>  <smiles>  (64) 
[H]Oc1c([H])c([H])c2c3c1OC1([H])C([H])(N([H])C([H])([H])[H])C([H])(O[H])C4([H])C(C([H])([H])[H])(C([H])([H])[H])OC5(C2([H])[H])C31C([H])([H])C([H])([H])[N+]([H])(C([H])([H])C1([H])C([H])([H])C1([H])[H])C45[H]

$$$$
17:2:2
     RDKit          3D

 63 69  0  0  1  0  0  0  0  0999 V2000
    6.4745  -10.8982    1.3466 C   0  0  0  0  0  0  0  0  0  0  0  0
    5.3801  -10.2340    2.0316 N   0  0  0  0  0  0  0  0  0  0  0  0
    5.3007   -8.7850    1.8186 C   0  0  2  0  0  0  0  0  0  0  0  0
    6.6078   -8.0565    2.3716 C   0  0  1  0  0  0  0  0  0  0  0  0
    7.5079   -7.8187    1.3035 O   0  0  0  0  0  0  0  0  0  0  0  0
    6.6084   -6.7316    3.2488 C   0  0  1  0  0  0  0  0  0  0  0  0
    5.8084   -5.4663    2.8094 C   0  0  1  0  0  0  0  0  0  0  0  0
    5.9252   -4.9884    1.3839 N   0  0  2  0  0  0  0  0  0  0  0  0
    5.6259   -3.5308    1.2342 C   0  0  0  0  0  0  0  0  0  0  0  0
    6.1343   -2.9150   -0.0704 C   0  0  0  0  0  0  0  0  0  0  0  0
    7.4094   -2.1048   -0.0930 C   0  0  0  0  0  0  0  0  0  0  0  0
    6.0821   -1.4134   -0.2716 C   0  0  0  0  0  0  0  0  0  0  0  0
    5.2070   -5.8225    0.3881 C   0  0  0  0  0  0  0  0  0  0  0  0
    3.8292   -6.2566    0.8635 C   0  0  0  0  0  0  0  0  0  0  0  0
    3.7756   -6.8001    2.3157 C   0  0  1  0  0  0  0  0  0  0  0  0
    2.3990   -6.7395    2.7109 C   0  0  0  0  0  0  0  0  0  0  0  0
    1.9786   -5.6156    3.3708 C   0  0  0  0  0  0  0  0  0  0  0  0
    0.6160   -5.5923    3.7063 C   0  0  0  0  0  0  0  0  0  0  0  0
   -0.1699   -6.7382    3.3574 C   0  0  0  0  0  0  0  0  0  0  0  0
    0.4002   -7.8999    2.7487 C   0  0  0  0  0  0  0  0  0  0  0  0
   -0.3853   -8.9787    2.4815 O   0  0  0  0  0  0  0  0  0  0  0  0
    1.7804   -7.9153    2.4369 C   0  0  0  0  0  0  0  0  0  0  0  0
    2.6938   -8.8542    2.0083 O   0  0  0  0  0  0  0  0  0  0  0  0
    3.9802   -8.3144    2.4582 C   0  0  1  0  0  0  0  0  0  0  0  0
    3.2576   -4.8193    3.6326 C   0  0  0  0  0  0  0  0  0  0  0  0
    4.4109   -5.8486    3.3160 C   0  0  2  0  0  0  0  0  0  0  0  0
    4.6661   -6.5461    4.5465 O   0  0  0  0  0  0  0  0  0  0  0  0
    6.0384   -6.9169    4.6890 C   0  0  0  0  0  0  0  0  0  0  0  0
    6.1372   -8.3320    5.3032 C   0  0  0  0  0  0  0  0  0  0  0  0
    6.6602   -5.9403    5.7173 C   0  0  0  0  0  0  0  0  0  0  0  0
    6.3819  -11.9834    1.4304 H   0  0  0  0  0  0  0  0  0  0  0  0
    7.4147  -10.6150    1.7846 H   0  0  0  0  0  0  0  0  0  0  0  0
    6.4809  -10.6384    0.2890 H   0  0  0  0  0  0  0  0  0  0  0  0
    4.5252  -10.6735    1.6880 H   0  0  0  0  0  0  0  0  0  0  0  0
    5.2056   -8.6093    0.7492 H   0  0  0  0  0  0  0  0  0  0  0  0
    7.1324   -8.7866    2.9870 H   0  0  0  0  0  0  0  0  0  0  0  0
    8.3963   -7.8613    1.6345 H   0  0  0  0  0  0  0  0  0  0  0  0
    7.6606   -6.4537    3.3458 H   0  0  0  0  0  0  0  0  0  0  0  0
    6.1807   -4.6464    3.4161 H   0  0  0  0  0  0  0  0  0  0  0  0
    4.5512   -3.3597    1.2894 H   0  0  0  0  0  0  0  0  0  0  0  0
    6.0688   -2.9694    2.0606 H   0  0  0  0  0  0  0  0  0  0  0  0
    5.8929   -3.4599   -0.9851 H   0  0  0  0  0  0  0  0  0  0  0  0
    7.9285   -1.9806    0.8570 H   0  0  0  0  0  0  0  0  0  0  0  0
    8.0435   -2.2590   -0.9657 H   0  0  0  0  0  0  0  0  0  0  0  0
    5.8235   -1.0622   -1.2698 H   0  0  0  0  0  0  0  0  0  0  0  0
    5.7063   -0.7991    0.5466 H   0  0  0  0  0  0  0  0  0  0  0  0
    5.0728   -5.3280   -0.5697 H   0  0  0  0  0  0  0  0  0  0  0  0
    5.8064   -6.6736    0.1244 H   0  0  0  0  0  0  0  0  0  0  0  0
    3.1764   -5.3839    0.7701 H   0  0  0  0  0  0  0  0  0  0  0  0
    3.4323   -6.9896    0.1659 H   0  0  0  0  0  0  0  0  0  0  0  0
    0.1837   -4.7454    4.2200 H   0  0  0  0  0  0  0  0  0  0  0  0
   -1.2223   -6.7406    3.5727 H   0  0  0  0  0  0  0  0  0  0  0  0
    0.0296   -9.6094    1.9027 H   0  0  0  0  0  0  0  0  0  0  0  0
    3.9995   -8.5866    3.5106 H   0  0  0  0  0  0  0  0  0  0  0  0
    3.2671   -3.9606    2.9664 H   0  0  0  0  0  0  0  0  0  0  0  0
    3.3167   -4.4544    4.6604 H   0  0  0  0  0  0  0  0  0  0  0  0
    7.1723   -8.6168    5.4821 H   0  0  0  0  0  0  0  0  0  0  0  0
    5.6895   -9.1143    4.6987 H   0  0  0  0  0  0  0  0  0  0  0  0
    5.6248   -8.3655    6.2617 H   0  0  0  0  0  0  0  0  0  0  0  0
    7.7366   -6.0866    5.8074 H   0  0  0  0  0  0  0  0  0  0  0  0
    6.2352   -6.1099    6.7054 H   0  0  0  0  0  0  0  0  0  0  0  0
    6.4861   -4.8892    5.4942 H   0  0  0  0  0  0  0  0  0  0  0  0
    6.9081   -5.0624    1.1486 H   0  0  0  0  0  0  0  0  0  0  0  0
  1  2  1  0
  1 31  1  0
  1 32  1  0
  1 33  1  0
  2  3  1  0
  2 34  1  0
  3 24  1  0
  3  4  1  0
  3 35  1  6
  4  5  1  0
  4  6  1  0
  4 36  1  1
  5 37  1  0
  6 28  1  0
  6  7  1  0
  6 38  1  1
  7 26  1  0
  7  8  1  0
  7 39  1  1
  8  9  1  0
  8 13  1  0
  8 63  1  6
  9 10  1  0
  9 40  1  0
  9 41  1  0
 10 12  1  0
 10 11  1  0
 10 42  1  0
 11 12  1  0
 11 43  1  0
 11 44  1  0
 12 45  1  0
 12 46  1  0
 13 14  1  0
 13 47  1  0
 13 48  1  0
 15 14  1  6
 14 49  1  0
 14 50  1  0
 15 24  1  0
 15 26  1  0
 15 16  1  0
 16 22  1  0
 16 17  2  0
 17 18  1  0
 17 25  1  0
 18 19  2  0
 18 51  1  0
 19 20  1  0
 19 52  1  0
 20 21  1  0
 20 22  2  0
 21 53  1  0
 22 23  1  0
 23 24  1  0
 24 54  1  1
 25 26  1  0
 25 55  1  0
 25 56  1  0
 26 27  1  1
 27 28  1  0
 28 29  1  0
 28 30  1  0
 29 57  1  0
 29 58  1  0
 29 59  1  0
 30 60  1  0
 30 61  1  0
 30 62  1  0
M  CHG  1   8   1
M  END
>  <i_m_ct_stereo_status>  (65) 
1

>  <s_m_source_file>  (65) 
/var/tmp/pbs.5083856.sched01/tmpjjl8s0my/25cbzfdbe7.sdf

>  <i_m_source_file_index>  (65) 
1

>  <i_lp_mmshare_version>  (65) 
48012

>  <i_f3d_flags>  (65) 
0

>  <s_epik_input>  (65) 
W0NIMl0xW0NIMl1bQ0hdMVtDSDJdTihbQ0gyXVtDSDJdMilbQ0BASF0oW0NAXTM0W0NAXTI1NilbQ0BASF0oQyhPNCkoW0NIM10pW0NIM10pW0NASF0oW09IXSlbQ0BASF0oW05IXVtDSDNdKVtDQEBIXTZPYzdjNWMoW0NIMl0zKVtjSF1bY0hdYzdbT0hd

>  <s_epik_cmdline>  (65) 
J2VwaWtfcHl0aG9uJywgJy1waHQnLCAnMi4wJywgJy1waCcsICc3LjAnLCAnLXRuJywgJzgnLCAnLW1hJywgJzIwMCcsICctaW1hZScsICc8aW5maWxlLm1hZT4nLCAnLW9tYWUnLCAnPG91dGZpbGUubWFlPic=

>  <r_epik_Ionization_Penalty>  (65) 
1.0745

>  <r_epik_Ionization_Penalty_Charging>  (65) 
0.0871284

>  <r_epik_Ionization_Penalty_Neutral>  (65) 
0.987368

>  <r_epik_State_Penalty>  (65) 
1.20375

>  <r_epik_Charging_Adjusted_Penalty>  (65) 
1.29088

>  <i_epik_Tot_Q>  (65) 
1

>  <i_epik_Tot_abs_Q>  (65) 
1

>  <s_lp_Force_Field>  (65) 
OPLS3e

>  <r_lp_Energy>  (65) 
105.607

>  <b_lp_Chiralities_Consistent>  (65) 
1

>  <s_lp_Variant>  (65) 
17:0-3

>  <s_i_glide_gridfile>  (65) 
pfpi4k_grid

>  <i_i_glide_lignum>  (65) 
1

>  <i_i_glide_rotatable_bonds>  (65) 
5

>  <r_i_docking_score>  (65) 
-2.71223

>  <r_i_glide_ligand_efficiency>  (65) 
-0.0904078

>  <r_i_glide_ligand_efficiency_sa>  (65) 
-0.280918

>  <r_i_glide_ligand_efficiency_ln>  (65) 
-0.616249

>  <r_i_glide_gscore>  (65) 
-2.71223

>  <r_i_glide_lipo>  (65) 
-0.378202

>  <r_i_glide_hbond>  (65) 
-0.109255

>  <r_i_glide_metal>  (65) 
-0

>  <r_i_glide_rewards>  (65) 
-0.589569

>  <r_i_glide_evdw>  (65) 
-21.7999

>  <r_i_glide_ecoul>  (65) 
-5.17302

>  <r_i_glide_erotb>  (65) 
0.23074

>  <r_i_glide_esite>  (65) 
0

>  <r_i_glide_emodel>  (65) 
-32.7226

>  <r_i_glide_energy>  (65) 
-26.9729

>  <r_i_glide_einternal>  (65) 
1.24416

>  <r_i_glide_intrahb_reward>  (65) 
-0

>  <i_i_glide_confnum>  (65) 
2

>  <i_i_glide_posenum>  (65) 
27

>  <r_i_glide_eff_state_penalty>  (65) 
0

>  <ligand_id>  (65) 
17

>  <original_smiles>  (65) 
CNC1C(O)C2C3N(CC4CC4)CCC45c6c(ccc(O)c6OC14)CC35OC2(C)C

>  <smiles>  (65) 
[H]Oc1c([H])c([H])c2c3c1OC1([H])C([H])(N([H])C([H])([H])[H])C([H])(O[H])C4([H])C(C([H])([H])[H])(C([H])([H])[H])OC5(C2([H])[H])C31C([H])([H])C([H])([H])[N+]([H])(C([H])([H])C1([H])C([H])([H])C1([H])[H])C45[H]

$$$$
17:3:0
     RDKit          3D

 62 68  0  0  1  0  0  0  0  0999 V2000
    3.5181   -8.9917    8.8147 C   0  0  0  0  0  0  0  0  0  0  0  0
    4.5711   -9.0118    7.7940 N   0  0  0  0  0  0  0  0  0  0  0  0
    4.0880   -8.8919    6.4088 C   0  0  2  0  0  0  0  0  0  0  0  0
    3.2265  -10.1692    6.0089 C   0  0  1  0  0  0  0  0  0  0  0  0
    1.8675   -9.8566    6.2455 O   0  0  0  0  0  0  0  0  0  0  0  0
    3.3228  -10.9377    4.6176 C   0  0  1  0  0  0  0  0  0  0  0  0
    3.2491  -10.1792    3.2614 C   0  0  1  0  0  0  0  0  0  0  0  0
    2.2092   -9.1778    2.9726 N   0  0  0  0  0  0  0  0  0  0  0  0
    0.8590   -9.7423    2.9928 C   0  0  0  0  0  0  0  0  0  0  0  0
   -0.2296   -8.7992    2.5102 C   0  0  0  0  0  0  0  0  0  0  0  0
   -1.2280   -8.2029    3.4863 C   0  0  0  0  0  0  0  0  0  0  0  0
   -1.6709   -9.2517    2.5033 C   0  0  0  0  0  0  0  0  0  0  0  0
    2.3296   -7.9414    3.7384 C   0  0  0  0  0  0  0  0  0  0  0  0
    3.7575   -7.3935    3.8022 C   0  0  0  0  0  0  0  0  0  0  0  0
    4.8658   -8.4672    4.0235 C   0  0  1  0  0  0  0  0  0  0  0  0
    6.0762   -7.9176    3.4854 C   0  0  0  0  0  0  0  0  0  0  0  0
    6.3793   -8.2029    2.1804 C   0  0  0  0  0  0  0  0  0  0  0  0
    7.5432   -7.5905    1.6884 C   0  0  0  0  0  0  0  0  0  0  0  0
    8.2861   -6.7612    2.5907 C   0  0  0  0  0  0  0  0  0  0  0  0
    7.9311   -6.6109    3.9713 C   0  0  0  0  0  0  0  0  0  0  0  0
    8.7057   -5.8576    4.8057 O   0  0  0  0  0  0  0  0  0  0  0  0
    6.7657   -7.2607    4.4580 C   0  0  0  0  0  0  0  0  0  0  0  0
    6.1709   -7.4583    5.6904 O   0  0  0  0  0  0  0  0  0  0  0  0
    5.3087   -8.6289    5.4891 C   0  0  1  0  0  0  0  0  0  0  0  0
    5.3416   -9.2586    1.7791 C   0  0  0  0  0  0  0  0  0  0  0  0
    4.6940   -9.6989    3.1431 C   0  0  2  0  0  0  0  0  0  0  0  0
    5.4769  -10.7788    3.6758 O   0  0  0  0  0  0  0  0  0  0  0  0
    4.6607  -11.7102    4.3900 C   0  0  0  0  0  0  0  0  0  0  0  0
    5.4144  -12.1901    5.6499 C   0  0  0  0  0  0  0  0  0  0  0  0
    4.4897  -12.9542    3.4828 C   0  0  0  0  0  0  0  0  0  0  0  0
    3.9136   -9.2195    9.8083 H   0  0  0  0  0  0  0  0  0  0  0  0
    2.7428   -9.7311    8.6145 H   0  0  0  0  0  0  0  0  0  0  0  0
    3.0357   -8.0111    8.8502 H   0  0  0  0  0  0  0  0  0  0  0  0
    5.1087   -9.8678    7.8814 H   0  0  0  0  0  0  0  0  0  0  0  0
    3.4551   -8.0069    6.3448 H   0  0  0  0  0  0  0  0  0  0  0  0
    3.4282  -10.9346    6.7593 H   0  0  0  0  0  0  0  0  0  0  0  0
    1.4676  -10.6279    6.6386 H   0  0  0  0  0  0  0  0  0  0  0  0
    2.5220  -11.6759    4.6391 H   0  0  0  0  0  0  0  0  0  0  0  0
    3.1114  -10.9341    2.4931 H   0  0  0  0  0  0  0  0  0  0  0  0
    0.8193  -10.6314    2.3599 H   0  0  0  0  0  0  0  0  0  0  0  0
    0.6076  -10.0864    3.9967 H   0  0  0  0  0  0  0  0  0  0  0  0
    0.0608   -8.1918    1.6542 H   0  0  0  0  0  0  0  0  0  0  0  0
   -1.1589   -8.4973    4.5339 H   0  0  0  0  0  0  0  0  0  0  0  0
   -1.5497   -7.1800    3.3071 H   0  0  0  0  0  0  0  0  0  0  0  0
   -2.3057   -8.9243    1.6823 H   0  0  0  0  0  0  0  0  0  0  0  0
   -1.8546  -10.2566    2.8717 H   0  0  0  0  0  0  0  0  0  0  0  0
    1.7300   -7.1649    3.2600 H   0  0  0  0  0  0  0  0  0  0  0  0
    1.9002   -8.0414    4.7283 H   0  0  0  0  0  0  0  0  0  0  0  0
    3.9338   -6.8984    2.8464 H   0  0  0  0  0  0  0  0  0  0  0  0
    3.8277   -6.6018    4.5509 H   0  0  0  0  0  0  0  0  0  0  0  0
    7.8920   -7.7648    0.6796 H   0  0  0  0  0  0  0  0  0  0  0  0
    9.1734   -6.2841    2.2211 H   0  0  0  0  0  0  0  0  0  0  0  0
    9.3691   -5.3483    4.3548 H   0  0  0  0  0  0  0  0  0  0  0  0
    6.0080   -9.4569    5.5898 H   0  0  0  0  0  0  0  0  0  0  0  0
    4.6012   -8.7896    1.1364 H   0  0  0  0  0  0  0  0  0  0  0  0
    5.7777  -10.1030    1.2446 H   0  0  0  0  0  0  0  0  0  0  0  0
    4.8467  -12.9510    6.1867 H   0  0  0  0  0  0  0  0  0  0  0  0
    5.6419  -11.3971    6.3555 H   0  0  0  0  0  0  0  0  0  0  0  0
    6.3718  -12.6325    5.3717 H   0  0  0  0  0  0  0  0  0  0  0  0
    3.8231  -13.6811    3.9466 H   0  0  0  0  0  0  0  0  0  0  0  0
    5.4447  -13.4539    3.3169 H   0  0  0  0  0  0  0  0  0  0  0  0
    4.0901  -12.7357    2.4930 H   0  0  0  0  0  0  0  0  0  0  0  0
  1  2  1  0
  1 31  1  0
  1 32  1  0
  1 33  1  0
  2  3  1  0
  2 34  1  0
  3 24  1  0
  3  4  1  0
  3 35  1  1
  4  5  1  0
  4  6  1  0
  4 36  1  1
  5 37  1  0
  6 28  1  0
  6  7  1  0
  6 38  1  6
  7 26  1  0
  7  8  1  0
  7 39  1  6
  8  9  1  0
  8 13  1  0
  9 10  1  0
  9 40  1  0
  9 41  1  0
 10 12  1  0
 10 11  1  0
 10 42  1  0
 11 12  1  0
 11 43  1  0
 11 44  1  0
 12 45  1  0
 12 46  1  0
 13 14  1  0
 13 47  1  0
 13 48  1  0
 15 14  1  1
 14 49  1  0
 14 50  1  0
 15 24  1  0
 15 26  1  0
 15 16  1  0
 16 22  1  0
 16 17  2  0
 17 18  1  0
 17 25  1  0
 18 19  2  0
 18 51  1  0
 19 20  1  0
 19 52  1  0
 20 21  1  0
 20 22  2  0
 21 53  1  0
 22 23  1  0
 23 24  1  0
 24 54  1  6
 25 26  1  0
 25 55  1  0
 25 56  1  0
 26 27  1  1
 27 28  1  0
 28 29  1  0
 28 30  1  0
 29 57  1  0
 29 58  1  0
 29 59  1  0
 30 60  1  0
 30 61  1  0
 30 62  1  0
M  END
>  <i_m_ct_stereo_status>  (66) 
1

>  <s_m_source_file>  (66) 
/var/tmp/pbs.5083856.sched01/tmpjjl8s0my/25cbzfdbe7.sdf

>  <i_m_source_file_index>  (66) 
2

>  <i_lp_mmshare_version>  (66) 
48012

>  <i_f3d_flags>  (66) 
0

>  <s_epik_input>  (66) 
W0NIMl0xW0NIMl1bQ0hdMVtDSDJdTihbQ0gyXVtDSDJdMilbQ0BASF0oW0NAXTM0W0NAXTI1NilbQ0BASF0oQyhPNCkoW0NIM10pW0NIM10pW0NASF0oW09IXSlbQ0BASF0oW05IXVtDSDNdKVtDQEBIXTZPYzdjNWMoW0NIMl0zKVtjSF1bY0hdYzdbT0hd

>  <s_epik_cmdline>  (66) 
J2VwaWtfcHl0aG9uJywgJy1waHQnLCAnMi4wJywgJy1waCcsICc3LjAnLCAnLXRuJywgJzgnLCAnLW1hJywgJzIwMCcsICctaW1hZScsICc8aW5maWxlLm1hZT4nLCAnLW9tYWUnLCAnPG91dGZpbGUubWFlPic=

>  <r_lp_tautomer_probability>  (66) 
1

>  <r_epik_Ionization_Penalty>  (66) 
2.65303

>  <r_epik_Ionization_Penalty_Charging>  (66) 
0

>  <r_epik_Ionization_Penalty_Neutral>  (66) 
2.65303

>  <r_epik_State_Penalty>  (66) 
2.33957

>  <r_epik_Charging_Adjusted_Penalty>  (66) 
2.33957

>  <i_epik_Tot_Q>  (66) 
0

>  <i_epik_Tot_abs_Q>  (66) 
0

>  <s_lp_Force_Field>  (66) 
OPLS3e

>  <r_lp_Energy>  (66) 
100.402

>  <b_lp_Chiralities_Consistent>  (66) 
1

>  <s_lp_Variant>  (66) 
17:0-4

>  <s_i_glide_gridfile>  (66) 
pfpi4k_grid

>  <i_i_glide_lignum>  (66) 
2

>  <i_i_glide_rotatable_bonds>  (66) 
5

>  <r_i_docking_score>  (66) 
-2.81618

>  <r_i_glide_ligand_efficiency>  (66) 
-0.0938726

>  <r_i_glide_ligand_efficiency_sa>  (66) 
-0.291684

>  <r_i_glide_ligand_efficiency_ln>  (66) 
-0.639866

>  <r_i_glide_gscore>  (66) 
-2.81618

>  <r_i_glide_lipo>  (66) 
-0.345409

>  <r_i_glide_hbond>  (66) 
-0.153317

>  <r_i_glide_metal>  (66) 
-0

>  <r_i_glide_rewards>  (66) 
-0.596442

>  <r_i_glide_evdw>  (66) 
-20.5723

>  <r_i_glide_ecoul>  (66) 
-6.16101

>  <r_i_glide_erotb>  (66) 
0.231759

>  <r_i_glide_esite>  (66) 
0

>  <r_i_glide_emodel>  (66) 
-30.8135

>  <r_i_glide_energy>  (66) 
-26.7334

>  <r_i_glide_einternal>  (66) 
2.19114

>  <r_i_glide_intrahb_reward>  (66) 
-0

>  <i_i_glide_confnum>  (66) 
5

>  <i_i_glide_posenum>  (66) 
2

>  <r_i_glide_eff_state_penalty>  (66) 
0

>  <ligand_id>  (66) 
17

>  <original_smiles>  (66) 
CNC1C(O)C2C3N(CC4CC4)CCC45c6c(ccc(O)c6OC14)CC35OC2(C)C

>  <smiles>  (66) 
[H]Oc1c([H])c([H])c2c3c1OC1([H])C([H])(N([H])C([H])([H])[H])C([H])(O[H])C4([H])C5([H])N(C([H])([H])C6([H])C([H])([H])C6([H])[H])C([H])([H])C([H])([H])C31C5(OC4(C([H])([H])[H])C([H])([H])[H])C2([H])[H]

$$$$
17:3:1
     RDKit          3D

 62 68  0  0  1  0  0  0  0  0999 V2000
    5.0318    2.1825    6.3886 C   0  0  0  0  0  0  0  0  0  0  0  0
    5.1757    0.9429    5.6203 N   0  0  0  0  0  0  0  0  0  0  0  0
    4.0615    0.6501    4.7116 C   0  0  2  0  0  0  0  0  0  0  0  0
    2.7884    0.2053    5.5596 C   0  0  1  0  0  0  0  0  0  0  0  0
    1.9507    1.3244    5.7837 O   0  0  0  0  0  0  0  0  0  0  0  0
    1.8321   -1.0068    5.1850 C   0  0  1  0  0  0  0  0  0  0  0  0
    1.2177   -1.1441    3.7657 C   0  0  1  0  0  0  0  0  0  0  0  0
    0.5650   -0.0153    3.0848 N   0  0  0  0  0  0  0  0  0  0  0  0
   -0.6164    0.4810    3.7914 C   0  0  0  0  0  0  0  0  0  0  0  0
   -1.4065    1.5428    3.0468 C   0  0  0  0  0  0  0  0  0  0  0  0
   -1.1788    3.0136    3.3311 C   0  0  0  0  0  0  0  0  0  0  0  0
   -2.4588    2.3582    3.7683 C   0  0  0  0  0  0  0  0  0  0  0  0
    1.4686    1.0414    2.6365 C   0  0  0  0  0  0  0  0  0  0  0  0
    2.7469    0.5208    1.9832 C   0  0  0  0  0  0  0  0  0  0  0  0
    3.3962   -0.7172    2.6789 C   0  0  1  0  0  0  0  0  0  0  0  0
    4.1652   -1.3871    1.6705 C   0  0  0  0  0  0  0  0  0  0  0  0
    3.5547   -2.3861    0.9610 C   0  0  0  0  0  0  0  0  0  0  0  0
    4.3352   -2.9674   -0.0520 C   0  0  0  0  0  0  0  0  0  0  0  0
    5.6743   -2.4798   -0.2184 C   0  0  0  0  0  0  0  0  0  0  0  0
    6.2378   -1.4938    0.6512 C   0  0  0  0  0  0  0  0  0  0  0  0
    7.5269   -1.0749    0.4837 O   0  0  0  0  0  0  0  0  0  0  0  0
    5.4483   -0.9420    1.6889 C   0  0  0  0  0  0  0  0  0  0  0  0
    5.6639   -0.1147    2.7749 O   0  0  0  0  0  0  0  0  0  0  0  0
    4.5318   -0.3899    3.6660 C   0  0  1  0  0  0  0  0  0  0  0  0
    2.2234   -2.5873    1.6828 C   0  0  0  0  0  0  0  0  0  0  0  0
    2.3868   -1.7980    3.0314 C   0  0  2  0  0  0  0  0  0  0  0  0
    2.9522   -2.6995    3.9968 O   0  0  0  0  0  0  0  0  0  0  0  0
    2.4755   -2.4203    5.3153 C   0  0  0  0  0  0  0  0  0  0  0  0
    3.6334   -2.5724    6.3259 C   0  0  0  0  0  0  0  0  0  0  0  0
    1.4391   -3.5200    5.6618 C   0  0  0  0  0  0  0  0  0  0  0  0
    4.0123    2.3377    6.7509 H   0  0  0  0  0  0  0  0  0  0  0  0
    5.2876    3.0431    5.7698 H   0  0  0  0  0  0  0  0  0  0  0  0
    5.6840    2.1830    7.2652 H   0  0  0  0  0  0  0  0  0  0  0  0
    6.0525    0.9443    5.1076 H   0  0  0  0  0  0  0  0  0  0  0  0
    3.8373    1.5606    4.1571 H   0  0  0  0  0  0  0  0  0  0  0  0
    3.1513   -0.0238    6.5615 H   0  0  0  0  0  0  0  0  0  0  0  0
    1.6706    1.6555    4.9445 H   0  0  0  0  0  0  0  0  0  0  0  0
    1.0156   -0.9568    5.9049 H   0  0  0  0  0  0  0  0  0  0  0  0
    0.4383   -1.8949    3.8386 H   0  0  0  0  0  0  0  0  0  0  0  0
   -1.3021   -0.3451    3.9916 H   0  0  0  0  0  0  0  0  0  0  0  0
   -0.3374    0.8760    4.7659 H   0  0  0  0  0  0  0  0  0  0  0  0
   -1.6462    1.2745    2.0172 H   0  0  0  0  0  0  0  0  0  0  0  0
   -0.4450    3.2744    4.0937 H   0  0  0  0  0  0  0  0  0  0  0  0
   -1.2320    3.6929    2.4842 H   0  0  0  0  0  0  0  0  0  0  0  0
   -3.3635    2.6005    3.2122 H   0  0  0  0  0  0  0  0  0  0  0  0
   -2.5903    2.1840    4.8365 H   0  0  0  0  0  0  0  0  0  0  0  0
    0.9684    1.6484    1.8810 H   0  0  0  0  0  0  0  0  0  0  0  0
    1.6985    1.7401    3.4316 H   0  0  0  0  0  0  0  0  0  0  0  0
    2.4698    0.2498    0.9610 H   0  0  0  0  0  0  0  0  0  0  0  0
    3.4650    1.3359    1.8804 H   0  0  0  0  0  0  0  0  0  0  0  0
    3.9436   -3.7712   -0.6681 H   0  0  0  0  0  0  0  0  0  0  0  0
    6.2794   -2.8992   -1.0008 H   0  0  0  0  0  0  0  0  0  0  0  0
    7.7669   -0.3993    1.1117 H   0  0  0  0  0  0  0  0  0  0  0  0
    4.8629   -1.2882    4.1842 H   0  0  0  0  0  0  0  0  0  0  0  0
    1.4361   -2.1411    1.0857 H   0  0  0  0  0  0  0  0  0  0  0  0
    1.9940   -3.6378    1.8529 H   0  0  0  0  0  0  0  0  0  0  0  0
    3.2885   -2.4337    7.3507 H   0  0  0  0  0  0  0  0  0  0  0  0
    4.4528   -1.8780    6.1655 H   0  0  0  0  0  0  0  0  0  0  0  0
    4.0633   -3.5727    6.2593 H   0  0  0  0  0  0  0  0  0  0  0  0
    0.9800   -3.3388    6.6350 H   0  0  0  0  0  0  0  0  0  0  0  0
    1.9189   -4.4986    5.7124 H   0  0  0  0  0  0  0  0  0  0  0  0
    0.6345   -3.6178    4.9338 H   0  0  0  0  0  0  0  0  0  0  0  0
  1  2  1  0
  1 31  1  0
  1 32  1  0
  1 33  1  0
  2  3  1  0
  2 34  1  0
  3 24  1  0
  3  4  1  0
  3 35  1  6
  4  5  1  0
  4  6  1  0
  4 36  1  1
  5 37  1  0
  6 28  1  0
  6  7  1  0
  6 38  1  1
  7 26  1  0
  7  8  1  0
  7 39  1  1
  8  9  1  0
  8 13  1  0
  9 10  1  0
  9 40  1  0
  9 41  1  0
 10 12  1  0
 10 11  1  0
 10 42  1  0
 11 12  1  0
 11 43  1  0
 11 44  1  0
 12 45  1  0
 12 46  1  0
 13 14  1  0
 13 47  1  0
 13 48  1  0
 15 14  1  6
 14 49  1  0
 14 50  1  0
 15 24  1  0
 15 26  1  0
 15 16  1  0
 16 22  1  0
 16 17  2  0
 17 18  1  0
 17 25  1  0
 18 19  2  0
 18 51  1  0
 19 20  1  0
 19 52  1  0
 20 21  1  0
 20 22  2  0
 21 53  1  0
 22 23  1  0
 23 24  1  0
 24 54  1  1
 25 26  1  0
 25 55  1  0
 25 56  1  0
 26 27  1  1
 27 28  1  0
 28 29  1  0
 28 30  1  0
 29 57  1  0
 29 58  1  0
 29 59  1  0
 30 60  1  0
 30 61  1  0
 30 62  1  0
M  END
>  <i_m_ct_stereo_status>  (67) 
1

>  <s_m_source_file>  (67) 
/var/tmp/pbs.5083856.sched01/tmpjjl8s0my/25cbzfdbe7.sdf

>  <i_m_source_file_index>  (67) 
2

>  <i_lp_mmshare_version>  (67) 
48012

>  <i_f3d_flags>  (67) 
0

>  <s_epik_input>  (67) 
W0NIMl0xW0NIMl1bQ0hdMVtDSDJdTihbQ0gyXVtDSDJdMilbQ0BASF0oW0NAXTM0W0NAXTI1NilbQ0BASF0oQyhPNCkoW0NIM10pW0NIM10pW0NASF0oW09IXSlbQ0BASF0oW05IXVtDSDNdKVtDQEBIXTZPYzdjNWMoW0NIMl0zKVtjSF1bY0hdYzdbT0hd

>  <s_epik_cmdline>  (67) 
J2VwaWtfcHl0aG9uJywgJy1waHQnLCAnMi4wJywgJy1waCcsICc3LjAnLCAnLXRuJywgJzgnLCAnLW1hJywgJzIwMCcsICctaW1hZScsICc8aW5maWxlLm1hZT4nLCAnLW9tYWUnLCAnPG91dGZpbGUubWFlPic=

>  <r_lp_tautomer_probability>  (67) 
1

>  <r_epik_Ionization_Penalty>  (67) 
2.65303

>  <r_epik_Ionization_Penalty_Charging>  (67) 
0

>  <r_epik_Ionization_Penalty_Neutral>  (67) 
2.65303

>  <r_epik_State_Penalty>  (67) 
2.33957

>  <r_epik_Charging_Adjusted_Penalty>  (67) 
2.33957

>  <i_epik_Tot_Q>  (67) 
0

>  <i_epik_Tot_abs_Q>  (67) 
0

>  <s_lp_Force_Field>  (67) 
OPLS3e

>  <r_lp_Energy>  (67) 
100.402

>  <b_lp_Chiralities_Consistent>  (67) 
1

>  <s_lp_Variant>  (67) 
17:0-4

>  <s_i_glide_gridfile>  (67) 
pfpi4k_grid

>  <i_i_glide_lignum>  (67) 
2

>  <i_i_glide_rotatable_bonds>  (67) 
5

>  <r_i_docking_score>  (67) 
-2.7777

>  <r_i_glide_ligand_efficiency>  (67) 
-0.0925901

>  <r_i_glide_ligand_efficiency_sa>  (67) 
-0.287699

>  <r_i_glide_ligand_efficiency_ln>  (67) 
-0.631124

>  <r_i_glide_gscore>  (67) 
-2.7777

>  <r_i_glide_lipo>  (67) 
-0.337889

>  <r_i_glide_hbond>  (67) 
-0.183392

>  <r_i_glide_metal>  (67) 
-0

>  <r_i_glide_rewards>  (67) 
-0.596442

>  <r_i_glide_evdw>  (67) 
-21.4785

>  <r_i_glide_ecoul>  (67) 
-5.45209

>  <r_i_glide_erotb>  (67) 
0.231759

>  <r_i_glide_esite>  (67) 
0

>  <r_i_glide_emodel>  (67) 
-31.6154

>  <r_i_glide_energy>  (67) 
-26.9306

>  <r_i_glide_einternal>  (67) 
0.835231

>  <r_i_glide_intrahb_reward>  (67) 
-0

>  <i_i_glide_confnum>  (67) 
4

>  <i_i_glide_posenum>  (67) 
4

>  <r_i_glide_eff_state_penalty>  (67) 
0

>  <ligand_id>  (67) 
17

>  <original_smiles>  (67) 
CNC1C(O)C2C3N(CC4CC4)CCC45c6c(ccc(O)c6OC14)CC35OC2(C)C

>  <smiles>  (67) 
[H]Oc1c([H])c([H])c2c3c1OC1([H])C([H])(N([H])C([H])([H])[H])C([H])(O[H])C4([H])C5([H])N(C([H])([H])C6([H])C([H])([H])C6([H])[H])C([H])([H])C([H])([H])C31C5(OC4(C([H])([H])[H])C([H])([H])[H])C2([H])[H]

$$$$
17:3:2
     RDKit          3D

 62 68  0  0  1  0  0  0  0  0999 V2000
    4.9391    2.6032    6.4265 C   0  0  0  0  0  0  0  0  0  0  0  0
    5.0371    1.3702    5.6391 N   0  0  0  0  0  0  0  0  0  0  0  0
    3.8854    1.0868    4.7687 C   0  0  2  0  0  0  0  0  0  0  0  0
    2.6129    0.7432    5.6560 C   0  0  1  0  0  0  0  0  0  0  0  0
    1.8727    1.9309    5.8298 O   0  0  0  0  0  0  0  0  0  0  0  0
    1.5740   -0.4211    5.3556 C   0  0  1  0  0  0  0  0  0  0  0  0
    0.9353   -0.5992    3.9489 C   0  0  1  0  0  0  0  0  0  0  0  0
    0.3200    0.5179    3.2140 N   0  0  0  0  0  0  0  0  0  0  0  0
   -0.8200    1.1116    3.9168 C   0  0  0  0  0  0  0  0  0  0  0  0
   -1.6307    2.0994    3.0997 C   0  0  0  0  0  0  0  0  0  0  0  0
   -1.5323    3.5906    3.3526 C   0  0  0  0  0  0  0  0  0  0  0  0
   -2.7907    2.8491    3.7208 C   0  0  0  0  0  0  0  0  0  0  0  0
    1.2712    1.5098    2.7153 C   0  0  0  0  0  0  0  0  0  0  0  0
    2.5183    0.8969    2.0744 C   0  0  0  0  0  0  0  0  0  0  0  0
    3.1138   -0.3398    2.8162 C   0  0  1  0  0  0  0  0  0  0  0  0
    3.8356   -1.0982    1.8317 C   0  0  0  0  0  0  0  0  0  0  0  0
    3.1593   -2.1006    1.1834 C   0  0  0  0  0  0  0  0  0  0  0  0
    3.8880   -2.7790    0.1860 C   0  0  0  0  0  0  0  0  0  0  0  0
    5.2457   -2.3755   -0.0207 C   0  0  0  0  0  0  0  0  0  0  0  0
    5.8748   -1.3748    0.7960 C   0  0  0  0  0  0  0  0  0  0  0  0
    7.1878   -1.0572    0.5930 O   0  0  0  0  0  0  0  0  0  0  0  0
    5.1396   -0.7295    1.8168 C   0  0  0  0  0  0  0  0  0  0  0  0
    5.4134    0.1356    2.8549 O   0  0  0  0  0  0  0  0  0  0  0  0
    4.2824   -0.0268    3.7713 C   0  0  1  0  0  0  0  0  0  0  0  0
    1.8326   -2.1935    1.9294 C   0  0  0  0  0  0  0  0  0  0  0  0
    2.0574   -1.3477    3.2347 C   0  0  2  0  0  0  0  0  0  0  0  0
    2.5851   -2.2286    4.2400 O   0  0  0  0  0  0  0  0  0  0  0  0
    2.1413   -1.8609    5.5480 C   0  0  0  0  0  0  0  0  0  0  0  0
    3.3063   -2.0284    6.5479 C   0  0  0  0  0  0  0  0  0  0  0  0
    1.0562   -2.8882    5.9596 C   0  0  0  0  0  0  0  0  0  0  0  0
    5.7599    2.6936    7.1447 H   0  0  0  0  0  0  0  0  0  0  0  0
    4.0221    2.6426    7.0113 H   0  0  0  0  0  0  0  0  0  0  0  0
    4.9524    3.4768    5.7720 H   0  0  0  0  0  0  0  0  0  0  0  0
    5.1968    0.5783    6.2519 H   0  0  0  0  0  0  0  0  0  0  0  0
    3.6807    1.9778    4.1707 H   0  0  0  0  0  0  0  0  0  0  0  0
    2.9711    0.5411    6.6667 H   0  0  0  0  0  0  0  0  0  0  0  0
    2.4724    2.6036    6.1064 H   0  0  0  0  0  0  0  0  0  0  0  0
    0.7706   -0.2863    6.0820 H   0  0  0  0  0  0  0  0  0  0  0  0
    0.1218   -1.3040    4.0738 H   0  0  0  0  0  0  0  0  0  0  0  0
   -1.5084    0.3257    4.2355 H   0  0  0  0  0  0  0  0  0  0  0  0
   -0.4829    1.6007    4.8273 H   0  0  0  0  0  0  0  0  0  0  0  0
   -1.7884    1.7802    2.0714 H   0  0  0  0  0  0  0  0  0  0  0  0
   -0.8675    3.9215    4.1517 H   0  0  0  0  0  0  0  0  0  0  0  0
   -1.5637    4.2382    2.4813 H   0  0  0  0  0  0  0  0  0  0  0  0
   -3.6676    3.0025    3.0924 H   0  0  0  0  0  0  0  0  0  0  0  0
   -2.9904    2.6828    4.7784 H   0  0  0  0  0  0  0  0  0  0  0  0
    0.7929    2.1128    1.9450 H   0  0  0  0  0  0  0  0  0  0  0  0
    1.5408    2.2227    3.4854 H   0  0  0  0  0  0  0  0  0  0  0  0
    2.2200    0.5925    1.0681 H   0  0  0  0  0  0  0  0  0  0  0  0
    3.2836    1.6633    1.9312 H   0  0  0  0  0  0  0  0  0  0  0  0
    3.4437   -3.5845   -0.3841 H   0  0  0  0  0  0  0  0  0  0  0  0
    5.8176   -2.8546   -0.7916 H   0  0  0  0  0  0  0  0  0  0  0  0
    7.4816   -0.3714    1.1848 H   0  0  0  0  0  0  0  0  0  0  0  0
    4.5684   -0.9178    4.3314 H   0  0  0  0  0  0  0  0  0  0  0  0
    1.0620   -1.7339    1.3183 H   0  0  0  0  0  0  0  0  0  0  0  0
    1.5473   -3.2169    2.1650 H   0  0  0  0  0  0  0  0  0  0  0  0
    2.9877   -1.8232    7.5701 H   0  0  0  0  0  0  0  0  0  0  0  0
    4.1604   -1.3913    6.3416 H   0  0  0  0  0  0  0  0  0  0  0  0
    3.6821   -3.0517    6.5255 H   0  0  0  0  0  0  0  0  0  0  0  0
    0.6219   -2.6385    6.9283 H   0  0  0  0  0  0  0  0  0  0  0  0
    1.4853   -3.8866    6.0525 H   0  0  0  0  0  0  0  0  0  0  0  0
    0.2382   -2.9806    5.2474 H   0  0  0  0  0  0  0  0  0  0  0  0
  1  2  1  0
  1 31  1  0
  1 32  1  0
  1 33  1  0
  2  3  1  0
  2 34  1  0
  3 24  1  0
  3  4  1  0
  3 35  1  6
  4  5  1  0
  4  6  1  0
  4 36  1  1
  5 37  1  0
  6 28  1  0
  6  7  1  0
  6 38  1  1
  7 26  1  0
  7  8  1  0
  7 39  1  1
  8  9  1  0
  8 13  1  0
  9 10  1  0
  9 40  1  0
  9 41  1  0
 10 12  1  0
 10 11  1  0
 10 42  1  0
 11 12  1  0
 11 43  1  0
 11 44  1  0
 12 45  1  0
 12 46  1  0
 13 14  1  0
 13 47  1  0
 13 48  1  0
 15 14  1  6
 14 49  1  0
 14 50  1  0
 15 24  1  0
 15 26  1  0
 15 16  1  0
 16 22  1  0
 16 17  2  0
 17 18  1  0
 17 25  1  0
 18 19  2  0
 18 51  1  0
 19 20  1  0
 19 52  1  0
 20 21  1  0
 20 22  2  0
 21 53  1  0
 22 23  1  0
 23 24  1  0
 24 54  1  1
 25 26  1  0
 25 55  1  0
 25 56  1  0
 26 27  1  1
 27 28  1  0
 28 29  1  0
 28 30  1  0
 29 57  1  0
 29 58  1  0
 29 59  1  0
 30 60  1  0
 30 61  1  0
 30 62  1  0
M  END
>  <i_m_ct_stereo_status>  (68) 
1

>  <s_m_source_file>  (68) 
/var/tmp/pbs.5083856.sched01/tmpjjl8s0my/25cbzfdbe7.sdf

>  <i_m_source_file_index>  (68) 
2

>  <i_lp_mmshare_version>  (68) 
48012

>  <i_f3d_flags>  (68) 
0

>  <s_epik_input>  (68) 
W0NIMl0xW0NIMl1bQ0hdMVtDSDJdTihbQ0gyXVtDSDJdMilbQ0BASF0oW0NAXTM0W0NAXTI1NilbQ0BASF0oQyhPNCkoW0NIM10pW0NIM10pW0NASF0oW09IXSlbQ0BASF0oW05IXVtDSDNdKVtDQEBIXTZPYzdjNWMoW0NIMl0zKVtjSF1bY0hdYzdbT0hd

>  <s_epik_cmdline>  (68) 
J2VwaWtfcHl0aG9uJywgJy1waHQnLCAnMi4wJywgJy1waCcsICc3LjAnLCAnLXRuJywgJzgnLCAnLW1hJywgJzIwMCcsICctaW1hZScsICc8aW5maWxlLm1hZT4nLCAnLW9tYWUnLCAnPG91dGZpbGUubWFlPic=

>  <r_lp_tautomer_probability>  (68) 
1

>  <r_epik_Ionization_Penalty>  (68) 
2.65303

>  <r_epik_Ionization_Penalty_Charging>  (68) 
0

>  <r_epik_Ionization_Penalty_Neutral>  (68) 
2.65303

>  <r_epik_State_Penalty>  (68) 
2.33957

>  <r_epik_Charging_Adjusted_Penalty>  (68) 
2.33957

>  <i_epik_Tot_Q>  (68) 
0

>  <i_epik_Tot_abs_Q>  (68) 
0

>  <s_lp_Force_Field>  (68) 
OPLS3e

>  <r_lp_Energy>  (68) 
100.402

>  <b_lp_Chiralities_Consistent>  (68) 
1

>  <s_lp_Variant>  (68) 
17:0-4

>  <s_i_glide_gridfile>  (68) 
pfpi4k_grid

>  <i_i_glide_lignum>  (68) 
2

>  <i_i_glide_rotatable_bonds>  (68) 
5

>  <r_i_docking_score>  (68) 
-2.74729

>  <r_i_glide_ligand_efficiency>  (68) 
-0.0915763

>  <r_i_glide_ligand_efficiency_sa>  (68) 
-0.284549

>  <r_i_glide_ligand_efficiency_ln>  (68) 
-0.624214

>  <r_i_glide_gscore>  (68) 
-2.74729

>  <r_i_glide_lipo>  (68) 
-0.303298

>  <r_i_glide_hbond>  (68) 
-0.161708

>  <r_i_glide_metal>  (68) 
-0

>  <r_i_glide_rewards>  (68) 
-0.596442

>  <r_i_glide_evdw>  (68) 
-21.9963

>  <r_i_glide_ecoul>  (68) 
-5.45188

>  <r_i_glide_erotb>  (68) 
0.231759

>  <r_i_glide_esite>  (68) 
0

>  <r_i_glide_emodel>  (68) 
-31.8796

>  <r_i_glide_energy>  (68) 
-27.4482

>  <r_i_glide_einternal>  (68) 
1.56129

>  <r_i_glide_intrahb_reward>  (68) 
-0

>  <i_i_glide_confnum>  (68) 
1

>  <i_i_glide_posenum>  (68) 
27

>  <r_i_glide_eff_state_penalty>  (68) 
0

>  <ligand_id>  (68) 
17

>  <original_smiles>  (68) 
CNC1C(O)C2C3N(CC4CC4)CCC45c6c(ccc(O)c6OC14)CC35OC2(C)C

>  <smiles>  (68) 
[H]Oc1c([H])c([H])c2c3c1OC1([H])C([H])(N([H])C([H])([H])[H])C([H])(O[H])C4([H])C5([H])N(C([H])([H])C6([H])C([H])([H])C6([H])[H])C([H])([H])C([H])([H])C31C5(OC4(C([H])([H])[H])C([H])([H])[H])C2([H])[H]

$$$$
19:0:0
     RDKit          3D

 49 53  0  0  1  0  0  0  0  0999 V2000
    5.0059   -0.3793    2.4573 C   0  0  0  0  0  0  0  0  0  0  0  0
    3.7516   -0.2189    1.8502 C   0  0  0  0  0  0  0  0  0  0  0  0
    3.5783   -0.6904    0.5400 C   0  0  0  0  0  0  0  0  0  0  0  0
    4.6653   -1.2925   -0.1262 C   0  0  0  0  0  0  0  0  0  0  0  0
    4.4949   -1.7358   -1.4588 N   0  0  0  0  0  0  0  0  0  0  0  0
    4.2153   -0.9078   -2.5297 C   0  0  0  0  0  0  0  0  0  0  0  0
    4.1341   -1.6621   -3.6615 C   0  0  0  0  0  0  0  0  0  0  0  0
    4.3735   -3.0154   -3.2891 C   0  0  0  0  0  0  0  0  0  0  0  0
    4.5808   -3.0418   -1.9376 C   0  0  0  0  0  0  0  0  0  0  0  0
    4.8456   -4.2174   -1.0589 C   0  0  0  0  0  0  0  0  0  0  0  0
    3.6253   -4.6193   -0.3220 N   0  0  0  0  0  0  0  0  0  0  0  0
    3.8002   -5.5278    0.8375 C   0  0  1  0  0  0  0  0  0  0  0  0
    4.6616   -6.7679    0.4828 C   0  0  0  0  0  0  0  0  0  0  0  0
    4.8083   -7.6828    1.7135 C   0  0  2  0  0  0  0  0  0  0  0  0
    3.4187   -8.1766    2.1623 C   0  0  0  0  0  0  0  0  0  0  0  0
    2.5429   -6.9579    2.5202 C   0  0  1  0  0  0  0  0  0  0  0  0
    3.1928   -6.1681    3.6743 C   0  0  0  0  0  0  0  0  0  0  0  0
    4.5896   -5.6844    3.2346 C   0  0  1  0  0  0  0  0  0  0  0  0
    5.4781   -6.8902    2.8567 C   0  0  0  0  0  0  0  0  0  0  0  0
    4.4476   -4.7577    2.0150 C   0  0  0  0  0  0  0  0  0  0  0  0
    2.4034   -6.0362    1.2873 C   0  0  0  0  0  0  0  0  0  0  0  0
    5.8696   -1.4552    0.4610 N   0  0  0  0  0  0  0  0  0  0  0  0
    6.0283   -1.0023    1.7206 C   0  0  0  0  0  0  0  0  0  0  0  0
    5.1859   -0.0141    3.4555 H   0  0  0  0  0  0  0  0  0  0  0  0
    2.9427    0.2691    2.3757 H   0  0  0  0  0  0  0  0  0  0  0  0
    2.6195   -0.5735    0.0567 H   0  0  0  0  0  0  0  0  0  0  0  0
    4.0982    0.1540   -2.3863 H   0  0  0  0  0  0  0  0  0  0  0  0
    3.9142   -1.2780   -4.6430 H   0  0  0  0  0  0  0  0  0  0  0  0
    4.3872   -3.8841   -3.9324 H   0  0  0  0  0  0  0  0  0  0  0  0
    5.1325   -5.0562   -1.6922 H   0  0  0  0  0  0  0  0  0  0  0  0
    5.6901   -4.0140   -0.4052 H   0  0  0  0  0  0  0  0  0  0  0  0
    3.1480   -3.7815   -0.0162 H   0  0  0  0  0  0  0  0  0  0  0  0
    4.2241   -7.3307   -0.3428 H   0  0  0  0  0  0  0  0  0  0  0  0
    5.6634   -6.4792    0.1610 H   0  0  0  0  0  0  0  0  0  0  0  0
    5.4290   -8.5432    1.4568 H   0  0  0  0  0  0  0  0  0  0  0  0
    2.9497   -8.7621    1.3701 H   0  0  0  0  0  0  0  0  0  0  0  0
    3.5107   -8.8409    3.0218 H   0  0  0  0  0  0  0  0  0  0  0  0
    1.5566   -7.3057    2.8331 H   0  0  0  0  0  0  0  0  0  0  0  0
    2.5695   -5.3134    3.9418 H   0  0  0  0  0  0  0  0  0  0  0  0
    3.2660   -6.7904    4.5650 H   0  0  0  0  0  0  0  0  0  0  0  0
    5.0560   -5.1331    4.0520 H   0  0  0  0  0  0  0  0  0  0  0  0
    5.6399   -7.5299    3.7237 H   0  0  0  0  0  0  0  0  0  0  0  0
    6.4621   -6.5423    2.5404 H   0  0  0  0  0  0  0  0  0  0  0  0
    5.4376   -4.3769    1.7566 H   0  0  0  0  0  0  0  0  0  0  0  0
    3.8452   -3.8858    2.2766 H   0  0  0  0  0  0  0  0  0  0  0  0
    1.7563   -5.1936    1.5341 H   0  0  0  0  0  0  0  0  0  0  0  0
    1.9110   -6.5830    0.4802 H   0  0  0  0  0  0  0  0  0  0  0  0
    7.0169   -1.0874    2.1405 H   0  0  0  0  0  0  0  0  0  0  0  0
    3.0468   -5.0862   -1.0119 H   0  0  0  0  0  0  0  0  0  0  0  0
  1 23  2  0
  1  2  1  0
  1 24  1  0
  2  3  2  0
  2 25  1  0
  3  4  1  0
  3 26  1  0
  4  5  1  0
  4 22  2  0
  5  9  1  0
  5  6  1  0
  6  7  2  0
  6 27  1  0
  7  8  1  0
  7 28  1  0
  8  9  2  0
  8 29  1  0
  9 10  1  0
 10 11  1  0
 10 30  1  0
 10 31  1  0
 12 11  1  6
 11 32  1  0
 11 49  1  0
 12 20  1  0
 12 21  1  0
 12 13  1  0
 13 14  1  0
 13 33  1  0
 13 34  1  0
 14 19  1  0
 14 15  1  0
 14 35  1  6
 15 16  1  0
 15 36  1  0
 15 37  1  0
 16 17  1  0
 16 21  1  0
 16 38  1  1
 17 18  1  0
 17 39  1  0
 17 40  1  0
 18 19  1  0
 18 20  1  0
 18 41  1  1
 19 42  1  0
 19 43  1  0
 20 44  1  0
 20 45  1  0
 21 46  1  0
 21 47  1  0
 22 23  1  0
 23 48  1  0
M  CHG  1  11   1
M  END
>  <i_m_ct_stereo_status>  (69) 
1

>  <s_m_source_file>  (69) 
/var/tmp/pbs.5083856.sched01/tmpjjl8s0my/25cbzfdbe7.sdf

>  <i_m_source_file_index>  (69) 
4

>  <i_lp_mmshare_version>  (69) 
48012

>  <i_f3d_flags>  (69) 
0

>  <s_epik_input>  (69) 
bjFbY0hdW2NIXVtjSF1bY0hdYzEtbjJbY0hdW2NIXVtjSF1jMltDSDJdW05IXUMzNFtDSDJdW0NAQEhdNVtDSDJdW0NASF0oW0NIMl00KVtDSDJdW0NAQEhdKFtDSDJdNSlbQ0gyXTM=

>  <s_epik_cmdline>  (69) 
J2VwaWtfcHl0aG9uJywgJy1waHQnLCAnMi4wJywgJy1waCcsICc3LjAnLCAnLXRuJywgJzgnLCAnLW1hJywgJzIwMCcsICctaW1hZScsICc8aW5maWxlLm1hZT4nLCAnLW9tYWUnLCAnPG91dGZpbGUubWFlPic=

>  <r_epik_Ionization_Penalty>  (69) 
0.000465017

>  <r_epik_Ionization_Penalty_Charging>  (69) 
0.000463393

>  <r_epik_Ionization_Penalty_Neutral>  (69) 
1.62415e-06

>  <r_epik_State_Penalty>  (69) 
0.000286831

>  <r_epik_Charging_Adjusted_Penalty>  (69) 
0.000750224

>  <i_epik_Tot_Q>  (69) 
1

>  <i_epik_Tot_abs_Q>  (69) 
1

>  <s_lp_Force_Field>  (69) 
OPLS3e

>  <r_lp_Energy>  (69) 
23.3814

>  <b_lp_Chiralities_Consistent>  (69) 
1

>  <s_lp_Variant>  (69) 
19:0-1

>  <s_i_glide_gridfile>  (69) 
pfpi4k_grid

>  <i_i_glide_lignum>  (69) 
4

>  <i_i_glide_rotatable_bonds>  (69) 
4

>  <r_i_docking_score>  (69) 
-3.75971

>  <r_i_glide_ligand_efficiency>  (69) 
-0.163465

>  <r_i_glide_ligand_efficiency_sa>  (69) 
-0.464874

>  <r_i_glide_ligand_efficiency_ln>  (69) 
-0.909131

>  <r_i_glide_gscore>  (69) 
-3.75971

>  <r_i_glide_lipo>  (69) 
-0.839567

>  <r_i_glide_hbond>  (69) 
0

>  <r_i_glide_metal>  (69) 
-0

>  <r_i_glide_rewards>  (69) 
-1.30609

>  <r_i_glide_evdw>  (69) 
-28.0905

>  <r_i_glide_ecoul>  (69) 
-5.98085

>  <r_i_glide_erotb>  (69) 
0.777904

>  <r_i_glide_esite>  (69) 
-0.0903013

>  <r_i_glide_emodel>  (69) 
-41.1829

>  <r_i_glide_energy>  (69) 
-34.0714

>  <r_i_glide_einternal>  (69) 
1.99694

>  <r_i_glide_intrahb_reward>  (69) 
-0

>  <i_i_glide_confnum>  (69) 
4

>  <i_i_glide_posenum>  (69) 
2

>  <r_i_glide_eff_state_penalty>  (69) 
0

>  <ligand_id>  (69) 
19

>  <original_smiles>  (69) 
c1ccc(-n2cccc2CNC23CC4CC(CC(C4)C2)C3)nc1

>  <smiles>  (69) 
[H]c1nc(-n2c([H])c([H])c([H])c2C([H])([H])[N+]([H])([H])C23C([H])([H])C4([H])C([H])([H])C([H])(C([H])([H])C([H])(C4([H])[H])C2([H])[H])C3([H])[H])c([H])c([H])c1[H]

$$$$
19:0:1
     RDKit          3D

 49 53  0  0  1  0  0  0  0  0999 V2000
    3.0624   -3.3946   -0.3618 C   0  0  0  0  0  0  0  0  0  0  0  0
    4.3452   -2.8483   -0.2060 C   0  0  0  0  0  0  0  0  0  0  0  0
    5.3235   -3.6085    0.4595 C   0  0  0  0  0  0  0  0  0  0  0  0
    4.9901   -4.8931    0.9469 C   0  0  0  0  0  0  0  0  0  0  0  0
    5.9921   -5.6609    1.6034 N   0  0  0  0  0  0  0  0  0  0  0  0
    7.3385   -5.6359    1.2659 C   0  0  0  0  0  0  0  0  0  0  0  0
    8.0175   -6.4756    2.0975 C   0  0  0  0  0  0  0  0  0  0  0  0
    7.0714   -7.0582    2.9808 C   0  0  0  0  0  0  0  0  0  0  0  0
    5.8379   -6.5618    2.6630 C   0  0  0  0  0  0  0  0  0  0  0  0
    4.5341   -6.8900    3.3112 C   0  0  0  0  0  0  0  0  0  0  0  0
    3.8007   -7.9084    2.5235 N   0  0  0  0  0  0  0  0  0  0  0  0
    2.6136   -8.5360    3.1610 C   0  0  1  0  0  0  0  0  0  0  0  0
    1.8517   -9.3651    2.0925 C   0  0  0  0  0  0  0  0  0  0  0  0
    0.6148  -10.0467    2.7246 C   0  0  2  0  0  0  0  0  0  0  0  0
   -0.3371   -8.9711    3.2866 C   0  0  0  0  0  0  0  0  0  0  0  0
    0.4090   -8.1512    4.3577 C   0  0  1  0  0  0  0  0  0  0  0  0
    0.8732   -9.0838    5.4979 C   0  0  0  0  0  0  0  0  0  0  0  0
    1.8074  -10.1727    4.9245 C   0  0  1  0  0  0  0  0  0  0  0  0
    1.0726  -10.9945    3.8483 C   0  0  0  0  0  0  0  0  0  0  0  0
    3.0459   -9.5014    4.2981 C   0  0  0  0  0  0  0  0  0  0  0  0
    1.6376   -7.4695    3.7245 C   0  0  0  0  0  0  0  0  0  0  0  0
    3.7496   -5.4146    0.7915 N   0  0  0  0  0  0  0  0  0  0  0  0
    2.8196   -4.6799    0.1478 C   0  0  0  0  0  0  0  0  0  0  0  0
    2.2868   -2.8343   -0.8608 H   0  0  0  0  0  0  0  0  0  0  0  0
    4.5738   -1.8638   -0.5862 H   0  0  0  0  0  0  0  0  0  0  0  0
    6.3155   -3.2008    0.5917 H   0  0  0  0  0  0  0  0  0  0  0  0
    7.7013   -5.0268    0.4522 H   0  0  0  0  0  0  0  0  0  0  0  0
    9.0781   -6.6619    2.0671 H   0  0  0  0  0  0  0  0  0  0  0  0
    7.2746   -7.7702    3.7691 H   0  0  0  0  0  0  0  0  0  0  0  0
    4.7322   -7.2579    4.3166 H   0  0  0  0  0  0  0  0  0  0  0  0
    3.9394   -5.9851    3.4263 H   0  0  0  0  0  0  0  0  0  0  0  0
    3.5124   -7.4491    1.6678 H   0  0  0  0  0  0  0  0  0  0  0  0
    1.5296   -8.7221    1.2711 H   0  0  0  0  0  0  0  0  0  0  0  0
    2.5018  -10.1254    1.6520 H   0  0  0  0  0  0  0  0  0  0  0  0
    0.0872  -10.6295    1.9673 H   0  0  0  0  0  0  0  0  0  0  0  0
   -0.6885   -8.3200    2.4859 H   0  0  0  0  0  0  0  0  0  0  0  0
   -1.2226   -9.4408    3.7131 H   0  0  0  0  0  0  0  0  0  0  0  0
   -0.2572   -7.3891    4.7636 H   0  0  0  0  0  0  0  0  0  0  0  0
    1.4001   -8.5094    6.2611 H   0  0  0  0  0  0  0  0  0  0  0  0
    0.0155   -9.5400    5.9918 H   0  0  0  0  0  0  0  0  0  0  0  0
    2.1229  -10.8402    5.7280 H   0  0  0  0  0  0  0  0  0  0  0  0
    0.2208  -11.5194    4.2795 H   0  0  0  0  0  0  0  0  0  0  0  0
    1.7350  -11.7606    3.4418 H   0  0  0  0  0  0  0  0  0  0  0  0
    3.7248  -10.2660    3.9160 H   0  0  0  0  0  0  0  0  0  0  0  0
    3.5853   -8.9785    5.0884 H   0  0  0  0  0  0  0  0  0  0  0  0
    2.1146   -6.8605    4.4938 H   0  0  0  0  0  0  0  0  0  0  0  0
    1.3233   -6.7860    2.9338 H   0  0  0  0  0  0  0  0  0  0  0  0
    1.8436   -5.1296    0.0477 H   0  0  0  0  0  0  0  0  0  0  0  0
    4.4459   -8.6464    2.2776 H   0  0  0  0  0  0  0  0  0  0  0  0
  1 23  2  0
  1  2  1  0
  1 24  1  0
  2  3  2  0
  2 25  1  0
  3  4  1  0
  3 26  1  0
  4  5  1  0
  4 22  2  0
  5  9  1  0
  5  6  1  0
  6  7  2  0
  6 27  1  0
  7  8  1  0
  7 28  1  0
  8  9  2  0
  8 29  1  0
  9 10  1  0
 10 11  1  0
 10 30  1  0
 10 31  1  0
 12 11  1  6
 11 32  1  0
 11 49  1  0
 12 20  1  0
 12 21  1  0
 12 13  1  0
 13 14  1  0
 13 33  1  0
 13 34  1  0
 14 19  1  0
 14 15  1  0
 14 35  1  6
 15 16  1  0
 15 36  1  0
 15 37  1  0
 16 17  1  0
 16 21  1  0
 16 38  1  1
 17 18  1  0
 17 39  1  0
 17 40  1  0
 18 19  1  0
 18 20  1  0
 18 41  1  1
 19 42  1  0
 19 43  1  0
 20 44  1  0
 20 45  1  0
 21 46  1  0
 21 47  1  0
 22 23  1  0
 23 48  1  0
M  CHG  1  11   1
M  END
>  <i_m_ct_stereo_status>  (70) 
1

>  <s_m_source_file>  (70) 
/var/tmp/pbs.5083856.sched01/tmpjjl8s0my/25cbzfdbe7.sdf

>  <i_m_source_file_index>  (70) 
4

>  <i_lp_mmshare_version>  (70) 
48012

>  <i_f3d_flags>  (70) 
0

>  <s_epik_input>  (70) 
bjFbY0hdW2NIXVtjSF1bY0hdYzEtbjJbY0hdW2NIXVtjSF1jMltDSDJdW05IXUMzNFtDSDJdW0NAQEhdNVtDSDJdW0NASF0oW0NIMl00KVtDSDJdW0NAQEhdKFtDSDJdNSlbQ0gyXTM=

>  <s_epik_cmdline>  (70) 
J2VwaWtfcHl0aG9uJywgJy1waHQnLCAnMi4wJywgJy1waCcsICc3LjAnLCAnLXRuJywgJzgnLCAnLW1hJywgJzIwMCcsICctaW1hZScsICc8aW5maWxlLm1hZT4nLCAnLW9tYWUnLCAnPG91dGZpbGUubWFlPic=

>  <r_epik_Ionization_Penalty>  (70) 
0.000465017

>  <r_epik_Ionization_Penalty_Charging>  (70) 
0.000463393

>  <r_epik_Ionization_Penalty_Neutral>  (70) 
1.62415e-06

>  <r_epik_State_Penalty>  (70) 
0.000286831

>  <r_epik_Charging_Adjusted_Penalty>  (70) 
0.000750224

>  <i_epik_Tot_Q>  (70) 
1

>  <i_epik_Tot_abs_Q>  (70) 
1

>  <s_lp_Force_Field>  (70) 
OPLS3e

>  <r_lp_Energy>  (70) 
23.3814

>  <b_lp_Chiralities_Consistent>  (70) 
1

>  <s_lp_Variant>  (70) 
19:0-1

>  <s_i_glide_gridfile>  (70) 
pfpi4k_grid

>  <i_i_glide_lignum>  (70) 
4

>  <i_i_glide_rotatable_bonds>  (70) 
4

>  <r_i_docking_score>  (70) 
-3.32494

>  <r_i_glide_ligand_efficiency>  (70) 
-0.144562

>  <r_i_glide_ligand_efficiency_sa>  (70) 
-0.411116

>  <r_i_glide_ligand_efficiency_ln>  (70) 
-0.804

>  <r_i_glide_gscore>  (70) 
-3.32494

>  <r_i_glide_lipo>  (70) 
-0.500534

>  <r_i_glide_hbond>  (70) 
0

>  <r_i_glide_metal>  (70) 
-0

>  <r_i_glide_rewards>  (70) 
-1.97324

>  <r_i_glide_evdw>  (70) 
-25.1898

>  <r_i_glide_ecoul>  (70) 
-2.44481

>  <r_i_glide_erotb>  (70) 
0.777904

>  <r_i_glide_esite>  (70) 
-0.0028474

>  <r_i_glide_emodel>  (70) 
-39.45

>  <r_i_glide_energy>  (70) 
-27.6347

>  <r_i_glide_einternal>  (70) 
0.671635

>  <r_i_glide_intrahb_reward>  (70) 
-0.5

>  <i_i_glide_confnum>  (70) 
3

>  <i_i_glide_posenum>  (70) 
37

>  <r_i_glide_eff_state_penalty>  (70) 
0

>  <ligand_id>  (70) 
19

>  <original_smiles>  (70) 
c1ccc(-n2cccc2CNC23CC4CC(CC(C4)C2)C3)nc1

>  <smiles>  (70) 
[H]c1nc(-n2c([H])c([H])c([H])c2C([H])([H])[N+]([H])([H])C23C([H])([H])C4([H])C([H])([H])C([H])(C([H])([H])C([H])(C4([H])[H])C2([H])[H])C3([H])[H])c([H])c([H])c1[H]

$$$$
19:0:2
     RDKit          3D

 49 53  0  0  1  0  0  0  0  0999 V2000
    5.3473   -4.1020   -0.3192 C   0  0  0  0  0  0  0  0  0  0  0  0
    6.6364   -3.9035    0.2013 C   0  0  0  0  0  0  0  0  0  0  0  0
    7.1345   -4.8306    1.1349 C   0  0  0  0  0  0  0  0  0  0  0  0
    6.3261   -5.9221    1.5236 C   0  0  0  0  0  0  0  0  0  0  0  0
    6.8446   -6.8629    2.4541 N   0  0  0  0  0  0  0  0  0  0  0  0
    8.1407   -7.3505    2.4238 C   0  0  0  0  0  0  0  0  0  0  0  0
    8.3096   -8.2289    3.4534 C   0  0  0  0  0  0  0  0  0  0  0  0
    7.0794   -8.2973    4.1581 C   0  0  0  0  0  0  0  0  0  0  0  0
    6.1903   -7.4692    3.5296 C   0  0  0  0  0  0  0  0  0  0  0  0
    4.7687   -7.2127    3.8941 C   0  0  0  0  0  0  0  0  0  0  0  0
    3.8582   -8.0003    3.0303 N   0  0  0  0  0  0  0  0  0  0  0  0
    2.4048   -7.9305    3.3305 C   0  0  1  0  0  0  0  0  0  0  0  0
    1.9034   -6.4629    3.3773 C   0  0  0  0  0  0  0  0  0  0  0  0
    0.3896   -6.4229    3.6543 C   0  0  2  0  0  0  0  0  0  0  0  0
    0.0910   -7.1063    5.0065 C   0  0  0  0  0  0  0  0  0  0  0  0
    0.5628   -8.5755    4.9521 C   0  0  1  0  0  0  0  0  0  0  0  0
   -0.1820   -9.3141    3.8260 C   0  0  0  0  0  0  0  0  0  0  0  0
    0.1082   -8.6209    2.4820 C   0  0  1  0  0  0  0  0  0  0  0  0
   -0.3560   -7.1523    2.5211 C   0  0  0  0  0  0  0  0  0  0  0  0
    1.6287   -8.6726    2.2065 C   0  0  0  0  0  0  0  0  0  0  0  0
    2.0808   -8.6236    4.6808 C   0  0  0  0  0  0  0  0  0  0  0  0
    5.0824   -6.1075    1.0201 N   0  0  0  0  0  0  0  0  0  0  0  0
    4.6146   -5.2195    0.1164 C   0  0  0  0  0  0  0  0  0  0  0  0
    4.9281   -3.4157   -1.0367 H   0  0  0  0  0  0  0  0  0  0  0  0
    7.2336   -3.0597   -0.1111 H   0  0  0  0  0  0  0  0  0  0  0  0
    8.1254   -4.7007    1.5475 H   0  0  0  0  0  0  0  0  0  0  0  0
    8.8362   -7.0445    1.6568 H   0  0  0  0  0  0  0  0  0  0  0  0
    9.2181   -8.7704    3.6631 H   0  0  0  0  0  0  0  0  0  0  0  0
    6.8651   -8.8936    5.0346 H   0  0  0  0  0  0  0  0  0  0  0  0
    4.6256   -7.4904    4.9372 H   0  0  0  0  0  0  0  0  0  0  0  0
    4.5691   -6.1458    3.8192 H   0  0  0  0  0  0  0  0  0  0  0  0
    4.0113   -7.6722    2.0836 H   0  0  0  0  0  0  0  0  0  0  0  0
    2.3932   -5.8965    4.1702 H   0  0  0  0  0  0  0  0  0  0  0  0
    2.1295   -5.9510    2.4400 H   0  0  0  0  0  0  0  0  0  0  0  0
    0.0688   -5.3828    3.7013 H   0  0  0  0  0  0  0  0  0  0  0  0
    0.5981   -6.5806    5.8163 H   0  0  0  0  0  0  0  0  0  0  0  0
   -0.9746   -7.0610    5.2290 H   0  0  0  0  0  0  0  0  0  0  0  0
    0.3505   -9.0644    5.9052 H   0  0  0  0  0  0  0  0  0  0  0  0
    0.1345  -10.3581    3.7908 H   0  0  0  0  0  0  0  0  0  0  0  0
   -1.2519   -9.3247    4.0226 H   0  0  0  0  0  0  0  0  0  0  0  0
   -0.4340   -9.1413    1.6927 H   0  0  0  0  0  0  0  0  0  0  0  0
   -1.4335   -7.0991    2.6693 H   0  0  0  0  0  0  0  0  0  0  0  0
   -0.1436   -6.6775    1.5623 H   0  0  0  0  0  0  0  0  0  0  0  0
    1.8333   -8.2253    1.2315 H   0  0  0  0  0  0  0  0  0  0  0  0
    1.9477   -9.7155    2.1351 H   0  0  0  0  0  0  0  0  0  0  0  0
    2.4219   -9.6608    4.6726 H   0  0  0  0  0  0  0  0  0  0  0  0
    2.5901   -8.1385    5.5144 H   0  0  0  0  0  0  0  0  0  0  0  0
    3.6217   -5.4017   -0.2656 H   0  0  0  0  0  0  0  0  0  0  0  0
    4.1400   -8.9700    3.0719 H   0  0  0  0  0  0  0  0  0  0  0  0
  1 23  2  0
  1  2  1  0
  1 24  1  0
  2  3  2  0
  2 25  1  0
  3  4  1  0
  3 26  1  0
  4  5  1  0
  4 22  2  0
  5  9  1  0
  5  6  1  0
  6  7  2  0
  6 27  1  0
  7  8  1  0
  7 28  1  0
  8  9  2  0
  8 29  1  0
  9 10  1  0
 10 11  1  0
 10 30  1  0
 10 31  1  0
 12 11  1  6
 11 32  1  0
 11 49  1  0
 12 20  1  0
 12 21  1  0
 12 13  1  0
 13 14  1  0
 13 33  1  0
 13 34  1  0
 14 19  1  0
 14 15  1  0
 14 35  1  1
 15 16  1  0
 15 36  1  0
 15 37  1  0
 16 17  1  0
 16 21  1  0
 16 38  1  1
 17 18  1  0
 17 39  1  0
 17 40  1  0
 18 19  1  0
 18 20  1  0
 18 41  1  6
 19 42  1  0
 19 43  1  0
 20 44  1  0
 20 45  1  0
 21 46  1  0
 21 47  1  0
 22 23  1  0
 23 48  1  0
M  CHG  1  11   1
M  END
>  <i_m_ct_stereo_status>  (71) 
1

>  <s_m_source_file>  (71) 
/var/tmp/pbs.5083856.sched01/tmpjjl8s0my/25cbzfdbe7.sdf

>  <i_m_source_file_index>  (71) 
4

>  <i_lp_mmshare_version>  (71) 
48012

>  <i_f3d_flags>  (71) 
0

>  <s_epik_input>  (71) 
bjFbY0hdW2NIXVtjSF1bY0hdYzEtbjJbY0hdW2NIXVtjSF1jMltDSDJdW05IXUMzNFtDSDJdW0NAQEhdNVtDSDJdW0NASF0oW0NIMl00KVtDSDJdW0NAQEhdKFtDSDJdNSlbQ0gyXTM=

>  <s_epik_cmdline>  (71) 
J2VwaWtfcHl0aG9uJywgJy1waHQnLCAnMi4wJywgJy1waCcsICc3LjAnLCAnLXRuJywgJzgnLCAnLW1hJywgJzIwMCcsICctaW1hZScsICc8aW5maWxlLm1hZT4nLCAnLW9tYWUnLCAnPG91dGZpbGUubWFlPic=

>  <r_epik_Ionization_Penalty>  (71) 
0.000465017

>  <r_epik_Ionization_Penalty_Charging>  (71) 
0.000463393

>  <r_epik_Ionization_Penalty_Neutral>  (71) 
1.62415e-06

>  <r_epik_State_Penalty>  (71) 
0.000286831

>  <r_epik_Charging_Adjusted_Penalty>  (71) 
0.000750224

>  <i_epik_Tot_Q>  (71) 
1

>  <i_epik_Tot_abs_Q>  (71) 
1

>  <s_lp_Force_Field>  (71) 
OPLS3e

>  <r_lp_Energy>  (71) 
23.3814

>  <b_lp_Chiralities_Consistent>  (71) 
1

>  <s_lp_Variant>  (71) 
19:0-1

>  <s_i_glide_gridfile>  (71) 
pfpi4k_grid

>  <i_i_glide_lignum>  (71) 
4

>  <i_i_glide_rotatable_bonds>  (71) 
4

>  <r_i_docking_score>  (71) 
-2.99386

>  <r_i_glide_ligand_efficiency>  (71) 
-0.130168

>  <r_i_glide_ligand_efficiency_sa>  (71) 
-0.37018

>  <r_i_glide_ligand_efficiency_ln>  (71) 
-0.723942

>  <r_i_glide_gscore>  (71) 
-2.99386

>  <r_i_glide_lipo>  (71) 
-0.297386

>  <r_i_glide_hbond>  (71) 
0

>  <r_i_glide_metal>  (71) 
-0

>  <r_i_glide_rewards>  (71) 
-1.94632

>  <r_i_glide_evdw>  (71) 
-21.9706

>  <r_i_glide_ecoul>  (71) 
-2.85432

>  <r_i_glide_erotb>  (71) 
0.777904

>  <r_i_glide_esite>  (71) 
-0.00138061

>  <r_i_glide_emodel>  (71) 
-35.9896

>  <r_i_glide_energy>  (71) 
-24.825

>  <r_i_glide_einternal>  (71) 
0.5403

>  <r_i_glide_intrahb_reward>  (71) 
-0.5

>  <i_i_glide_confnum>  (71) 
6

>  <i_i_glide_posenum>  (71) 
38

>  <r_i_glide_eff_state_penalty>  (71) 
0

>  <ligand_id>  (71) 
19

>  <original_smiles>  (71) 
c1ccc(-n2cccc2CNC23CC4CC(CC(C4)C2)C3)nc1

>  <smiles>  (71) 
[H]c1nc(-n2c([H])c([H])c([H])c2C([H])([H])[N+]([H])([H])C23C([H])([H])C4([H])C([H])([H])C([H])(C([H])([H])C([H])(C4([H])[H])C2([H])[H])C3([H])[H])c([H])c([H])c1[H]

$$$$
20:0:0
     RDKit          3D

 75 80  0  0  1  0  0  0  0  0999 V2000
   -0.5632    3.0687    3.5696 C   0  0  0  0  0  0  0  0  0  0  0  0
   -0.3847    3.4648    5.0476 C   0  0  0  0  0  0  0  0  0  0  0  0
    0.2489    2.4016    5.9842 C   0  0  1  0  0  0  0  0  0  0  0  0
    0.3620    2.9881    7.4066 C   0  0  0  0  0  0  0  0  0  0  0  0
   -0.5826    1.0956    6.0369 C   0  0  0  0  0  0  0  0  0  0  0  0
    0.0938    0.1822    5.0153 C   0  0  2  0  0  0  0  0  0  0  0  0
   -0.0484   -1.2058    5.2329 O   0  0  0  0  0  0  0  0  0  0  0  0
    0.7106   -2.1135    4.5587 C   0  0  0  0  0  0  0  0  0  0  0  0
    0.3297   -3.2767    4.4669 O   0  0  0  0  0  0  0  0  0  0  0  0
    2.0284   -1.6002    3.8515 C   0  0  1  0  0  0  0  0  0  0  0  0
    1.5472   -1.1738    2.4418 C   0  0  0  0  0  0  0  0  0  0  0  0
    2.5317   -0.3386    4.6046 C   0  0  0  0  0  0  0  0  0  0  0  0
    3.8157   -0.1957    4.9961 C   0  0  0  0  0  0  0  0  0  0  0  0
    4.9642   -1.1334    4.6906 C   0  0  0  0  0  0  0  0  0  0  0  0
    4.6298   -2.2275    3.6623 C   0  0  2  0  0  0  0  0  0  0  0  0
    5.1955   -1.9577    2.2327 C   0  0  2  0  0  0  0  0  0  0  0  0
    4.9051   -0.5365    1.6974 C   0  0  0  0  0  0  0  0  0  0  0  0
    4.5955   -0.4677    0.2208 C   0  0  0  0  0  0  0  0  0  0  0  0
    4.8513   -1.4319   -0.6765 C   0  0  0  0  0  0  0  0  0  0  0  0
    4.6105   -1.1875   -2.1652 C   0  0  0  0  0  0  0  0  0  0  0  0
    4.2403   -2.4431   -2.9495 C   0  0  0  0  0  0  0  0  0  0  0  0
    3.6416   -2.3213   -4.0173 O   0  0  0  0  0  0  0  0  0  0  0  0
    4.7058   -3.7360   -2.4516 C   0  0  0  0  0  0  0  0  0  0  0  0
    5.2766   -3.8549   -1.2425 C   0  0  0  0  0  0  0  0  0  0  0  0
    5.5025   -2.7387   -0.2220 C   0  0  1  0  0  0  0  0  0  0  0  0
    7.0308   -2.4738   -0.2395 C   0  0  0  0  0  0  0  0  0  0  0  0
    4.9618   -3.1283    1.2185 C   0  0  1  0  0  0  0  0  0  0  0  0
    5.9091   -4.5423    1.7890 Cl  0  0  0  0  0  0  0  0  0  0  0  0
    3.4493   -3.5266    1.2701 C   0  0  1  0  0  0  0  0  0  0  0  0
    3.1507   -4.6879    0.5174 O   0  0  0  0  0  0  0  0  0  0  0  0
    2.9389   -3.8415    2.7040 C   0  0  0  0  0  0  0  0  0  0  0  0
    3.1605   -2.7553    3.8061 C   0  0  2  0  0  0  0  0  0  0  0  0
    3.1770   -3.5362    5.1720 C   0  0  0  0  0  0  0  0  0  0  0  0
    1.5178    0.6311    5.0147 C   0  0  0  0  0  0  0  0  0  0  0  0
    1.5966    1.9030    5.4583 C   0  0  0  0  0  0  0  0  0  0  0  0
    2.8063    2.8251    5.5488 C   0  0  0  0  0  0  0  0  0  0  0  0
   -0.9183    3.9198    2.9880 H   0  0  0  0  0  0  0  0  0  0  0  0
   -1.2987    2.2730    3.4470 H   0  0  0  0  0  0  0  0  0  0  0  0
    0.3738    2.7444    3.1124 H   0  0  0  0  0  0  0  0  0  0  0  0
    0.2213    4.3711    5.0799 H   0  0  0  0  0  0  0  0  0  0  0  0
   -1.3596    3.7476    5.4459 H   0  0  0  0  0  0  0  0  0  0  0  0
   -0.6258    3.2019    7.8129 H   0  0  0  0  0  0  0  0  0  0  0  0
    0.9233    3.9223    7.4199 H   0  0  0  0  0  0  0  0  0  0  0  0
    0.8523    2.3010    8.0956 H   0  0  0  0  0  0  0  0  0  0  0  0
   -0.4761    0.6309    7.0199 H   0  0  0  0  0  0  0  0  0  0  0  0
   -1.6488    1.2359    5.8562 H   0  0  0  0  0  0  0  0  0  0  0  0
   -0.3221    0.4131    4.0351 H   0  0  0  0  0  0  0  0  0  0  0  0
    0.8852   -0.3094    2.4546 H   0  0  0  0  0  0  0  0  0  0  0  0
    0.9979   -1.9716    1.9464 H   0  0  0  0  0  0  0  0  0  0  0  0
    2.3428   -0.8981    1.7685 H   0  0  0  0  0  0  0  0  0  0  0  0
    4.1135    0.6346    5.6167 H   0  0  0  0  0  0  0  0  0  0  0  0
    5.8174   -0.5436    4.3627 H   0  0  0  0  0  0  0  0  0  0  0  0
    5.2638   -1.5915    5.6344 H   0  0  0  0  0  0  0  0  0  0  0  0
    5.2725   -3.0521    3.9741 H   0  0  0  0  0  0  0  0  0  0  0  0
    6.2725   -1.9410    2.3846 H   0  0  0  0  0  0  0  0  0  0  0  0
    4.1223   -0.0289    2.2523 H   0  0  0  0  0  0  0  0  0  0  0  0
    5.7832    0.0885    1.8580 H   0  0  0  0  0  0  0  0  0  0  0  0
    4.2158    0.4866   -0.1099 H   0  0  0  0  0  0  0  0  0  0  0  0
    3.8396   -0.4304   -2.3064 H   0  0  0  0  0  0  0  0  0  0  0  0
    5.5234   -0.7949   -2.6005 H   0  0  0  0  0  0  0  0  0  0  0  0
    4.6143   -4.5960   -3.1003 H   0  0  0  0  0  0  0  0  0  0  0  0
    5.6261   -4.8333   -0.9423 H   0  0  0  0  0  0  0  0  0  0  0  0
    7.3608   -2.2097   -1.2462 H   0  0  0  0  0  0  0  0  0  0  0  0
    7.6124   -3.3493    0.0502 H   0  0  0  0  0  0  0  0  0  0  0  0
    7.3202   -1.6499    0.4154 H   0  0  0  0  0  0  0  0  0  0  0  0
    2.8572   -2.7414    0.8154 H   0  0  0  0  0  0  0  0  0  0  0  0
    3.4123   -4.5452   -0.3835 H   0  0  0  0  0  0  0  0  0  0  0  0
    1.8871   -4.1080    2.6498 H   0  0  0  0  0  0  0  0  0  0  0  0
    3.4257   -4.7656    3.0281 H   0  0  0  0  0  0  0  0  0  0  0  0
    4.0474   -4.1865    5.2776 H   0  0  0  0  0  0  0  0  0  0  0  0
    2.3375   -4.2182    5.2943 H   0  0  0  0  0  0  0  0  0  0  0  0
    3.1750   -2.8626    6.0301 H   0  0  0  0  0  0  0  0  0  0  0  0
    2.5059    3.8457    5.3070 H   0  0  0  0  0  0  0  0  0  0  0  0
    3.5899    2.5609    4.8363 H   0  0  0  0  0  0  0  0  0  0  0  0
    3.2195    2.8340    6.5595 H   0  0  0  0  0  0  0  0  0  0  0  0
  1  2  1  0
  1 37  1  0
  1 38  1  0
  1 39  1  0
  3  2  1  6
  2 40  1  0
  2 41  1  0
  3 35  1  0
  3  4  1  0
  3  5  1  0
  4 42  1  0
  4 43  1  0
  4 44  1  0
  5  6  1  0
  5 45  1  0
  5 46  1  0
  6 34  1  0
  6  7  1  0
  6 47  1  6
  7  8  1  0
  8  9  2  0
  8 10  1  0
 10 32  1  0
 10 11  1  6
 10 12  1  0
 11 48  1  0
 11 49  1  0
 11 50  1  0
 12 13  2  0
 12 34  1  0
 13 14  1  0
 13 51  1  0
 14 15  1  0
 14 52  1  0
 14 53  1  0
 15 32  1  0
 15 16  1  0
 15 54  1  1
 16 27  1  0
 16 17  1  0
 16 55  1  1
 17 18  1  0
 17 56  1  0
 17 57  1  0
 18 19  2  0
 18 58  1  0
 19 25  1  0
 19 20  1  0
 20 21  1  0
 20 59  1  0
 20 60  1  0
 21 22  2  0
 21 23  1  0
 23 24  2  0
 23 61  1  0
 24 25  1  0
 24 62  1  0
 25 26  1  1
 25 27  1  0
 26 63  1  0
 26 64  1  0
 26 65  1  0
 27 28  1  1
 27 29  1  0
 29 30  1  0
 29 31  1  0
 29 66  1  6
 30 67  1  0
 31 32  1  0
 31 68  1  0
 31 69  1  0
 32 33  1  1
 33 70  1  0
 33 71  1  0
 33 72  1  0
 34 35  2  0
 35 36  1  0
 36 73  1  0
 36 74  1  0
 36 75  1  0
M  END
>  <i_m_ct_stereo_status>  (72) 
1

>  <s_m_source_file>  (72) 
/var/tmp/pbs.5083856.sched01/tmpjjl8s0my/25cbzfdbe7.sdf

>  <i_m_source_file_index>  (72) 
5

>  <i_lp_mmshare_version>  (72) 
48012

>  <i_f3d_flags>  (72) 
0

>  <s_epik_input>  (72) 
W0NIM11bQ0gyXVtDQF0oW0NIM10pKEMxW0NIM10pW0NIMl1bQ0BIXShPQzI9TylDPTFDKFtDQF0yM1tDSDNdKT1bQ0hdW0NIMl1bQ0BASF00W0NASF01W0NAQF0oQ2wpKFtDQEBIXShbT0hdKVtDSDJdW0NAXTM0W0NIM10pW0NAXTYoW0NIM10pQyg9W0NIXVtDSDJdNSlbQ0gyXUMoPU8pW0NIXT1bQ0hdNg==

>  <s_epik_cmdline>  (72) 
J2VwaWtfcHl0aG9uJywgJy1waHQnLCAnMi4wJywgJy1waCcsICc3LjAnLCAnLXRuJywgJzgnLCAnLW1hJywgJzIwMCcsICctaW1hZScsICc8aW5maWxlLm1hZT4nLCAnLW9tYWUnLCAnPG91dGZpbGUubWFlPic=

>  <r_lp_tautomer_probability>  (72) 
1

>  <r_epik_Ionization_Penalty>  (72) 
2.67065e-06

>  <r_epik_Ionization_Penalty_Charging>  (72) 
0

>  <r_epik_Ionization_Penalty_Neutral>  (72) 
2.67065e-06

>  <r_epik_State_Penalty>  (72) 
-0

>  <r_epik_Charging_Adjusted_Penalty>  (72) 
0

>  <i_epik_Tot_Q>  (72) 
0

>  <i_epik_Tot_abs_Q>  (72) 
0

>  <s_epik_Chemistry_Notes>  (72) 
This compound has an ester and may undergo hydrolysis at high or low pH.

>  <s_lp_Force_Field>  (72) 
OPLS3e

>  <r_lp_Energy>  (72) 
82.2391

>  <b_lp_Chiralities_Consistent>  (72) 
1

>  <s_lp_Variant>  (72) 
20:0-1

>  <s_i_glide_gridfile>  (72) 
pfpi4k_grid

>  <i_i_glide_lignum>  (72) 
5

>  <i_i_glide_rotatable_bonds>  (72) 
2

>  <r_i_docking_score>  (72) 
-2.78206

>  <r_i_glide_ligand_efficiency>  (72) 
-0.0772794

>  <r_i_glide_ligand_efficiency_sa>  (72) 
-0.255171

>  <r_i_glide_ligand_efficiency_ln>  (72) 
-0.60697

>  <r_i_glide_gscore>  (72) 
-2.78206

>  <r_i_glide_lipo>  (72) 
-0.515754

>  <r_i_glide_hbond>  (72) 
-0.190503

>  <r_i_glide_metal>  (72) 
-0

>  <r_i_glide_rewards>  (72) 
-0.199812

>  <r_i_glide_evdw>  (72) 
-30.1522

>  <r_i_glide_ecoul>  (72) 
-2.45586

>  <r_i_glide_erotb>  (72) 
0

>  <r_i_glide_esite>  (72) 
0

>  <r_i_glide_emodel>  (72) 
-38.2039

>  <r_i_glide_energy>  (72) 
-32.6081

>  <r_i_glide_einternal>  (72) 
0.327297

>  <r_i_glide_intrahb_reward>  (72) 
-0

>  <i_i_glide_confnum>  (72) 
1

>  <i_i_glide_posenum>  (72) 
12

>  <r_i_glide_eff_state_penalty>  (72) 
0

>  <ligand_id>  (72) 
20

>  <original_smiles>  (72) 
CCC1(C)CC2OC(=O)C3(C)C(=CCC4C5CC=C6CC(=O)C=CC6(C)C5(Cl)C(O)CC43C)C2=C1C

>  <smiles>  (72) 
[H]OC1([H])C([H])([H])C2(C([H])([H])[H])C3(C([H])([H])[H])C(=O)OC4([H])C(=C(C([H])([H])[H])C(C([H])([H])[H])(C([H])([H])C([H])([H])[H])C4([H])[H])C3=C([H])C([H])([H])C2([H])C2([H])C([H])([H])C([H])=C3C([H])([H])C(=O)C([H])=C([H])C3(C([H])([H])[H])C12Cl

$$$$
20:0:1
     RDKit          3D

 75 80  0  0  1  0  0  0  0  0999 V2000
    0.2697    5.7899    4.0635 C   0  0  0  0  0  0  0  0  0  0  0  0
   -0.5492    4.4961    4.2873 C   0  0  0  0  0  0  0  0  0  0  0  0
   -0.1051    3.5319    5.4294 C   0  0  1  0  0  0  0  0  0  0  0  0
   -0.1373    4.2267    6.8081 C   0  0  0  0  0  0  0  0  0  0  0  0
   -1.0785    2.3109    5.4837 C   0  0  0  0  0  0  0  0  0  0  0  0
   -0.3884    1.2375    4.6442 C   0  0  2  0  0  0  0  0  0  0  0  0
   -0.6906   -0.1062    4.9883 O   0  0  0  0  0  0  0  0  0  0  0  0
    0.0568   -1.1432    4.5195 C   0  0  0  0  0  0  0  0  0  0  0  0
   -0.4174   -2.2797    4.4954 O   0  0  0  0  0  0  0  0  0  0  0  0
    1.4953   -0.8407    3.9439 C   0  0  1  0  0  0  0  0  0  0  0  0
    1.2284   -0.5377    2.4471 C   0  0  0  0  0  0  0  0  0  0  0  0
    2.0189    0.4575    4.6322 C   0  0  0  0  0  0  0  0  0  0  0  0
    3.2479    0.5074    5.1842 C   0  0  0  0  0  0  0  0  0  0  0  0
    4.3222   -0.5494    5.1239 C   0  0  0  0  0  0  0  0  0  0  0  0
    4.0131   -1.7131    4.1696 C   0  0  2  0  0  0  0  0  0  0  0  0
    4.7761   -1.6506    2.8118 C   0  0  2  0  0  0  0  0  0  0  0  0
    4.7002   -0.2822    2.1057 C   0  0  0  0  0  0  0  0  0  0  0  0
    4.5859   -0.3328    0.5992 C   0  0  0  0  0  0  0  0  0  0  0  0
    4.8697   -1.4094   -0.1538 C   0  0  0  0  0  0  0  0  0  0  0  0
    4.8558   -1.2956   -1.6780 C   0  0  0  0  0  0  0  0  0  0  0  0
    4.4474   -2.5856   -2.3721 C   0  0  0  0  0  0  0  0  0  0  0  0
    3.9953   -2.5208   -3.5265 O   0  0  0  0  0  0  0  0  0  0  0  0
    4.7040   -3.8493   -1.6976 C   0  0  0  0  0  0  0  0  0  0  0  0
    5.1134   -3.9032   -0.4232 C   0  0  0  0  0  0  0  0  0  0  0  0
    5.3246   -2.7050    0.5084 C   0  0  1  0  0  0  0  0  0  0  0  0
    6.8607   -2.5796    0.6775 C   0  0  0  0  0  0  0  0  0  0  0  0
    4.5674   -2.8948    1.8896 C   0  0  1  0  0  0  0  0  0  0  0  0
    5.2832   -4.3138    2.7199 Cl  0  0  0  0  0  0  0  0  0  0  0  0
    3.0274   -3.1502    1.7764 C   0  0  1  0  0  0  0  0  0  0  0  0
    2.7113   -4.3595    1.1108 O   0  0  0  0  0  0  0  0  0  0  0  0
    2.3131   -3.2697    3.1534 C   0  0  0  0  0  0  0  0  0  0  0  0
    2.4994   -2.0932    4.1666 C   0  0  2  0  0  0  0  0  0  0  0  0
    2.2627   -2.7195    5.5884 C   0  0  0  0  0  0  0  0  0  0  0  0
    1.0694    1.5520    4.7940 C   0  0  0  0  0  0  0  0  0  0  0  0
    1.2379    2.8584    5.1410 C   0  0  0  0  0  0  0  0  0  0  0  0
    2.5459    3.6163    5.3683 C   0  0  0  0  0  0  0  0  0  0  0  0
   -0.2552    6.4675    3.3876 H   0  0  0  0  0  0  0  0  0  0  0  0
    1.2365    5.5828    3.6073 H   0  0  0  0  0  0  0  0  0  0  0  0
    0.4331    6.3415    4.9914 H   0  0  0  0  0  0  0  0  0  0  0  0
   -1.5839    4.7761    4.4845 H   0  0  0  0  0  0  0  0  0  0  0  0
   -0.5707    3.9457    3.3461 H   0  0  0  0  0  0  0  0  0  0  0  0
   -1.1472    4.5650    7.0423 H   0  0  0  0  0  0  0  0  0  0  0  0
    0.5173    5.0932    6.8621 H   0  0  0  0  0  0  0  0  0  0  0  0
    0.1672    3.5568    7.6158 H   0  0  0  0  0  0  0  0  0  0  0  0
   -1.1555    1.9371    6.5078 H   0  0  0  0  0  0  0  0  0  0  0  0
   -2.0993    2.5179    5.1510 H   0  0  0  0  0  0  0  0  0  0  0  0
   -0.6577    1.4160    3.5994 H   0  0  0  0  0  0  0  0  0  0  0  0
    0.6628    0.3781    2.2905 H   0  0  0  0  0  0  0  0  0  0  0  0
    0.6553   -1.3319    1.9639 H   0  0  0  0  0  0  0  0  0  0  0  0
    2.1245   -0.4052    1.8685 H   0  0  0  0  0  0  0  0  0  0  0  0
    3.5526    1.3577    5.7628 H   0  0  0  0  0  0  0  0  0  0  0  0
    5.2659   -0.0758    4.8629 H   0  0  0  0  0  0  0  0  0  0  0  0
    4.4543   -0.9266    6.1372 H   0  0  0  0  0  0  0  0  0  0  0  0
    4.5228   -2.5481    4.6436 H   0  0  0  0  0  0  0  0  0  0  0  0
    5.8193   -1.7148    3.1097 H   0  0  0  0  0  0  0  0  0  0  0  0
    3.9176    0.3543    2.5036 H   0  0  0  0  0  0  0  0  0  0  0  0
    5.6197    0.2468    2.3283 H   0  0  0  0  0  0  0  0  0  0  0  0
    4.2879    0.5803    0.1184 H   0  0  0  0  0  0  0  0  0  0  0  0
    4.1802   -0.5014   -1.9879 H   0  0  0  0  0  0  0  0  0  0  0  0
    5.8507   -1.0457   -2.0361 H   0  0  0  0  0  0  0  0  0  0  0  0
    4.6166   -4.7556   -2.2793 H   0  0  0  0  0  0  0  0  0  0  0  0
    5.3380   -4.8680    0.0153 H   0  0  0  0  0  0  0  0  0  0  0  0
    7.3377   -2.4415   -0.2946 H   0  0  0  0  0  0  0  0  0  0  0  0
    7.3066   -3.4682    1.1275 H   0  0  0  0  0  0  0  0  0  0  0  0
    7.1339   -1.7139    1.2791 H   0  0  0  0  0  0  0  0  0  0  0  0
    2.5736   -2.3702    1.1743 H   0  0  0  0  0  0  0  0  0  0  0  0
    3.1052   -4.3342    0.2514 H   0  0  0  0  0  0  0  0  0  0  0  0
    1.2551   -3.4428    2.9753 H   0  0  0  0  0  0  0  0  0  0  0  0
    2.6546   -4.1925    3.6302 H   0  0  0  0  0  0  0  0  0  0  0  0
    3.0449   -3.4253    5.8692 H   0  0  0  0  0  0  0  0  0  0  0  0
    1.3547   -3.3134    5.6595 H   0  0  0  0  0  0  0  0  0  0  0  0
    2.2190   -1.9564    6.3679 H   0  0  0  0  0  0  0  0  0  0  0  0
    2.4698    4.6480    5.0663 H   0  0  0  0  0  0  0  0  0  0  0  0
    3.3577    3.1851    4.7782 H   0  0  0  0  0  0  0  0  0  0  0  0
    2.8101    3.6029    6.4331 H   0  0  0  0  0  0  0  0  0  0  0  0
  1  2  1  0
  1 37  1  0
  1 38  1  0
  1 39  1  0
  3  2  1  6
  2 40  1  0
  2 41  1  0
  3 35  1  0
  3  4  1  0
  3  5  1  0
  4 42  1  0
  4 43  1  0
  4 44  1  0
  5  6  1  0
  5 45  1  0
  5 46  1  0
  6 34  1  0
  6  7  1  0
  6 47  1  6
  7  8  1  0
  8  9  2  0
  8 10  1  0
 10 32  1  0
 10 11  1  6
 10 12  1  0
 11 48  1  0
 11 49  1  0
 11 50  1  0
 12 13  2  0
 12 34  1  0
 13 14  1  0
 13 51  1  0
 14 15  1  0
 14 52  1  0
 14 53  1  0
 15 32  1  0
 15 16  1  0
 15 54  1  1
 16 27  1  0
 16 17  1  0
 16 55  1  1
 17 18  1  0
 17 56  1  0
 17 57  1  0
 18 19  2  0
 18 58  1  0
 19 25  1  0
 19 20  1  0
 20 21  1  0
 20 59  1  0
 20 60  1  0
 21 22  2  0
 21 23  1  0
 23 24  2  0
 23 61  1  0
 24 25  1  0
 24 62  1  0
 25 26  1  1
 25 27  1  0
 26 63  1  0
 26 64  1  0
 26 65  1  0
 27 28  1  1
 27 29  1  0
 29 30  1  0
 29 31  1  0
 29 66  1  6
 30 67  1  0
 31 32  1  0
 31 68  1  0
 31 69  1  0
 32 33  1  1
 33 70  1  0
 33 71  1  0
 33 72  1  0
 34 35  2  0
 35 36  1  0
 36 73  1  0
 36 74  1  0
 36 75  1  0
M  END
>  <i_m_ct_stereo_status>  (73) 
1

>  <s_m_source_file>  (73) 
/var/tmp/pbs.5083856.sched01/tmpjjl8s0my/25cbzfdbe7.sdf

>  <i_m_source_file_index>  (73) 
5

>  <i_lp_mmshare_version>  (73) 
48012

>  <i_f3d_flags>  (73) 
0

>  <s_epik_input>  (73) 
W0NIM11bQ0gyXVtDQF0oW0NIM10pKEMxW0NIM10pW0NIMl1bQ0BIXShPQzI9TylDPTFDKFtDQF0yM1tDSDNdKT1bQ0hdW0NIMl1bQ0BASF00W0NASF01W0NAQF0oQ2wpKFtDQEBIXShbT0hdKVtDSDJdW0NAXTM0W0NIM10pW0NAXTYoW0NIM10pQyg9W0NIXVtDSDJdNSlbQ0gyXUMoPU8pW0NIXT1bQ0hdNg==

>  <s_epik_cmdline>  (73) 
J2VwaWtfcHl0aG9uJywgJy1waHQnLCAnMi4wJywgJy1waCcsICc3LjAnLCAnLXRuJywgJzgnLCAnLW1hJywgJzIwMCcsICctaW1hZScsICc8aW5maWxlLm1hZT4nLCAnLW9tYWUnLCAnPG91dGZpbGUubWFlPic=

>  <r_lp_tautomer_probability>  (73) 
1

>  <r_epik_Ionization_Penalty>  (73) 
2.67065e-06

>  <r_epik_Ionization_Penalty_Charging>  (73) 
0

>  <r_epik_Ionization_Penalty_Neutral>  (73) 
2.67065e-06

>  <r_epik_State_Penalty>  (73) 
-0

>  <r_epik_Charging_Adjusted_Penalty>  (73) 
0

>  <i_epik_Tot_Q>  (73) 
0

>  <i_epik_Tot_abs_Q>  (73) 
0

>  <s_epik_Chemistry_Notes>  (73) 
This compound has an ester and may undergo hydrolysis at high or low pH.

>  <s_lp_Force_Field>  (73) 
OPLS3e

>  <r_lp_Energy>  (73) 
82.2391

>  <b_lp_Chiralities_Consistent>  (73) 
1

>  <s_lp_Variant>  (73) 
20:0-1

>  <s_i_glide_gridfile>  (73) 
pfpi4k_grid

>  <i_i_glide_lignum>  (73) 
5

>  <i_i_glide_rotatable_bonds>  (73) 
2

>  <r_i_docking_score>  (73) 
-2.47751

>  <r_i_glide_ligand_efficiency>  (73) 
-0.0688197

>  <r_i_glide_ligand_efficiency_sa>  (73) 
-0.227238

>  <r_i_glide_ligand_efficiency_ln>  (73) 
-0.540525

>  <r_i_glide_gscore>  (73) 
-2.47751

>  <r_i_glide_lipo>  (73) 
-0.568129

>  <r_i_glide_hbond>  (73) 
0

>  <r_i_glide_metal>  (73) 
-0

>  <r_i_glide_rewards>  (73) 
-0.0830862

>  <r_i_glide_evdw>  (73) 
-30.2457

>  <r_i_glide_ecoul>  (73) 
-2.00872

>  <r_i_glide_erotb>  (73) 
0

>  <r_i_glide_esite>  (73) 
-0.0126999

>  <r_i_glide_emodel>  (73) 
-36.9221

>  <r_i_glide_energy>  (73) 
-32.2544

>  <r_i_glide_einternal>  (73) 
0.544091

>  <r_i_glide_intrahb_reward>  (73) 
-0

>  <i_i_glide_confnum>  (73) 
2

>  <i_i_glide_posenum>  (73) 
3

>  <r_i_glide_eff_state_penalty>  (73) 
0

>  <ligand_id>  (73) 
20

>  <original_smiles>  (73) 
CCC1(C)CC2OC(=O)C3(C)C(=CCC4C5CC=C6CC(=O)C=CC6(C)C5(Cl)C(O)CC43C)C2=C1C

>  <smiles>  (73) 
[H]OC1([H])C([H])([H])C2(C([H])([H])[H])C3(C([H])([H])[H])C(=O)OC4([H])C(=C(C([H])([H])[H])C(C([H])([H])[H])(C([H])([H])C([H])([H])[H])C4([H])[H])C3=C([H])C([H])([H])C2([H])C2([H])C([H])([H])C([H])=C3C([H])([H])C(=O)C([H])=C([H])C3(C([H])([H])[H])C12Cl

$$$$
20:0:2
     RDKit          3D

 75 80  0  0  1  0  0  0  0  0999 V2000
    0.5245    4.0227    4.0005 C   0  0  0  0  0  0  0  0  0  0  0  0
    0.7355    4.3065    5.4997 C   0  0  0  0  0  0  0  0  0  0  0  0
    1.0654    3.0874    6.4033 C   0  0  1  0  0  0  0  0  0  0  0  0
    1.2207    3.5684    7.8613 C   0  0  0  0  0  0  0  0  0  0  0  0
   -0.0325    1.9951    6.3430 C   0  0  0  0  0  0  0  0  0  0  0  0
    0.4868    1.0000    5.3054 C   0  0  2  0  0  0  0  0  0  0  0  0
    0.0371   -0.3341    5.4375 O   0  0  0  0  0  0  0  0  0  0  0  0
    0.6119   -1.3480    4.7342 C   0  0  0  0  0  0  0  0  0  0  0  0
   -0.0152   -2.3875    4.5370 O   0  0  0  0  0  0  0  0  0  0  0  0
    2.0492   -1.1080    4.1255 C   0  0  1  0  0  0  0  0  0  0  0  0
    1.7502   -0.5245    2.7205 C   0  0  0  0  0  0  0  0  0  0  0  0
    2.7702   -0.0231    4.9746 C   0  0  0  0  0  0  0  0  0  0  0  0
    4.0278   -0.1844    5.4367 C   0  0  0  0  0  0  0  0  0  0  0  0
    4.9602   -1.3358    5.1324 C   0  0  0  0  0  0  0  0  0  0  0  0
    4.4595   -2.2818    4.0273 C   0  0  2  0  0  0  0  0  0  0  0  0
    5.1546   -2.0813    2.6447 C   0  0  2  0  0  0  0  0  0  0  0  0
    5.2108   -0.6090    2.1793 C   0  0  0  0  0  0  0  0  0  0  0  0
    4.9930   -0.4030    0.7003 C   0  0  0  0  0  0  0  0  0  0  0  0
    5.1012   -1.3562   -0.2431 C   0  0  0  0  0  0  0  0  0  0  0  0
    5.0039   -1.0004   -1.7255 C   0  0  0  0  0  0  0  0  0  0  0  0
    4.4085   -2.0986   -2.5969 C   0  0  0  0  0  0  0  0  0  0  0  0
    3.9158   -1.7988   -3.6864 O   0  0  0  0  0  0  0  0  0  0  0  0
    4.5502   -3.4789   -2.1543 C   0  0  0  0  0  0  0  0  0  0  0  0
    5.0234   -3.7853   -0.9344 C   0  0  0  0  0  0  0  0  0  0  0  0
    5.4291   -2.7953    0.1629 C   0  0  1  0  0  0  0  0  0  0  0  0
    6.9776   -2.8702    0.2324 C   0  0  0  0  0  0  0  0  0  0  0  0
    4.7321   -3.1235    1.5535 C   0  0  1  0  0  0  0  0  0  0  0  0
    5.3188   -4.7322    2.0925 Cl  0  0  0  0  0  0  0  0  0  0  0  0
    3.1668   -3.1824    1.5126 C   0  0  1  0  0  0  0  0  0  0  0  0
    2.6673   -4.2123    0.6803 O   0  0  0  0  0  0  0  0  0  0  0  0
    2.5170   -3.4417    2.9005 C   0  0  0  0  0  0  0  0  0  0  0  0
    2.9052   -2.4804    4.0708 C   0  0  2  0  0  0  0  0  0  0  0  0
    2.6706   -3.3057    5.3899 C   0  0  0  0  0  0  0  0  0  0  0  0
    1.9712    1.1270    5.3943 C   0  0  0  0  0  0  0  0  0  0  0  0
    2.3006    2.3282    5.9128 C   0  0  0  0  0  0  0  0  0  0  0  0
    3.6749    2.9569    6.1123 C   0  0  0  0  0  0  0  0  0  0  0  0
    0.4011    4.9547    3.4490 H   0  0  0  0  0  0  0  0  0  0  0  0
   -0.3721    3.4276    3.8213 H   0  0  0  0  0  0  0  0  0  0  0  0
    1.3743    3.5008    3.5545 H   0  0  0  0  0  0  0  0  0  0  0  0
    1.5333    5.0438    5.5926 H   0  0  0  0  0  0  0  0  0  0  0  0
   -0.1604    4.7950    5.8838 H   0  0  0  0  0  0  0  0  0  0  0  0
    0.2808    3.9760    8.2309 H   0  0  0  0  0  0  0  0  0  0  0  0
    1.9695    4.3540    7.9550 H   0  0  0  0  0  0  0  0  0  0  0  0
    1.5065    2.7586    8.5326 H   0  0  0  0  0  0  0  0  0  0  0  0
   -0.0899    1.4752    7.3015 H   0  0  0  0  0  0  0  0  0  0  0  0
   -1.0291    2.3746    6.1202 H   0  0  0  0  0  0  0  0  0  0  0  0
    0.1891    1.3624    4.3208 H   0  0  0  0  0  0  0  0  0  0  0  0
    1.2990    0.4649    2.7577 H   0  0  0  0  0  0  0  0  0  0  0  0
    1.0575   -1.1501    2.1545 H   0  0  0  0  0  0  0  0  0  0  0  0
    2.6264   -0.4001    2.1053 H   0  0  0  0  0  0  0  0  0  0  0  0
    4.4638    0.5303    6.1167 H   0  0  0  0  0  0  0  0  0  0  0  0
    5.9321   -0.9204    4.8799 H   0  0  0  0  0  0  0  0  0  0  0  0
    5.1054   -1.8915    6.0608 H   0  0  0  0  0  0  0  0  0  0  0  0
    4.8883   -3.2410    4.3212 H   0  0  0  0  0  0  0  0  0  0  0  0
    6.2004   -2.3115    2.8432 H   0  0  0  0  0  0  0  0  0  0  0  0
    4.5290    0.0322    2.7262 H   0  0  0  0  0  0  0  0  0  0  0  0
    6.1951   -0.2084    2.4195 H   0  0  0  0  0  0  0  0  0  0  0  0
    4.7917    0.6158    0.4262 H   0  0  0  0  0  0  0  0  0  0  0  0
    4.4347   -0.0829   -1.8645 H   0  0  0  0  0  0  0  0  0  0  0  0
    6.0054   -0.8208   -2.1028 H   0  0  0  0  0  0  0  0  0  0  0  0
    4.2938   -4.2545   -2.8630 H   0  0  0  0  0  0  0  0  0  0  0  0
    5.1376   -4.8314   -0.6820 H   0  0  0  0  0  0  0  0  0  0  0  0
    7.4202   -2.6259   -0.7358 H   0  0  0  0  0  0  0  0  0  0  0  0
    7.3373   -3.8647    0.4987 H   0  0  0  0  0  0  0  0  0  0  0  0
    7.3956   -2.1601    0.9467 H   0  0  0  0  0  0  0  0  0  0  0  0
    2.7834   -2.2671    1.0775 H   0  0  0  0  0  0  0  0  0  0  0  0
    2.9578   -4.0451   -0.2068 H   0  0  0  0  0  0  0  0  0  0  0  0
    1.4366   -3.4676    2.7829 H   0  0  0  0  0  0  0  0  0  0  0  0
    2.7738   -4.4623    3.1942 H   0  0  0  0  0  0  0  0  0  0  0  0
    3.3730   -4.1348    5.4995 H   0  0  0  0  0  0  0  0  0  0  0  0
    1.6962   -3.7901    5.4319 H   0  0  0  0  0  0  0  0  0  0  0  0
    2.7657   -2.6869    6.2839 H   0  0  0  0  0  0  0  0  0  0  0  0
    3.6194    4.0286    5.9128 H   0  0  0  0  0  0  0  0  0  0  0  0
    4.4230    2.5569    5.4262 H   0  0  0  0  0  0  0  0  0  0  0  0
    4.0194    2.8321    7.1418 H   0  0  0  0  0  0  0  0  0  0  0  0
  1  2  1  0
  1 37  1  0
  1 38  1  0
  1 39  1  0
  3  2  1  6
  2 40  1  0
  2 41  1  0
  3 35  1  0
  3  4  1  0
  3  5  1  0
  4 42  1  0
  4 43  1  0
  4 44  1  0
  5  6  1  0
  5 45  1  0
  5 46  1  0
  6 34  1  0
  6  7  1  0
  6 47  1  6
  7  8  1  0
  8  9  2  0
  8 10  1  0
 10 32  1  0
 10 11  1  6
 10 12  1  0
 11 48  1  0
 11 49  1  0
 11 50  1  0
 12 13  2  0
 12 34  1  0
 13 14  1  0
 13 51  1  0
 14 15  1  0
 14 52  1  0
 14 53  1  0
 15 32  1  0
 15 16  1  0
 15 54  1  1
 16 27  1  0
 16 17  1  0
 16 55  1  1
 17 18  1  0
 17 56  1  0
 17 57  1  0
 18 19  2  0
 18 58  1  0
 19 25  1  0
 19 20  1  0
 20 21  1  0
 20 59  1  0
 20 60  1  0
 21 22  2  0
 21 23  1  0
 23 24  2  0
 23 61  1  0
 24 25  1  0
 24 62  1  0
 25 26  1  1
 25 27  1  0
 26 63  1  0
 26 64  1  0
 26 65  1  0
 27 28  1  1
 27 29  1  0
 29 30  1  0
 29 31  1  0
 29 66  1  6
 30 67  1  0
 31 32  1  0
 31 68  1  0
 31 69  1  0
 32 33  1  1
 33 70  1  0
 33 71  1  0
 33 72  1  0
 34 35  2  0
 35 36  1  0
 36 73  1  0
 36 74  1  0
 36 75  1  0
M  END
>  <i_m_ct_stereo_status>  (74) 
1

>  <s_m_source_file>  (74) 
/var/tmp/pbs.5083856.sched01/tmpjjl8s0my/25cbzfdbe7.sdf

>  <i_m_source_file_index>  (74) 
5

>  <i_lp_mmshare_version>  (74) 
48012

>  <i_f3d_flags>  (74) 
0

>  <s_epik_input>  (74) 
W0NIM11bQ0gyXVtDQF0oW0NIM10pKEMxW0NIM10pW0NIMl1bQ0BIXShPQzI9TylDPTFDKFtDQF0yM1tDSDNdKT1bQ0hdW0NIMl1bQ0BASF00W0NASF01W0NAQF0oQ2wpKFtDQEBIXShbT0hdKVtDSDJdW0NAXTM0W0NIM10pW0NAXTYoW0NIM10pQyg9W0NIXVtDSDJdNSlbQ0gyXUMoPU8pW0NIXT1bQ0hdNg==

>  <s_epik_cmdline>  (74) 
J2VwaWtfcHl0aG9uJywgJy1waHQnLCAnMi4wJywgJy1waCcsICc3LjAnLCAnLXRuJywgJzgnLCAnLW1hJywgJzIwMCcsICctaW1hZScsICc8aW5maWxlLm1hZT4nLCAnLW9tYWUnLCAnPG91dGZpbGUubWFlPic=

>  <r_lp_tautomer_probability>  (74) 
1

>  <r_epik_Ionization_Penalty>  (74) 
2.67065e-06

>  <r_epik_Ionization_Penalty_Charging>  (74) 
0

>  <r_epik_Ionization_Penalty_Neutral>  (74) 
2.67065e-06

>  <r_epik_State_Penalty>  (74) 
-0

>  <r_epik_Charging_Adjusted_Penalty>  (74) 
0

>  <i_epik_Tot_Q>  (74) 
0

>  <i_epik_Tot_abs_Q>  (74) 
0

>  <s_epik_Chemistry_Notes>  (74) 
This compound has an ester and may undergo hydrolysis at high or low pH.

>  <s_lp_Force_Field>  (74) 
OPLS3e

>  <r_lp_Energy>  (74) 
82.2391

>  <b_lp_Chiralities_Consistent>  (74) 
1

>  <s_lp_Variant>  (74) 
20:0-1

>  <s_i_glide_gridfile>  (74) 
pfpi4k_grid

>  <i_i_glide_lignum>  (74) 
5

>  <i_i_glide_rotatable_bonds>  (74) 
2

>  <r_i_docking_score>  (74) 
-2.47744

>  <r_i_glide_ligand_efficiency>  (74) 
-0.0688177

>  <r_i_glide_ligand_efficiency_sa>  (74) 
-0.227231

>  <r_i_glide_ligand_efficiency_ln>  (74) 
-0.54051

>  <r_i_glide_gscore>  (74) 
-2.47744

>  <r_i_glide_lipo>  (74) 
-0.647888

>  <r_i_glide_hbond>  (74) 
0

>  <r_i_glide_metal>  (74) 
-0

>  <r_i_glide_rewards>  (74) 
-0.0837469

>  <r_i_glide_evdw>  (74) 
-28.3933

>  <r_i_glide_ecoul>  (74) 
-2.13335

>  <r_i_glide_erotb>  (74) 
0

>  <r_i_glide_esite>  (74) 
-0.00613507

>  <r_i_glide_emodel>  (74) 
-35.4044

>  <r_i_glide_energy>  (74) 
-30.5266

>  <r_i_glide_einternal>  (74) 
0.36394

>  <r_i_glide_intrahb_reward>  (74) 
-0

>  <i_i_glide_confnum>  (74) 
2

>  <i_i_glide_posenum>  (74) 
1

>  <r_i_glide_eff_state_penalty>  (74) 
0

>  <ligand_id>  (74) 
20

>  <original_smiles>  (74) 
CCC1(C)CC2OC(=O)C3(C)C(=CCC4C5CC=C6CC(=O)C=CC6(C)C5(Cl)C(O)CC43C)C2=C1C

>  <smiles>  (74) 
[H]OC1([H])C([H])([H])C2(C([H])([H])[H])C3(C([H])([H])[H])C(=O)OC4([H])C(=C(C([H])([H])[H])C(C([H])([H])[H])(C([H])([H])C([H])([H])[H])C4([H])[H])C3=C([H])C([H])([H])C2([H])C2([H])C([H])([H])C([H])=C3C([H])([H])C(=O)C([H])=C([H])C3(C([H])([H])[H])C12Cl

$$$$
21:0:0
     RDKit          3D

 93 98  0  0  1  0  0  0  0  0999 V2000
   -0.5003   -6.9471    5.1419 C   0  0  0  0  0  0  0  0  0  0  0  0
    0.6890   -7.8203    4.7144 C   0  0  2  0  0  0  0  0  0  0  0  0
    0.4313   -8.3666    3.2949 C   0  0  0  0  0  0  0  0  0  0  0  0
    1.5745   -9.2603    2.7919 C   0  0  0  0  0  0  0  0  0  0  0  0
    1.9721  -10.3791    3.7944 C   0  0  1  0  0  0  0  0  0  0  0  0
    0.8355  -11.4275    3.8909 C   0  0  0  0  0  0  0  0  0  0  0  0
    3.1697  -11.1728    3.2604 C   0  0  0  0  0  0  0  0  0  0  0  0
    4.4812  -10.4336    3.4455 C   0  0  0  0  0  0  0  0  0  0  0  0
    4.8501  -10.1413    4.9264 C   0  0  2  0  0  0  0  0  0  0  0  0
    5.2745  -11.5089    5.5315 C   0  0  0  0  0  0  0  0  0  0  0  0
    3.5632   -9.6827    5.6806 C   0  0  0  0  0  0  0  0  0  0  0  0
    2.2903   -9.7115    5.1555 C   0  0  0  0  0  0  0  0  0  0  0  0
    1.0242   -8.9865    5.6888 C   0  0  1  0  0  0  0  0  0  0  0  0
    0.9531   -8.5742    7.1692 C   0  0  0  0  0  0  0  0  0  0  0  0
    3.9664   -9.0328    6.9941 C   0  0  0  0  0  0  0  0  0  0  0  0
    4.6035   -7.6857    6.6798 C   0  0  0  0  0  0  0  0  0  0  0  0
    4.5090   -6.7669    7.4902 O   0  0  0  0  0  0  0  0  0  0  0  0
    5.3767   -7.6023    5.3357 C   0  0  1  0  0  0  0  0  0  0  0  0
    6.2223   -6.2722    5.0906 C   0  0  2  0  0  0  0  0  0  0  0  0
    7.3203   -6.0411    6.1787 C   0  0  0  0  0  0  0  0  0  0  0  0
    5.3591   -4.9883    5.1734 C   0  0  0  0  0  0  0  0  0  0  0  0
    4.3504   -4.8468    4.0468 C   0  0  0  0  0  0  0  0  0  0  0  0
    5.0760   -4.5926    2.7074 C   0  0  2  0  0  0  0  0  0  0  0  0
    4.0693   -4.1643    1.5570 C   0  0  0  0  0  0  0  0  0  0  0  0
    3.0358   -3.1253    2.0723 C   0  0  0  0  0  0  0  0  0  0  0  0
    4.8007   -3.4597    0.3829 C   0  0  0  0  0  0  0  0  0  0  0  0
    3.2877   -5.4128    1.0758 C   0  0  1  0  0  0  0  0  0  0  0  0
    2.3990   -5.1097    0.0180 O   0  0  0  0  0  0  0  0  0  0  0  0
    4.2142   -6.5621    0.6706 C   0  0  0  0  0  0  0  0  0  0  0  0
    5.1925   -6.9499    1.7821 C   0  0  0  0  0  0  0  0  0  0  0  0
    6.0456   -5.8064    2.3868 C   0  0  1  0  0  0  0  0  0  0  0  0
    7.1013   -5.3601    1.3328 C   0  0  0  0  0  0  0  0  0  0  0  0
    6.8917   -6.2801    3.6716 C   0  0  2  0  0  0  0  0  0  0  0  0
    7.7086   -7.6011    3.5180 C   0  0  0  0  0  0  0  0  0  0  0  0
    6.9197   -8.9108    3.7360 C   0  0  0  0  0  0  0  0  0  0  0  0
    6.0373   -9.0137    5.0319 C   0  0  2  0  0  0  0  0  0  0  0  0
    7.0859   -9.3923    6.1402 C   0  0  0  0  0  0  0  0  0  0  0  0
   -1.3933   -7.5592    5.2582 H   0  0  0  0  0  0  0  0  0  0  0  0
   -0.7133   -6.1797    4.3978 H   0  0  0  0  0  0  0  0  0  0  0  0
   -0.3098   -6.4313    6.0839 H   0  0  0  0  0  0  0  0  0  0  0  0
    1.5620   -7.1660    4.6709 H   0  0  0  0  0  0  0  0  0  0  0  0
   -0.5097   -8.9168    3.2702 H   0  0  0  0  0  0  0  0  0  0  0  0
    0.3107   -7.5363    2.6013 H   0  0  0  0  0  0  0  0  0  0  0  0
    1.3053   -9.6962    1.8277 H   0  0  0  0  0  0  0  0  0  0  0  0
    2.4275   -8.6112    2.5985 H   0  0  0  0  0  0  0  0  0  0  0  0
    0.7710  -12.0178    2.9764 H   0  0  0  0  0  0  0  0  0  0  0  0
   -0.1521  -10.9941    4.0223 H   0  0  0  0  0  0  0  0  0  0  0  0
    1.0024  -12.1211    4.7155 H   0  0  0  0  0  0  0  0  0  0  0  0
    3.2241  -12.1565    3.7260 H   0  0  0  0  0  0  0  0  0  0  0  0
    3.0143  -11.3691    2.1998 H   0  0  0  0  0  0  0  0  0  0  0  0
    5.2728  -11.0038    2.9582 H   0  0  0  0  0  0  0  0  0  0  0  0
    4.3722   -9.5097    2.8904 H   0  0  0  0  0  0  0  0  0  0  0  0
    6.1250  -11.9382    4.9985 H   0  0  0  0  0  0  0  0  0  0  0  0
    4.4655  -12.2362    5.4835 H   0  0  0  0  0  0  0  0  0  0  0  0
    5.5357  -11.4494    6.5887 H   0  0  0  0  0  0  0  0  0  0  0  0
    0.2100   -9.7032    5.6388 H   0  0  0  0  0  0  0  0  0  0  0  0
    1.2210   -9.4086    7.8195 H   0  0  0  0  0  0  0  0  0  0  0  0
   -0.0670   -8.3143    7.4503 H   0  0  0  0  0  0  0  0  0  0  0  0
    1.5700   -7.7016    7.3844 H   0  0  0  0  0  0  0  0  0  0  0  0
    3.1899   -8.9236    7.7300 H   0  0  0  0  0  0  0  0  0  0  0  0
    4.6788   -9.6769    7.5017 H   0  0  0  0  0  0  0  0  0  0  0  0
    4.5746   -7.5369    4.6071 H   0  0  0  0  0  0  0  0  0  0  0  0
    7.7510   -5.0430    6.1030 H   0  0  0  0  0  0  0  0  0  0  0  0
    8.1740   -6.7015    6.1124 H   0  0  0  0  0  0  0  0  0  0  0  0
    6.9342   -6.1246    7.1914 H   0  0  0  0  0  0  0  0  0  0  0  0
    4.8451   -4.8843    6.1234 H   0  0  0  0  0  0  0  0  0  0  0  0
    6.0074   -4.1104    5.1320 H   0  0  0  0  0  0  0  0  0  0  0  0
    3.6895   -5.7108    3.9947 H   0  0  0  0  0  0  0  0  0  0  0  0
    3.7253   -4.0039    4.3281 H   0  0  0  0  0  0  0  0  0  0  0  0
    5.7021   -3.7165    2.8872 H   0  0  0  0  0  0  0  0  0  0  0  0
    2.4606   -2.6850    1.2552 H   0  0  0  0  0  0  0  0  0  0  0  0
    3.5256   -2.3085    2.6052 H   0  0  0  0  0  0  0  0  0  0  0  0
    2.2990   -3.5817    2.7356 H   0  0  0  0  0  0  0  0  0  0  0  0
    4.1164   -2.8644   -0.2222 H   0  0  0  0  0  0  0  0  0  0  0  0
    5.2624   -4.1534   -0.3145 H   0  0  0  0  0  0  0  0  0  0  0  0
    5.5727   -2.7802    0.7467 H   0  0  0  0  0  0  0  0  0  0  0  0
    2.6576   -5.7701    1.8883 H   0  0  0  0  0  0  0  0  0  0  0  0
    2.8672   -5.1770   -0.8075 H   0  0  0  0  0  0  0  0  0  0  0  0
    3.6102   -7.4452    0.4787 H   0  0  0  0  0  0  0  0  0  0  0  0
    4.7474   -6.3401   -0.2508 H   0  0  0  0  0  0  0  0  0  0  0  0
    4.5996   -7.4000    2.5682 H   0  0  0  0  0  0  0  0  0  0  0  0
    5.8383   -7.7174    1.3628 H   0  0  0  0  0  0  0  0  0  0  0  0
    8.0349   -5.9154    1.3895 H   0  0  0  0  0  0  0  0  0  0  0  0
    7.3723   -4.3120    1.4598 H   0  0  0  0  0  0  0  0  0  0  0  0
    6.7610   -5.4976    0.3102 H   0  0  0  0  0  0  0  0  0  0  0  0
    7.6572   -5.5038    3.7401 H   0  0  0  0  0  0  0  0  0  0  0  0
    8.1823   -7.6633    2.5409 H   0  0  0  0  0  0  0  0  0  0  0  0
    8.5568   -7.5903    4.1988 H   0  0  0  0  0  0  0  0  0  0  0  0
    6.3815   -9.0619    2.8184 H   0  0  0  0  0  0  0  0  0  0  0  0
    7.6338   -9.7355    3.7220 H   0  0  0  0  0  0  0  0  0  0  0  0
    7.9506   -8.7407    6.1493 H   0  0  0  0  0  0  0  0  0  0  0  0
    7.5202  -10.3781    5.9800 H   0  0  0  0  0  0  0  0  0  0  0  0
    6.6976   -9.3875    7.1546 H   0  0  0  0  0  0  0  0  0  0  0  0
  1  2  1  0
  1 38  1  0
  1 39  1  0
  1 40  1  0
  2 13  1  0
  2  3  1  0
  2 41  1  6
  3  4  1  0
  3 42  1  0
  3 43  1  0
  4  5  1  0
  4 44  1  0
  4 45  1  0
  5 12  1  0
  5  6  1  1
  5  7  1  0
  6 46  1  0
  6 47  1  0
  6 48  1  0
  7  8  1  0
  7 49  1  0
  7 50  1  0
  8  9  1  0
  8 51  1  0
  8 52  1  0
  9 36  1  0
  9 10  1  1
  9 11  1  0
 10 53  1  0
 10 54  1  0
 10 55  1  0
 11 12  2  0
 11 15  1  0
 12 13  1  0
 13 14  1  0
 13 56  1  1
 14 57  1  0
 14 58  1  0
 14 59  1  0
 15 16  1  0
 15 60  1  0
 15 61  1  0
 16 17  2  0
 16 18  1  0
 18 36  1  0
 18 19  1  0
 18 62  1  6
 19 33  1  0
 19 20  1  1
 19 21  1  0
 20 63  1  0
 20 64  1  0
 20 65  1  0
 21 22  1  0
 21 66  1  0
 21 67  1  0
 22 23  1  0
 22 68  1  0
 22 69  1  0
 23 31  1  0
 23 24  1  0
 23 70  1  1
 24 25  1  0
 24 26  1  0
 24 27  1  0
 25 71  1  0
 25 72  1  0
 25 73  1  0
 26 74  1  0
 26 75  1  0
 26 76  1  0
 27 28  1  0
 27 29  1  0
 27 77  1  1
 28 78  1  0
 29 30  1  0
 29 79  1  0
 29 80  1  0
 30 31  1  0
 30 81  1  0
 30 82  1  0
 31 32  1  6
 31 33  1  0
 32 83  1  0
 32 84  1  0
 32 85  1  0
 33 34  1  0
 33 86  1  1
 34 35  1  0
 34 87  1  0
 34 88  1  0
 35 36  1  0
 35 89  1  0
 35 90  1  0
 36 37  1  1
 37 91  1  0
 37 92  1  0
 37 93  1  0
M  END
>  <i_m_ct_stereo_status>  (75) 
1

>  <s_m_source_file>  (75) 
/var/tmp/pbs.5083856.sched01/tmpu5x1cisn/30l5796r7y.sdf

>  <i_m_source_file_index>  (75) 
1

>  <i_lp_mmshare_version>  (75) 
48012

>  <i_f3d_flags>  (75) 
0

>  <s_epik_input>  (75) 
W0NIMl0xW0NIMl1bQ0BASF0oW0NIM10pW0NASF0oW0NIM10pQyhbQ0BAXTEyW0NIM10pPUMzW0NAQF0oW0NIM10pKFtDSDJdW0NIMl0yKVtDQF00KFtDSDNdKVtDQEBIXShDKD1PKVtDSDJdMylbQ0BAXTUoW0NIM10pW0NAQEhdKFtDSDJdW0NIMl00KVtDQF02KFtDSDNdKVtDQEhdKFtDSDJdW0NIMl01KUMoW0NIM10pKFtDSDNdKVtDQEBIXShbT0hdKVtDSDJdW0NIMl02

>  <s_epik_cmdline>  (75) 
J2VwaWtfcHl0aG9uJywgJy1waHQnLCAnMi4wJywgJy1waCcsICc3LjAnLCAnLXRuJywgJzgnLCAnLW1hJywgJzIwMCcsICctaW1hZScsICc8aW5maWxlLm1hZT4nLCAnLW9tYWUnLCAnPG91dGZpbGUubWFlPic=

>  <r_lp_tautomer_probability>  (75) 
1

>  <r_epik_Ionization_Penalty>  (75) 
2.85997e-06

>  <r_epik_Ionization_Penalty_Charging>  (75) 
0

>  <r_epik_Ionization_Penalty_Neutral>  (75) 
2.85997e-06

>  <r_epik_State_Penalty>  (75) 
-0

>  <r_epik_Charging_Adjusted_Penalty>  (75) 
0

>  <i_epik_Tot_Q>  (75) 
0

>  <i_epik_Tot_abs_Q>  (75) 
0

>  <s_lp_Force_Field>  (75) 
OPLS3e

>  <r_lp_Energy>  (75) 
129.643

>  <b_lp_Chiralities_Consistent>  (75) 
1

>  <s_lp_Variant>  (75) 
21:0-1

>  <s_i_glide_gridfile>  (75) 
pfpi4k_grid

>  <i_i_glide_lignum>  (75) 
1

>  <i_i_glide_rotatable_bonds>  (75) 
1

>  <r_i_docking_score>  (75) 
-2.86777

>  <r_i_glide_ligand_efficiency>  (75) 
-0.0775072

>  <r_i_glide_ligand_efficiency_sa>  (75) 
-0.258271

>  <r_i_glide_ligand_efficiency_ln>  (75) 
-0.621952

>  <r_i_glide_gscore>  (75) 
-2.86777

>  <r_i_glide_lipo>  (75) 
-0.523158

>  <r_i_glide_hbond>  (75) 
-0.285502

>  <r_i_glide_metal>  (75) 
-0

>  <r_i_glide_rewards>  (75) 
0

>  <r_i_glide_evdw>  (75) 
-30.7359

>  <r_i_glide_ecoul>  (75) 
-3.48208

>  <r_i_glide_erotb>  (75) 
0

>  <r_i_glide_esite>  (75) 
0

>  <r_i_glide_emodel>  (75) 
-40.1013

>  <r_i_glide_energy>  (75) 
-34.218

>  <r_i_glide_einternal>  (75) 
0.526875

>  <r_i_glide_intrahb_reward>  (75) 
-0

>  <i_i_glide_confnum>  (75) 
1

>  <i_i_glide_posenum>  (75) 
16

>  <r_i_glide_eff_state_penalty>  (75) 
0

>  <ligand_id>  (75) 
21

>  <original_smiles>  (75) 
CC1CCC2(C)CCC3(C)C(=C2C1C)CC(=O)C1C2(C)CCC4C(C)(C)C(O)CCC4(C)C2CCC13C

>  <smiles>  (75) 
[H]OC1([H])C([H])([H])C([H])([H])C2(C([H])([H])[H])C([H])(C([H])([H])C([H])([H])C3(C([H])([H])[H])C4([H])C(=O)C([H])([H])C5=C6C([H])(C([H])([H])[H])C([H])(C([H])([H])[H])C([H])([H])C([H])([H])C6(C([H])([H])[H])C([H])([H])C([H])([H])C5(C([H])([H])[H])C4(C([H])([H])[H])C([H])([H])C([H])([H])C32[H])C1(C([H])([H])[H])C([H])([H])[H]

$$$$
21:0:1
     RDKit          3D

 93 98  0  0  1  0  0  0  0  0999 V2000
   -0.2802   -5.9134    5.1617 C   0  0  0  0  0  0  0  0  0  0  0  0
    0.7215   -6.8633    4.4849 C   0  0  2  0  0  0  0  0  0  0  0  0
    0.2964   -7.1069    3.0224 C   0  0  0  0  0  0  0  0  0  0  0  0
    1.2482   -8.0577    2.2818 C   0  0  0  0  0  0  0  0  0  0  0  0
    1.5230   -9.3788    3.0532 C   0  0  1  0  0  0  0  0  0  0  0  0
    0.2356  -10.2474    3.0806 C   0  0  0  0  0  0  0  0  0  0  0  0
    2.5491  -10.2329    2.2988 C   0  0  0  0  0  0  0  0  0  0  0  0
    3.9685   -9.7394    2.4844 C   0  0  0  0  0  0  0  0  0  0  0  0
    4.4706   -9.7707    3.9520 C   0  0  2  0  0  0  0  0  0  0  0  0
    4.7052  -11.2713    4.2890 C   0  0  0  0  0  0  0  0  0  0  0  0
    3.3219   -9.2621    4.8780 C   0  0  0  0  0  0  0  0  0  0  0  0
    2.0302   -9.0119    4.4696 C   0  0  0  0  0  0  0  0  0  0  0  0
    0.9311   -8.2134    5.2250 C   0  0  1  0  0  0  0  0  0  0  0  0
    1.0266   -8.0500    6.7509 C   0  0  0  0  0  0  0  0  0  0  0  0
    3.9078   -8.9120    6.2359 C   0  0  0  0  0  0  0  0  0  0  0  0
    4.7317   -7.6432    6.0845 C   0  0  0  0  0  0  0  0  0  0  0  0
    4.8334   -6.8702    7.0335 O   0  0  0  0  0  0  0  0  0  0  0  0
    5.4224   -7.4479    4.7060 C   0  0  1  0  0  0  0  0  0  0  0  0
    6.4487   -6.2359    4.5991 C   0  0  2  0  0  0  0  0  0  0  0  0
    7.6386   -6.3558    5.6073 C   0  0  0  0  0  0  0  0  0  0  0  0
    5.7999   -4.8762    4.9645 C   0  0  0  0  0  0  0  0  0  0  0  0
    4.7629   -4.3934    3.9641 C   0  0  0  0  0  0  0  0  0  0  0  0
    5.4294   -4.0279    2.6200 C   0  0  2  0  0  0  0  0  0  0  0  0
    4.4414   -3.2604    1.6449 C   0  0  0  0  0  0  0  0  0  0  0  0
    3.6234   -2.1828    2.4106 C   0  0  0  0  0  0  0  0  0  0  0  0
    5.2083   -2.4806    0.5416 C   0  0  0  0  0  0  0  0  0  0  0  0
    3.4451   -4.2744    1.0301 C   0  0  1  0  0  0  0  0  0  0  0  0
    2.6238   -3.6583    0.0577 O   0  0  0  0  0  0  0  0  0  0  0  0
    4.1437   -5.4671    0.3759 C   0  0  0  0  0  0  0  0  0  0  0  0
    5.1116   -6.1820    1.3297 C   0  0  0  0  0  0  0  0  0  0  0  0
    6.1757   -5.2959    2.0279 C   0  0  1  0  0  0  0  0  0  0  0  0
    7.2233   -4.8328    0.9717 C   0  0  0  0  0  0  0  0  0  0  0  0
    7.0158   -6.1018    3.1407 C   0  0  2  0  0  0  0  0  0  0  0  0
    7.6033   -7.4824    2.7079 C   0  0  0  0  0  0  0  0  0  0  0  0
    6.6308   -8.6795    2.7889 C   0  0  0  0  0  0  0  0  0  0  0  0
    5.8285   -8.8685    4.1263 C   0  0  2  0  0  0  0  0  0  0  0  0
    6.8693   -9.5801    5.0636 C   0  0  0  0  0  0  0  0  0  0  0  0
   -1.2631   -6.3767    5.2712 H   0  0  0  0  0  0  0  0  0  0  0  0
   -0.3998   -5.0079    4.5656 H   0  0  0  0  0  0  0  0  0  0  0  0
    0.0589   -5.5928    6.1479 H   0  0  0  0  0  0  0  0  0  0  0  0
    1.6818   -6.3456    4.4674 H   0  0  0  0  0  0  0  0  0  0  0  0
   -0.7205   -7.4991    2.9883 H   0  0  0  0  0  0  0  0  0  0  0  0
    0.2721   -6.1592    2.4864 H   0  0  0  0  0  0  0  0  0  0  0  0
    0.8521   -8.2699    1.2873 H   0  0  0  0  0  0  0  0  0  0  0  0
    2.1809   -7.5216    2.1193 H   0  0  0  0  0  0  0  0  0  0  0  0
    0.0193  -10.6578    2.0936 H   0  0  0  0  0  0  0  0  0  0  0  0
   -0.6643   -9.7081    3.3699 H   0  0  0  0  0  0  0  0  0  0  0  0
    0.3381  -11.0893    3.7678 H   0  0  0  0  0  0  0  0  0  0  0  0
    2.4785  -11.2795    2.5940 H   0  0  0  0  0  0  0  0  0  0  0  0
    2.3175  -10.2234    1.2345 H   0  0  0  0  0  0  0  0  0  0  0  0
    4.6268  -10.3275    1.8431 H   0  0  0  0  0  0  0  0  0  0  0  0
    3.9741   -8.7280    2.0960 H   0  0  0  0  0  0  0  0  0  0  0  0
    5.4383  -11.7264    3.6211 H   0  0  0  0  0  0  0  0  0  0  0  0
    3.7903  -11.8558    4.1975 H   0  0  0  0  0  0  0  0  0  0  0  0
    5.0379  -11.4349    5.3137 H   0  0  0  0  0  0  0  0  0  0  0  0
    0.0115   -8.7821    5.1352 H   0  0  0  0  0  0  0  0  0  0  0  0
    1.1992   -9.0121    7.2376 H   0  0  0  0  0  0  0  0  0  0  0  0
    0.0833   -7.6914    7.1620 H   0  0  0  0  0  0  0  0  0  0  0  0
    1.7887   -7.3257    7.0413 H   0  0  0  0  0  0  0  0  0  0  0  0
    3.2079   -8.8130    7.0486 H   0  0  0  0  0  0  0  0  0  0  0  0
    4.5393   -9.7296    6.5706 H   0  0  0  0  0  0  0  0  0  0  0  0
    4.5965   -7.1418    4.0736 H   0  0  0  0  0  0  0  0  0  0  0  0
    8.2179   -5.4340    5.6511 H   0  0  0  0  0  0  0  0  0  0  0  0
    8.3706   -7.1133    5.3617 H   0  0  0  0  0  0  0  0  0  0  0  0
    7.3119   -6.5520    6.6253 H   0  0  0  0  0  0  0  0  0  0  0  0
    5.3686   -4.8629    5.9591 H   0  0  0  0  0  0  0  0  0  0  0  0
    6.5742   -4.1130    5.0260 H   0  0  0  0  0  0  0  0  0  0  0  0
    3.9668   -5.1247    3.8368 H   0  0  0  0  0  0  0  0  0  0  0  0
    4.3025   -3.5263    4.4306 H   0  0  0  0  0  0  0  0  0  0  0  0
    6.1938   -3.2931    2.8737 H   0  0  0  0  0  0  0  0  0  0  0  0
    3.0777   -1.5207    1.7361 H   0  0  0  0  0  0  0  0  0  0  0  0
    4.2710   -1.5544    3.0247 H   0  0  0  0  0  0  0  0  0  0  0  0
    2.8686   -2.6308    3.0578 H   0  0  0  0  0  0  0  0  0  0  0  0
    4.5963   -1.6944    0.0967 H   0  0  0  0  0  0  0  0  0  0  0  0
    5.5022   -3.1073   -0.2966 H   0  0  0  0  0  0  0  0  0  0  0  0
    6.1043   -1.9996    0.9340 H   0  0  0  0  0  0  0  0  0  0  0  0
    2.7919   -4.6515    1.8176 H   0  0  0  0  0  0  0  0  0  0  0  0
    2.4009   -2.7866    0.3493 H   0  0  0  0  0  0  0  0  0  0  0  0
    3.3887   -6.1818    0.0494 H   0  0  0  0  0  0  0  0  0  0  0  0
    4.6572   -5.1630   -0.5323 H   0  0  0  0  0  0  0  0  0  0  0  0
    4.5042   -6.6630    2.0874 H   0  0  0  0  0  0  0  0  0  0  0  0
    5.5979   -6.9552    0.7400 H   0  0  0  0  0  0  0  0  0  0  0  0
    8.0594   -5.5197    0.8549 H   0  0  0  0  0  0  0  0  0  0  0  0
    7.6685   -3.8735    1.2388 H   0  0  0  0  0  0  0  0  0  0  0  0
    6.8042   -4.7376   -0.0261 H   0  0  0  0  0  0  0  0  0  0  0  0
    7.8989   -5.4702    3.2615 H   0  0  0  0  0  0  0  0  0  0  0  0
    7.9988   -7.4464    1.6961 H   0  0  0  0  0  0  0  0  0  0  0  0
    8.4851   -7.7119    3.3026 H   0  0  0  0  0  0  0  0  0  0  0  0
    6.0171   -8.5883    1.9110 H   0  0  0  0  0  0  0  0  0  0  0  0
    7.1952   -9.5888    2.5789 H   0  0  0  0  0  0  0  0  0  0  0  0
    7.8271   -9.0744    5.0968 H   0  0  0  0  0  0  0  0  0  0  0  0
    7.1281  -10.5786    4.7118 H   0  0  0  0  0  0  0  0  0  0  0  0
    6.5517   -9.6885    6.0968 H   0  0  0  0  0  0  0  0  0  0  0  0
  1  2  1  0
  1 38  1  0
  1 39  1  0
  1 40  1  0
  2 13  1  0
  2  3  1  0
  2 41  1  6
  3  4  1  0
  3 42  1  0
  3 43  1  0
  4  5  1  0
  4 44  1  0
  4 45  1  0
  5 12  1  0
  5  6  1  1
  5  7  1  0
  6 46  1  0
  6 47  1  0
  6 48  1  0
  7  8  1  0
  7 49  1  0
  7 50  1  0
  8  9  1  0
  8 51  1  0
  8 52  1  0
  9 36  1  0
  9 10  1  1
  9 11  1  0
 10 53  1  0
 10 54  1  0
 10 55  1  0
 11 12  2  0
 11 15  1  0
 12 13  1  0
 13 14  1  0
 13 56  1  1
 14 57  1  0
 14 58  1  0
 14 59  1  0
 15 16  1  0
 15 60  1  0
 15 61  1  0
 16 17  2  0
 16 18  1  0
 18 36  1  0
 18 19  1  0
 18 62  1  6
 19 33  1  0
 19 20  1  1
 19 21  1  0
 20 63  1  0
 20 64  1  0
 20 65  1  0
 21 22  1  0
 21 66  1  0
 21 67  1  0
 22 23  1  0
 22 68  1  0
 22 69  1  0
 23 31  1  0
 23 24  1  0
 23 70  1  1
 24 25  1  0
 24 26  1  0
 24 27  1  0
 25 71  1  0
 25 72  1  0
 25 73  1  0
 26 74  1  0
 26 75  1  0
 26 76  1  0
 27 28  1  0
 27 29  1  0
 27 77  1  1
 28 78  1  0
 29 30  1  0
 29 79  1  0
 29 80  1  0
 30 31  1  0
 30 81  1  0
 30 82  1  0
 31 32  1  6
 31 33  1  0
 32 83  1  0
 32 84  1  0
 32 85  1  0
 33 34  1  0
 33 86  1  1
 34 35  1  0
 34 87  1  0
 34 88  1  0
 35 36  1  0
 35 89  1  0
 35 90  1  0
 36 37  1  1
 37 91  1  0
 37 92  1  0
 37 93  1  0
M  END
>  <i_m_ct_stereo_status>  (76) 
1

>  <s_m_source_file>  (76) 
/var/tmp/pbs.5083856.sched01/tmpu5x1cisn/30l5796r7y.sdf

>  <i_m_source_file_index>  (76) 
1

>  <i_lp_mmshare_version>  (76) 
48012

>  <i_f3d_flags>  (76) 
0

>  <s_epik_input>  (76) 
W0NIMl0xW0NIMl1bQ0BASF0oW0NIM10pW0NASF0oW0NIM10pQyhbQ0BAXTEyW0NIM10pPUMzW0NAQF0oW0NIM10pKFtDSDJdW0NIMl0yKVtDQF00KFtDSDNdKVtDQEBIXShDKD1PKVtDSDJdMylbQ0BAXTUoW0NIM10pW0NAQEhdKFtDSDJdW0NIMl00KVtDQF02KFtDSDNdKVtDQEhdKFtDSDJdW0NIMl01KUMoW0NIM10pKFtDSDNdKVtDQEBIXShbT0hdKVtDSDJdW0NIMl02

>  <s_epik_cmdline>  (76) 
J2VwaWtfcHl0aG9uJywgJy1waHQnLCAnMi4wJywgJy1waCcsICc3LjAnLCAnLXRuJywgJzgnLCAnLW1hJywgJzIwMCcsICctaW1hZScsICc8aW5maWxlLm1hZT4nLCAnLW9tYWUnLCAnPG91dGZpbGUubWFlPic=

>  <r_lp_tautomer_probability>  (76) 
1

>  <r_epik_Ionization_Penalty>  (76) 
2.85997e-06

>  <r_epik_Ionization_Penalty_Charging>  (76) 
0

>  <r_epik_Ionization_Penalty_Neutral>  (76) 
2.85997e-06

>  <r_epik_State_Penalty>  (76) 
-0

>  <r_epik_Charging_Adjusted_Penalty>  (76) 
0

>  <i_epik_Tot_Q>  (76) 
0

>  <i_epik_Tot_abs_Q>  (76) 
0

>  <s_lp_Force_Field>  (76) 
OPLS3e

>  <r_lp_Energy>  (76) 
129.643

>  <b_lp_Chiralities_Consistent>  (76) 
1

>  <s_lp_Variant>  (76) 
21:0-1

>  <s_i_glide_gridfile>  (76) 
pfpi4k_grid

>  <i_i_glide_lignum>  (76) 
1

>  <i_i_glide_rotatable_bonds>  (76) 
1

>  <r_i_docking_score>  (76) 
-2.07714

>  <r_i_glide_ligand_efficiency>  (76) 
-0.0561388

>  <r_i_glide_ligand_efficiency_sa>  (76) 
-0.187067

>  <r_i_glide_ligand_efficiency_ln>  (76) 
-0.450482

>  <r_i_glide_gscore>  (76) 
-2.07714

>  <r_i_glide_lipo>  (76) 
-0.439208

>  <r_i_glide_hbond>  (76) 
0

>  <r_i_glide_metal>  (76) 
-0

>  <r_i_glide_rewards>  (76) 
0

>  <r_i_glide_evdw>  (76) 
-31.1739

>  <r_i_glide_ecoul>  (76) 
-0.528218

>  <r_i_glide_erotb>  (76) 
0

>  <r_i_glide_esite>  (76) 
0

>  <r_i_glide_emodel>  (76) 
-35.7334

>  <r_i_glide_energy>  (76) 
-31.7021

>  <r_i_glide_einternal>  (76) 
0.78468

>  <r_i_glide_intrahb_reward>  (76) 
-0

>  <i_i_glide_confnum>  (76) 
2

>  <i_i_glide_posenum>  (76) 
23

>  <r_i_glide_eff_state_penalty>  (76) 
0

>  <ligand_id>  (76) 
21

>  <original_smiles>  (76) 
CC1CCC2(C)CCC3(C)C(=C2C1C)CC(=O)C1C2(C)CCC4C(C)(C)C(O)CCC4(C)C2CCC13C

>  <smiles>  (76) 
[H]OC1([H])C([H])([H])C([H])([H])C2(C([H])([H])[H])C([H])(C([H])([H])C([H])([H])C3(C([H])([H])[H])C4([H])C(=O)C([H])([H])C5=C6C([H])(C([H])([H])[H])C([H])(C([H])([H])[H])C([H])([H])C([H])([H])C6(C([H])([H])[H])C([H])([H])C([H])([H])C5(C([H])([H])[H])C4(C([H])([H])[H])C([H])([H])C([H])([H])C32[H])C1(C([H])([H])[H])C([H])([H])[H]

$$$$
21:0:2
     RDKit          3D

 93 98  0  0  1  0  0  0  0  0999 V2000
   -0.2753   -5.9164    5.1707 C   0  0  0  0  0  0  0  0  0  0  0  0
    0.7243   -6.8651    4.4900 C   0  0  2  0  0  0  0  0  0  0  0  0
    0.2934   -7.1083    3.0291 C   0  0  0  0  0  0  0  0  0  0  0  0
    1.2429   -8.0579    2.2845 C   0  0  0  0  0  0  0  0  0  0  0  0
    1.5206   -9.3792    3.0541 C   0  0  1  0  0  0  0  0  0  0  0  0
    0.2340  -10.2485    3.0860 C   0  0  0  0  0  0  0  0  0  0  0  0
    2.5446  -10.2328    2.2963 C   0  0  0  0  0  0  0  0  0  0  0  0
    3.9638   -9.7386    2.4778 C   0  0  0  0  0  0  0  0  0  0  0  0
    4.4713   -9.7717    3.9420 C   0  0  2  0  0  0  0  0  0  0  0  0
    4.7082  -11.2720    4.2769 C   0  0  0  0  0  0  0  0  0  0  0  0
    3.3265   -9.2645    4.8724 C   0  0  0  0  0  0  0  0  0  0  0  0
    2.0328   -9.0129    4.4687 C   0  0  0  0  0  0  0  0  0  0  0  0
    0.9375   -8.2148    5.2287 C   0  0  1  0  0  0  0  0  0  0  0  0
    1.0382   -8.0529    6.7542 C   0  0  0  0  0  0  0  0  0  0  0  0
    3.9171   -8.9155    6.2284 C   0  0  0  0  0  0  0  0  0  0  0  0
    4.7405   -7.6461    6.0741 C   0  0  0  0  0  0  0  0  0  0  0  0
    4.8465   -6.8733    7.0239 O   0  0  0  0  0  0  0  0  0  0  0  0
    5.4250   -7.4491    4.6929 C   0  0  1  0  0  0  0  0  0  0  0  0
    6.4507   -6.2374    4.5823 C   0  0  2  0  0  0  0  0  0  0  0  0
    7.6447   -6.3574    5.5854 C   0  0  0  0  0  0  0  0  0  0  0  0
    5.8031   -4.8784    4.9516 C   0  0  0  0  0  0  0  0  0  0  0  0
    4.7630   -4.3944    3.9546 C   0  0  0  0  0  0  0  0  0  0  0  0
    5.4240   -4.0278    2.6076 C   0  0  2  0  0  0  0  0  0  0  0  0
    4.4307   -3.2621    1.6355 C   0  0  0  0  0  0  0  0  0  0  0  0
    3.6169   -2.1852    2.4053 C   0  0  0  0  0  0  0  0  0  0  0  0
    5.1921   -2.4802    0.5299 C   0  0  0  0  0  0  0  0  0  0  0  0
    3.4346   -4.2815    1.0261 C   0  0  1  0  0  0  0  0  0  0  0  0
    2.5742   -3.6808    0.0798 O   0  0  0  0  0  0  0  0  0  0  0  0
    4.1343   -5.4683    0.3628 C   0  0  0  0  0  0  0  0  0  0  0  0
    5.1030   -6.1826    1.3159 C   0  0  0  0  0  0  0  0  0  0  0  0
    6.1683   -5.2960    2.0121 C   0  0  1  0  0  0  0  0  0  0  0  0
    7.2120   -4.8320    0.9533 C   0  0  0  0  0  0  0  0  0  0  0  0
    7.0128   -6.1020    3.1222 C   0  0  2  0  0  0  0  0  0  0  0  0
    7.5984   -7.4819    2.6862 C   0  0  0  0  0  0  0  0  0  0  0  0
    6.6265   -8.6786    2.7702 C   0  0  0  0  0  0  0  0  0  0  0  0
    5.8298   -8.8690    4.1110 C   0  0  2  0  0  0  0  0  0  0  0  0
    6.8746   -9.5812    5.0430 C   0  0  0  0  0  0  0  0  0  0  0  0
   -1.2577   -6.3801    5.2800 H   0  0  0  0  0  0  0  0  0  0  0  0
   -0.3956   -5.0101    4.5762 H   0  0  0  0  0  0  0  0  0  0  0  0
    0.0665   -5.5977    6.1567 H   0  0  0  0  0  0  0  0  0  0  0  0
    1.6844   -6.3469    4.4686 H   0  0  0  0  0  0  0  0  0  0  0  0
   -0.7237   -7.5010    2.9990 H   0  0  0  0  0  0  0  0  0  0  0  0
    0.2671   -6.1606    2.4941 H   0  0  0  0  0  0  0  0  0  0  0  0
    0.8442   -8.2692    1.2911 H   0  0  0  0  0  0  0  0  0  0  0  0
    2.1746   -7.5210    2.1182 H   0  0  0  0  0  0  0  0  0  0  0  0
    0.0157  -10.6571    2.0989 H   0  0  0  0  0  0  0  0  0  0  0  0
   -0.6642   -9.7089    3.3791 H   0  0  0  0  0  0  0  0  0  0  0  0
    0.3411  -11.0903    3.7724 H   0  0  0  0  0  0  0  0  0  0  0  0
    2.4748  -11.2790    2.5918 H   0  0  0  0  0  0  0  0  0  0  0  0
    2.3093  -10.2215    1.2331 H   0  0  0  0  0  0  0  0  0  0  0  0
    4.6195  -10.3260    1.8343 H   0  0  0  0  0  0  0  0  0  0  0  0
    3.9676   -8.7274    2.0898 H   0  0  0  0  0  0  0  0  0  0  0  0
    5.4382  -11.7257    3.6051 H   0  0  0  0  0  0  0  0  0  0  0  0
    3.7924  -11.8558    4.1881 H   0  0  0  0  0  0  0  0  0  0  0  0
    5.0448  -11.4363    5.2999 H   0  0  0  0  0  0  0  0  0  0  0  0
    0.0181   -8.7852    5.1421 H   0  0  0  0  0  0  0  0  0  0  0  0
    1.2126   -9.0157    7.2398 H   0  0  0  0  0  0  0  0  0  0  0  0
    0.0961   -7.6951    7.1689 H   0  0  0  0  0  0  0  0  0  0  0  0
    1.8015   -7.3287    7.0429 H   0  0  0  0  0  0  0  0  0  0  0  0
    3.2209   -8.8172    7.0434 H   0  0  0  0  0  0  0  0  0  0  0  0
    4.5496   -9.7334    6.5596 H   0  0  0  0  0  0  0  0  0  0  0  0
    4.5970   -7.1436    4.0624 H   0  0  0  0  0  0  0  0  0  0  0  0
    8.2237   -5.4357    5.6271 H   0  0  0  0  0  0  0  0  0  0  0  0
    8.3762   -7.1145    5.3372 H   0  0  0  0  0  0  0  0  0  0  0  0
    7.3224   -6.5538    6.6049 H   0  0  0  0  0  0  0  0  0  0  0  0
    5.3742   -4.8667    5.9472 H   0  0  0  0  0  0  0  0  0  0  0  0
    6.5779   -4.1158    5.0114 H   0  0  0  0  0  0  0  0  0  0  0  0
    3.9660   -5.1255    3.8297 H   0  0  0  0  0  0  0  0  0  0  0  0
    4.3046   -3.5275    4.4233 H   0  0  0  0  0  0  0  0  0  0  0  0
    6.1886   -3.2930    2.8606 H   0  0  0  0  0  0  0  0  0  0  0  0
    3.0656   -1.5295    1.7293 H   0  0  0  0  0  0  0  0  0  0  0  0
    4.2665   -1.5544    3.0152 H   0  0  0  0  0  0  0  0  0  0  0  0
    2.8652   -2.6344    3.0549 H   0  0  0  0  0  0  0  0  0  0  0  0
    4.5773   -1.6924    0.0923 H   0  0  0  0  0  0  0  0  0  0  0  0
    5.4881   -3.1047   -0.3096 H   0  0  0  0  0  0  0  0  0  0  0  0
    6.0878   -1.9984    0.9230 H   0  0  0  0  0  0  0  0  0  0  0  0
    2.7998   -4.6710    1.8214 H   0  0  0  0  0  0  0  0  0  0  0  0
    3.0926   -3.3112   -0.6172 H   0  0  0  0  0  0  0  0  0  0  0  0
    3.3787   -6.1862    0.0427 H   0  0  0  0  0  0  0  0  0  0  0  0
    4.6469   -5.1676   -0.5474 H   0  0  0  0  0  0  0  0  0  0  0  0
    4.4978   -6.6631    2.0762 H   0  0  0  0  0  0  0  0  0  0  0  0
    5.5891   -6.9561    0.7269 H   0  0  0  0  0  0  0  0  0  0  0  0
    8.0469   -5.5196    0.8330 H   0  0  0  0  0  0  0  0  0  0  0  0
    7.6578   -3.8731    1.2204 H   0  0  0  0  0  0  0  0  0  0  0  0
    6.7885   -4.7360   -0.0426 H   0  0  0  0  0  0  0  0  0  0  0  0
    7.8965   -5.4703    3.2398 H   0  0  0  0  0  0  0  0  0  0  0  0
    7.9900   -7.4451    1.6733 H   0  0  0  0  0  0  0  0  0  0  0  0
    8.4820   -7.7116    3.2769 H   0  0  0  0  0  0  0  0  0  0  0  0
    6.0106   -8.5887    1.8941 H   0  0  0  0  0  0  0  0  0  0  0  0
    7.1914   -9.5872    2.5584 H   0  0  0  0  0  0  0  0  0  0  0  0
    7.8325   -9.0753    5.0727 H   0  0  0  0  0  0  0  0  0  0  0  0
    7.1318  -10.5793    4.6892 H   0  0  0  0  0  0  0  0  0  0  0  0
    6.5605   -9.6905    6.0770 H   0  0  0  0  0  0  0  0  0  0  0  0
  1  2  1  0
  1 38  1  0
  1 39  1  0
  1 40  1  0
  2 13  1  0
  2  3  1  0
  2 41  1  6
  3  4  1  0
  3 42  1  0
  3 43  1  0
  4  5  1  0
  4 44  1  0
  4 45  1  0
  5 12  1  0
  5  6  1  1
  5  7  1  0
  6 46  1  0
  6 47  1  0
  6 48  1  0
  7  8  1  0
  7 49  1  0
  7 50  1  0
  8  9  1  0
  8 51  1  0
  8 52  1  0
  9 36  1  0
  9 10  1  1
  9 11  1  0
 10 53  1  0
 10 54  1  0
 10 55  1  0
 11 12  2  0
 11 15  1  0
 12 13  1  0
 13 14  1  0
 13 56  1  1
 14 57  1  0
 14 58  1  0
 14 59  1  0
 15 16  1  0
 15 60  1  0
 15 61  1  0
 16 17  2  0
 16 18  1  0
 18 36  1  0
 18 19  1  0
 18 62  1  6
 19 33  1  0
 19 20  1  1
 19 21  1  0
 20 63  1  0
 20 64  1  0
 20 65  1  0
 21 22  1  0
 21 66  1  0
 21 67  1  0
 22 23  1  0
 22 68  1  0
 22 69  1  0
 23 31  1  0
 23 24  1  0
 23 70  1  1
 24 25  1  0
 24 26  1  0
 24 27  1  0
 25 71  1  0
 25 72  1  0
 25 73  1  0
 26 74  1  0
 26 75  1  0
 26 76  1  0
 27 28  1  0
 27 29  1  0
 27 77  1  1
 28 78  1  0
 29 30  1  0
 29 79  1  0
 29 80  1  0
 30 31  1  0
 30 81  1  0
 30 82  1  0
 31 32  1  6
 31 33  1  0
 32 83  1  0
 32 84  1  0
 32 85  1  0
 33 34  1  0
 33 86  1  1
 34 35  1  0
 34 87  1  0
 34 88  1  0
 35 36  1  0
 35 89  1  0
 35 90  1  0
 36 37  1  1
 37 91  1  0
 37 92  1  0
 37 93  1  0
M  END
>  <i_m_ct_stereo_status>  (77) 
1

>  <s_m_source_file>  (77) 
/var/tmp/pbs.5083856.sched01/tmpu5x1cisn/30l5796r7y.sdf

>  <i_m_source_file_index>  (77) 
1

>  <i_lp_mmshare_version>  (77) 
48012

>  <i_f3d_flags>  (77) 
0

>  <s_epik_input>  (77) 
W0NIMl0xW0NIMl1bQ0BASF0oW0NIM10pW0NASF0oW0NIM10pQyhbQ0BAXTEyW0NIM10pPUMzW0NAQF0oW0NIM10pKFtDSDJdW0NIMl0yKVtDQF00KFtDSDNdKVtDQEBIXShDKD1PKVtDSDJdMylbQ0BAXTUoW0NIM10pW0NAQEhdKFtDSDJdW0NIMl00KVtDQF02KFtDSDNdKVtDQEhdKFtDSDJdW0NIMl01KUMoW0NIM10pKFtDSDNdKVtDQEBIXShbT0hdKVtDSDJdW0NIMl02

>  <s_epik_cmdline>  (77) 
J2VwaWtfcHl0aG9uJywgJy1waHQnLCAnMi4wJywgJy1waCcsICc3LjAnLCAnLXRuJywgJzgnLCAnLW1hJywgJzIwMCcsICctaW1hZScsICc8aW5maWxlLm1hZT4nLCAnLW9tYWUnLCAnPG91dGZpbGUubWFlPic=

>  <r_lp_tautomer_probability>  (77) 
1

>  <r_epik_Ionization_Penalty>  (77) 
2.85997e-06

>  <r_epik_Ionization_Penalty_Charging>  (77) 
0

>  <r_epik_Ionization_Penalty_Neutral>  (77) 
2.85997e-06

>  <r_epik_State_Penalty>  (77) 
-0

>  <r_epik_Charging_Adjusted_Penalty>  (77) 
0

>  <i_epik_Tot_Q>  (77) 
0

>  <i_epik_Tot_abs_Q>  (77) 
0

>  <s_lp_Force_Field>  (77) 
OPLS3e

>  <r_lp_Energy>  (77) 
129.643

>  <b_lp_Chiralities_Consistent>  (77) 
1

>  <s_lp_Variant>  (77) 
21:0-1

>  <s_i_glide_gridfile>  (77) 
pfpi4k_grid

>  <i_i_glide_lignum>  (77) 
1

>  <i_i_glide_rotatable_bonds>  (77) 
1

>  <r_i_docking_score>  (77) 
-2.03024

>  <r_i_glide_ligand_efficiency>  (77) 
-0.0548713

>  <r_i_glide_ligand_efficiency_sa>  (77) 
-0.182843

>  <r_i_glide_ligand_efficiency_ln>  (77) 
-0.440311

>  <r_i_glide_gscore>  (77) 
-2.03024

>  <r_i_glide_lipo>  (77) 
-0.436945

>  <r_i_glide_hbond>  (77) 
0

>  <r_i_glide_metal>  (77) 
-0

>  <r_i_glide_rewards>  (77) 
0

>  <r_i_glide_evdw>  (77) 
-30.9867

>  <r_i_glide_ecoul>  (77) 
-0.293054

>  <r_i_glide_erotb>  (77) 
0

>  <r_i_glide_esite>  (77) 
0

>  <r_i_glide_emodel>  (77) 
-35.6839

>  <r_i_glide_energy>  (77) 
-31.2797

>  <r_i_glide_einternal>  (77) 
0.00165812

>  <r_i_glide_intrahb_reward>  (77) 
-0

>  <i_i_glide_confnum>  (77) 
2

>  <i_i_glide_posenum>  (77) 
15

>  <r_i_glide_eff_state_penalty>  (77) 
0

>  <ligand_id>  (77) 
21

>  <original_smiles>  (77) 
CC1CCC2(C)CCC3(C)C(=C2C1C)CC(=O)C1C2(C)CCC4C(C)(C)C(O)CCC4(C)C2CCC13C

>  <smiles>  (77) 
[H]OC1([H])C([H])([H])C([H])([H])C2(C([H])([H])[H])C([H])(C([H])([H])C([H])([H])C3(C([H])([H])[H])C4([H])C(=O)C([H])([H])C5=C6C([H])(C([H])([H])[H])C([H])(C([H])([H])[H])C([H])([H])C([H])([H])C6(C([H])([H])[H])C([H])([H])C([H])([H])C5(C([H])([H])[H])C4(C([H])([H])[H])C([H])([H])C([H])([H])C32[H])C1(C([H])([H])[H])C([H])([H])[H]

$$$$
23:0:0
     RDKit          3D

 38 41  0  0  1  0  0  0  0  0999 V2000
    3.0007   -5.6051    1.1575 C   0  0  0  0  0  0  0  0  0  0  0  0
    4.3146   -5.1603    0.4942 C   0  0  2  0  0  0  0  0  0  0  0  0
    5.4756   -5.2519    1.5017 C   0  0  0  0  0  0  0  0  0  0  0  0
    6.8346   -5.0303    0.8283 C   0  0  0  0  0  0  0  0  0  0  0  0
    6.8795   -3.8414   -0.1544 C   0  0  2  0  0  0  0  0  0  0  0  0
    7.5242   -2.5878    0.4180 C   0  0  1  0  0  0  0  0  0  0  0  0
    8.9358   -2.6836    0.4640 O   0  0  0  0  0  0  0  0  0  0  0  0
    7.0989   -1.5943   -0.4328 O   0  0  0  0  0  0  0  0  0  0  0  0
    5.7641   -1.8229   -0.7466 C   0  0  1  0  0  0  0  0  0  0  0  0
    5.3950   -1.2451   -1.9509 O   0  0  0  0  0  0  0  0  0  0  0  0
    4.3106   -1.8876   -2.6200 C   0  0  2  0  0  0  0  0  0  0  0  0
    3.9686   -0.9997   -3.8280 C   0  0  0  0  0  0  0  0  0  0  0  0
    3.0775   -2.1073   -1.7269 C   0  0  0  0  0  0  0  0  0  0  0  0
    3.0344   -3.4289   -0.9323 C   0  0  0  0  0  0  0  0  0  0  0  0
    4.2656   -3.7156   -0.0614 C   0  0  2  0  0  0  0  0  0  0  0  0
    5.5786   -3.3538   -0.8076 C   0  0  2  0  0  0  0  0  0  0  0  0
    5.6589   -3.8265   -2.1632 O   0  0  0  0  0  0  0  0  0  0  0  0
    4.6627   -3.1709   -3.0972 O   0  0  0  0  0  0  0  0  0  0  0  0
    2.6954   -4.9139    1.9453 H   0  0  0  0  0  0  0  0  0  0  0  0
    3.1122   -6.5928    1.6082 H   0  0  0  0  0  0  0  0  0  0  0  0
    2.1933   -5.6791    0.4285 H   0  0  0  0  0  0  0  0  0  0  0  0
    4.5047   -5.8409   -0.3369 H   0  0  0  0  0  0  0  0  0  0  0  0
    5.3398   -4.5085    2.2900 H   0  0  0  0  0  0  0  0  0  0  0  0
    5.4706   -6.2297    1.9953 H   0  0  0  0  0  0  0  0  0  0  0  0
    7.6325   -4.9576    1.5737 H   0  0  0  0  0  0  0  0  0  0  0  0
    7.0415   -5.9330    0.2537 H   0  0  0  0  0  0  0  0  0  0  0  0
    7.5563   -4.1178   -0.9590 H   0  0  0  0  0  0  0  0  0  0  0  0
    7.1539   -2.3660    1.4219 H   0  0  0  0  0  0  0  0  0  0  0  0
    9.2714   -2.6435   -0.4261 H   0  0  0  0  0  0  0  0  0  0  0  0
    5.1974   -1.3674    0.0689 H   0  0  0  0  0  0  0  0  0  0  0  0
    4.8545   -0.8477   -4.4430 H   0  0  0  0  0  0  0  0  0  0  0  0
    3.6028   -0.0163   -3.5155 H   0  0  0  0  0  0  0  0  0  0  0  0
    3.2087   -1.4620   -4.4561 H   0  0  0  0  0  0  0  0  0  0  0  0
    2.9906   -1.2508   -1.0637 H   0  0  0  0  0  0  0  0  0  0  0  0
    2.1991   -2.1137   -2.3696 H   0  0  0  0  0  0  0  0  0  0  0  0
    2.1540   -3.3905   -0.2978 H   0  0  0  0  0  0  0  0  0  0  0  0
    2.8741   -4.2471   -1.6202 H   0  0  0  0  0  0  0  0  0  0  0  0
    4.1777   -3.0727    0.8143 H   0  0  0  0  0  0  0  0  0  0  0  0
  1  2  1  0
  1 19  1  0
  1 20  1  0
  1 21  1  0
  2 15  1  0
  2  3  1  0
  2 22  1  6
  3  4  1  0
  3 23  1  0
  3 24  1  0
  4  5  1  0
  4 25  1  0
  4 26  1  0
  5 16  1  0
  5  6  1  0
  5 27  1  6
  6  7  1  0
  6  8  1  0
  6 28  1  1
  7 29  1  0
  8  9  1  0
  9 16  1  0
  9 10  1  0
  9 30  1  1
 10 11  1  0
 11 18  1  0
 11 12  1  6
 11 13  1  0
 12 31  1  0
 12 32  1  0
 12 33  1  0
 13 14  1  0
 13 34  1  0
 13 35  1  0
 14 15  1  0
 14 36  1  0
 14 37  1  0
 15 16  1  0
 15 38  1  1
 16 17  1  6
 17 18  1  0
M  END
>  <i_m_ct_stereo_status>  (78) 
1

>  <s_m_source_file>  (78) 
/var/tmp/pbs.5083856.sched01/tmpu5x1cisn/30l5796r7y.sdf

>  <i_m_source_file_index>  (78) 
3

>  <i_lp_mmshare_version>  (78) 
48012

>  <i_f3d_flags>  (78) 
0

>  <s_epik_input>  (78) 
W0NAQF0xMjNbQ0BASF00W0NIMl1bQ0gyXVtDQEBIXShbQ0gzXSlbQ0BASF0yW0NIMl1bQ0gyXVtDQF0oW0NIM10pKE9PMylPW0NAQEhdMU9bQ0BASF00W09IXQ==

>  <s_epik_cmdline>  (78) 
J2VwaWtfcHl0aG9uJywgJy1waHQnLCAnMi4wJywgJy1waCcsICc3LjAnLCAnLXRuJywgJzgnLCAnLW1hJywgJzIwMCcsICctaW1hZScsICc8aW5maWxlLm1hZT4nLCAnLW9tYWUnLCAnPG91dGZpbGUubWFlPic=

>  <r_lp_tautomer_probability>  (78) 
1

>  <r_epik_Ionization_Penalty>  (78) 
1.95639e-07

>  <r_epik_Ionization_Penalty_Charging>  (78) 
0

>  <r_epik_Ionization_Penalty_Neutral>  (78) 
1.95639e-07

>  <r_epik_State_Penalty>  (78) 
-0

>  <r_epik_Charging_Adjusted_Penalty>  (78) 
0

>  <i_epik_Tot_Q>  (78) 
0

>  <i_epik_Tot_abs_Q>  (78) 
0

>  <s_epik_Chemistry_Notes>  (78) 
This compound contains an acetal/aminal-like group ( X-CH(R)-Y where X, Y are N, S, or O) that may be acid/base labile, releasing an aldehyde.

>  <s_lp_Force_Field>  (78) 
OPLS3e

>  <r_lp_Energy>  (78) 
33.939

>  <b_lp_Chiralities_Consistent>  (78) 
1

>  <s_lp_Variant>  (78) 
23:0-1

>  <s_i_glide_gridfile>  (78) 
pfpi4k_grid

>  <i_i_glide_lignum>  (78) 
3

>  <i_i_glide_rotatable_bonds>  (78) 
1

>  <r_i_docking_score>  (78) 
-4.37914

>  <r_i_glide_ligand_efficiency>  (78) 
-0.243285

>  <r_i_glide_ligand_efficiency_sa>  (78) 
-0.637588

>  <r_i_glide_ligand_efficiency_ln>  (78) 
-1.12563

>  <r_i_glide_gscore>  (78) 
-4.37914

>  <r_i_glide_lipo>  (78) 
-0.657374

>  <r_i_glide_hbond>  (78) 
-0.138647

>  <r_i_glide_metal>  (78) 
-0

>  <r_i_glide_rewards>  (78) 
-1.90262

>  <r_i_glide_evdw>  (78) 
-20.3659

>  <r_i_glide_ecoul>  (78) 
-4.12417

>  <r_i_glide_erotb>  (78) 
0

>  <r_i_glide_esite>  (78) 
-0.0435694

>  <r_i_glide_emodel>  (78) 
-31.0837

>  <r_i_glide_energy>  (78) 
-24.4901

>  <r_i_glide_einternal>  (78) 
0.545193

>  <r_i_glide_intrahb_reward>  (78) 
-0

>  <i_i_glide_confnum>  (78) 
2

>  <i_i_glide_posenum>  (78) 
38

>  <r_i_glide_eff_state_penalty>  (78) 
0

>  <ligand_id>  (78) 
23

>  <original_smiles>  (78) 
CC1CCC2C(O)OC3OC4(C)CCC1C32OO4

>  <smiles>  (78) 
[H]OC1([H])OC2([H])OC3(C([H])([H])[H])OOC24C1([H])C([H])([H])C([H])([H])C([H])(C([H])([H])[H])C4([H])C([H])([H])C3([H])[H]

$$$$
23:0:1
     RDKit          3D

 38 41  0  0  1  0  0  0  0  0999 V2000
    2.6385   -5.4928    0.8935 C   0  0  0  0  0  0  0  0  0  0  0  0
    3.9929   -5.0743    0.3012 C   0  0  2  0  0  0  0  0  0  0  0  0
    5.0849   -5.1389    1.3843 C   0  0  0  0  0  0  0  0  0  0  0  0
    6.4787   -4.9366    0.7883 C   0  0  0  0  0  0  0  0  0  0  0  0
    6.5766   -3.7869   -0.2310 C   0  0  2  0  0  0  0  0  0  0  0  0
    7.2083   -2.5200    0.3201 C   0  0  1  0  0  0  0  0  0  0  0  0
    8.6224   -2.6234    0.4481 O   0  0  0  0  0  0  0  0  0  0  0  0
    6.8623   -1.5701   -0.6181 O   0  0  0  0  0  0  0  0  0  0  0  0
    5.5378   -1.8009   -0.9759 C   0  0  1  0  0  0  0  0  0  0  0  0
    5.2326   -1.2596   -2.2170 O   0  0  0  0  0  0  0  0  0  0  0  0
    4.2091   -1.9282   -2.9349 C   0  0  2  0  0  0  0  0  0  0  0  0
    3.9498   -1.0774   -4.1785 C   0  0  0  0  0  0  0  0  0  0  0  0
    2.9248   -2.1224   -2.1383 C   0  0  0  0  0  0  0  0  0  0  0  0
    2.8262   -3.3963   -1.2781 C   0  0  0  0  0  0  0  0  0  0  0  0
    3.9881   -3.6545   -0.3118 C   0  0  2  0  0  0  0  0  0  0  0  0
    5.3351   -3.3230   -1.0013 C   0  0  2  0  0  0  0  0  0  0  0  0
    5.5192   -3.8568   -2.3286 O   0  0  0  0  0  0  0  0  0  0  0  0
    4.5889   -3.2206   -3.3562 O   0  0  0  0  0  0  0  0  0  0  0  0
    2.2873   -4.7705    1.6320 H   0  0  0  0  0  0  0  0  0  0  0  0
    2.7165   -6.4619    1.3888 H   0  0  0  0  0  0  0  0  0  0  0  0
    1.8809   -5.5946    0.1153 H   0  0  0  0  0  0  0  0  0  0  0  0
    4.2358   -5.7895   -0.4849 H   0  0  0  0  0  0  0  0  0  0  0  0
    4.9127   -4.3573    2.1230 H   0  0  0  0  0  0  0  0  0  0  0  0
    5.0458   -6.0953    1.9137 H   0  0  0  0  0  0  0  0  0  0  0  0
    7.2421   -4.8467    1.5740 H   0  0  0  0  0  0  0  0  0  0  0  0
    6.7195   -5.8571    0.2635 H   0  0  0  0  0  0  0  0  0  0  0  0
    7.3004   -4.0887   -0.9799 H   0  0  0  0  0  0  0  0  0  0  0  0
    6.7995   -2.2349    1.2964 H   0  0  0  0  0  0  0  0  0  0  0  0
    8.9472   -1.7837    0.7063 H   0  0  0  0  0  0  0  0  0  0  0  0
    4.9433   -1.3055   -0.2119 H   0  0  0  0  0  0  0  0  0  0  0  0
    4.8853   -0.9535   -4.7177 H   0  0  0  0  0  0  0  0  0  0  0  0
    3.5636   -0.0800   -3.9439 H   0  0  0  0  0  0  0  0  0  0  0  0
    3.2459   -1.5667   -4.8498 H   0  0  0  0  0  0  0  0  0  0  0  0
    2.7564   -1.2418   -1.5307 H   0  0  0  0  0  0  0  0  0  0  0  0
    2.0872   -2.1725   -2.8318 H   0  0  0  0  0  0  0  0  0  0  0  0
    1.9017   -3.3349   -0.7099 H   0  0  0  0  0  0  0  0  0  0  0  0
    2.6899   -4.2491   -1.9348 H   0  0  0  0  0  0  0  0  0  0  0  0
    3.8448   -2.9722    0.5261 H   0  0  0  0  0  0  0  0  0  0  0  0
  1  2  1  0
  1 19  1  0
  1 20  1  0
  1 21  1  0
  2 15  1  0
  2  3  1  0
  2 22  1  6
  3  4  1  0
  3 23  1  0
  3 24  1  0
  4  5  1  0
  4 25  1  0
  4 26  1  0
  5 16  1  0
  5  6  1  0
  5 27  1  6
  6  7  1  0
  6  8  1  0
  6 28  1  1
  7 29  1  0
  8  9  1  0
  9 16  1  0
  9 10  1  0
  9 30  1  1
 10 11  1  0
 11 18  1  0
 11 12  1  6
 11 13  1  0
 12 31  1  0
 12 32  1  0
 12 33  1  0
 13 14  1  0
 13 34  1  0
 13 35  1  0
 14 15  1  0
 14 36  1  0
 14 37  1  0
 15 16  1  0
 15 38  1  1
 16 17  1  6
 17 18  1  0
M  END
>  <i_m_ct_stereo_status>  (79) 
1

>  <s_m_source_file>  (79) 
/var/tmp/pbs.5083856.sched01/tmpu5x1cisn/30l5796r7y.sdf

>  <i_m_source_file_index>  (79) 
3

>  <i_lp_mmshare_version>  (79) 
48012

>  <i_f3d_flags>  (79) 
0

>  <s_epik_input>  (79) 
W0NAQF0xMjNbQ0BASF00W0NIMl1bQ0gyXVtDQEBIXShbQ0gzXSlbQ0BASF0yW0NIMl1bQ0gyXVtDQF0oW0NIM10pKE9PMylPW0NAQEhdMU9bQ0BASF00W09IXQ==

>  <s_epik_cmdline>  (79) 
J2VwaWtfcHl0aG9uJywgJy1waHQnLCAnMi4wJywgJy1waCcsICc3LjAnLCAnLXRuJywgJzgnLCAnLW1hJywgJzIwMCcsICctaW1hZScsICc8aW5maWxlLm1hZT4nLCAnLW9tYWUnLCAnPG91dGZpbGUubWFlPic=

>  <r_lp_tautomer_probability>  (79) 
1

>  <r_epik_Ionization_Penalty>  (79) 
1.95639e-07

>  <r_epik_Ionization_Penalty_Charging>  (79) 
0

>  <r_epik_Ionization_Penalty_Neutral>  (79) 
1.95639e-07

>  <r_epik_State_Penalty>  (79) 
-0

>  <r_epik_Charging_Adjusted_Penalty>  (79) 
0

>  <i_epik_Tot_Q>  (79) 
0

>  <i_epik_Tot_abs_Q>  (79) 
0

>  <s_epik_Chemistry_Notes>  (79) 
This compound contains an acetal/aminal-like group ( X-CH(R)-Y where X, Y are N, S, or O) that may be acid/base labile, releasing an aldehyde.

>  <s_lp_Force_Field>  (79) 
OPLS3e

>  <r_lp_Energy>  (79) 
33.939

>  <b_lp_Chiralities_Consistent>  (79) 
1

>  <s_lp_Variant>  (79) 
23:0-1

>  <s_i_glide_gridfile>  (79) 
pfpi4k_grid

>  <i_i_glide_lignum>  (79) 
3

>  <i_i_glide_rotatable_bonds>  (79) 
1

>  <r_i_docking_score>  (79) 
-4.0821

>  <r_i_glide_ligand_efficiency>  (79) 
-0.226783

>  <r_i_glide_ligand_efficiency_sa>  (79) 
-0.59434

>  <r_i_glide_ligand_efficiency_ln>  (79) 
-1.04928

>  <r_i_glide_gscore>  (79) 
-4.0821

>  <r_i_glide_lipo>  (79) 
-0.467799

>  <r_i_glide_hbond>  (79) 
-0.142863

>  <r_i_glide_metal>  (79) 
-0

>  <r_i_glide_rewards>  (79) 
-1.92868

>  <r_i_glide_evdw>  (79) 
-19.4984

>  <r_i_glide_ecoul>  (79) 
-3.50367

>  <r_i_glide_erotb>  (79) 
0

>  <r_i_glide_esite>  (79) 
-0.0422887

>  <r_i_glide_emodel>  (79) 
-29.207

>  <r_i_glide_energy>  (79) 
-23.0021

>  <r_i_glide_einternal>  (79) 
0.318737

>  <r_i_glide_intrahb_reward>  (79) 
-0

>  <i_i_glide_confnum>  (79) 
2

>  <i_i_glide_posenum>  (79) 
24

>  <r_i_glide_eff_state_penalty>  (79) 
0

>  <ligand_id>  (79) 
23

>  <original_smiles>  (79) 
CC1CCC2C(O)OC3OC4(C)CCC1C32OO4

>  <smiles>  (79) 
[H]OC1([H])OC2([H])OC3(C([H])([H])[H])OOC24C1([H])C([H])([H])C([H])([H])C([H])(C([H])([H])[H])C4([H])C([H])([H])C3([H])[H]

$$$$
23:0:2
     RDKit          3D

 38 41  0  0  1  0  0  0  0  0999 V2000
    2.4862   -5.3298    0.4806 C   0  0  0  0  0  0  0  0  0  0  0  0
    3.8277   -4.6901    0.0776 C   0  0  2  0  0  0  0  0  0  0  0  0
    4.7152   -4.5213    1.3258 C   0  0  0  0  0  0  0  0  0  0  0  0
    6.1402   -4.1122    0.9514 C   0  0  0  0  0  0  0  0  0  0  0  0
    6.2324   -2.9893   -0.0966 C   0  0  2  0  0  0  0  0  0  0  0  0
    6.4776   -1.6043    0.4952 C   0  0  1  0  0  0  0  0  0  0  0  0
    7.8219   -1.4286    0.8492 O   0  0  0  0  0  0  0  0  0  0  0  0
    6.1314   -0.7538   -0.5303 O   0  0  0  0  0  0  0  0  0  0  0  0
    4.9726   -1.2312   -1.1145 C   0  0  1  0  0  0  0  0  0  0  0  0
    4.8130   -0.7977   -2.4129 O   0  0  0  0  0  0  0  0  0  0  0  0
    4.0443   -1.6551   -3.2493 C   0  0  2  0  0  0  0  0  0  0  0  0
    3.8720   -0.8755   -4.5482 C   0  0  0  0  0  0  0  0  0  0  0  0
    2.6690   -2.0429   -2.6914 C   0  0  0  0  0  0  0  0  0  0  0  0
    2.6604   -3.2822   -1.7673 C   0  0  0  0  0  0  0  0  0  0  0  0
    3.6854   -3.3113   -0.6134 C   0  0  2  0  0  0  0  0  0  0  0  0
    5.0614   -2.7684   -1.0694 C   0  0  2  0  0  0  0  0  0  0  0  0
    5.5482   -3.2891   -2.3208 O   0  0  0  0  0  0  0  0  0  0  0  0
    4.6996   -2.8812   -3.5137 O   0  0  0  0  0  0  0  0  0  0  0  0
    1.8982   -4.6621    1.1113 H   0  0  0  0  0  0  0  0  0  0  0  0
    2.6449   -6.2603    1.0275 H   0  0  0  0  0  0  0  0  0  0  0  0
    1.8953   -5.5798   -0.4005 H   0  0  0  0  0  0  0  0  0  0  0  0
    4.3201   -5.3726   -0.6139 H   0  0  0  0  0  0  0  0  0  0  0  0
    4.2815   -3.7701    1.9869 H   0  0  0  0  0  0  0  0  0  0  0  0
    4.7486   -5.4525    1.8959 H   0  0  0  0  0  0  0  0  0  0  0  0
    6.7147   -3.8516    1.8475 H   0  0  0  0  0  0  0  0  0  0  0  0
    6.6247   -4.9947    0.5323 H   0  0  0  0  0  0  0  0  0  0  0  0
    7.1111   -3.2057   -0.7085 H   0  0  0  0  0  0  0  0  0  0  0  0
    5.8533   -1.3986    1.3725 H   0  0  0  0  0  0  0  0  0  0  0  0
    7.8933   -0.5698    1.2536 H   0  0  0  0  0  0  0  0  0  0  0  0
    4.1654   -0.8352   -0.4988 H   0  0  0  0  0  0  0  0  0  0  0  0
    4.8514   -0.6169   -4.9294 H   0  0  0  0  0  0  0  0  0  0  0  0
    3.2892    0.0397   -4.4254 H   0  0  0  0  0  0  0  0  0  0  0  0
    3.4077   -1.4905   -5.3112 H   0  0  0  0  0  0  0  0  0  0  0  0
    2.2509   -1.1594   -2.2248 H   0  0  0  0  0  0  0  0  0  0  0  0
    1.9983   -2.2703   -3.5194 H   0  0  0  0  0  0  0  0  0  0  0  0
    1.6548   -3.3892   -1.3652 H   0  0  0  0  0  0  0  0  0  0  0  0
    2.8234   -4.1378   -2.4102 H   0  0  0  0  0  0  0  0  0  0  0  0
    3.2869   -2.6466    0.1536 H   0  0  0  0  0  0  0  0  0  0  0  0
  1  2  1  0
  1 19  1  0
  1 20  1  0
  1 21  1  0
  2 15  1  0
  2  3  1  0
  2 22  1  6
  3  4  1  0
  3 23  1  0
  3 24  1  0
  4  5  1  0
  4 25  1  0
  4 26  1  0
  5 16  1  0
  5  6  1  0
  5 27  1  6
  6  7  1  0
  6  8  1  0
  6 28  1  1
  7 29  1  0
  8  9  1  0
  9 16  1  0
  9 10  1  0
  9 30  1  1
 10 11  1  0
 11 18  1  0
 11 12  1  6
 11 13  1  0
 12 31  1  0
 12 32  1  0
 12 33  1  0
 13 14  1  0
 13 34  1  0
 13 35  1  0
 14 15  1  0
 14 36  1  0
 14 37  1  0
 15 16  1  0
 15 38  1  1
 16 17  1  6
 17 18  1  0
M  END
>  <i_m_ct_stereo_status>  (80) 
1

>  <s_m_source_file>  (80) 
/var/tmp/pbs.5083856.sched01/tmpu5x1cisn/30l5796r7y.sdf

>  <i_m_source_file_index>  (80) 
3

>  <i_lp_mmshare_version>  (80) 
48012

>  <i_f3d_flags>  (80) 
0

>  <s_epik_input>  (80) 
W0NAQF0xMjNbQ0BASF00W0NIMl1bQ0gyXVtDQEBIXShbQ0gzXSlbQ0BASF0yW0NIMl1bQ0gyXVtDQF0oW0NIM10pKE9PMylPW0NAQEhdMU9bQ0BASF00W09IXQ==

>  <s_epik_cmdline>  (80) 
J2VwaWtfcHl0aG9uJywgJy1waHQnLCAnMi4wJywgJy1waCcsICc3LjAnLCAnLXRuJywgJzgnLCAnLW1hJywgJzIwMCcsICctaW1hZScsICc8aW5maWxlLm1hZT4nLCAnLW9tYWUnLCAnPG91dGZpbGUubWFlPic=

>  <r_lp_tautomer_probability>  (80) 
1

>  <r_epik_Ionization_Penalty>  (80) 
1.95639e-07

>  <r_epik_Ionization_Penalty_Charging>  (80) 
0

>  <r_epik_Ionization_Penalty_Neutral>  (80) 
1.95639e-07

>  <r_epik_State_Penalty>  (80) 
-0

>  <r_epik_Charging_Adjusted_Penalty>  (80) 
0

>  <i_epik_Tot_Q>  (80) 
0

>  <i_epik_Tot_abs_Q>  (80) 
0

>  <s_epik_Chemistry_Notes>  (80) 
This compound contains an acetal/aminal-like group ( X-CH(R)-Y where X, Y are N, S, or O) that may be acid/base labile, releasing an aldehyde.

>  <s_lp_Force_Field>  (80) 
OPLS3e

>  <r_lp_Energy>  (80) 
33.939

>  <b_lp_Chiralities_Consistent>  (80) 
1

>  <s_lp_Variant>  (80) 
23:0-1

>  <s_i_glide_gridfile>  (80) 
pfpi4k_grid

>  <i_i_glide_lignum>  (80) 
3

>  <i_i_glide_rotatable_bonds>  (80) 
1

>  <r_i_docking_score>  (80) 
-3.96276

>  <r_i_glide_ligand_efficiency>  (80) 
-0.220154

>  <r_i_glide_ligand_efficiency_sa>  (80) 
-0.576966

>  <r_i_glide_ligand_efficiency_ln>  (80) 
-1.01861

>  <r_i_glide_gscore>  (80) 
-3.96276

>  <r_i_glide_lipo>  (80) 
-0.381075

>  <r_i_glide_hbond>  (80) 
-0.0492623

>  <r_i_glide_metal>  (80) 
-0

>  <r_i_glide_rewards>  (80) 
-1.87258

>  <r_i_glide_evdw>  (80) 
-16.4631

>  <r_i_glide_ecoul>  (80) 
-5.29776

>  <r_i_glide_erotb>  (80) 
0

>  <r_i_glide_esite>  (80) 
-0.0420306

>  <r_i_glide_emodel>  (80) 
-27.771

>  <r_i_glide_energy>  (80) 
-21.7609

>  <r_i_glide_einternal>  (80) 
0.246043

>  <r_i_glide_intrahb_reward>  (80) 
-0

>  <i_i_glide_confnum>  (80) 
1

>  <i_i_glide_posenum>  (80) 
39

>  <r_i_glide_eff_state_penalty>  (80) 
0

>  <ligand_id>  (80) 
23

>  <original_smiles>  (80) 
CC1CCC2C(O)OC3OC4(C)CCC1C32OO4

>  <smiles>  (80) 
[H]OC1([H])OC2([H])OC3(C([H])([H])[H])OOC24C1([H])C([H])([H])C([H])([H])C([H])(C([H])([H])[H])C4([H])C([H])([H])C3([H])[H]

$$$$
25:0:0
     RDKit          3D

 51 56  0  0  1  0  0  0  0  0999 V2000
    2.6292    2.9120    3.4317 C   0  0  0  0  0  0  0  0  0  0  0  0
    2.2498    1.4492    3.3314 C   0  0  0  0  0  0  0  0  0  0  0  0
    2.7711    0.4993    3.9679 N   0  0  0  0  0  0  0  0  0  0  0  0
    1.9757   -0.6895    3.6694 C   0  0  1  0  0  0  0  0  0  0  0  0
    1.0507   -0.3318    2.6028 N   0  0  0  0  0  0  0  0  0  0  0  0
    1.1627    0.9504    2.4657 C   0  0  0  0  0  0  0  0  0  0  0  0
    0.3870    1.7371    1.6554 N   0  0  0  0  0  0  0  0  0  0  0  0
    2.8537   -1.8250    3.2209 C   0  0  0  0  0  0  0  0  0  0  0  0
    3.8708   -1.7612    2.2591 C   0  0  0  0  0  0  0  0  0  0  0  0
    4.6305   -2.9242    1.9900 C   0  0  0  0  0  0  0  0  0  0  0  0
    5.6975   -2.8803    0.9777 C   0  0  0  0  0  0  0  0  0  0  0  0
    6.7860   -3.7766    1.0265 C   0  0  0  0  0  0  0  0  0  0  0  0
    7.7795   -3.7149    0.0397 C   0  0  0  0  0  0  0  0  0  0  0  0
    7.6505   -2.7537   -0.9752 C   0  0  0  0  0  0  0  0  0  0  0  0
    6.6187   -1.8835   -1.0462 N   0  0  0  0  0  0  0  0  0  0  0  0
    5.6735   -1.9510   -0.0871 C   0  0  0  0  0  0  0  0  0  0  0  0
    4.3418   -4.1173    2.7066 C   0  0  0  0  0  0  0  0  0  0  0  0
    3.3273   -4.1629    3.6832 C   0  0  0  0  0  0  0  0  0  0  0  0
    2.5970   -2.9919    3.9184 C   0  0  0  0  0  0  0  0  0  0  0  0
    1.5063   -2.8198    4.9223 C   0  0  0  0  0  0  0  0  0  0  0  0
    1.2151   -1.2882    4.9332 C   0  0  0  0  0  0  0  0  0  0  0  0
    1.7481   -0.6702    6.2820 C   0  0  0  0  0  0  0  0  0  0  0  0
    0.5811    0.1164    6.8028 C   0  0  0  0  0  0  0  0  0  0  0  0
    0.5935    1.0285    7.8730 C   0  0  0  0  0  0  0  0  0  0  0  0
   -0.6112    1.6914    8.1999 C   0  0  0  0  0  0  0  0  0  0  0  0
   -1.7896    1.4495    7.4493 C   0  0  0  0  0  0  0  0  0  0  0  0
   -1.7728    0.5457    6.3635 C   0  0  0  0  0  0  0  0  0  0  0  0
   -0.5721   -0.1103    6.0640 C   0  0  0  0  0  0  0  0  0  0  0  0
   -0.3477   -1.0674    4.9382 C   0  0  0  0  0  0  0  0  0  0  0  0
    2.1157    3.5483    2.6965 H   0  0  0  0  0  0  0  0  0  0  0  0
    3.6974    3.0121    3.2767 H   0  0  0  0  0  0  0  0  0  0  0  0
    2.4112    3.2894    4.4339 H   0  0  0  0  0  0  0  0  0  0  0  0
    0.4894    2.7527    1.5212 H   0  0  0  0  0  0  0  0  0  0  0  0
   -0.3143    1.3879    1.0220 H   0  0  0  0  0  0  0  0  0  0  0  0
    4.0475   -0.8119    1.7762 H   0  0  0  0  0  0  0  0  0  0  0  0
    6.8734   -4.5057    1.8167 H   0  0  0  0  0  0  0  0  0  0  0  0
    8.6135   -4.3951    0.0667 H   0  0  0  0  0  0  0  0  0  0  0  0
    8.3993   -2.6714   -1.7482 H   0  0  0  0  0  0  0  0  0  0  0  0
    4.8742   -1.2310   -0.1956 H   0  0  0  0  0  0  0  0  0  0  0  0
    4.8904   -5.0258    2.5173 H   0  0  0  0  0  0  0  0  0  0  0  0
    3.1256   -5.0713    4.2327 H   0  0  0  0  0  0  0  0  0  0  0  0
    0.6643   -3.4082    4.5660 H   0  0  0  0  0  0  0  0  0  0  0  0
    1.7901   -3.2322    5.8899 H   0  0  0  0  0  0  0  0  0  0  0  0
    1.9822   -1.4303    7.0322 H   0  0  0  0  0  0  0  0  0  0  0  0
    2.6247   -0.0259    6.2220 H   0  0  0  0  0  0  0  0  0  0  0  0
    1.5068    1.2197    8.4143 H   0  0  0  0  0  0  0  0  0  0  0  0
   -0.6321    2.3814    9.0337 H   0  0  0  0  0  0  0  0  0  0  0  0
   -2.7129    1.9516    7.7180 H   0  0  0  0  0  0  0  0  0  0  0  0
   -2.6401    0.3394    5.7624 H   0  0  0  0  0  0  0  0  0  0  0  0
   -0.8055   -0.6933    4.0203 H   0  0  0  0  0  0  0  0  0  0  0  0
   -0.8831   -1.9809    5.2039 H   0  0  0  0  0  0  0  0  0  0  0  0
  1 30  1  0
  1 31  1  0
  1 32  1  0
  1  2  1  0
  2  6  1  0
  2  3  2  0
  3  4  1  0
  4 21  1  1
  4  8  1  0
  4  5  1  0
  5  6  2  0
  6  7  1  0
  7 34  1  0
  7 33  1  0
  8 19  1  0
  8  9  2  0
  9 10  1  0
  9 35  1  0
 10 11  1  0
 10 17  2  0
 11 16  1  0
 11 12  2  0
 12 13  1  0
 12 36  1  0
 13 14  2  0
 13 37  1  0
 14 15  1  0
 14 38  1  0
 15 16  2  0
 16 39  1  0
 17 18  1  0
 17 40  1  0
 18 19  2  0
 18 41  1  0
 19 20  1  0
 20 21  1  0
 20 42  1  0
 20 43  1  0
 21 29  1  0
 21 22  1  0
 22 23  1  0
 22 44  1  0
 22 45  1  0
 23 28  2  0
 23 24  1  0
 24 25  2  0
 24 46  1  0
 25 26  1  0
 25 47  1  0
 26 27  2  0
 26 48  1  0
 27 28  1  0
 27 49  1  0
 28 29  1  0
 29 50  1  0
 29 51  1  0
M  END
>  <i_m_ct_stereo_status>  (81) 
1

>  <s_m_source_file>  (81) 
/var/tmp/pbs.5083856.sched01/tmpu5x1cisn/30l5796r7y.sdf

>  <i_m_source_file_index>  (81) 
5

>  <i_lp_mmshare_version>  (81) 
48012

>  <i_f3d_flags>  (81) 
0

>  <s_epik_input>  (81) 
W2NIXTFbY0hdW2NIXVtjSF1jKFtDSDJdMiljMVtDSDJdQzIoW0NAXTM0Tj1DKFtDSDNdKS9DKFtOSF0zKT1OXFtIXSlbQ0gyXWM1YzRbY0hdYyhbY0hdW2NIXTUpLWM2W2NIXVtjSF1bY0hdbltjSF02

>  <s_epik_cmdline>  (81) 
J2VwaWtfcHl0aG9uJywgJy1waHQnLCAnMi4wJywgJy1waCcsICc3LjAnLCAnLXRuJywgJzgnLCAnLW1hJywgJzIwMCcsICctaW1hZScsICc8aW5maWxlLm1hZT4nLCAnLW9tYWUnLCAnPG91dGZpbGUubWFlPic=

>  <r_lp_tautomer_probability>  (81) 
0.992711

>  <r_epik_Ionization_Penalty>  (81) 
0.0057865

>  <r_epik_Ionization_Penalty_Charging>  (81) 
0

>  <r_epik_Ionization_Penalty_Neutral>  (81) 
0.0057865

>  <r_epik_State_Penalty>  (81) 
0.00419305

>  <r_epik_Charging_Adjusted_Penalty>  (81) 
0.00419305

>  <i_epik_Tot_Q>  (81) 
0

>  <i_epik_Tot_abs_Q>  (81) 
0

>  <s_epik_Chemistry_Notes>  (81) 
This compound has an imine and may undergo hydrolysis.

>  <s_lp_Force_Field>  (81) 
OPLS3e

>  <r_lp_Energy>  (81) 
39.0437

>  <b_lp_Chiralities_Consistent>  (81) 
1

>  <s_lp_Variant>  (81) 
25:0-1

>  <s_i_glide_gridfile>  (81) 
pfpi4k_grid

>  <i_i_glide_lignum>  (81) 
5

>  <i_i_glide_rotatable_bonds>  (81) 
1

>  <r_i_docking_score>  (81) 
-3.88848

>  <r_i_glide_ligand_efficiency>  (81) 
-0.134086

>  <r_i_glide_ligand_efficiency_sa>  (81) 
-0.411953

>  <r_i_glide_ligand_efficiency_ln>  (81) 
-0.890364

>  <r_i_glide_gscore>  (81) 
-3.88848

>  <r_i_glide_lipo>  (81) 
-0.372098

>  <r_i_glide_hbond>  (81) 
-0.396016

>  <r_i_glide_metal>  (81) 
-0

>  <r_i_glide_rewards>  (81) 
-0.828621

>  <r_i_glide_evdw>  (81) 
-22.8934

>  <r_i_glide_ecoul>  (81) 
-7.7299

>  <r_i_glide_erotb>  (81) 
0.135295

>  <r_i_glide_esite>  (81) 
-0.122889

>  <r_i_glide_emodel>  (81) 
-39.2097

>  <r_i_glide_energy>  (81) 
-30.6233

>  <r_i_glide_einternal>  (81) 
0.205836

>  <r_i_glide_intrahb_reward>  (81) 
-0

>  <i_i_glide_confnum>  (81) 
4

>  <i_i_glide_posenum>  (81) 
10

>  <r_i_glide_eff_state_penalty>  (81) 
0

>  <ligand_id>  (81) 
25

>  <original_smiles>  (81) 
CC1=NC2(NC1=N)c1cc(-c3cccnc3)ccc1CC21Cc2ccccc2C1

>  <smiles>  (81) 
[H]c1nc([H])c(-c2c([H])c([H])c3c(c2[H])C2(N=C(N([H])[H])C(C([H])([H])[H])=N2)C2(C([H])([H])c4c([H])c([H])c([H])c([H])c4C2([H])[H])C3([H])[H])c([H])c1[H]

$$$$
25:0:1
     RDKit          3D

 51 56  0  0  1  0  0  0  0  0999 V2000
    2.3442    2.9995    3.0404 C   0  0  0  0  0  0  0  0  0  0  0  0
    1.9824    1.5262    3.0467 C   0  0  0  0  0  0  0  0  0  0  0  0
    2.5888    0.6088    3.6503 N   0  0  0  0  0  0  0  0  0  0  0  0
    1.7745   -0.5962    3.4745 C   0  0  1  0  0  0  0  0  0  0  0  0
    0.7334   -0.2897    2.5099 N   0  0  0  0  0  0  0  0  0  0  0  0
    0.8059    0.9908    2.3381 C   0  0  0  0  0  0  0  0  0  0  0  0
   -0.0786    1.7480    1.6147 N   0  0  0  0  0  0  0  0  0  0  0  0
    2.6166   -1.7395    2.9740 C   0  0  0  0  0  0  0  0  0  0  0  0
    3.5294   -1.7004    1.9125 C   0  0  0  0  0  0  0  0  0  0  0  0
    4.2733   -2.8615    1.6216 C   0  0  0  0  0  0  0  0  0  0  0  0
    5.2173   -2.8450    0.5113 C   0  0  0  0  0  0  0  0  0  0  0  0
    4.9054   -3.4892   -0.6979 C   0  0  0  0  0  0  0  0  0  0  0  0
    5.8366   -3.4530   -1.7474 C   0  0  0  0  0  0  0  0  0  0  0  0
    7.0579   -2.7857   -1.5360 C   0  0  0  0  0  0  0  0  0  0  0  0
    7.3639   -2.1494   -0.3890 N   0  0  0  0  0  0  0  0  0  0  0  0
    6.4571   -2.1802    0.6104 C   0  0  0  0  0  0  0  0  0  0  0  0
    4.0827   -4.0337    2.3994 C   0  0  0  0  0  0  0  0  0  0  0  0
    3.1653   -4.0537    3.4706 C   0  0  0  0  0  0  0  0  0  0  0  0
    2.4438   -2.8841    3.7386 C   0  0  0  0  0  0  0  0  0  0  0  0
    1.4574   -2.6830    4.8438 C   0  0  0  0  0  0  0  0  0  0  0  0
    1.1446   -1.1555    4.8298 C   0  0  0  0  0  0  0  0  0  0  0  0
    1.7955   -0.4808    6.0996 C   0  0  0  0  0  0  0  0  0  0  0  0
    0.6732    0.3097    6.7042 C   0  0  0  0  0  0  0  0  0  0  0  0
    0.7796    1.2618    7.7323 C   0  0  0  0  0  0  0  0  0  0  0  0
   -0.3953    1.9215    8.1565 C   0  0  0  0  0  0  0  0  0  0  0  0
   -1.6420    1.6387    7.5408 C   0  0  0  0  0  0  0  0  0  0  0  0
   -1.7216    0.6979    6.4876 C   0  0  0  0  0  0  0  0  0  0  0  0
   -0.5472    0.0444    6.0941 C   0  0  0  0  0  0  0  0  0  0  0  0
   -0.4180   -0.9531    4.9870 C   0  0  0  0  0  0  0  0  0  0  0  0
    1.7440    3.6051    2.3463 H   0  0  0  0  0  0  0  0  0  0  0  0
    3.3892    3.0998    2.7552 H   0  0  0  0  0  0  0  0  0  0  0  0
    2.2368    3.4153    4.0471 H   0  0  0  0  0  0  0  0  0  0  0  0
    0.0664    2.7339    1.3823 H   0  0  0  0  0  0  0  0  0  0  0  0
   -0.7791    1.3467    1.0024 H   0  0  0  0  0  0  0  0  0  0  0  0
    3.6494   -0.7827    1.3531 H   0  0  0  0  0  0  0  0  0  0  0  0
    3.9631   -4.0075   -0.8153 H   0  0  0  0  0  0  0  0  0  0  0  0
    5.6310   -3.9479   -2.6819 H   0  0  0  0  0  0  0  0  0  0  0  0
    7.8034   -2.7497   -2.3130 H   0  0  0  0  0  0  0  0  0  0  0  0
    6.7308   -1.6670    1.5200 H   0  0  0  0  0  0  0  0  0  0  0  0
    4.6482   -4.9228    2.1711 H   0  0  0  0  0  0  0  0  0  0  0  0
    3.0307   -4.9407    4.0753 H   0  0  0  0  0  0  0  0  0  0  0  0
    0.5908   -3.2935    4.6014 H   0  0  0  0  0  0  0  0  0  0  0  0
    1.8369   -3.0570    5.7948 H   0  0  0  0  0  0  0  0  0  0  0  0
    2.1169   -1.2084    6.8511 H   0  0  0  0  0  0  0  0  0  0  0  0
    2.6539    0.1716    5.9314 H   0  0  0  0  0  0  0  0  0  0  0  0
    1.7412    1.4854    8.1732 H   0  0  0  0  0  0  0  0  0  0  0  0
   -0.3426    2.6423    8.9624 H   0  0  0  0  0  0  0  0  0  0  0  0
   -2.5381    2.1386    7.8848 H   0  0  0  0  0  0  0  0  0  0  0  0
   -2.6536    0.4652    6.0008 H   0  0  0  0  0  0  0  0  0  0  0  0
   -0.9761   -0.6192    4.1081 H   0  0  0  0  0  0  0  0  0  0  0  0
   -0.9118   -1.8612    5.3416 H   0  0  0  0  0  0  0  0  0  0  0  0
  1 30  1  0
  1 31  1  0
  1 32  1  0
  1  2  1  0
  2  6  1  0
  2  3  2  0
  3  4  1  0
  4 21  1  1
  4  8  1  0
  4  5  1  0
  5  6  2  0
  6  7  1  0
  7 34  1  0
  7 33  1  0
  8 19  1  0
  8  9  2  0
  9 10  1  0
  9 35  1  0
 10 11  1  0
 10 17  2  0
 11 16  1  0
 11 12  2  0
 12 13  1  0
 12 36  1  0
 13 14  2  0
 13 37  1  0
 14 15  1  0
 14 38  1  0
 15 16  2  0
 16 39  1  0
 17 18  1  0
 17 40  1  0
 18 19  2  0
 18 41  1  0
 19 20  1  0
 20 21  1  0
 20 42  1  0
 20 43  1  0
 21 29  1  0
 21 22  1  0
 22 23  1  0
 22 44  1  0
 22 45  1  0
 23 28  2  0
 23 24  1  0
 24 25  2  0
 24 46  1  0
 25 26  1  0
 25 47  1  0
 26 27  2  0
 26 48  1  0
 27 28  1  0
 27 49  1  0
 28 29  1  0
 29 50  1  0
 29 51  1  0
M  END
>  <i_m_ct_stereo_status>  (82) 
1

>  <s_m_source_file>  (82) 
/var/tmp/pbs.5083856.sched01/tmpu5x1cisn/30l5796r7y.sdf

>  <i_m_source_file_index>  (82) 
5

>  <i_lp_mmshare_version>  (82) 
48012

>  <i_f3d_flags>  (82) 
0

>  <s_epik_input>  (82) 
W2NIXTFbY0hdW2NIXVtjSF1jKFtDSDJdMiljMVtDSDJdQzIoW0NAXTM0Tj1DKFtDSDNdKS9DKFtOSF0zKT1OXFtIXSlbQ0gyXWM1YzRbY0hdYyhbY0hdW2NIXTUpLWM2W2NIXVtjSF1bY0hdbltjSF02

>  <s_epik_cmdline>  (82) 
J2VwaWtfcHl0aG9uJywgJy1waHQnLCAnMi4wJywgJy1waCcsICc3LjAnLCAnLXRuJywgJzgnLCAnLW1hJywgJzIwMCcsICctaW1hZScsICc8aW5maWxlLm1hZT4nLCAnLW9tYWUnLCAnPG91dGZpbGUubWFlPic=

>  <r_lp_tautomer_probability>  (82) 
0.992711

>  <r_epik_Ionization_Penalty>  (82) 
0.0057865

>  <r_epik_Ionization_Penalty_Charging>  (82) 
0

>  <r_epik_Ionization_Penalty_Neutral>  (82) 
0.0057865

>  <r_epik_State_Penalty>  (82) 
0.00419305

>  <r_epik_Charging_Adjusted_Penalty>  (82) 
0.00419305

>  <i_epik_Tot_Q>  (82) 
0

>  <i_epik_Tot_abs_Q>  (82) 
0

>  <s_epik_Chemistry_Notes>  (82) 
This compound has an imine and may undergo hydrolysis.

>  <s_lp_Force_Field>  (82) 
OPLS3e

>  <r_lp_Energy>  (82) 
39.0437

>  <b_lp_Chiralities_Consistent>  (82) 
1

>  <s_lp_Variant>  (82) 
25:0-1

>  <s_i_glide_gridfile>  (82) 
pfpi4k_grid

>  <i_i_glide_lignum>  (82) 
5

>  <i_i_glide_rotatable_bonds>  (82) 
1

>  <r_i_docking_score>  (82) 
-3.83317

>  <r_i_glide_ligand_efficiency>  (82) 
-0.132178

>  <r_i_glide_ligand_efficiency_sa>  (82) 
-0.406093

>  <r_i_glide_ligand_efficiency_ln>  (82) 
-0.877698

>  <r_i_glide_gscore>  (82) 
-3.83317

>  <r_i_glide_lipo>  (82) 
-0.323303

>  <r_i_glide_hbond>  (82) 
-0.423202

>  <r_i_glide_metal>  (82) 
-0

>  <r_i_glide_rewards>  (82) 
-0.828621

>  <r_i_glide_evdw>  (82) 
-24.1512

>  <r_i_glide_ecoul>  (82) 
-7.0223

>  <r_i_glide_erotb>  (82) 
0.135295

>  <r_i_glide_esite>  (82) 
-0.132433

>  <r_i_glide_emodel>  (82) 
-38.4111

>  <r_i_glide_energy>  (82) 
-31.1735

>  <r_i_glide_einternal>  (82) 
1.58169

>  <r_i_glide_intrahb_reward>  (82) 
-0

>  <i_i_glide_confnum>  (82) 
4

>  <i_i_glide_posenum>  (82) 
11

>  <r_i_glide_eff_state_penalty>  (82) 
0

>  <ligand_id>  (82) 
25

>  <original_smiles>  (82) 
CC1=NC2(NC1=N)c1cc(-c3cccnc3)ccc1CC21Cc2ccccc2C1

>  <smiles>  (82) 
[H]c1nc([H])c(-c2c([H])c([H])c3c(c2[H])C2(N=C(N([H])[H])C(C([H])([H])[H])=N2)C2(C([H])([H])c4c([H])c([H])c([H])c([H])c4C2([H])[H])C3([H])[H])c([H])c1[H]

$$$$
25:0:2
     RDKit          3D

 51 56  0  0  1  0  0  0  0  0999 V2000
    2.3785    3.1030    3.2720 C   0  0  0  0  0  0  0  0  0  0  0  0
    1.8746    1.6779    3.2753 C   0  0  0  0  0  0  0  0  0  0  0  0
    2.4643    0.6784    3.7779 N   0  0  0  0  0  0  0  0  0  0  0  0
    1.5299   -0.4422    3.6802 C   0  0  1  0  0  0  0  0  0  0  0  0
    0.4118    0.0087    2.8628 N   0  0  0  0  0  0  0  0  0  0  0  0
    0.5738    1.2859    2.6921 C   0  0  0  0  0  0  0  0  0  0  0  0
   -0.3091    2.1382    2.0921 N   0  0  0  0  0  0  0  0  0  0  0  0
    2.1885   -1.6278    3.0315 C   0  0  0  0  0  0  0  0  0  0  0  0
    2.9659   -1.6252    1.8607 C   0  0  0  0  0  0  0  0  0  0  0  0
    3.5585   -2.8385    1.4418 C   0  0  0  0  0  0  0  0  0  0  0  0
    4.3744   -2.8527    0.2226 C   0  0  0  0  0  0  0  0  0  0  0  0
    4.1868   -3.8589   -0.7408 C   0  0  0  0  0  0  0  0  0  0  0  0
    4.9807   -3.8495   -1.8976 C   0  0  0  0  0  0  0  0  0  0  0  0
    5.9382   -2.8424   -2.0492 C   0  0  0  0  0  0  0  0  0  0  0  0
    6.1322   -1.8597   -1.1418 N   0  0  0  0  0  0  0  0  0  0  0  0
    5.3548   -1.8736   -0.0354 C   0  0  0  0  0  0  0  0  0  0  0  0
    3.3524   -4.0186    2.1987 C   0  0  0  0  0  0  0  0  0  0  0  0
    2.5721   -4.0073    3.3742 C   0  0  0  0  0  0  0  0  0  0  0  0
    2.0050   -2.7852    3.7655 C   0  0  0  0  0  0  0  0  0  0  0  0
    1.1863   -2.5498    4.9914 C   0  0  0  0  0  0  0  0  0  0  0  0
    1.0188   -1.0007    5.0822 C   0  0  0  0  0  0  0  0  0  0  0  0
    1.8756   -0.4428    6.2800 C   0  0  0  0  0  0  0  0  0  0  0  0
    0.9115    0.4169    7.0418 C   0  0  0  0  0  0  0  0  0  0  0  0
    1.2356    1.3073    8.0778 C   0  0  0  0  0  0  0  0  0  0  0  0
    0.1880    2.0537    8.6701 C   0  0  0  0  0  0  0  0  0  0  0  0
   -1.1462    1.9098    8.2073 C   0  0  0  0  0  0  0  0  0  0  0  0
   -1.4461    1.0348    7.1370 C   0  0  0  0  0  0  0  0  0  0  0  0
   -0.3900    0.2913    6.5785 C   0  0  0  0  0  0  0  0  0  0  0  0
   -0.4886   -0.6592    5.4303 C   0  0  0  0  0  0  0  0  0  0  0  0
    1.7491    3.7889    2.6834 H   0  0  0  0  0  0  0  0  0  0  0  0
    3.3862    3.1349    2.8621 H   0  0  0  0  0  0  0  0  0  0  0  0
    2.4243    3.4798    4.2985 H   0  0  0  0  0  0  0  0  0  0  0  0
   -0.0936    3.1116    1.7904 H   0  0  0  0  0  0  0  0  0  0  0  0
   -1.1357    1.8290    1.6268 H   0  0  0  0  0  0  0  0  0  0  0  0
    3.0998   -0.6984    1.3234 H   0  0  0  0  0  0  0  0  0  0  0  0
    3.4390   -4.6231   -0.5921 H   0  0  0  0  0  0  0  0  0  0  0  0
    4.8492   -4.6246   -2.6466 H   0  0  0  0  0  0  0  0  0  0  0  0
    6.5587   -2.8076   -2.9303 H   0  0  0  0  0  0  0  0  0  0  0  0
    5.5326   -1.0743    0.6695 H   0  0  0  0  0  0  0  0  0  0  0  0
    3.8037   -4.9499    1.8853 H   0  0  0  0  0  0  0  0  0  0  0  0
    2.4326   -4.9003    3.9639 H   0  0  0  0  0  0  0  0  0  0  0  0
    0.2423   -3.0655    4.8355 H   0  0  0  0  0  0  0  0  0  0  0  0
    1.6418   -2.9979    5.8702 H   0  0  0  0  0  0  0  0  0  0  0  0
    2.1953   -1.2297    6.9672 H   0  0  0  0  0  0  0  0  0  0  0  0
    2.7633    0.1413    6.0253 H   0  0  0  0  0  0  0  0  0  0  0  0
    2.2575    1.4300    8.4014 H   0  0  0  0  0  0  0  0  0  0  0  0
    0.4055    2.7365    9.4829 H   0  0  0  0  0  0  0  0  0  0  0  0
   -1.9451    2.4771    8.6747 H   0  0  0  0  0  0  0  0  0  0  0  0
   -2.4531    0.9427    6.7538 H   0  0  0  0  0  0  0  0  0  0  0  0
   -1.1144   -0.2369    4.6370 H   0  0  0  0  0  0  0  0  0  0  0  0
   -1.0129   -1.5334    5.8177 H   0  0  0  0  0  0  0  0  0  0  0  0
  1 30  1  0
  1 31  1  0
  1 32  1  0
  1  2  1  0
  2  6  1  0
  2  3  2  0
  3  4  1  0
  4 21  1  1
  4  8  1  0
  4  5  1  0
  5  6  2  0
  6  7  1  0
  7 34  1  0
  7 33  1  0
  8 19  1  0
  8  9  2  0
  9 10  1  0
  9 35  1  0
 10 11  1  0
 10 17  2  0
 11 16  1  0
 11 12  2  0
 12 13  1  0
 12 36  1  0
 13 14  2  0
 13 37  1  0
 14 15  1  0
 14 38  1  0
 15 16  2  0
 16 39  1  0
 17 18  1  0
 17 40  1  0
 18 19  2  0
 18 41  1  0
 19 20  1  0
 20 21  1  0
 20 42  1  0
 20 43  1  0
 21 29  1  0
 21 22  1  0
 22 23  1  0
 22 44  1  0
 22 45  1  0
 23 28  2  0
 23 24  1  0
 24 25  2  0
 24 46  1  0
 25 26  1  0
 25 47  1  0
 26 27  2  0
 26 48  1  0
 27 28  1  0
 27 49  1  0
 28 29  1  0
 29 50  1  0
 29 51  1  0
M  END
>  <i_m_ct_stereo_status>  (83) 
1

>  <s_m_source_file>  (83) 
/var/tmp/pbs.5083856.sched01/tmpu5x1cisn/30l5796r7y.sdf

>  <i_m_source_file_index>  (83) 
5

>  <i_lp_mmshare_version>  (83) 
48012

>  <i_f3d_flags>  (83) 
0

>  <s_epik_input>  (83) 
W2NIXTFbY0hdW2NIXVtjSF1jKFtDSDJdMiljMVtDSDJdQzIoW0NAXTM0Tj1DKFtDSDNdKS9DKFtOSF0zKT1OXFtIXSlbQ0gyXWM1YzRbY0hdYyhbY0hdW2NIXTUpLWM2W2NIXVtjSF1bY0hdbltjSF02

>  <s_epik_cmdline>  (83) 
J2VwaWtfcHl0aG9uJywgJy1waHQnLCAnMi4wJywgJy1waCcsICc3LjAnLCAnLXRuJywgJzgnLCAnLW1hJywgJzIwMCcsICctaW1hZScsICc8aW5maWxlLm1hZT4nLCAnLW9tYWUnLCAnPG91dGZpbGUubWFlPic=

>  <r_lp_tautomer_probability>  (83) 
0.992711

>  <r_epik_Ionization_Penalty>  (83) 
0.0057865

>  <r_epik_Ionization_Penalty_Charging>  (83) 
0

>  <r_epik_Ionization_Penalty_Neutral>  (83) 
0.0057865

>  <r_epik_State_Penalty>  (83) 
0.00419305

>  <r_epik_Charging_Adjusted_Penalty>  (83) 
0.00419305

>  <i_epik_Tot_Q>  (83) 
0

>  <i_epik_Tot_abs_Q>  (83) 
0

>  <s_epik_Chemistry_Notes>  (83) 
This compound has an imine and may undergo hydrolysis.

>  <s_lp_Force_Field>  (83) 
OPLS3e

>  <r_lp_Energy>  (83) 
39.0437

>  <b_lp_Chiralities_Consistent>  (83) 
1

>  <s_lp_Variant>  (83) 
25:0-1

>  <s_i_glide_gridfile>  (83) 
pfpi4k_grid

>  <i_i_glide_lignum>  (83) 
5

>  <i_i_glide_rotatable_bonds>  (83) 
1

>  <r_i_docking_score>  (83) 
-3.42848

>  <r_i_glide_ligand_efficiency>  (83) 
-0.118223

>  <r_i_glide_ligand_efficiency_sa>  (83) 
-0.363219

>  <r_i_glide_ligand_efficiency_ln>  (83) 
-0.785034

>  <r_i_glide_gscore>  (83) 
-3.42848

>  <r_i_glide_lipo>  (83) 
-0.0757229

>  <r_i_glide_hbond>  (83) 
-0.272392

>  <r_i_glide_metal>  (83) 
-0

>  <r_i_glide_rewards>  (83) 
-0.828621

>  <r_i_glide_evdw>  (83) 
-23.2397

>  <r_i_glide_ecoul>  (83) 
-7.17604

>  <r_i_glide_erotb>  (83) 
0.135295

>  <r_i_glide_esite>  (83) 
-0.148648

>  <r_i_glide_emodel>  (83) 
-37.5214

>  <r_i_glide_energy>  (83) 
-30.4157

>  <r_i_glide_einternal>  (83) 
0.294752

>  <r_i_glide_intrahb_reward>  (83) 
-0

>  <i_i_glide_confnum>  (83) 
4

>  <i_i_glide_posenum>  (83) 
1

>  <r_i_glide_eff_state_penalty>  (83) 
0

>  <ligand_id>  (83) 
25

>  <original_smiles>  (83) 
CC1=NC2(NC1=N)c1cc(-c3cccnc3)ccc1CC21Cc2ccccc2C1

>  <smiles>  (83) 
[H]c1nc([H])c(-c2c([H])c([H])c3c(c2[H])C2(N=C(N([H])[H])C(C([H])([H])[H])=N2)C2(C([H])([H])c4c([H])c([H])c([H])c([H])c4C2([H])[H])C3([H])[H])c([H])c1[H]

$$$$
26:0:0
     RDKit          3D

 23 26  0  0  1  0  0  0  0  0999 V2000
    6.8596   -1.8662   -1.4777 O   0  0  0  0  0  0  0  0  0  0  0  0
    6.4772   -2.8749   -0.7852 N   0  0  0  0  0  0  0  0  0  0  0  0
    7.3371   -3.7007   -0.0011 C   0  0  0  0  0  0  0  0  0  0  0  0
    6.4580   -4.6359    0.5558 C   0  0  0  0  0  0  0  0  0  0  0  0
    6.6012   -6.0003    1.6120 S   0  0  0  0  0  0  0  0  0  0  0  0
    4.8015   -6.1530    1.4258 C   0  0  0  0  0  0  0  0  0  0  0  0
    4.0074   -7.2128    2.1794 C   0  0  2  0  0  0  0  0  0  0  0  0
    4.0036   -8.6088    1.5495 C   0  0  0  0  0  0  0  0  0  0  0  0
    2.7634   -9.0884    1.3254 C   0  0  0  0  0  0  0  0  0  0  0  0
    1.8237   -8.0567    1.7239 C   0  0  0  0  0  0  0  0  0  0  0  0
    0.4136   -7.8528    1.7494 C   0  0  0  0  0  0  0  0  0  0  0  0
    0.0532   -6.6577    2.1926 N   0  0  0  0  0  0  0  0  0  0  0  0
    1.4395   -5.7749    2.6541 S   0  0  0  0  0  0  0  0  0  0  0  0
    2.5332   -7.0187    2.1800 C   0  0  0  0  0  0  0  0  0  0  0  0
    4.2340   -5.2381    0.6078 N   0  0  0  0  0  0  0  0  0  0  0  0
    5.2142   -4.4294    0.1691 N   0  0  0  0  0  0  0  0  0  0  0  0
    5.1794   -3.3420   -0.6602 C   0  0  0  0  0  0  0  0  0  0  0  0
    8.3998   -3.5139    0.0418 H   0  0  0  0  0  0  0  0  0  0  0  0
    4.3776   -7.2834    3.2020 H   0  0  0  0  0  0  0  0  0  0  0  0
    4.9111   -9.1603    1.3538 H   0  0  0  0  0  0  0  0  0  0  0  0
    2.4823  -10.0464    0.9140 H   0  0  0  0  0  0  0  0  0  0  0  0
   -0.3533   -8.5492    1.4414 H   0  0  0  0  0  0  0  0  0  0  0  0
    4.3053   -2.9263   -1.1241 H   0  0  0  0  0  0  0  0  0  0  0  0
  1  2  1  0
  2 17  2  0
  2  3  1  0
  3  4  2  0
  3 18  1  0
  4 16  1  0
  4  5  1  0
  5  6  1  0
  6  7  1  0
  6 15  2  0
  7 14  1  0
  7  8  1  0
  7 19  1  1
  8  9  2  0
  8 20  1  0
  9 10  1  0
  9 21  1  0
 10 14  2  0
 10 11  1  0
 11 12  2  0
 11 22  1  0
 12 13  1  0
 13 14  1  0
 15 16  1  0
 16 17  1  0
 17 23  1  0
M  CHG  2   1  -1   2   1
M  END
>  <i_m_ct_stereo_status>  (84) 
1

>  <s_m_source_file>  (84) 
/var/tmp/pbs.5083856.sched01/tmpp8qaxpgj/357889e9et.sdf

>  <i_m_source_file_index>  (84) 
1

>  <i_lp_mmshare_version>  (84) 
48012

>  <i_f3d_flags>  (84) 
0

>  <s_epik_input>  (84) 
W08tXVtuK10oW2NIXTEpW2NIXW4oYzEyKW5jKHMyKVtDQEhdKFtDSF09W0NIXTMpYyhjMzQpc25bY0hdNA==

>  <s_epik_cmdline>  (84) 
J2VwaWtfcHl0aG9uJywgJy1waHQnLCAnMi4wJywgJy1waCcsICc3LjAnLCAnLXRuJywgJzgnLCAnLW1hJywgJzIwMCcsICctaW1hZScsICc8aW5maWxlLm1hZT4nLCAnLW9tYWUnLCAnPG91dGZpbGUubWFlPic=

>  <r_lp_tautomer_probability>  (84) 
1

>  <r_epik_Ionization_Penalty>  (84) 
5.23496e-09

>  <r_epik_Ionization_Penalty_Charging>  (84) 
1.22068e-10

>  <r_epik_Ionization_Penalty_Neutral>  (84) 
5.11289e-09

>  <r_epik_State_Penalty>  (84) 
-0

>  <r_epik_Charging_Adjusted_Penalty>  (84) 
1.22068e-10

>  <i_epik_Tot_Q>  (84) 
0

>  <i_epik_Tot_abs_Q>  (84) 
2

>  <s_lp_Force_Field>  (84) 
OPLS3e

>  <r_lp_Energy>  (84) 
3.20099

>  <b_lp_Chiralities_Consistent>  (84) 
1

>  <s_lp_Variant>  (84) 
26:0-1

>  <s_i_glide_gridfile>  (84) 
pfpi4k_grid

>  <i_i_glide_lignum>  (84) 
1

>  <i_i_glide_rotatable_bonds>  (84) 
1

>  <r_i_docking_score>  (84) 
-6.01657

>  <r_i_glide_ligand_efficiency>  (84) 
-0.353916

>  <r_i_glide_ligand_efficiency_sa>  (84) 
-0.910017

>  <r_i_glide_ligand_efficiency_ln>  (84) 
-1.56959

>  <r_i_glide_gscore>  (84) 
-6.01657

>  <r_i_glide_lipo>  (84) 
-0.419661

>  <r_i_glide_hbond>  (84) 
-0.323939

>  <r_i_glide_metal>  (84) 
-0

>  <r_i_glide_rewards>  (84) 
-2.08082

>  <r_i_glide_evdw>  (84) 
-17.7401

>  <r_i_glide_ecoul>  (84) 
-17.0862

>  <r_i_glide_erotb>  (84) 
0.257788

>  <r_i_glide_esite>  (84) 
0

>  <r_i_glide_emodel>  (84) 
-46.5423

>  <r_i_glide_energy>  (84) 
-34.8263

>  <r_i_glide_einternal>  (84) 
0.429232

>  <r_i_glide_intrahb_reward>  (84) 
-0

>  <i_i_glide_confnum>  (84) 
4

>  <i_i_glide_posenum>  (84) 
36

>  <r_i_glide_eff_state_penalty>  (84) 
0

>  <ligand_id>  (84) 
26

>  <original_smiles>  (84) 
[O-][n+]1cc2sc(C3C=Cc4cnsc43)nn2c1

>  <smiles>  (84) 
[H]C1=C([H])C([H])(c2nn3c([H])[n+]([O-])c([H])c3s2)c2snc([H])c21

$$$$
26:0:1
     RDKit          3D

 23 26  0  0  1  0  0  0  0  0999 V2000
    6.3438   -1.8557   -1.5383 O   0  0  0  0  0  0  0  0  0  0  0  0
    5.8798   -2.7320   -0.7180 N   0  0  0  0  0  0  0  0  0  0  0  0
    5.8860   -2.5854    0.7004 C   0  0  0  0  0  0  0  0  0  0  0  0
    5.3064   -3.7773    1.1478 C   0  0  0  0  0  0  0  0  0  0  0  0
    4.9195   -4.4553    2.6930 S   0  0  0  0  0  0  0  0  0  0  0  0
    4.2935   -5.8750    1.7473 C   0  0  0  0  0  0  0  0  0  0  0  0
    3.6890   -7.0866    2.4430 C   0  0  2  0  0  0  0  0  0  0  0  0
    3.7971   -8.4199    1.6923 C   0  0  0  0  0  0  0  0  0  0  0  0
    2.6065   -9.0179    1.4901 C   0  0  0  0  0  0  0  0  0  0  0  0
    1.5883   -8.1330    2.0269 C   0  0  0  0  0  0  0  0  0  0  0  0
    0.1696   -8.1017    2.1418 C   0  0  0  0  0  0  0  0  0  0  0  0
   -0.2901   -7.0003    2.7189 N   0  0  0  0  0  0  0  0  0  0  0  0
    1.0148   -5.9986    3.1805 S   0  0  0  0  0  0  0  0  0  0  0  0
    2.2073   -7.0606    2.5352 C   0  0  0  0  0  0  0  0  0  0  0  0
    4.3999   -5.7625    0.4032 N   0  0  0  0  0  0  0  0  0  0  0  0
    4.9734   -4.5687    0.1490 N   0  0  0  0  0  0  0  0  0  0  0  0
    5.3071   -3.9549   -1.0315 C   0  0  0  0  0  0  0  0  0  0  0  0
    6.2847   -1.6933    1.1608 H   0  0  0  0  0  0  0  0  0  0  0  0
    4.1277   -7.2019    3.4352 H   0  0  0  0  0  0  0  0  0  0  0  0
    4.7460   -8.8349    1.3890 H   0  0  0  0  0  0  0  0  0  0  0  0
    2.4008   -9.9546    0.9965 H   0  0  0  0  0  0  0  0  0  0  0  0
   -0.5316   -8.8507    1.8015 H   0  0  0  0  0  0  0  0  0  0  0  0
    5.1495   -4.3687   -2.0116 H   0  0  0  0  0  0  0  0  0  0  0  0
  1  2  1  0
  2 17  2  0
  2  3  1  0
  3  4  2  0
  3 18  1  0
  4 16  1  0
  4  5  1  0
  5  6  1  0
  6  7  1  0
  6 15  2  0
  7 14  1  0
  7  8  1  0
  7 19  1  1
  8  9  2  0
  8 20  1  0
  9 10  1  0
  9 21  1  0
 10 14  2  0
 10 11  1  0
 11 12  2  0
 11 22  1  0
 12 13  1  0
 13 14  1  0
 15 16  1  0
 16 17  1  0
 17 23  1  0
M  CHG  2   1  -1   2   1
M  END
>  <i_m_ct_stereo_status>  (85) 
1

>  <s_m_source_file>  (85) 
/var/tmp/pbs.5083856.sched01/tmpp8qaxpgj/357889e9et.sdf

>  <i_m_source_file_index>  (85) 
1

>  <i_lp_mmshare_version>  (85) 
48012

>  <i_f3d_flags>  (85) 
0

>  <s_epik_input>  (85) 
W08tXVtuK10oW2NIXTEpW2NIXW4oYzEyKW5jKHMyKVtDQEhdKFtDSF09W0NIXTMpYyhjMzQpc25bY0hdNA==

>  <s_epik_cmdline>  (85) 
J2VwaWtfcHl0aG9uJywgJy1waHQnLCAnMi4wJywgJy1waCcsICc3LjAnLCAnLXRuJywgJzgnLCAnLW1hJywgJzIwMCcsICctaW1hZScsICc8aW5maWxlLm1hZT4nLCAnLW9tYWUnLCAnPG91dGZpbGUubWFlPic=

>  <r_lp_tautomer_probability>  (85) 
1

>  <r_epik_Ionization_Penalty>  (85) 
5.23496e-09

>  <r_epik_Ionization_Penalty_Charging>  (85) 
1.22068e-10

>  <r_epik_Ionization_Penalty_Neutral>  (85) 
5.11289e-09

>  <r_epik_State_Penalty>  (85) 
-0

>  <r_epik_Charging_Adjusted_Penalty>  (85) 
1.22068e-10

>  <i_epik_Tot_Q>  (85) 
0

>  <i_epik_Tot_abs_Q>  (85) 
2

>  <s_lp_Force_Field>  (85) 
OPLS3e

>  <r_lp_Energy>  (85) 
3.20099

>  <b_lp_Chiralities_Consistent>  (85) 
1

>  <s_lp_Variant>  (85) 
26:0-1

>  <s_i_glide_gridfile>  (85) 
pfpi4k_grid

>  <i_i_glide_lignum>  (85) 
1

>  <i_i_glide_rotatable_bonds>  (85) 
1

>  <r_i_docking_score>  (85) 
-4.55511

>  <r_i_glide_ligand_efficiency>  (85) 
-0.267947

>  <r_i_glide_ligand_efficiency_sa>  (85) 
-0.688968

>  <r_i_glide_ligand_efficiency_ln>  (85) 
-1.18833

>  <r_i_glide_gscore>  (85) 
-4.55511

>  <r_i_glide_lipo>  (85) 
-0.162891

>  <r_i_glide_hbond>  (85) 
-0.287577

>  <r_i_glide_metal>  (85) 
-0

>  <r_i_glide_rewards>  (85) 
-1.72329

>  <r_i_glide_evdw>  (85) 
-18.4076

>  <r_i_glide_ecoul>  (85) 
-11.428

>  <r_i_glide_erotb>  (85) 
0.257788

>  <r_i_glide_esite>  (85) 
-0.00455043

>  <r_i_glide_emodel>  (85) 
-38.8553

>  <r_i_glide_energy>  (85) 
-29.8357

>  <r_i_glide_einternal>  (85) 
0.0629815

>  <r_i_glide_intrahb_reward>  (85) 
-0

>  <i_i_glide_confnum>  (85) 
4

>  <i_i_glide_posenum>  (85) 
4

>  <r_i_glide_eff_state_penalty>  (85) 
0

>  <ligand_id>  (85) 
26

>  <original_smiles>  (85) 
[O-][n+]1cc2sc(C3C=Cc4cnsc43)nn2c1

>  <smiles>  (85) 
[H]C1=C([H])C([H])(c2nn3c([H])[n+]([O-])c([H])c3s2)c2snc([H])c21

$$$$
26:0:2
     RDKit          3D

 23 26  0  0  1  0  0  0  0  0999 V2000
   -0.5835   -2.6617    9.5470 O   0  0  0  0  0  0  0  0  0  0  0  0
   -0.3281   -3.7965    8.9976 N   0  0  0  0  0  0  0  0  0  0  0  0
    0.0226   -4.9957    9.6939 C   0  0  0  0  0  0  0  0  0  0  0  0
    0.2031   -5.9199    8.6567 C   0  0  0  0  0  0  0  0  0  0  0  0
    0.6197   -7.5968    8.5487 S   0  0  0  0  0  0  0  0  0  0  0  0
    0.4512   -7.3755    6.7535 C   0  0  0  0  0  0  0  0  0  0  0  0
    0.6151   -8.5409    5.7851 C   0  0  2  0  0  0  0  0  0  0  0  0
    2.0614   -8.8711    5.4050 C   0  0  0  0  0  0  0  0  0  0  0  0
    2.2801   -8.8623    4.0746 C   0  0  0  0  0  0  0  0  0  0  0  0
    1.0337   -8.4788    3.4421 C   0  0  0  0  0  0  0  0  0  0  0  0
    0.5480   -8.2458    2.1270 C   0  0  0  0  0  0  0  0  0  0  0  0
   -0.7158   -7.8454    2.0926 N   0  0  0  0  0  0  0  0  0  0  0  0
   -1.3637   -7.8281    3.6712 S   0  0  0  0  0  0  0  0  0  0  0  0
    0.1251   -8.2899    4.4050 C   0  0  0  0  0  0  0  0  0  0  0  0
    0.1244   -6.1213    6.3635 N   0  0  0  0  0  0  0  0  0  0  0  0
   -0.0068   -5.3783    7.4751 N   0  0  0  0  0  0  0  0  0  0  0  0
   -0.3426   -4.0624    7.6424 C   0  0  0  0  0  0  0  0  0  0  0  0
    0.0956   -5.0258   10.7736 H   0  0  0  0  0  0  0  0  0  0  0  0
    0.1399   -9.4304    6.1994 H   0  0  0  0  0  0  0  0  0  0  0  0
    2.8054   -9.1335    6.1414 H   0  0  0  0  0  0  0  0  0  0  0  0
    3.1874   -9.0913    3.5371 H   0  0  0  0  0  0  0  0  0  0  0  0
    1.0951   -8.3417    1.1994 H   0  0  0  0  0  0  0  0  0  0  0  0
   -0.5653   -3.3687    6.8534 H   0  0  0  0  0  0  0  0  0  0  0  0
  1  2  1  0
  2 17  2  0
  2  3  1  0
  3  4  2  0
  3 18  1  0
  4 16  1  0
  4  5  1  0
  5  6  1  0
  6  7  1  0
  6 15  2  0
  7 14  1  0
  7  8  1  0
  7 19  1  1
  8  9  2  0
  8 20  1  0
  9 10  1  0
  9 21  1  0
 10 14  2  0
 10 11  1  0
 11 12  2  0
 11 22  1  0
 12 13  1  0
 13 14  1  0
 15 16  1  0
 16 17  1  0
 17 23  1  0
M  CHG  2   1  -1   2   1
M  END
>  <i_m_ct_stereo_status>  (86) 
1

>  <s_m_source_file>  (86) 
/var/tmp/pbs.5083856.sched01/tmpp8qaxpgj/357889e9et.sdf

>  <i_m_source_file_index>  (86) 
1

>  <i_lp_mmshare_version>  (86) 
48012

>  <i_f3d_flags>  (86) 
0

>  <s_epik_input>  (86) 
W08tXVtuK10oW2NIXTEpW2NIXW4oYzEyKW5jKHMyKVtDQEhdKFtDSF09W0NIXTMpYyhjMzQpc25bY0hdNA==

>  <s_epik_cmdline>  (86) 
J2VwaWtfcHl0aG9uJywgJy1waHQnLCAnMi4wJywgJy1waCcsICc3LjAnLCAnLXRuJywgJzgnLCAnLW1hJywgJzIwMCcsICctaW1hZScsICc8aW5maWxlLm1hZT4nLCAnLW9tYWUnLCAnPG91dGZpbGUubWFlPic=

>  <r_lp_tautomer_probability>  (86) 
1

>  <r_epik_Ionization_Penalty>  (86) 
5.23496e-09

>  <r_epik_Ionization_Penalty_Charging>  (86) 
1.22068e-10

>  <r_epik_Ionization_Penalty_Neutral>  (86) 
5.11289e-09

>  <r_epik_State_Penalty>  (86) 
-0

>  <r_epik_Charging_Adjusted_Penalty>  (86) 
1.22068e-10

>  <i_epik_Tot_Q>  (86) 
0

>  <i_epik_Tot_abs_Q>  (86) 
2

>  <s_lp_Force_Field>  (86) 
OPLS3e

>  <r_lp_Energy>  (86) 
3.20099

>  <b_lp_Chiralities_Consistent>  (86) 
1

>  <s_lp_Variant>  (86) 
26:0-1

>  <s_i_glide_gridfile>  (86) 
pfpi4k_grid

>  <i_i_glide_lignum>  (86) 
1

>  <i_i_glide_rotatable_bonds>  (86) 
1

>  <r_i_docking_score>  (86) 
-4.26596

>  <r_i_glide_ligand_efficiency>  (86) 
-0.250939

>  <r_i_glide_ligand_efficiency_sa>  (86) 
-0.645234

>  <r_i_glide_ligand_efficiency_ln>  (86) 
-1.11289

>  <r_i_glide_gscore>  (86) 
-4.26596

>  <r_i_glide_lipo>  (86) 
0

>  <r_i_glide_hbond>  (86) 
-0.2

>  <r_i_glide_metal>  (86) 
-0

>  <r_i_glide_rewards>  (86) 
-1.63555

>  <r_i_glide_evdw>  (86) 
-18.7921

>  <r_i_glide_ecoul>  (86) 
-11.2461

>  <r_i_glide_erotb>  (86) 
0.257788

>  <r_i_glide_esite>  (86) 
-0.0616742

>  <r_i_glide_emodel>  (86) 
-38.2682

>  <r_i_glide_energy>  (86) 
-30.0382

>  <r_i_glide_einternal>  (86) 
0.423658

>  <r_i_glide_intrahb_reward>  (86) 
-0

>  <i_i_glide_confnum>  (86) 
4

>  <i_i_glide_posenum>  (86) 
24

>  <r_i_glide_eff_state_penalty>  (86) 
0

>  <ligand_id>  (86) 
26

>  <original_smiles>  (86) 
[O-][n+]1cc2sc(C3C=Cc4cnsc43)nn2c1

>  <smiles>  (86) 
[H]C1=C([H])C([H])(c2nn3c([H])[n+]([O-])c([H])c3s2)c2snc([H])c21

$$$$
27:0:0
     RDKit          3D

 37 39  0  0  1  0  0  0  0  0999 V2000
    1.8352   -1.6659    2.2400 C   0  0  0  0  0  0  0  0  0  0  0  0
    2.7047   -2.9287    2.2970 C   0  0  2  0  0  0  0  0  0  0  0  0
    3.1131   -3.2440    3.6300 O   0  0  0  0  0  0  0  0  0  0  0  0
    4.1092   -2.4370    4.2694 C   0  0  0  0  0  0  0  0  0  0  0  0
    3.4147   -1.3611    5.1183 C   0  0  0  0  0  0  0  0  0  0  0  0
    4.8993   -3.3959    5.1716 C   0  0  0  0  0  0  0  0  0  0  0  0
    5.0687   -1.8123    3.2791 C   0  0  0  0  0  0  0  0  0  0  0  0
    5.0191   -2.0457    1.9601 C   0  0  0  0  0  0  0  0  0  0  0  0
    5.9589   -1.4118    0.9755 C   0  0  1  0  0  0  0  0  0  0  0  0
    7.0815   -2.3306    0.4683 C   0  0  0  0  0  0  0  0  0  0  0  0
    7.7890   -1.8704   -0.4536 O   0  0  0  0  0  0  0  0  0  0  0  0
    7.2138   -3.4685    0.9663 O   0  0  0  0  0  0  0  0  0  0  0  0
    5.1896   -0.8340   -0.1017 N   0  0  0  0  0  0  0  0  0  0  0  0
    4.2003   -1.5199   -0.7870 C   0  0  0  0  0  0  0  0  0  0  0  0
    3.8751   -1.1971   -1.9974 N   0  0  0  0  0  0  0  0  0  0  0  0
    2.9353   -1.9684   -2.6666 C   0  0  0  0  0  0  0  0  0  0  0  0
    2.4067   -3.0800   -2.1202 C   0  0  0  0  0  0  0  0  0  0  0  0
    2.7874   -3.4866   -0.7650 C   0  0  0  0  0  0  0  0  0  0  0  0
    2.3625   -4.5259   -0.2557 O   0  0  0  0  0  0  0  0  0  0  0  0
    3.6065   -2.6231   -0.0965 N   0  0  0  0  0  0  0  0  0  0  0  0
    3.9344   -2.9117    1.3455 C   0  0  2  0  0  0  0  0  0  0  0  0
    1.3283   -1.6051    1.2787 H   0  0  0  0  0  0  0  0  0  0  0  0
    2.4294   -0.7620    2.3459 H   0  0  0  0  0  0  0  0  0  0  0  0
    1.0714   -1.6867    3.0160 H   0  0  0  0  0  0  0  0  0  0  0  0
    2.0642   -3.7666    2.0331 H   0  0  0  0  0  0  0  0  0  0  0  0
    4.1362   -0.8155    5.7270 H   0  0  0  0  0  0  0  0  0  0  0  0
    2.6809   -1.8106    5.7882 H   0  0  0  0  0  0  0  0  0  0  0  0
    2.8938   -0.6281    4.5056 H   0  0  0  0  0  0  0  0  0  0  0  0
    5.6792   -2.8708    5.7239 H   0  0  0  0  0  0  0  0  0  0  0  0
    5.3866   -4.1734    4.5814 H   0  0  0  0  0  0  0  0  0  0  0  0
    4.2517   -3.8902    5.8954 H   0  0  0  0  0  0  0  0  0  0  0  0
    5.8195   -1.1530    3.6826 H   0  0  0  0  0  0  0  0  0  0  0  0
    6.4512   -0.5850    1.4754 H   0  0  0  0  0  0  0  0  0  0  0  0
    5.6924   -0.1135   -0.5917 H   0  0  0  0  0  0  0  0  0  0  0  0
    2.6233   -1.5974   -3.6326 H   0  0  0  0  0  0  0  0  0  0  0  0
    1.6570   -3.6409   -2.6529 H   0  0  0  0  0  0  0  0  0  0  0  0
    4.3852   -3.9022    1.3546 H   0  0  0  0  0  0  0  0  0  0  0  0
  1  2  1  0
  1 22  1  0
  1 23  1  0
  1 24  1  0
  2 21  1  0
  2  3  1  0
  2 25  1  6
  3  4  1  0
  4  5  1  0
  4  6  1  0
  4  7  1  0
  5 26  1  0
  5 27  1  0
  5 28  1  0
  6 29  1  0
  6 30  1  0
  6 31  1  0
  7  8  2  0
  7 32  1  0
  8 21  1  0
  8  9  1  0
  9 10  1  0
  9 13  1  0
  9 33  1  1
 10 11  2  0
 10 12  1  0
 13 14  1  0
 13 34  1  0
 14 20  1  0
 14 15  2  0
 15 16  1  0
 16 17  2  0
 16 35  1  0
 17 18  1  0
 17 36  1  0
 18 19  2  0
 18 20  1  0
 20 21  1  0
 21 37  1  6
M  CHG  1  12  -1
M  END
>  <i_m_ct_stereo_status>  (87) 
1

>  <s_m_source_file>  (87) 
/var/tmp/pbs.5083856.sched01/tmpp8qaxpgj/357889e9et.sdf

>  <i_m_source_file_index>  (87) 
2

>  <i_lp_mmshare_version>  (87) 
48012

>  <i_f3d_flags>  (87) 
0

>  <s_epik_input>  (87) 
W0NIM11DKFtDSDNdKShbQ0hdPTEpT1tDQEBIXShbQ0gzXSlbQ0BIXShDMTIpbjNjKFtOSF1bQ0BASF0yQyg9TylbT0hdKW5bY0hdW2NIXWMzPU8=

>  <s_epik_cmdline>  (87) 
J2VwaWtfcHl0aG9uJywgJy1waHQnLCAnMi4wJywgJy1waCcsICc3LjAnLCAnLXRuJywgJzgnLCAnLW1hJywgJzIwMCcsICctaW1hZScsICc8aW5maWxlLm1hZT4nLCAnLW9tYWUnLCAnPG91dGZpbGUubWFlPic=

>  <r_lp_tautomer_probability>  (87) 
1

>  <r_epik_Ionization_Penalty>  (87) 
0.000485369

>  <r_epik_Ionization_Penalty_Charging>  (87) 
0.00035822

>  <r_epik_Ionization_Penalty_Neutral>  (87) 
0.00012715

>  <r_epik_State_Penalty>  (87) 
-0

>  <r_epik_Charging_Adjusted_Penalty>  (87) 
0.00035822

>  <i_epik_Tot_Q>  (87) 
-1

>  <i_epik_Tot_abs_Q>  (87) 
1

>  <s_epik_Chemistry_Notes>  (87) 
This compound has an imine and may undergo hydrolysis.

>  <s_lp_Force_Field>  (87) 
OPLS3e

>  <r_lp_Energy>  (87) 
29.1421

>  <b_lp_Chiralities_Consistent>  (87) 
1

>  <s_lp_Variant>  (87) 
27:0-1

>  <s_i_glide_gridfile>  (87) 
pfpi4k_grid

>  <i_i_glide_lignum>  (87) 
2

>  <i_i_glide_rotatable_bonds>  (87) 
1

>  <r_i_docking_score>  (87) 
-4.00174

>  <r_i_glide_ligand_efficiency>  (87) 
-0.190559

>  <r_i_glide_ligand_efficiency_sa>  (87) 
-0.525738

>  <r_i_glide_ligand_efficiency_ln>  (87) 
-0.989421

>  <r_i_glide_gscore>  (87) 
-4.00174

>  <r_i_glide_lipo>  (87) 
-0.357746

>  <r_i_glide_hbond>  (87) 
-0.359285

>  <r_i_glide_metal>  (87) 
-0

>  <r_i_glide_rewards>  (87) 
-1.57951

>  <r_i_glide_evdw>  (87) 
-21.5642

>  <r_i_glide_ecoul>  (87) 
-3.71684

>  <r_i_glide_erotb>  (87) 
0

>  <r_i_glide_esite>  (87) 
-0.069459

>  <r_i_glide_emodel>  (87) 
-32.2196

>  <r_i_glide_energy>  (87) 
-25.281

>  <r_i_glide_einternal>  (87) 
0.220301

>  <r_i_glide_intrahb_reward>  (87) 
-0

>  <i_i_glide_confnum>  (87) 
1

>  <i_i_glide_posenum>  (87) 
4

>  <r_i_glide_eff_state_penalty>  (87) 
0

>  <ligand_id>  (87) 
27

>  <original_smiles>  (87) 
CC1OC(C)(C)C=C2C(C(=O)O)Nc3nccc(=O)n3C21

>  <smiles>  (87) 
[H]C1=C2C([H])(C(=O)[O-])N([H])c3nc([H])c([H])c(=O)n3C2([H])C([H])(C([H])([H])[H])OC1(C([H])([H])[H])C([H])([H])[H]

$$$$
27:0:1
     RDKit          3D

 37 39  0  0  1  0  0  0  0  0999 V2000
    2.9707   -4.0312   -0.0472 C   0  0  0  0  0  0  0  0  0  0  0  0
    3.5933   -2.6446    0.1777 C   0  0  2  0  0  0  0  0  0  0  0  0
    3.4189   -1.7732   -0.9364 O   0  0  0  0  0  0  0  0  0  0  0  0
    4.1512   -1.9990   -2.1382 C   0  0  0  0  0  0  0  0  0  0  0  0
    3.3078   -2.8274   -3.1174 C   0  0  0  0  0  0  0  0  0  0  0  0
    4.3921   -0.6095   -2.7214 C   0  0  0  0  0  0  0  0  0  0  0  0
    5.5010   -2.6417   -1.8773 C   0  0  0  0  0  0  0  0  0  0  0  0
    5.9399   -2.9234   -0.6405 C   0  0  0  0  0  0  0  0  0  0  0  0
    7.2555   -3.5959   -0.3686 C   0  0  1  0  0  0  0  0  0  0  0  0
    8.3868   -2.6830    0.0932 C   0  0  0  0  0  0  0  0  0  0  0  0
    9.4298   -3.2654    0.4734 O   0  0  0  0  0  0  0  0  0  0  0  0
    8.1846   -1.4542    0.0860 O   0  0  0  0  0  0  0  0  0  0  0  0
    7.0416   -4.7245    0.5138 N   0  0  0  0  0  0  0  0  0  0  0  0
    6.2941   -4.6402    1.6809 C   0  0  0  0  0  0  0  0  0  0  0  0
    6.4678   -5.4828    2.6487 N   0  0  0  0  0  0  0  0  0  0  0  0
    5.7848   -5.2858    3.8410 C   0  0  0  0  0  0  0  0  0  0  0  0
    4.9858   -4.2179    4.0418 C   0  0  0  0  0  0  0  0  0  0  0  0
    4.7982   -3.2353    2.9769 C   0  0  0  0  0  0  0  0  0  0  0  0
    4.1502   -2.2062    3.1501 O   0  0  0  0  0  0  0  0  0  0  0  0
    5.3811   -3.5492    1.7747 N   0  0  0  0  0  0  0  0  0  0  0  0
    5.0874   -2.6705    0.5920 C   0  0  2  0  0  0  0  0  0  0  0  0
    2.8903   -4.5751    0.8935 H   0  0  0  0  0  0  0  0  0  0  0  0
    3.5722   -4.6385   -0.7217 H   0  0  0  0  0  0  0  0  0  0  0  0
    1.9689   -3.9391   -0.4684 H   0  0  0  0  0  0  0  0  0  0  0  0
    3.0107   -2.1665    0.9626 H   0  0  0  0  0  0  0  0  0  0  0  0
    3.7851   -2.8968   -4.0954 H   0  0  0  0  0  0  0  0  0  0  0  0
    2.3226   -2.3811   -3.2594 H   0  0  0  0  0  0  0  0  0  0  0  0
    3.1565   -3.8438   -2.7649 H   0  0  0  0  0  0  0  0  0  0  0  0
    4.9379   -0.6833   -3.6602 H   0  0  0  0  0  0  0  0  0  0  0  0
    4.9874    0.0002   -2.0427 H   0  0  0  0  0  0  0  0  0  0  0  0
    3.4665   -0.0687   -2.9187 H   0  0  0  0  0  0  0  0  0  0  0  0
    6.1107   -2.8797   -2.7408 H   0  0  0  0  0  0  0  0  0  0  0  0
    7.6353   -3.9445   -1.3207 H   0  0  0  0  0  0  0  0  0  0  0  0
    7.8423   -5.3324    0.5192 H   0  0  0  0  0  0  0  0  0  0  0  0
    5.9544   -6.0324    4.6046 H   0  0  0  0  0  0  0  0  0  0  0  0
    4.4766   -4.0950    4.9825 H   0  0  0  0  0  0  0  0  0  0  0  0
    5.3748   -1.6628    0.8840 H   0  0  0  0  0  0  0  0  0  0  0  0
  1  2  1  0
  1 22  1  0
  1 23  1  0
  1 24  1  0
  2 21  1  0
  2  3  1  0
  2 25  1  1
  3  4  1  0
  4  5  1  0
  4  6  1  0
  4  7  1  0
  5 26  1  0
  5 27  1  0
  5 28  1  0
  6 29  1  0
  6 30  1  0
  6 31  1  0
  7  8  2  0
  7 32  1  0
  8 21  1  0
  8  9  1  0
  9 10  1  0
  9 13  1  0
  9 33  1  6
 10 11  2  0
 10 12  1  0
 13 14  1  0
 13 34  1  0
 14 20  1  0
 14 15  2  0
 15 16  1  0
 16 17  2  0
 16 35  1  0
 17 18  1  0
 17 36  1  0
 18 19  2  0
 18 20  1  0
 20 21  1  0
 21 37  1  1
M  CHG  1  12  -1
M  END
>  <i_m_ct_stereo_status>  (88) 
1

>  <s_m_source_file>  (88) 
/var/tmp/pbs.5083856.sched01/tmpp8qaxpgj/357889e9et.sdf

>  <i_m_source_file_index>  (88) 
2

>  <i_lp_mmshare_version>  (88) 
48012

>  <i_f3d_flags>  (88) 
0

>  <s_epik_input>  (88) 
W0NIM11DKFtDSDNdKShbQ0hdPTEpT1tDQEBIXShbQ0gzXSlbQ0BIXShDMTIpbjNjKFtOSF1bQ0BASF0yQyg9TylbT0hdKW5bY0hdW2NIXWMzPU8=

>  <s_epik_cmdline>  (88) 
J2VwaWtfcHl0aG9uJywgJy1waHQnLCAnMi4wJywgJy1waCcsICc3LjAnLCAnLXRuJywgJzgnLCAnLW1hJywgJzIwMCcsICctaW1hZScsICc8aW5maWxlLm1hZT4nLCAnLW9tYWUnLCAnPG91dGZpbGUubWFlPic=

>  <r_lp_tautomer_probability>  (88) 
1

>  <r_epik_Ionization_Penalty>  (88) 
0.000485369

>  <r_epik_Ionization_Penalty_Charging>  (88) 
0.00035822

>  <r_epik_Ionization_Penalty_Neutral>  (88) 
0.00012715

>  <r_epik_State_Penalty>  (88) 
-0

>  <r_epik_Charging_Adjusted_Penalty>  (88) 
0.00035822

>  <i_epik_Tot_Q>  (88) 
-1

>  <i_epik_Tot_abs_Q>  (88) 
1

>  <s_epik_Chemistry_Notes>  (88) 
This compound has an imine and may undergo hydrolysis.

>  <s_lp_Force_Field>  (88) 
OPLS3e

>  <r_lp_Energy>  (88) 
29.1421

>  <b_lp_Chiralities_Consistent>  (88) 
1

>  <s_lp_Variant>  (88) 
27:0-1

>  <s_i_glide_gridfile>  (88) 
pfpi4k_grid

>  <i_i_glide_lignum>  (88) 
2

>  <i_i_glide_rotatable_bonds>  (88) 
1

>  <r_i_docking_score>  (88) 
-3.48304

>  <r_i_glide_ligand_efficiency>  (88) 
-0.165859

>  <r_i_glide_ligand_efficiency_sa>  (88) 
-0.457593

>  <r_i_glide_ligand_efficiency_ln>  (88) 
-0.861175

>  <r_i_glide_gscore>  (88) 
-3.48304

>  <r_i_glide_lipo>  (88) 
-0.366208

>  <r_i_glide_hbond>  (88) 
-0.231226

>  <r_i_glide_metal>  (88) 
-0

>  <r_i_glide_rewards>  (88) 
-1.67059

>  <r_i_glide_evdw>  (88) 
-22.6853

>  <r_i_glide_ecoul>  (88) 
-0.538338

>  <r_i_glide_erotb>  (88) 
0

>  <r_i_glide_esite>  (88) 
0

>  <r_i_glide_emodel>  (88) 
-28.9573

>  <r_i_glide_energy>  (88) 
-23.2237

>  <r_i_glide_einternal>  (88) 
0.269809

>  <r_i_glide_intrahb_reward>  (88) 
-0

>  <i_i_glide_confnum>  (88) 
1

>  <i_i_glide_posenum>  (88) 
1

>  <r_i_glide_eff_state_penalty>  (88) 
0

>  <ligand_id>  (88) 
27

>  <original_smiles>  (88) 
CC1OC(C)(C)C=C2C(C(=O)O)Nc3nccc(=O)n3C21

>  <smiles>  (88) 
[H]C1=C2C([H])(C(=O)[O-])N([H])c3nc([H])c([H])c(=O)n3C2([H])C([H])(C([H])([H])[H])OC1(C([H])([H])[H])C([H])([H])[H]

$$$$
27:0:2
     RDKit          3D

 37 39  0  0  1  0  0  0  0  0999 V2000
    4.5144   -6.2391    0.7131 C   0  0  0  0  0  0  0  0  0  0  0  0
    3.4937   -5.1053    0.5274 C   0  0  2  0  0  0  0  0  0  0  0  0
    4.0924   -3.9049    0.0278 O   0  0  0  0  0  0  0  0  0  0  0  0
    4.9142   -3.1085    0.8899 C   0  0  0  0  0  0  0  0  0  0  0  0
    6.3866   -3.5032    0.6744 C   0  0  0  0  0  0  0  0  0  0  0  0
    4.6855   -1.6525    0.4516 C   0  0  0  0  0  0  0  0  0  0  0  0
    4.5169   -3.2339    2.3485 C   0  0  0  0  0  0  0  0  0  0  0  0
    3.4767   -3.9730    2.7659 C   0  0  0  0  0  0  0  0  0  0  0  0
    3.1132   -4.1231    4.2218 C   0  0  1  0  0  0  0  0  0  0  0  0
    1.9181   -3.2692    4.6751 C   0  0  0  0  0  0  0  0  0  0  0  0
    1.9240   -2.8877    5.8675 O   0  0  0  0  0  0  0  0  0  0  0  0
    0.9958   -3.0631    3.8585 O   0  0  0  0  0  0  0  0  0  0  0  0
    2.9214   -5.5224    4.5191 N   0  0  0  0  0  0  0  0  0  0  0  0
    2.1867   -6.3945    3.7284 C   0  0  0  0  0  0  0  0  0  0  0  0
    1.6993   -7.4858    4.2204 N   0  0  0  0  0  0  0  0  0  0  0  0
    0.8764   -8.2777    3.4302 C   0  0  0  0  0  0  0  0  0  0  0  0
    0.5173   -7.9091    2.1851 C   0  0  0  0  0  0  0  0  0  0  0  0
    1.0276   -6.6675    1.6117 C   0  0  0  0  0  0  0  0  0  0  0  0
    0.6341   -6.2560    0.5186 O   0  0  0  0  0  0  0  0  0  0  0  0
    1.9528   -5.9984    2.3730 N   0  0  0  0  0  0  0  0  0  0  0  0
    2.6448   -4.7997    1.7920 C   0  0  2  0  0  0  0  0  0  0  0  0
    4.0093   -7.1972    0.8371 H   0  0  0  0  0  0  0  0  0  0  0  0
    5.1343   -6.0829    1.5952 H   0  0  0  0  0  0  0  0  0  0  0  0
    5.1620   -6.3178   -0.1604 H   0  0  0  0  0  0  0  0  0  0  0  0
    2.8329   -5.4141   -0.2799 H   0  0  0  0  0  0  0  0  0  0  0  0
    7.0575   -2.8320    1.2096 H   0  0  0  0  0  0  0  0  0  0  0  0
    6.6540   -3.4687   -0.3821 H   0  0  0  0  0  0  0  0  0  0  0  0
    6.5993   -4.5099    1.0270 H   0  0  0  0  0  0  0  0  0  0  0  0
    5.2873   -0.9587    1.0400 H   0  0  0  0  0  0  0  0  0  0  0  0
    3.6407   -1.3672    0.5851 H   0  0  0  0  0  0  0  0  0  0  0  0
    4.9304   -1.4998   -0.5989 H   0  0  0  0  0  0  0  0  0  0  0  0
    5.1246   -2.6988    3.0646 H   0  0  0  0  0  0  0  0  0  0  0  0
    3.9705   -3.7920    4.8090 H   0  0  0  0  0  0  0  0  0  0  0  0
    2.9563   -5.6944    5.5114 H   0  0  0  0  0  0  0  0  0  0  0  0
    0.5212   -9.1933    3.8819 H   0  0  0  0  0  0  0  0  0  0  0  0
   -0.1359   -8.5429    1.6100 H   0  0  0  0  0  0  0  0  0  0  0  0
    1.8567   -4.1082    1.5011 H   0  0  0  0  0  0  0  0  0  0  0  0
  1  2  1  0
  1 22  1  0
  1 23  1  0
  1 24  1  0
  2 21  1  0
  2  3  1  0
  2 25  1  6
  3  4  1  0
  4  5  1  0
  4  6  1  0
  4  7  1  0
  5 26  1  0
  5 27  1  0
  5 28  1  0
  6 29  1  0
  6 30  1  0
  6 31  1  0
  7  8  2  0
  7 32  1  0
  8 21  1  0
  8  9  1  0
  9 10  1  0
  9 13  1  0
  9 33  1  1
 10 11  2  0
 10 12  1  0
 13 14  1  0
 13 34  1  0
 14 20  1  0
 14 15  2  0
 15 16  1  0
 16 17  2  0
 16 35  1  0
 17 18  1  0
 17 36  1  0
 18 19  2  0
 18 20  1  0
 20 21  1  0
 21 37  1  6
M  CHG  1  12  -1
M  END
>  <i_m_ct_stereo_status>  (89) 
1

>  <s_m_source_file>  (89) 
/var/tmp/pbs.5083856.sched01/tmpp8qaxpgj/357889e9et.sdf

>  <i_m_source_file_index>  (89) 
2

>  <i_lp_mmshare_version>  (89) 
48012

>  <i_f3d_flags>  (89) 
0

>  <s_epik_input>  (89) 
W0NIM11DKFtDSDNdKShbQ0hdPTEpT1tDQEBIXShbQ0gzXSlbQ0BIXShDMTIpbjNjKFtOSF1bQ0BASF0yQyg9TylbT0hdKW5bY0hdW2NIXWMzPU8=

>  <s_epik_cmdline>  (89) 
J2VwaWtfcHl0aG9uJywgJy1waHQnLCAnMi4wJywgJy1waCcsICc3LjAnLCAnLXRuJywgJzgnLCAnLW1hJywgJzIwMCcsICctaW1hZScsICc8aW5maWxlLm1hZT4nLCAnLW9tYWUnLCAnPG91dGZpbGUubWFlPic=

>  <r_lp_tautomer_probability>  (89) 
1

>  <r_epik_Ionization_Penalty>  (89) 
0.000485369

>  <r_epik_Ionization_Penalty_Charging>  (89) 
0.00035822

>  <r_epik_Ionization_Penalty_Neutral>  (89) 
0.00012715

>  <r_epik_State_Penalty>  (89) 
-0

>  <r_epik_Charging_Adjusted_Penalty>  (89) 
0.00035822

>  <i_epik_Tot_Q>  (89) 
-1

>  <i_epik_Tot_abs_Q>  (89) 
1

>  <s_epik_Chemistry_Notes>  (89) 
This compound has an imine and may undergo hydrolysis.

>  <s_lp_Force_Field>  (89) 
OPLS3e

>  <r_lp_Energy>  (89) 
29.1421

>  <b_lp_Chiralities_Consistent>  (89) 
1

>  <s_lp_Variant>  (89) 
27:0-1

>  <s_i_glide_gridfile>  (89) 
pfpi4k_grid

>  <i_i_glide_lignum>  (89) 
2

>  <i_i_glide_rotatable_bonds>  (89) 
1

>  <r_i_docking_score>  (89) 
-3.07673

>  <r_i_glide_ligand_efficiency>  (89) 
-0.146511

>  <r_i_glide_ligand_efficiency_sa>  (89) 
-0.404212

>  <r_i_glide_ligand_efficiency_ln>  (89) 
-0.760714

>  <r_i_glide_gscore>  (89) 
-3.07673

>  <r_i_glide_lipo>  (89) 
-0.261775

>  <r_i_glide_hbond>  (89) 
-0.215863

>  <r_i_glide_metal>  (89) 
-0

>  <r_i_glide_rewards>  (89) 
-1.43419

>  <r_i_glide_evdw>  (89) 
-19.3726

>  <r_i_glide_ecoul>  (89) 
-1.16813

>  <r_i_glide_erotb>  (89) 
0

>  <r_i_glide_esite>  (89) 
-0.021048

>  <r_i_glide_emodel>  (89) 
-25.9221

>  <r_i_glide_energy>  (89) 
-20.5408

>  <r_i_glide_einternal>  (89) 
0.0515188

>  <r_i_glide_intrahb_reward>  (89) 
-0

>  <i_i_glide_confnum>  (89) 
1

>  <i_i_glide_posenum>  (89) 
31

>  <r_i_glide_eff_state_penalty>  (89) 
0

>  <ligand_id>  (89) 
27

>  <original_smiles>  (89) 
CC1OC(C)(C)C=C2C(C(=O)O)Nc3nccc(=O)n3C21

>  <smiles>  (89) 
[H]C1=C2C([H])(C(=O)[O-])N([H])c3nc([H])c([H])c(=O)n3C2([H])C([H])(C([H])([H])[H])OC1(C([H])([H])[H])C([H])([H])[H]

$$$$
28:0:0
     RDKit          3D

 49 53  0  0  1  0  0  0  0  0999 V2000
    2.6567   -2.8251   -3.6914 C   0  0  0  0  0  0  0  0  0  0  0  0
    3.6248   -3.0614   -2.6075 N   0  0  1  0  0  0  0  0  0  0  0  0
    5.0500   -3.0155   -3.1283 C   0  0  0  0  0  0  0  0  0  0  0  0
    6.1799   -2.9736   -2.0449 C   0  0  0  0  0  0  0  0  0  0  0  0
    5.5398   -2.9460   -0.6504 C   0  0  2  0  0  0  0  0  0  0  0  0
    5.2426   -4.4289   -0.2047 C   0  0  2  0  0  0  0  0  0  0  0  0
    3.9021   -5.0663    0.1565 C   0  0  0  0  0  0  0  0  0  0  0  0
    2.7790   -4.4911   -0.4609 O   0  0  0  0  0  0  0  0  0  0  0  0
    2.5589   -3.1235   -0.3217 C   0  0  1  0  0  0  0  0  0  0  0  0
    2.5317   -2.6025    0.9905 O   0  0  0  0  0  0  0  0  0  0  0  0
    3.6111   -2.6864    1.9483 C   0  0  0  0  0  0  0  0  0  0  0  0
    4.9892   -2.0276    1.5920 C   0  0  2  0  0  0  0  0  0  0  0  0
    5.6149   -1.4641    2.8777 C   0  0  0  0  0  0  0  0  0  0  0  0
    4.5790   -0.9711    0.5897 C   0  0  0  0  0  0  0  0  0  0  0  0
    4.5902   -1.7403   -0.7526 C   0  0  1  0  0  0  0  0  0  0  0  0
    5.0252   -0.6702   -1.5823 O   0  0  0  0  0  0  0  0  0  0  0  0
    3.3108   -2.2647   -1.3667 C   0  0  1  0  0  0  0  0  0  0  0  0
    6.0741   -2.8112    0.7721 C   0  0  1  0  0  0  0  0  0  0  0  0
    6.3729   -4.3146    0.8440 C   0  0  0  0  0  0  0  0  0  0  0  0
    6.2056   -5.0483    2.1791 C   0  0  0  0  0  0  0  0  0  0  0  0
    7.7863   -4.7049    0.3832 C   0  0  0  0  0  0  0  0  0  0  0  0
    2.7072   -1.7919   -4.0291 H   0  0  0  0  0  0  0  0  0  0  0  0
    1.6440   -3.0226   -3.3616 H   0  0  0  0  0  0  0  0  0  0  0  0
    2.8616   -3.4573   -4.5462 H   0  0  0  0  0  0  0  0  0  0  0  0
    5.2325   -3.8475   -3.7971 H   0  0  0  0  0  0  0  0  0  0  0  0
    5.1413   -2.1220   -3.7369 H   0  0  0  0  0  0  0  0  0  0  0  0
    6.8314   -3.8321   -2.1987 H   0  0  0  0  0  0  0  0  0  0  0  0
    6.8621   -2.1287   -2.1992 H   0  0  0  0  0  0  0  0  0  0  0  0
    5.6326   -5.0609   -0.9864 H   0  0  0  0  0  0  0  0  0  0  0  0
    3.9149   -6.0953   -0.2075 H   0  0  0  0  0  0  0  0  0  0  0  0
    3.7311   -5.2044    1.2168 H   0  0  0  0  0  0  0  0  0  0  0  0
    1.5127   -3.0809   -0.6114 H   0  0  0  0  0  0  0  0  0  0  0  0
    3.1975   -2.0604    2.7323 H   0  0  0  0  0  0  0  0  0  0  0  0
    3.6499   -3.6307    2.4728 H   0  0  0  0  0  0  0  0  0  0  0  0
    6.5489   -0.9377    2.6693 H   0  0  0  0  0  0  0  0  0  0  0  0
    5.8198   -2.2846    3.5626 H   0  0  0  0  0  0  0  0  0  0  0  0
    4.9571   -0.7727    3.3997 H   0  0  0  0  0  0  0  0  0  0  0  0
    3.6403   -0.4497    0.8208 H   0  0  0  0  0  0  0  0  0  0  0  0
    5.3574   -0.2050    0.6127 H   0  0  0  0  0  0  0  0  0  0  0  0
    4.5513    0.1125   -1.3424 H   0  0  0  0  0  0  0  0  0  0  0  0
    2.6619   -1.4160   -1.6143 H   0  0  0  0  0  0  0  0  0  0  0  0
    7.0096   -2.2611    0.7283 H   0  0  0  0  0  0  0  0  0  0  0  0
    7.0298   -4.8501    2.8568 H   0  0  0  0  0  0  0  0  0  0  0  0
    6.1681   -6.1292    2.0373 H   0  0  0  0  0  0  0  0  0  0  0  0
    5.3285   -4.7556    2.7263 H   0  0  0  0  0  0  0  0  0  0  0  0
    8.5274   -4.5446    1.1696 H   0  0  0  0  0  0  0  0  0  0  0  0
    8.1351   -4.1152   -0.4630 H   0  0  0  0  0  0  0  0  0  0  0  0
    7.8428   -5.7556    0.0938 H   0  0  0  0  0  0  0  0  0  0  0  0
    3.4946   -4.0290   -2.3103 H   0  0  0  0  0  0  0  0  0  0  0  0
  1  2  1  0
  1 22  1  0
  1 23  1  0
  1 24  1  0
  2 17  1  0
  2  3  1  0
  2 49  1  1
  3  4  1  0
  3 25  1  0
  3 26  1  0
  5  4  1  6
  4 27  1  0
  4 28  1  0
  5 15  1  0
  5 18  1  0
  5  6  1  0
  6 19  1  0
  6  7  1  0
  6 29  1  6
  7  8  1  0
  7 30  1  0
  7 31  1  0
  8  9  1  0
  9 17  1  0
  9 10  1  0
  9 32  1  6
 10 11  1  0
 11 12  1  0
 11 33  1  0
 11 34  1  0
 12 13  1  1
 12 14  1  0
 12 18  1  0
 13 35  1  0
 13 36  1  0
 13 37  1  0
 14 15  1  0
 14 38  1  0
 14 39  1  0
 15 16  1  6
 15 17  1  0
 16 40  1  0
 17 41  1  6
 18 19  1  0
 18 42  1  6
 19 20  1  0
 19 21  1  0
 20 43  1  0
 20 44  1  0
 20 45  1  0
 21 46  1  0
 21 47  1  0
 21 48  1  0
M  CHG  1   2   1
M  END
>  <i_m_ct_stereo_status>  (90) 
1

>  <s_m_source_file>  (90) 
/var/tmp/pbs.5083856.sched01/tmpp8qaxpgj/357889e9et.sdf

>  <i_m_source_file_index>  (90) 
3

>  <i_lp_mmshare_version>  (90) 
48012

>  <i_f3d_flags>  (90) 
0

>  <s_epik_input>  (90) 
W0NAXTEyM1tDQEBIXTRbQ0gyXU9bQ0BASF01W0NASF0oTihbQ0gzXSlbQ0gyXVtDSDJdMSlbQ0BAXTIoW09IXSlbQ0gyXVtDQF0oW0NIMl1PNSkoW0NIM10pW0NASF0zQzQoW0NIM10pW0NIM10=

>  <s_epik_cmdline>  (90) 
J2VwaWtfcHl0aG9uJywgJy1waHQnLCAnMi4wJywgJy1waCcsICc3LjAnLCAnLXRuJywgJzgnLCAnLW1hJywgJzIwMCcsICctaW1hZScsICc8aW5maWxlLm1hZT4nLCAnLW9tYWUnLCAnPG91dGZpbGUubWFlPic=

>  <r_epik_Ionization_Penalty>  (90) 
0.0295324

>  <r_epik_Ionization_Penalty_Charging>  (90) 
0.0295324

>  <r_epik_Ionization_Penalty_Neutral>  (90) 
1.9664e-08

>  <r_epik_State_Penalty>  (90) 
0.0242994

>  <r_epik_Charging_Adjusted_Penalty>  (90) 
0.0538319

>  <i_epik_Tot_Q>  (90) 
1

>  <i_epik_Tot_abs_Q>  (90) 
1

>  <s_epik_Chemistry_Notes>  (90) 
This compound contains an acetal/aminal-like group ( X-CH(R)-Y where X, Y are N, S, or O) that may be acid/base labile, releasing an aldehyde.

>  <s_lp_Force_Field>  (90) 
OPLS3e

>  <r_lp_Energy>  (90) 
119.519

>  <b_lp_Chiralities_Consistent>  (90) 
1

>  <s_lp_Variant>  (90) 
28:0-1

>  <s_i_glide_gridfile>  (90) 
pfpi4k_grid

>  <i_i_glide_lignum>  (90) 
3

>  <i_i_glide_rotatable_bonds>  (90) 
1

>  <r_i_docking_score>  (90) 
-4.30935

>  <r_i_glide_ligand_efficiency>  (90) 
-0.205207

>  <r_i_glide_ligand_efficiency_sa>  (90) 
-0.566151

>  <r_i_glide_ligand_efficiency_ln>  (90) 
-1.06548

>  <r_i_glide_gscore>  (90) 
-4.30935

>  <r_i_glide_lipo>  (90) 
-1.14797

>  <r_i_glide_hbond>  (90) 
-0.10925

>  <r_i_glide_metal>  (90) 
-0

>  <r_i_glide_rewards>  (90) 
-1.40176

>  <r_i_glide_evdw>  (90) 
-18.8032

>  <r_i_glide_ecoul>  (90) 
-4.25053

>  <r_i_glide_erotb>  (90) 
0

>  <r_i_glide_esite>  (90) 
-0.0726334

>  <r_i_glide_emodel>  (90) 
-30.0274

>  <r_i_glide_energy>  (90) 
-23.0538

>  <r_i_glide_einternal>  (90) 
0.555533

>  <r_i_glide_intrahb_reward>  (90) 
-0

>  <i_i_glide_confnum>  (90) 
1

>  <i_i_glide_posenum>  (90) 
6

>  <r_i_glide_eff_state_penalty>  (90) 
0

>  <ligand_id>  (90) 
28

>  <original_smiles>  (90) 
CN1CCC23C4COC5OCC(C)(CC2(O)C51)C3C4(C)C

>  <smiles>  (90) 
[H]OC12C([H])([H])C3(C([H])([H])[H])C([H])([H])OC4([H])OC([H])([H])C5([H])C(C([H])([H])[H])(C([H])([H])[H])C3([H])C51C([H])([H])C([H])([H])[N+]([H])(C([H])([H])[H])C42[H]

$$$$
28:0:1
     RDKit          3D

 49 53  0  0  1  0  0  0  0  0999 V2000
    4.0841   -2.4547   -3.2831 C   0  0  0  0  0  0  0  0  0  0  0  0
    4.5528   -2.9167   -1.9683 N   0  0  1  0  0  0  0  0  0  0  0  0
    6.0650   -3.0617   -1.9461 C   0  0  0  0  0  0  0  0  0  0  0  0
    6.7214   -3.2748   -0.5453 C   0  0  0  0  0  0  0  0  0  0  0  0
    5.6261   -3.2543    0.5178 C   0  0  2  0  0  0  0  0  0  0  0  0
    5.0104   -4.7033    0.6448 C   0  0  2  0  0  0  0  0  0  0  0  0
    3.5647   -5.1406    0.4345 C   0  0  0  0  0  0  0  0  0  0  0  0
    2.8439   -4.3493   -0.4747 O   0  0  0  0  0  0  0  0  0  0  0  0
    2.7300   -2.9873   -0.2291 C   0  0  1  0  0  0  0  0  0  0  0  0
    2.2991   -2.5681    1.0498 O   0  0  0  0  0  0  0  0  0  0  0  0
    2.9398   -2.8873    2.3070 C   0  0  0  0  0  0  0  0  0  0  0  0
    4.4238   -2.4353    2.5377 C   0  0  2  0  0  0  0  0  0  0  0  0
    4.6185   -2.0837    4.0255 C   0  0  0  0  0  0  0  0  0  0  0  0
    4.5345   -1.2504    1.5973 C   0  0  0  0  0  0  0  0  0  0  0  0
    4.9287   -1.8982    0.2471 C   0  0  1  0  0  0  0  0  0  0  0  0
    5.7351   -0.8269   -0.2560 O   0  0  0  0  0  0  0  0  0  0  0  0
    3.9006   -2.1707   -0.8290 C   0  0  1  0  0  0  0  0  0  0  0  0
    5.6193   -3.3137    2.0388 C   0  0  1  0  0  0  0  0  0  0  0  0
    5.6901   -4.8495    2.0260 C   0  0  0  0  0  0  0  0  0  0  0  0
    4.9710   -5.6343    3.1301 C   0  0  0  0  0  0  0  0  0  0  0  0
    7.1112   -5.4318    2.0256 C   0  0  0  0  0  0  0  0  0  0  0  0
    4.3841   -1.4228   -3.4528 H   0  0  0  0  0  0  0  0  0  0  0  0
    3.0024   -2.5008   -3.3536 H   0  0  0  0  0  0  0  0  0  0  0  0
    4.4993   -3.0526   -4.0847 H   0  0  0  0  0  0  0  0  0  0  0  0
    6.3735   -3.8522   -2.6201 H   0  0  0  0  0  0  0  0  0  0  0  0
    6.5074   -2.1552   -2.3399 H   0  0  0  0  0  0  0  0  0  0  0  0
    7.2703   -4.2097   -0.5591 H   0  0  0  0  0  0  0  0  0  0  0  0
    7.5059   -2.5319   -0.3460 H   0  0  0  0  0  0  0  0  0  0  0  0
    5.5827   -5.3362   -0.0216 H   0  0  0  0  0  0  0  0  0  0  0  0
    3.5758   -6.1284   -0.0242 H   0  0  0  0  0  0  0  0  0  0  0  0
    3.0004   -5.3156    1.3388 H   0  0  0  0  0  0  0  0  0  0  0  0
    1.8618   -2.7788   -0.8493 H   0  0  0  0  0  0  0  0  0  0  0  0
    2.3534   -2.2586    2.9675 H   0  0  0  0  0  0  0  0  0  0  0  0
    2.6687   -3.8598    2.6909 H   0  0  0  0  0  0  0  0  0  0  0  0
    5.6151   -1.6850    4.2137 H   0  0  0  0  0  0  0  0  0  0  0  0
    4.5049   -2.9756    4.6449 H   0  0  0  0  0  0  0  0  0  0  0  0
    3.9004   -1.3434    4.3741 H   0  0  0  0  0  0  0  0  0  0  0  0
    3.6495   -0.5998    1.5569 H   0  0  0  0  0  0  0  0  0  0  0  0
    5.3432   -0.6269    1.9857 H   0  0  0  0  0  0  0  0  0  0  0  0
    5.1963   -0.0492   -0.3251 H   0  0  0  0  0  0  0  0  0  0  0  0
    3.4796   -1.2134   -1.1662 H   0  0  0  0  0  0  0  0  0  0  0  0
    6.5676   -2.9109    2.3800 H   0  0  0  0  0  0  0  0  0  0  0  0
    5.5245   -5.5993    4.0708 H   0  0  0  0  0  0  0  0  0  0  0  0
    4.8537   -6.6841    2.8549 H   0  0  0  0  0  0  0  0  0  0  0  0
    3.9945   -5.2571    3.3610 H   0  0  0  0  0  0  0  0  0  0  0  0
    7.5347   -5.4686    3.0313 H   0  0  0  0  0  0  0  0  0  0  0  0
    7.8154   -4.8353    1.4452 H   0  0  0  0  0  0  0  0  0  0  0  0
    7.1385   -6.4475    1.6267 H   0  0  0  0  0  0  0  0  0  0  0  0
    4.2045   -3.8672   -1.8522 H   0  0  0  0  0  0  0  0  0  0  0  0
  1  2  1  0
  1 22  1  0
  1 23  1  0
  1 24  1  0
  2 17  1  0
  2  3  1  0
  2 49  1  1
  3  4  1  0
  3 25  1  0
  3 26  1  0
  5  4  1  6
  4 27  1  0
  4 28  1  0
  5 15  1  0
  5 18  1  0
  5  6  1  0
  6 19  1  0
  6  7  1  0
  6 29  1  6
  7  8  1  0
  7 30  1  0
  7 31  1  0
  8  9  1  0
  9 17  1  0
  9 10  1  0
  9 32  1  6
 10 11  1  0
 11 12  1  0
 11 33  1  0
 11 34  1  0
 12 13  1  1
 12 14  1  0
 12 18  1  0
 13 35  1  0
 13 36  1  0
 13 37  1  0
 14 15  1  0
 14 38  1  0
 14 39  1  0
 15 16  1  6
 15 17  1  0
 16 40  1  0
 17 41  1  6
 18 19  1  0
 18 42  1  1
 19 20  1  0
 19 21  1  0
 20 43  1  0
 20 44  1  0
 20 45  1  0
 21 46  1  0
 21 47  1  0
 21 48  1  0
M  CHG  1   2   1
M  END
>  <i_m_ct_stereo_status>  (91) 
1

>  <s_m_source_file>  (91) 
/var/tmp/pbs.5083856.sched01/tmpp8qaxpgj/357889e9et.sdf

>  <i_m_source_file_index>  (91) 
3

>  <i_lp_mmshare_version>  (91) 
48012

>  <i_f3d_flags>  (91) 
0

>  <s_epik_input>  (91) 
W0NAXTEyM1tDQEBIXTRbQ0gyXU9bQ0BASF01W0NASF0oTihbQ0gzXSlbQ0gyXVtDSDJdMSlbQ0BAXTIoW09IXSlbQ0gyXVtDQF0oW0NIMl1PNSkoW0NIM10pW0NASF0zQzQoW0NIM10pW0NIM10=

>  <s_epik_cmdline>  (91) 
J2VwaWtfcHl0aG9uJywgJy1waHQnLCAnMi4wJywgJy1waCcsICc3LjAnLCAnLXRuJywgJzgnLCAnLW1hJywgJzIwMCcsICctaW1hZScsICc8aW5maWxlLm1hZT4nLCAnLW9tYWUnLCAnPG91dGZpbGUubWFlPic=

>  <r_epik_Ionization_Penalty>  (91) 
0.0295324

>  <r_epik_Ionization_Penalty_Charging>  (91) 
0.0295324

>  <r_epik_Ionization_Penalty_Neutral>  (91) 
1.9664e-08

>  <r_epik_State_Penalty>  (91) 
0.0242994

>  <r_epik_Charging_Adjusted_Penalty>  (91) 
0.0538319

>  <i_epik_Tot_Q>  (91) 
1

>  <i_epik_Tot_abs_Q>  (91) 
1

>  <s_epik_Chemistry_Notes>  (91) 
This compound contains an acetal/aminal-like group ( X-CH(R)-Y where X, Y are N, S, or O) that may be acid/base labile, releasing an aldehyde.

>  <s_lp_Force_Field>  (91) 
OPLS3e

>  <r_lp_Energy>  (91) 
119.519

>  <b_lp_Chiralities_Consistent>  (91) 
1

>  <s_lp_Variant>  (91) 
28:0-1

>  <s_i_glide_gridfile>  (91) 
pfpi4k_grid

>  <i_i_glide_lignum>  (91) 
3

>  <i_i_glide_rotatable_bonds>  (91) 
1

>  <r_i_docking_score>  (91) 
-3.52869

>  <r_i_glide_ligand_efficiency>  (91) 
-0.168033

>  <r_i_glide_ligand_efficiency_sa>  (91) 
-0.46359

>  <r_i_glide_ligand_efficiency_ln>  (91) 
-0.872461

>  <r_i_glide_gscore>  (91) 
-3.52869

>  <r_i_glide_lipo>  (91) 
-0.755468

>  <r_i_glide_hbond>  (91) 
-0.122371

>  <r_i_glide_metal>  (91) 
-0

>  <r_i_glide_rewards>  (91) 
-1.40176

>  <r_i_glide_evdw>  (91) 
-15.0953

>  <r_i_glide_ecoul>  (91) 
-3.02394

>  <r_i_glide_erotb>  (91) 
0

>  <r_i_glide_esite>  (91) 
-0.0407384

>  <r_i_glide_emodel>  (91) 
-24.0463

>  <r_i_glide_energy>  (91) 
-18.1192

>  <r_i_glide_einternal>  (91) 
0.0129156

>  <r_i_glide_intrahb_reward>  (91) 
-0

>  <i_i_glide_confnum>  (91) 
2

>  <i_i_glide_posenum>  (91) 
19

>  <r_i_glide_eff_state_penalty>  (91) 
0

>  <ligand_id>  (91) 
28

>  <original_smiles>  (91) 
CN1CCC23C4COC5OCC(C)(CC2(O)C51)C3C4(C)C

>  <smiles>  (91) 
[H]OC12C([H])([H])C3(C([H])([H])[H])C([H])([H])OC4([H])OC([H])([H])C5([H])C(C([H])([H])[H])(C([H])([H])[H])C3([H])C51C([H])([H])C([H])([H])[N+]([H])(C([H])([H])[H])C42[H]

$$$$
28:0:2
     RDKit          3D

 49 53  0  0  1  0  0  0  0  0999 V2000
    3.5565   -3.4237   -2.6329 C   0  0  0  0  0  0  0  0  0  0  0  0
    4.2084   -3.8063   -1.3564 N   0  0  1  0  0  0  0  0  0  0  0  0
    5.6688   -3.3836   -1.3516 C   0  0  0  0  0  0  0  0  0  0  0  0
    6.4000   -3.4815    0.0338 C   0  0  0  0  0  0  0  0  0  0  0  0
    5.3799   -3.9286    1.1000 C   0  0  2  0  0  0  0  0  0  0  0  0
    5.3459   -5.5088    1.1107 C   0  0  2  0  0  0  0  0  0  0  0  0
    4.1295   -6.4167    0.8874 C   0  0  0  0  0  0  0  0  0  0  0  0
    3.1496   -5.8617    0.0796 O   0  0  0  0  0  0  0  0  0  0  0  0
    2.5806   -4.6372    0.3900 C   0  0  1  0  0  0  0  0  0  0  0  0
    2.0505   -4.4932    1.6932 O   0  0  0  0  0  0  0  0  0  0  0  0
    2.7879   -4.6693    2.9198 C   0  0  0  0  0  0  0  0  0  0  0  0
    4.0186   -3.7513    3.1799 C   0  0  2  0  0  0  0  0  0  0  0  0
    4.1412   -3.4619    4.6882 C   0  0  0  0  0  0  0  0  0  0  0  0
    3.6927   -2.5300    2.3379 C   0  0  0  0  0  0  0  0  0  0  0  0
    4.2608   -2.8870    0.9380 C   0  0  1  0  0  0  0  0  0  0  0  0
    4.6152   -1.5708    0.5221 O   0  0  0  0  0  0  0  0  0  0  0  0
    3.3606   -3.4214   -0.1489 C   0  0  1  0  0  0  0  0  0  0  0  0
    5.4311   -4.1051    2.6112 C   0  0  1  0  0  0  0  0  0  0  0  0
    6.0512   -5.5052    2.4780 C   0  0  0  0  0  0  0  0  0  0  0  0
    5.6947   -6.5807    3.5114 C   0  0  0  0  0  0  0  0  0  0  0  0
    7.5928   -5.5485    2.4234 C   0  0  0  0  0  0  0  0  0  0  0  0
    3.4779   -2.3451   -2.7111 H   0  0  0  0  0  0  0  0  0  0  0  0
    2.5566   -3.8505   -2.6951 H   0  0  0  0  0  0  0  0  0  0  0  0
    4.1349   -3.7885   -3.4736 H   0  0  0  0  0  0  0  0  0  0  0  0
    6.2061   -3.9635   -2.0902 H   0  0  0  0  0  0  0  0  0  0  0  0
    5.7445   -2.3576   -1.6907 H   0  0  0  0  0  0  0  0  0  0  0  0
    7.2332   -4.1627   -0.0711 H   0  0  0  0  0  0  0  0  0  0  0  0
    6.8784   -2.5302    0.2981 H   0  0  0  0  0  0  0  0  0  0  0  0
    6.0715   -5.8507    0.3931 H   0  0  0  0  0  0  0  0  0  0  0  0
    4.4688   -7.2943    0.3317 H   0  0  0  0  0  0  0  0  0  0  0  0
    3.7072   -6.8581    1.7827 H   0  0  0  0  0  0  0  0  0  0  0  0
    1.6839   -4.7103   -0.2138 H   0  0  0  0  0  0  0  0  0  0  0  0
    2.0404   -4.3402    3.6348 H   0  0  0  0  0  0  0  0  0  0  0  0
    2.8915   -5.7058    3.2176 H   0  0  0  0  0  0  0  0  0  0  0  0
    4.9424   -2.7604    4.9011 H   0  0  0  0  0  0  0  0  0  0  0  0
    4.3674   -4.3784    5.2326 H   0  0  0  0  0  0  0  0  0  0  0  0
    3.2253   -3.0449    5.1039 H   0  0  0  0  0  0  0  0  0  0  0  0
    2.6397   -2.2194    2.3446 H   0  0  0  0  0  0  0  0  0  0  0  0
    4.2530   -1.6987    2.7718 H   0  0  0  0  0  0  0  0  0  0  0  0
    3.8199   -1.0674    0.3952 H   0  0  0  0  0  0  0  0  0  0  0  0
    2.6267   -2.6528   -0.4124 H   0  0  0  0  0  0  0  0  0  0  0  0
    6.1043   -3.3755    2.9899 H   0  0  0  0  0  0  0  0  0  0  0  0
    6.2280   -6.4265    4.4530 H   0  0  0  0  0  0  0  0  0  0  0  0
    5.9425   -7.5822    3.1473 H   0  0  0  0  0  0  0  0  0  0  0  0
    4.6516   -6.5896    3.7741 H   0  0  0  0  0  0  0  0  0  0  0  0
    8.0344   -5.5182    3.4212 H   0  0  0  0  0  0  0  0  0  0  0  0
    8.0245   -4.7060    1.8889 H   0  0  0  0  0  0  0  0  0  0  0  0
    7.9582   -6.4589    1.9457 H   0  0  0  0  0  0  0  0  0  0  0  0
    4.2024   -4.8128   -1.3315 H   0  0  0  0  0  0  0  0  0  0  0  0
  1  2  1  0
  1 22  1  0
  1 23  1  0
  1 24  1  0
  2 17  1  0
  2  3  1  0
  2 49  1  6
  3  4  1  0
  3 25  1  0
  3 26  1  0
  5  4  1  6
  4 27  1  0
  4 28  1  0
  5 15  1  0
  5 18  1  0
  5  6  1  0
  6 19  1  0
  6  7  1  0
  6 29  1  6
  7  8  1  0
  7 30  1  0
  7 31  1  0
  8  9  1  0
  9 17  1  0
  9 10  1  0
  9 32  1  6
 10 11  1  0
 11 12  1  0
 11 33  1  0
 11 34  1  0
 12 13  1  1
 12 14  1  0
 12 18  1  0
 13 35  1  0
 13 36  1  0
 13 37  1  0
 14 15  1  0
 14 38  1  0
 14 39  1  0
 15 16  1  6
 15 17  1  0
 16 40  1  0
 17 41  1  6
 18 19  1  0
 18 42  1  1
 19 20  1  0
 19 21  1  0
 20 43  1  0
 20 44  1  0
 20 45  1  0
 21 46  1  0
 21 47  1  0
 21 48  1  0
M  CHG  1   2   1
M  END
>  <i_m_ct_stereo_status>  (92) 
1

>  <s_m_source_file>  (92) 
/var/tmp/pbs.5083856.sched01/tmpp8qaxpgj/357889e9et.sdf

>  <i_m_source_file_index>  (92) 
3

>  <i_lp_mmshare_version>  (92) 
48012

>  <i_f3d_flags>  (92) 
0

>  <s_epik_input>  (92) 
W0NAXTEyM1tDQEBIXTRbQ0gyXU9bQ0BASF01W0NASF0oTihbQ0gzXSlbQ0gyXVtDSDJdMSlbQ0BAXTIoW09IXSlbQ0gyXVtDQF0oW0NIMl1PNSkoW0NIM10pW0NASF0zQzQoW0NIM10pW0NIM10=

>  <s_epik_cmdline>  (92) 
J2VwaWtfcHl0aG9uJywgJy1waHQnLCAnMi4wJywgJy1waCcsICc3LjAnLCAnLXRuJywgJzgnLCAnLW1hJywgJzIwMCcsICctaW1hZScsICc8aW5maWxlLm1hZT4nLCAnLW9tYWUnLCAnPG91dGZpbGUubWFlPic=

>  <r_epik_Ionization_Penalty>  (92) 
0.0295324

>  <r_epik_Ionization_Penalty_Charging>  (92) 
0.0295324

>  <r_epik_Ionization_Penalty_Neutral>  (92) 
1.9664e-08

>  <r_epik_State_Penalty>  (92) 
0.0242994

>  <r_epik_Charging_Adjusted_Penalty>  (92) 
0.0538319

>  <i_epik_Tot_Q>  (92) 
1

>  <i_epik_Tot_abs_Q>  (92) 
1

>  <s_epik_Chemistry_Notes>  (92) 
This compound contains an acetal/aminal-like group ( X-CH(R)-Y where X, Y are N, S, or O) that may be acid/base labile, releasing an aldehyde.

>  <s_lp_Force_Field>  (92) 
OPLS3e

>  <r_lp_Energy>  (92) 
119.519

>  <b_lp_Chiralities_Consistent>  (92) 
1

>  <s_lp_Variant>  (92) 
28:0-1

>  <s_i_glide_gridfile>  (92) 
pfpi4k_grid

>  <i_i_glide_lignum>  (92) 
3

>  <i_i_glide_rotatable_bonds>  (92) 
1

>  <r_i_docking_score>  (92) 
-3.1558

>  <r_i_glide_ligand_efficiency>  (92) 
-0.150276

>  <r_i_glide_ligand_efficiency_sa>  (92) 
-0.414601

>  <r_i_glide_ligand_efficiency_ln>  (92) 
-0.780266

>  <r_i_glide_gscore>  (92) 
-3.1558

>  <r_i_glide_lipo>  (92) 
-0.540412

>  <r_i_glide_hbond>  (92) 
-0.00432831

>  <r_i_glide_metal>  (92) 
-0

>  <r_i_glide_rewards>  (92) 
-1.40176

>  <r_i_glide_evdw>  (92) 
-12.3118

>  <r_i_glide_ecoul>  (92) 
-3.49458

>  <r_i_glide_erotb>  (92) 
0

>  <r_i_glide_esite>  (92) 
-0.0695338

>  <r_i_glide_emodel>  (92) 
-20.8862

>  <r_i_glide_energy>  (92) 
-15.8063

>  <r_i_glide_einternal>  (92) 
0.0216286

>  <r_i_glide_intrahb_reward>  (92) 
-0

>  <i_i_glide_confnum>  (92) 
2

>  <i_i_glide_posenum>  (92) 
39

>  <r_i_glide_eff_state_penalty>  (92) 
0

>  <ligand_id>  (92) 
28

>  <original_smiles>  (92) 
CN1CCC23C4COC5OCC(C)(CC2(O)C51)C3C4(C)C

>  <smiles>  (92) 
[H]OC12C([H])([H])C3(C([H])([H])[H])C([H])([H])OC4([H])OC([H])([H])C5([H])C(C([H])([H])[H])(C([H])([H])[H])C3([H])C51C([H])([H])C([H])([H])[N+]([H])(C([H])([H])[H])C42[H]

$$$$
28:1:0
     RDKit          3D

 48 52  0  0  1  0  0  0  0  0999 V2000
    3.8052   -1.8119   -4.4981 C   0  0  0  0  0  0  0  0  0  0  0  0
    3.7779   -1.6613   -3.0796 N   0  0  0  0  0  0  0  0  0  0  0  0
    2.5105   -2.0810   -2.4909 C   0  0  0  0  0  0  0  0  0  0  0  0
    2.4479   -3.3401   -1.5276 C   0  0  0  0  0  0  0  0  0  0  0  0
    3.7213   -3.1843   -0.6386 C   0  0  2  0  0  0  0  0  0  0  0  0
    3.3784   -2.0779    0.4386 C   0  0  2  0  0  0  0  0  0  0  0  0
    4.0590   -0.7166    0.5108 C   0  0  0  0  0  0  0  0  0  0  0  0
    4.4956   -0.3627   -0.7295 O   0  0  0  0  0  0  0  0  0  0  0  0
    5.4968   -1.0505   -1.3541 C   0  0  1  0  0  0  0  0  0  0  0  0
    6.6157   -1.4590   -0.5964 O   0  0  0  0  0  0  0  0  0  0  0  0
    6.5703   -2.3212    0.5660 C   0  0  0  0  0  0  0  0  0  0  0  0
    5.8718   -3.7103    0.4743 C   0  0  2  0  0  0  0  0  0  0  0  0
    6.5800   -4.7035    1.4220 C   0  0  0  0  0  0  0  0  0  0  0  0
    6.0157   -4.0467   -0.9851 C   0  0  0  0  0  0  0  0  0  0  0  0
    4.8388   -3.3793   -1.6788 C   0  0  1  0  0  0  0  0  0  0  0  0
    4.6509   -4.2585   -2.7735 O   0  0  0  0  0  0  0  0  0  0  0  0
    5.0089   -2.0650   -2.3810 C   0  0  1  0  0  0  0  0  0  0  0  0
    4.3143   -3.8937    0.6110 C   0  0  1  0  0  0  0  0  0  0  0  0
    3.4651   -3.0972    1.5888 C   0  0  0  0  0  0  0  0  0  0  0  0
    4.0100   -2.6512    2.9284 C   0  0  0  0  0  0  0  0  0  0  0  0
    2.1579   -3.8015    1.9289 C   0  0  0  0  0  0  0  0  0  0  0  0
    2.9451   -1.3282   -4.9541 H   0  0  0  0  0  0  0  0  0  0  0  0
    3.8094   -2.8741   -4.7644 H   0  0  0  0  0  0  0  0  0  0  0  0
    4.6930   -1.3152   -4.9194 H   0  0  0  0  0  0  0  0  0  0  0  0
    2.2304   -1.1939   -1.9264 H   0  0  0  0  0  0  0  0  0  0  0  0
    1.7422   -2.2425   -3.2425 H   0  0  0  0  0  0  0  0  0  0  0  0
    1.5212   -3.2963   -0.9311 H   0  0  0  0  0  0  0  0  0  0  0  0
    2.3791   -4.2499   -2.0852 H   0  0  0  0  0  0  0  0  0  0  0  0
    2.3200   -1.8540    0.3864 H   0  0  0  0  0  0  0  0  0  0  0  0
    3.2837    0.0194    0.7723 H   0  0  0  0  0  0  0  0  0  0  0  0
    4.7872   -0.5882    1.2904 H   0  0  0  0  0  0  0  0  0  0  0  0
    5.8196   -0.2339   -1.9857 H   0  0  0  0  0  0  0  0  0  0  0  0
    7.6407   -2.5445    0.6806 H   0  0  0  0  0  0  0  0  0  0  0  0
    6.4160   -1.7688    1.4810 H   0  0  0  0  0  0  0  0  0  0  0  0
    6.1863   -5.7146    1.3206 H   0  0  0  0  0  0  0  0  0  0  0  0
    6.4411   -4.3997    2.4579 H   0  0  0  0  0  0  0  0  0  0  0  0
    7.6593   -4.7527    1.2340 H   0  0  0  0  0  0  0  0  0  0  0  0
    6.9916   -3.8067   -1.4179 H   0  0  0  0  0  0  0  0  0  0  0  0
    5.8119   -5.1162   -1.0402 H   0  0  0  0  0  0  0  0  0  0  0  0
    4.0417   -4.9220   -2.5445 H   0  0  0  0  0  0  0  0  0  0  0  0
    5.8231   -2.2028   -3.1051 H   0  0  0  0  0  0  0  0  0  0  0  0
    4.0276   -4.9345    0.6045 H   0  0  0  0  0  0  0  0  0  0  0  0
    4.1347   -3.5003    3.6066 H   0  0  0  0  0  0  0  0  0  0  0  0
    3.3423   -1.9272    3.4060 H   0  0  0  0  0  0  0  0  0  0  0  0
    4.9854   -2.1708    2.8660 H   0  0  0  0  0  0  0  0  0  0  0  0
    2.2837   -4.5535    2.7072 H   0  0  0  0  0  0  0  0  0  0  0  0
    1.8036   -4.3290    1.0596 H   0  0  0  0  0  0  0  0  0  0  0  0
    1.4171   -3.0810    2.2732 H   0  0  0  0  0  0  0  0  0  0  0  0
  1  2  1  0
  1 22  1  0
  1 23  1  0
  1 24  1  0
  2 17  1  0
  2  3  1  0
  3  4  1  0
  3 25  1  0
  3 26  1  0
  5  4  1  6
  4 27  1  0
  4 28  1  0
  5 15  1  0
  5 18  1  0
  5  6  1  0
  6 19  1  0
  6  7  1  0
  6 29  1  6
  7  8  1  0
  7 30  1  0
  7 31  1  0
  8  9  1  0
  9 17  1  0
  9 10  1  0
  9 32  1  6
 10 11  1  0
 11 12  1  0
 11 33  1  0
 11 34  1  0
 12 13  1  1
 12 14  1  0
 12 18  1  0
 13 35  1  0
 13 36  1  0
 13 37  1  0
 14 15  1  0
 14 38  1  0
 14 39  1  0
 15 16  1  6
 15 17  1  0
 16 40  1  0
 17 41  1  6
 18 19  1  0
 18 42  1  6
 19 20  1  0
 19 21  1  0
 20 43  1  0
 20 44  1  0
 20 45  1  0
 21 46  1  0
 21 47  1  0
 21 48  1  0
M  END
>  <i_m_ct_stereo_status>  (93) 
1

>  <s_m_source_file>  (93) 
/var/tmp/pbs.5083856.sched01/tmpp8qaxpgj/357889e9et.sdf

>  <i_m_source_file_index>  (93) 
4

>  <i_lp_mmshare_version>  (93) 
48012

>  <i_f3d_flags>  (93) 
0

>  <s_epik_input>  (93) 
W0NAXTEyM1tDQEBIXTRbQ0gyXU9bQ0BASF01W0NASF0oTihbQ0gzXSlbQ0gyXVtDSDJdMSlbQ0BAXTIoW09IXSlbQ0gyXVtDQF0oW0NIMl1PNSkoW0NIM10pW0NASF0zQzQoW0NIM10pW0NIM10=

>  <s_epik_cmdline>  (93) 
J2VwaWtfcHl0aG9uJywgJy1waHQnLCAnMi4wJywgJy1waCcsICc3LjAnLCAnLXRuJywgJzgnLCAnLW1hJywgJzIwMCcsICctaW1hZScsICc8aW5maWxlLm1hZT4nLCAnLW9tYWUnLCAnPG91dGZpbGUubWFlPic=

>  <r_epik_Ionization_Penalty>  (93) 
1.79147

>  <r_epik_Ionization_Penalty_Charging>  (93) 
0

>  <r_epik_Ionization_Penalty_Neutral>  (93) 
1.79147

>  <r_epik_State_Penalty>  (93) 
1.90443

>  <r_epik_Charging_Adjusted_Penalty>  (93) 
1.90443

>  <i_epik_Tot_Q>  (93) 
0

>  <i_epik_Tot_abs_Q>  (93) 
0

>  <s_epik_Chemistry_Notes>  (93) 
This compound contains an acetal/aminal-like group ( X-CH(R)-Y where X, Y are N, S, or O) that may be acid/base labile, releasing an aldehyde.

>  <s_lp_Force_Field>  (93) 
OPLS3e

>  <r_lp_Energy>  (93) 
123.872

>  <b_lp_Chiralities_Consistent>  (93) 
1

>  <s_lp_Variant>  (93) 
28:0-2

>  <s_i_glide_gridfile>  (93) 
pfpi4k_grid

>  <i_i_glide_lignum>  (93) 
4

>  <i_i_glide_rotatable_bonds>  (93) 
1

>  <r_i_docking_score>  (93) 
-3.75657

>  <r_i_glide_ligand_efficiency>  (93) 
-0.178884

>  <r_i_glide_ligand_efficiency_sa>  (93) 
-0.493528

>  <r_i_glide_ligand_efficiency_ln>  (93) 
-0.928805

>  <r_i_glide_gscore>  (93) 
-3.75657

>  <r_i_glide_lipo>  (93) 
-0.595738

>  <r_i_glide_hbond>  (93) 
-0.444537

>  <r_i_glide_metal>  (93) 
-0

>  <r_i_glide_rewards>  (93) 
-1.40863

>  <r_i_glide_evdw>  (93) 
-7.61497

>  <r_i_glide_ecoul>  (93) 
-5.7845

>  <r_i_glide_erotb>  (93) 
0

>  <r_i_glide_esite>  (93) 
-0.0592436

>  <r_i_glide_emodel>  (93) 
-11.8108

>  <r_i_glide_energy>  (93) 
-13.3995

>  <r_i_glide_einternal>  (93) 
0.806462

>  <r_i_glide_intrahb_reward>  (93) 
-0

>  <i_i_glide_confnum>  (93) 
1

>  <i_i_glide_posenum>  (93) 
6

>  <r_i_glide_eff_state_penalty>  (93) 
0

>  <ligand_id>  (93) 
28

>  <original_smiles>  (93) 
CN1CCC23C4COC5OCC(C)(CC2(O)C51)C3C4(C)C

>  <smiles>  (93) 
[H]OC12C([H])([H])C3(C([H])([H])[H])C([H])([H])OC4([H])OC([H])([H])C5([H])C(C([H])([H])[H])(C([H])([H])[H])C3([H])C51C([H])([H])C([H])([H])N(C([H])([H])[H])C42[H]

$$$$
28:1:1
     RDKit          3D

 48 52  0  0  1  0  0  0  0  0999 V2000
    3.5397   -0.9111   -4.7189 C   0  0  0  0  0  0  0  0  0  0  0  0
    3.3093   -1.2928   -3.3417 N   0  0  0  0  0  0  0  0  0  0  0  0
    2.1451   -2.2326   -3.2008 C   0  0  0  0  0  0  0  0  0  0  0  0
    2.3229   -3.6658   -2.7014 C   0  0  0  0  0  0  0  0  0  0  0  0
    3.4427   -3.6029   -1.6448 C   0  0  2  0  0  0  0  0  0  0  0  0
    2.7969   -3.0043   -0.3333 C   0  0  2  0  0  0  0  0  0  0  0  0
    3.1401   -1.6671    0.3248 C   0  0  0  0  0  0  0  0  0  0  0  0
    3.6789   -0.7048   -0.5397 O   0  0  0  0  0  0  0  0  0  0  0  0
    4.8154   -1.0063   -1.2627 C   0  0  1  0  0  0  0  0  0  0  0  0
    5.9305   -1.4987   -0.5511 O   0  0  0  0  0  0  0  0  0  0  0  0
    5.9372   -2.7124    0.2424 C   0  0  0  0  0  0  0  0  0  0  0  0
    5.5765   -4.0711   -0.4526 C   0  0  2  0  0  0  0  0  0  0  0  0
    6.3640   -5.2139    0.2234 C   0  0  0  0  0  0  0  0  0  0  0  0
    5.9154   -3.7471   -1.8705 C   0  0  0  0  0  0  0  0  0  0  0  0
    4.6557   -3.1589   -2.4828 C   0  0  1  0  0  0  0  0  0  0  0  0
    4.7193   -3.6641   -3.8303 O   0  0  0  0  0  0  0  0  0  0  0  0
    4.5468   -1.6826   -2.6229 C   0  0  1  0  0  0  0  0  0  0  0  0
    4.1069   -4.5300   -0.6150 C   0  0  1  0  0  0  0  0  0  0  0  0
    2.9892   -4.3497    0.3975 C   0  0  0  0  0  0  0  0  0  0  0  0
    3.2919   -4.3273    1.8945 C   0  0  0  0  0  0  0  0  0  0  0  0
    1.8664   -5.4022    0.2729 C   0  0  0  0  0  0  0  0  0  0  0  0
    2.6414   -0.4738   -5.1484 H   0  0  0  0  0  0  0  0  0  0  0  0
    3.8008   -1.7859   -5.2923 H   0  0  0  0  0  0  0  0  0  0  0  0
    4.3527   -0.1917   -4.7949 H   0  0  0  0  0  0  0  0  0  0  0  0
    1.5545   -1.8636   -2.3790 H   0  0  0  0  0  0  0  0  0  0  0  0
    1.5147   -2.2447   -4.0982 H   0  0  0  0  0  0  0  0  0  0  0  0
    1.3780   -4.0217   -2.3036 H   0  0  0  0  0  0  0  0  0  0  0  0
    2.4847   -4.2599   -3.6028 H   0  0  0  0  0  0  0  0  0  0  0  0
    1.7301   -2.9751   -0.4990 H   0  0  0  0  0  0  0  0  0  0  0  0
    2.2313   -1.2195    0.7215 H   0  0  0  0  0  0  0  0  0  0  0  0
    3.7497   -1.7474    1.2077 H   0  0  0  0  0  0  0  0  0  0  0  0
    5.1382   -0.0176   -1.5419 H   0  0  0  0  0  0  0  0  0  0  0  0
    7.0071   -2.8005    0.4318 H   0  0  0  0  0  0  0  0  0  0  0  0
    5.5782   -2.5858    1.2673 H   0  0  0  0  0  0  0  0  0  0  0  0
    6.1720   -6.1757   -0.2452 H   0  0  0  0  0  0  0  0  0  0  0  0
    6.0705   -5.3464    1.2681 H   0  0  0  0  0  0  0  0  0  0  0  0
    7.4380   -5.0480    0.2074 H   0  0  0  0  0  0  0  0  0  0  0  0
    6.8349   -3.2170   -2.0435 H   0  0  0  0  0  0  0  0  0  0  0  0
    5.9453   -4.6521   -2.3856 H   0  0  0  0  0  0  0  0  0  0  0  0
    3.8397   -3.8564   -4.1135 H   0  0  0  0  0  0  0  0  0  0  0  0
    5.4029   -1.3998   -3.2383 H   0  0  0  0  0  0  0  0  0  0  0  0
    4.1152   -5.5606   -0.9325 H   0  0  0  0  0  0  0  0  0  0  0  0
    3.5354   -5.3230    2.2621 H   0  0  0  0  0  0  0  0  0  0  0  0
    2.4502   -3.9424    2.4733 H   0  0  0  0  0  0  0  0  0  0  0  0
    4.1348   -3.7062    2.1459 H   0  0  0  0  0  0  0  0  0  0  0  0
    2.1516   -6.3801    0.6788 H   0  0  0  0  0  0  0  0  0  0  0  0
    1.5260   -5.5702   -0.7549 H   0  0  0  0  0  0  0  0  0  0  0  0
    1.0289   -5.0684    0.8607 H   0  0  0  0  0  0  0  0  0  0  0  0
  1  2  1  0
  1 22  1  0
  1 23  1  0
  1 24  1  0
  2 17  1  0
  2  3  1  0
  3  4  1  0
  3 25  1  0
  3 26  1  0
  5  4  1  6
  4 27  1  0
  4 28  1  0
  5 15  1  0
  5 18  1  0
  5  6  1  0
  6 19  1  0
  6  7  1  0
  6 29  1  6
  7  8  1  0
  7 30  1  0
  7 31  1  0
  8  9  1  0
  9 17  1  0
  9 10  1  0
  9 32  1  6
 10 11  1  0
 11 12  1  0
 11 33  1  0
 11 34  1  0
 12 13  1  1
 12 14  1  0
 12 18  1  0
 13 35  1  0
 13 36  1  0
 13 37  1  0
 14 15  1  0
 14 38  1  0
 14 39  1  0
 15 16  1  6
 15 17  1  0
 16 40  1  0
 17 41  1  6
 18 19  1  0
 18 42  1  6
 19 20  1  0
 19 21  1  0
 20 43  1  0
 20 44  1  0
 20 45  1  0
 21 46  1  0
 21 47  1  0
 21 48  1  0
M  END
>  <i_m_ct_stereo_status>  (94) 
1

>  <s_m_source_file>  (94) 
/var/tmp/pbs.5083856.sched01/tmpp8qaxpgj/357889e9et.sdf

>  <i_m_source_file_index>  (94) 
4

>  <i_lp_mmshare_version>  (94) 
48012

>  <i_f3d_flags>  (94) 
0

>  <s_epik_input>  (94) 
W0NAXTEyM1tDQEBIXTRbQ0gyXU9bQ0BASF01W0NASF0oTihbQ0gzXSlbQ0gyXVtDSDJdMSlbQ0BAXTIoW09IXSlbQ0gyXVtDQF0oW0NIMl1PNSkoW0NIM10pW0NASF0zQzQoW0NIM10pW0NIM10=

>  <s_epik_cmdline>  (94) 
J2VwaWtfcHl0aG9uJywgJy1waHQnLCAnMi4wJywgJy1waCcsICc3LjAnLCAnLXRuJywgJzgnLCAnLW1hJywgJzIwMCcsICctaW1hZScsICc8aW5maWxlLm1hZT4nLCAnLW9tYWUnLCAnPG91dGZpbGUubWFlPic=

>  <r_epik_Ionization_Penalty>  (94) 
1.79147

>  <r_epik_Ionization_Penalty_Charging>  (94) 
0

>  <r_epik_Ionization_Penalty_Neutral>  (94) 
1.79147

>  <r_epik_State_Penalty>  (94) 
1.90443

>  <r_epik_Charging_Adjusted_Penalty>  (94) 
1.90443

>  <i_epik_Tot_Q>  (94) 
0

>  <i_epik_Tot_abs_Q>  (94) 
0

>  <s_epik_Chemistry_Notes>  (94) 
This compound contains an acetal/aminal-like group ( X-CH(R)-Y where X, Y are N, S, or O) that may be acid/base labile, releasing an aldehyde.

>  <s_lp_Force_Field>  (94) 
OPLS3e

>  <r_lp_Energy>  (94) 
123.872

>  <b_lp_Chiralities_Consistent>  (94) 
1

>  <s_lp_Variant>  (94) 
28:0-2

>  <s_i_glide_gridfile>  (94) 
pfpi4k_grid

>  <i_i_glide_lignum>  (94) 
4

>  <i_i_glide_rotatable_bonds>  (94) 
1

>  <r_i_docking_score>  (94) 
-2.30483

>  <r_i_glide_ligand_efficiency>  (94) 
-0.109754

>  <r_i_glide_ligand_efficiency_sa>  (94) 
-0.302802

>  <r_i_glide_ligand_efficiency_ln>  (94) 
-0.569864

>  <r_i_glide_gscore>  (94) 
-2.30483

>  <r_i_glide_lipo>  (94) 
-0.630787

>  <r_i_glide_hbond>  (94) 
-0.0294327

>  <r_i_glide_metal>  (94) 
-0

>  <r_i_glide_rewards>  (94) 
-1.40863

>  <r_i_glide_evdw>  (94) 
-4.89194

>  <r_i_glide_ecoul>  (94) 
0.358243

>  <r_i_glide_erotb>  (94) 
0

>  <r_i_glide_esite>  (94) 
-0.0451182

>  <r_i_glide_emodel>  (94) 
-3.39571

>  <r_i_glide_energy>  (94) 
-4.5337

>  <r_i_glide_einternal>  (94) 
0.738241

>  <r_i_glide_intrahb_reward>  (94) 
-0

>  <i_i_glide_confnum>  (94) 
2

>  <i_i_glide_posenum>  (94) 
17

>  <r_i_glide_eff_state_penalty>  (94) 
0

>  <ligand_id>  (94) 
28

>  <original_smiles>  (94) 
CN1CCC23C4COC5OCC(C)(CC2(O)C51)C3C4(C)C

>  <smiles>  (94) 
[H]OC12C([H])([H])C3(C([H])([H])[H])C([H])([H])OC4([H])OC([H])([H])C5([H])C(C([H])([H])[H])(C([H])([H])[H])C3([H])C51C([H])([H])C([H])([H])N(C([H])([H])[H])C42[H]

$$$$
28:1:2
     RDKit          3D

 48 52  0  0  1  0  0  0  0  0999 V2000
    4.1921   -3.4947    3.9765 C   0  0  0  0  0  0  0  0  0  0  0  0
    4.2626   -3.8579    2.5727 N   0  0  0  0  0  0  0  0  0  0  0  0
    2.9329   -4.2485    2.0050 C   0  0  0  0  0  0  0  0  0  0  0  0
    2.3016   -3.3403    0.9095 C   0  0  0  0  0  0  0  0  0  0  0  0
    3.4112   -2.8773    0.0011 C   0  0  2  0  0  0  0  0  0  0  0  0
    3.7739   -4.1369   -0.8825 C   0  0  2  0  0  0  0  0  0  0  0  0
    5.0600   -4.9183   -0.8582 C   0  0  0  0  0  0  0  0  0  0  0  0
    5.7285   -4.8731    0.3727 O   0  0  0  0  0  0  0  0  0  0  0  0
    6.1442   -3.6323    0.8395 C   0  0  1  0  0  0  0  0  0  0  0  0
    6.7992   -2.7640   -0.0585 O   0  0  0  0  0  0  0  0  0  0  0  0
    6.2484   -2.2390   -1.2841 C   0  0  0  0  0  0  0  0  0  0  0  0
    4.8975   -1.4374   -1.2917 C   0  0  2  0  0  0  0  0  0  0  0  0
    4.9366   -0.4101   -2.4157 C   0  0  0  0  0  0  0  0  0  0  0  0
    4.8945   -0.8550    0.1099 C   0  0  0  0  0  0  0  0  0  0  0  0
    4.2494   -1.9833    0.9480 C   0  0  1  0  0  0  0  0  0  0  0  0
    3.5364   -1.1720    1.8889 O   0  0  0  0  0  0  0  0  0  0  0  0
    5.1119   -2.9255    1.7645 C   0  0  1  0  0  0  0  0  0  0  0  0
    3.5401   -2.1602   -1.3368 C   0  0  1  0  0  0  0  0  0  0  0  0
    3.2534   -3.4162   -2.1460 C   0  0  0  0  0  0  0  0  0  0  0  0
    3.9584   -3.6295   -3.5091 C   0  0  0  0  0  0  0  0  0  0  0  0
    1.7629   -3.5622   -2.4456 C   0  0  0  0  0  0  0  0  0  0  0  0
    3.7235   -4.2863    4.5585 H   0  0  0  0  0  0  0  0  0  0  0  0
    3.6296   -2.5751    4.1203 H   0  0  0  0  0  0  0  0  0  0  0  0
    5.1958   -3.3504    4.3735 H   0  0  0  0  0  0  0  0  0  0  0  0
    3.0303   -5.2401    1.5618 H   0  0  0  0  0  0  0  0  0  0  0  0
    2.2011   -4.3792    2.8040 H   0  0  0  0  0  0  0  0  0  0  0  0
    1.6355   -3.9688    0.3518 H   0  0  0  0  0  0  0  0  0  0  0  0
    1.6851   -2.5420    1.3091 H   0  0  0  0  0  0  0  0  0  0  0  0
    3.0332   -4.9176   -0.7283 H   0  0  0  0  0  0  0  0  0  0  0  0
    4.8284   -5.9688   -1.0292 H   0  0  0  0  0  0  0  0  0  0  0  0
    5.7183   -4.6645   -1.6682 H   0  0  0  0  0  0  0  0  0  0  0  0
    6.9570   -3.9386    1.4930 H   0  0  0  0  0  0  0  0  0  0  0  0
    6.9897   -1.4801   -1.4734 H   0  0  0  0  0  0  0  0  0  0  0  0
    6.4416   -2.8774   -2.1347 H   0  0  0  0  0  0  0  0  0  0  0  0
    4.0621    0.2351   -2.4082 H   0  0  0  0  0  0  0  0  0  0  0  0
    4.9782   -0.8928   -3.3921 H   0  0  0  0  0  0  0  0  0  0  0  0
    5.8165    0.2042   -2.3194 H   0  0  0  0  0  0  0  0  0  0  0  0
    5.8606   -0.5216    0.4935 H   0  0  0  0  0  0  0  0  0  0  0  0
    4.2509    0.0246    0.0803 H   0  0  0  0  0  0  0  0  0  0  0  0
    2.8795   -0.6988    1.3985 H   0  0  0  0  0  0  0  0  0  0  0  0
    5.7076   -2.3018    2.4341 H   0  0  0  0  0  0  0  0  0  0  0  0
    2.7225   -1.4555   -1.4672 H   0  0  0  0  0  0  0  0  0  0  0  0
    3.5845   -2.9238   -4.2547 H   0  0  0  0  0  0  0  0  0  0  0  0
    3.8066   -4.6281   -3.9323 H   0  0  0  0  0  0  0  0  0  0  0  0
    5.0311   -3.4892   -3.4676 H   0  0  0  0  0  0  0  0  0  0  0  0
    1.4630   -2.9868   -3.3277 H   0  0  0  0  0  0  0  0  0  0  0  0
    1.1213   -3.2325   -1.6277 H   0  0  0  0  0  0  0  0  0  0  0  0
    1.4863   -4.6007   -2.6072 H   0  0  0  0  0  0  0  0  0  0  0  0
  1  2  1  0
  1 22  1  0
  1 23  1  0
  1 24  1  0
  2 17  1  0
  2  3  1  0
  3  4  1  0
  3 25  1  0
  3 26  1  0
  5  4  1  1
  4 27  1  0
  4 28  1  0
  5 15  1  0
  5 18  1  0
  5  6  1  0
  6 19  1  0
  6  7  1  0
  6 29  1  1
  7  8  1  0
  7 30  1  0
  7 31  1  0
  8  9  1  0
  9 17  1  0
  9 10  1  0
  9 32  1  1
 10 11  1  0
 11 12  1  0
 11 33  1  0
 11 34  1  0
 12 13  1  6
 12 14  1  0
 12 18  1  0
 13 35  1  0
 13 36  1  0
 13 37  1  0
 14 15  1  0
 14 38  1  0
 14 39  1  0
 15 16  1  1
 15 17  1  0
 16 40  1  0
 17 41  1  1
 18 19  1  0
 18 42  1  1
 19 20  1  0
 19 21  1  0
 20 43  1  0
 20 44  1  0
 20 45  1  0
 21 46  1  0
 21 47  1  0
 21 48  1  0
M  END
>  <i_m_ct_stereo_status>  (95) 
1

>  <s_m_source_file>  (95) 
/var/tmp/pbs.5083856.sched01/tmpp8qaxpgj/357889e9et.sdf

>  <i_m_source_file_index>  (95) 
4

>  <i_lp_mmshare_version>  (95) 
48012

>  <i_f3d_flags>  (95) 
0

>  <s_epik_input>  (95) 
W0NAXTEyM1tDQEBIXTRbQ0gyXU9bQ0BASF01W0NASF0oTihbQ0gzXSlbQ0gyXVtDSDJdMSlbQ0BAXTIoW09IXSlbQ0gyXVtDQF0oW0NIMl1PNSkoW0NIM10pW0NASF0zQzQoW0NIM10pW0NIM10=

>  <s_epik_cmdline>  (95) 
J2VwaWtfcHl0aG9uJywgJy1waHQnLCAnMi4wJywgJy1waCcsICc3LjAnLCAnLXRuJywgJzgnLCAnLW1hJywgJzIwMCcsICctaW1hZScsICc8aW5maWxlLm1hZT4nLCAnLW9tYWUnLCAnPG91dGZpbGUubWFlPic=

>  <r_epik_Ionization_Penalty>  (95) 
1.79147

>  <r_epik_Ionization_Penalty_Charging>  (95) 
0

>  <r_epik_Ionization_Penalty_Neutral>  (95) 
1.79147

>  <r_epik_State_Penalty>  (95) 
1.90443

>  <r_epik_Charging_Adjusted_Penalty>  (95) 
1.90443

>  <i_epik_Tot_Q>  (95) 
0

>  <i_epik_Tot_abs_Q>  (95) 
0

>  <s_epik_Chemistry_Notes>  (95) 
This compound contains an acetal/aminal-like group ( X-CH(R)-Y where X, Y are N, S, or O) that may be acid/base labile, releasing an aldehyde.

>  <s_lp_Force_Field>  (95) 
OPLS3e

>  <r_lp_Energy>  (95) 
123.872

>  <b_lp_Chiralities_Consistent>  (95) 
1

>  <s_lp_Variant>  (95) 
28:0-2

>  <s_i_glide_gridfile>  (95) 
pfpi4k_grid

>  <i_i_glide_lignum>  (95) 
4

>  <i_i_glide_rotatable_bonds>  (95) 
1

>  <r_i_docking_score>  (95) 
-2.30357

>  <r_i_glide_ligand_efficiency>  (95) 
-0.109694

>  <r_i_glide_ligand_efficiency_sa>  (95) 
-0.302637

>  <r_i_glide_ligand_efficiency_ln>  (95) 
-0.569553

>  <r_i_glide_gscore>  (95) 
-2.30357

>  <r_i_glide_lipo>  (95) 
-0.26161

>  <r_i_glide_hbond>  (95) 
0

>  <r_i_glide_metal>  (95) 
-0

>  <r_i_glide_rewards>  (95) 
-1.52423

>  <r_i_glide_evdw>  (95) 
-8.88952

>  <r_i_glide_ecoul>  (95) 
-0.48834

>  <r_i_glide_erotb>  (95) 
0

>  <r_i_glide_esite>  (95) 
0

>  <r_i_glide_emodel>  (95) 
-8.76701

>  <r_i_glide_energy>  (95) 
-9.37786

>  <r_i_glide_einternal>  (95) 
0.0419199

>  <r_i_glide_intrahb_reward>  (95) 
-0

>  <i_i_glide_confnum>  (95) 
2

>  <i_i_glide_posenum>  (95) 
34

>  <r_i_glide_eff_state_penalty>  (95) 
0

>  <ligand_id>  (95) 
28

>  <original_smiles>  (95) 
CN1CCC23C4COC5OCC(C)(CC2(O)C51)C3C4(C)C

>  <smiles>  (95) 
[H]OC12C([H])([H])C3(C([H])([H])[H])C([H])([H])OC4([H])OC([H])([H])C5([H])C(C([H])([H])[H])(C([H])([H])[H])C3([H])C51C([H])([H])C([H])([H])N(C([H])([H])[H])C42[H]

$$$$
29:0:0
     RDKit          3D

 61 65  0  0  1  0  0  0  0  0999 V2000
    2.3038   -0.4198    1.9989 C   0  0  0  0  0  0  0  0  0  0  0  0
    2.5141   -1.7921    1.6896 O   0  0  0  0  0  0  0  0  0  0  0  0
    3.3128   -2.1083    0.6040 C   0  0  0  0  0  0  0  0  0  0  0  0
    4.0556   -1.1346   -0.1261 C   0  0  0  0  0  0  0  0  0  0  0  0
    4.8615   -1.5226   -1.2101 C   0  0  0  0  0  0  0  0  0  0  0  0
    4.9366   -2.8656   -1.5812 C   0  0  0  0  0  0  0  0  0  0  0  0
    4.1741   -3.8309   -0.8911 C   0  0  0  0  0  0  0  0  0  0  0  0
    3.3547   -3.4633    0.2147 C   0  0  0  0  0  0  0  0  0  0  0  0
    2.6086   -4.3481    0.9842 O   0  0  0  0  0  0  0  0  0  0  0  0
    2.6574   -5.7385    0.7512 C   0  0  2  0  0  0  0  0  0  0  0  0
    1.4196   -6.3169    1.0982 O   0  0  0  0  0  0  0  0  0  0  0  0
    1.0211   -6.1511    2.4373 C   0  0  1  0  0  0  0  0  0  0  0  0
   -0.2863   -6.6546    2.6148 O   0  0  0  0  0  0  0  0  0  0  0  0
   -0.3398   -8.0259    2.9906 C   0  0  2  0  0  0  0  0  0  0  0  0
   -1.5752   -8.6670    2.3441 C   0  0  0  0  0  0  0  0  0  0  0  0
   -0.4269   -8.1476    4.5256 C   0  0  0  0  0  0  0  0  0  0  0  0
    0.1950   -6.9544    5.2553 C   0  0  0  0  0  0  0  0  0  0  0  0
    1.6669   -6.6366    4.9253 C   0  0  2  0  0  0  0  0  0  0  0  0
    2.0948   -5.2637    5.5053 C   0  0  1  0  0  0  0  0  0  0  0  0
    1.8630   -5.1858    7.0275 C   0  0  0  0  0  0  0  0  0  0  0  0
    3.5671   -4.9682    5.2151 C   0  0  0  0  0  0  0  0  0  0  0  0
    3.8382   -4.9923    3.7232 C   0  0  0  0  0  0  0  0  0  0  0  0
    3.4784   -6.3609    3.0787 C   0  0  2  0  0  0  0  0  0  0  0  0
    3.8070   -6.4626    1.5465 C   0  0  0  0  0  0  0  0  0  0  0  0
    3.8567   -7.9358    1.0648 C   0  0  0  0  0  0  0  0  0  0  0  0
    5.2177   -5.8945    1.2329 C   0  0  0  0  0  0  0  0  0  0  0  0
    2.0334   -6.8405    3.4171 C   0  0  2  0  0  0  0  0  0  0  0  0
    1.9954   -8.2713    3.3158 O   0  0  0  0  0  0  0  0  0  0  0  0
    0.7990   -8.7231    2.5183 O   0  0  0  0  0  0  0  0  0  0  0  0
    1.6321   -0.3427    2.8566 H   0  0  0  0  0  0  0  0  0  0  0  0
    1.8335    0.1117    1.1686 H   0  0  0  0  0  0  0  0  0  0  0  0
    3.2376    0.0825    2.2713 H   0  0  0  0  0  0  0  0  0  0  0  0
    4.0267   -0.0790    0.1354 H   0  0  0  0  0  0  0  0  0  0  0  0
    5.4207   -0.7748   -1.7682 H   0  0  0  0  0  0  0  0  0  0  0  0
    5.5695   -3.1987   -2.4031 H   0  0  0  0  0  0  0  0  0  0  0  0
    4.2709   -4.8462   -1.2256 H   0  0  0  0  0  0  0  0  0  0  0  0
    2.6784   -5.9626   -0.3218 H   0  0  0  0  0  0  0  0  0  0  0  0
    0.9605   -5.0836    2.6532 H   0  0  0  0  0  0  0  0  0  0  0  0
   -1.4997   -8.6314    1.2596 H   0  0  0  0  0  0  0  0  0  0  0  0
   -2.4830   -8.1481    2.6488 H   0  0  0  0  0  0  0  0  0  0  0  0
   -1.6627   -9.7117    2.6366 H   0  0  0  0  0  0  0  0  0  0  0  0
   -1.4653   -8.1953    4.8445 H   0  0  0  0  0  0  0  0  0  0  0  0
    0.0202   -9.0842    4.8593 H   0  0  0  0  0  0  0  0  0  0  0  0
   -0.4165   -6.0720    5.0562 H   0  0  0  0  0  0  0  0  0  0  0  0
    0.0955   -7.1651    6.3159 H   0  0  0  0  0  0  0  0  0  0  0  0
    2.2653   -7.3750    5.4542 H   0  0  0  0  0  0  0  0  0  0  0  0
    1.4990   -4.4928    5.0159 H   0  0  0  0  0  0  0  0  0  0  0  0
    2.3580   -6.0147    7.5309 H   0  0  0  0  0  0  0  0  0  0  0  0
    0.8033   -5.2229    7.2785 H   0  0  0  0  0  0  0  0  0  0  0  0
    2.2559   -4.2565    7.4424 H   0  0  0  0  0  0  0  0  0  0  0  0
    3.8277   -3.9783    5.5866 H   0  0  0  0  0  0  0  0  0  0  0  0
    4.2188   -5.6850    5.7139 H   0  0  0  0  0  0  0  0  0  0  0  0
    3.2764   -4.1693    3.2844 H   0  0  0  0  0  0  0  0  0  0  0  0
    4.8909   -4.7534    3.6075 H   0  0  0  0  0  0  0  0  0  0  0  0
    4.1427   -7.0545    3.5800 H   0  0  0  0  0  0  0  0  0  0  0  0
    4.4856   -8.5424    1.7170 H   0  0  0  0  0  0  0  0  0  0  0  0
    4.2632   -8.0258    0.0507 H   0  0  0  0  0  0  0  0  0  0  0  0
    2.8781   -8.4165    1.0290 H   0  0  0  0  0  0  0  0  0  0  0  0
    5.9854   -6.3691    1.8378 H   0  0  0  0  0  0  0  0  0  0  0  0
    5.3040   -4.8269    1.4222 H   0  0  0  0  0  0  0  0  0  0  0  0
    5.5017   -6.0710    0.1932 H   0  0  0  0  0  0  0  0  0  0  0  0
  1  2  1  0
  1 30  1  0
  1 31  1  0
  1 32  1  0
  2  3  1  0
  3  8  2  0
  3  4  1  0
  4  5  2  0
  4 33  1  0
  5  6  1  0
  5 34  1  0
  6  7  2  0
  6 35  1  0
  7  8  1  0
  7 36  1  0
  8  9  1  0
  9 10  1  0
 10 24  1  0
 10 11  1  0
 10 37  1  6
 11 12  1  0
 12 27  1  0
 12 13  1  0
 12 38  1  1
 13 14  1  0
 14 29  1  0
 14 15  1  6
 14 16  1  0
 15 39  1  0
 15 40  1  0
 15 41  1  0
 16 17  1  0
 16 42  1  0
 16 43  1  0
 17 18  1  0
 17 44  1  0
 17 45  1  0
 18 27  1  0
 18 19  1  0
 18 46  1  1
 19 20  1  0
 19 21  1  0
 19 47  1  6
 20 48  1  0
 20 49  1  0
 20 50  1  0
 21 22  1  0
 21 51  1  0
 21 52  1  0
 22 23  1  0
 22 53  1  0
 22 54  1  0
 23 24  1  0
 23 27  1  0
 23 55  1  1
 24 25  1  0
 24 26  1  0
 25 56  1  0
 25 57  1  0
 25 58  1  0
 26 59  1  0
 26 60  1  0
 26 61  1  0
 27 28  1  6
 28 29  1  0
M  END
>  <i_m_ct_stereo_status>  (96) 
1

>  <s_m_source_file>  (96) 
/var/tmp/pbs.5083856.sched01/tmpp8qaxpgj/357889e9et.sdf

>  <i_m_source_file_index>  (96) 
5

>  <i_lp_mmshare_version>  (96) 
48012

>  <i_f3d_flags>  (96) 
0

>  <s_epik_input>  (96) 
W0NIM11PYzFbY0hdW2NIXVtjSF1bY0hdYzFPW0NASF0oT1tDQEBIXTJbQ0BdMzQ1KUMoW0NIM10pKFtDSDNdKVtDQEhdNFtDSDJdW0NIMl1bQ0BIXShbQ0gzXSlbQ0BIXTNbQ0gyXVtDSDJdW0NAXShPMikoW0NIM10pT081

>  <s_epik_cmdline>  (96) 
J2VwaWtfcHl0aG9uJywgJy1waHQnLCAnMi4wJywgJy1waCcsICc3LjAnLCAnLXRuJywgJzgnLCAnLW1hJywgJzIwMCcsICctaW1hZScsICc8aW5maWxlLm1hZT4nLCAnLW9tYWUnLCAnPG91dGZpbGUubWFlPic=

>  <r_lp_tautomer_probability>  (96) 
1

>  <r_epik_Ionization_Penalty>  (96) 
1.18402e-15

>  <r_epik_Ionization_Penalty_Charging>  (96) 
0

>  <r_epik_Ionization_Penalty_Neutral>  (96) 
1.18402e-15

>  <r_epik_State_Penalty>  (96) 
-0

>  <r_epik_Charging_Adjusted_Penalty>  (96) 
0

>  <i_epik_Tot_Q>  (96) 
0

>  <i_epik_Tot_abs_Q>  (96) 
0

>  <s_epik_Chemistry_Notes>  (96) 
This compound contains an acetal/aminal-like group ( X-CH(R)-Y where X, Y are N, S, or O) that may be acid/base labile, releasing an aldehyde.

>  <s_lp_Force_Field>  (96) 
OPLS3e

>  <r_lp_Energy>  (96) 
61.6822

>  <b_lp_Chiralities_Consistent>  (96) 
1

>  <s_lp_Variant>  (96) 
29:0-1

>  <s_i_glide_gridfile>  (96) 
pfpi4k_grid

>  <i_i_glide_lignum>  (96) 
5

>  <i_i_glide_rotatable_bonds>  (96) 
3

>  <r_i_docking_score>  (96) 
-2.81824

>  <r_i_glide_ligand_efficiency>  (96) 
-0.0971808

>  <r_i_glide_ligand_efficiency_sa>  (96) 
-0.29857

>  <r_i_glide_ligand_efficiency_ln>  (96) 
-0.645306

>  <r_i_glide_gscore>  (96) 
-2.81824

>  <r_i_glide_lipo>  (96) 
-0.309974

>  <r_i_glide_hbond>  (96) 
-0.224835

>  <r_i_glide_metal>  (96) 
-0

>  <r_i_glide_rewards>  (96) 
-0.65116

>  <r_i_glide_evdw>  (96) 
-26.1766

>  <r_i_glide_ecoul>  (96) 
-2.86378

>  <r_i_glide_erotb>  (96) 
0.240117

>  <r_i_glide_esite>  (96) 
-0.133992

>  <r_i_glide_emodel>  (96) 
-33.1656

>  <r_i_glide_energy>  (96) 
-29.0404

>  <r_i_glide_einternal>  (96) 
1.87279

>  <r_i_glide_intrahb_reward>  (96) 
-0

>  <i_i_glide_confnum>  (96) 
4

>  <i_i_glide_posenum>  (96) 
14

>  <r_i_glide_eff_state_penalty>  (96) 
0

>  <ligand_id>  (96) 
29

>  <original_smiles>  (96) 
COc1ccccc1OC1OC2OC3(C)CCC4C(C)CCC(C1(C)C)C24OO3

>  <smiles>  (96) 
[H]c1c([H])c([H])c(OC2([H])OC3([H])OC4(C([H])([H])[H])OOC35C([H])(C([H])([H])C4([H])[H])C([H])(C([H])([H])[H])C([H])([H])C([H])([H])C5([H])C2(C([H])([H])[H])C([H])([H])[H])c(OC([H])([H])[H])c1[H]

$$$$
29:0:1
     RDKit          3D

 61 65  0  0  1  0  0  0  0  0999 V2000
    3.0622   -9.7518    1.2900 C   0  0  0  0  0  0  0  0  0  0  0  0
    2.8124   -8.3763    1.5443 O   0  0  0  0  0  0  0  0  0  0  0  0
    1.7350   -8.0284    2.3345 C   0  0  0  0  0  0  0  0  0  0  0  0
    0.8239   -8.9829    2.8739 C   0  0  0  0  0  0  0  0  0  0  0  0
   -0.2424   -8.5616    3.6852 C   0  0  0  0  0  0  0  0  0  0  0  0
   -0.4120   -7.2084    3.9740 C   0  0  0  0  0  0  0  0  0  0  0  0
    0.4872   -6.2479    3.4456 C   0  0  0  0  0  0  0  0  0  0  0  0
    1.5549   -6.6533    2.6029 C   0  0  0  0  0  0  0  0  0  0  0  0
    2.4700   -5.7902    2.0216 O   0  0  0  0  0  0  0  0  0  0  0  0
    2.4673   -4.4018    2.2985 C   0  0  2  0  0  0  0  0  0  0  0  0
    2.8017   -3.6706    1.1442 O   0  0  0  0  0  0  0  0  0  0  0  0
    4.0479   -3.9760    0.5743 C   0  0  1  0  0  0  0  0  0  0  0  0
    4.1949   -3.2893   -0.6399 O   0  0  0  0  0  0  0  0  0  0  0  0
    4.7669   -1.9911   -0.5205 C   0  0  2  0  0  0  0  0  0  0  0  0
    4.1159   -1.0811   -1.5688 C   0  0  0  0  0  0  0  0  0  0  0  0
    6.2842   -2.0740   -0.7562 C   0  0  0  0  0  0  0  0  0  0  0  0
    6.8730   -3.4440   -0.4126 C   0  0  0  0  0  0  0  0  0  0  0  0
    6.6255   -3.9634    1.0174 C   0  0  2  0  0  0  0  0  0  0  0  0
    7.0115   -5.4565    1.1546 C   0  0  1  0  0  0  0  0  0  0  0  0
    8.4756   -5.6984    0.7497 C   0  0  0  0  0  0  0  0  0  0  0  0
    6.8045   -5.9631    2.5841 C   0  0  0  0  0  0  0  0  0  0  0  0
    5.3634   -5.7685    3.0237 C   0  0  0  0  0  0  0  0  0  0  0  0
    4.9151   -4.2801    2.9565 C   0  0  2  0  0  0  0  0  0  0  0  0
    3.4505   -4.0270    3.4461 C   0  0  0  0  0  0  0  0  0  0  0  0
    3.2206   -2.5372    3.7829 C   0  0  0  0  0  0  0  0  0  0  0  0
    3.1331   -4.8013    4.7467 C   0  0  0  0  0  0  0  0  0  0  0  0
    5.2071   -3.6172    1.5763 C   0  0  2  0  0  0  0  0  0  0  0  0
    5.3147   -2.2007    1.7805 O   0  0  0  0  0  0  0  0  0  0  0  0
    4.5092   -1.4390    0.7580 O   0  0  0  0  0  0  0  0  0  0  0  0
    3.9293   -9.8447    0.6336 H   0  0  0  0  0  0  0  0  0  0  0  0
    2.2206  -10.2168    0.7821 H   0  0  0  0  0  0  0  0  0  0  0  0
    3.2816  -10.3025    2.2091 H   0  0  0  0  0  0  0  0  0  0  0  0
    0.9306  -10.0472    2.6798 H   0  0  0  0  0  0  0  0  0  0  0  0
   -0.9337   -9.2978    4.0961 H   0  0  0  0  0  0  0  0  0  0  0  0
   -1.2205   -6.8755    4.6102 H   0  0  0  0  0  0  0  0  0  0  0  0
    0.3275   -5.2254    3.7205 H   0  0  0  0  0  0  0  0  0  0  0  0
    1.4576   -4.0326    2.4947 H   0  0  0  0  0  0  0  0  0  0  0  0
    4.0702   -5.0390    0.3125 H   0  0  0  0  0  0  0  0  0  0  0  0
    3.0412   -0.9871   -1.4008 H   0  0  0  0  0  0  0  0  0  0  0  0
    4.2646   -1.4740   -2.5712 H   0  0  0  0  0  0  0  0  0  0  0  0
    4.5612   -0.0918   -1.5304 H   0  0  0  0  0  0  0  0  0  0  0  0
    6.5060   -1.9071   -1.8073 H   0  0  0  0  0  0  0  0  0  0  0  0
    6.7939   -1.2882   -0.2004 H   0  0  0  0  0  0  0  0  0  0  0  0
    6.4640   -4.1660   -1.1223 H   0  0  0  0  0  0  0  0  0  0  0  0
    7.9407   -3.3876   -0.6052 H   0  0  0  0  0  0  0  0  0  0  0  0
    7.3111   -3.4244    1.6640 H   0  0  0  0  0  0  0  0  0  0  0  0
    6.3644   -6.0369    0.4975 H   0  0  0  0  0  0  0  0  0  0  0  0
    9.1410   -5.0496    1.3168 H   0  0  0  0  0  0  0  0  0  0  0  0
    8.6460   -5.5166   -0.3127 H   0  0  0  0  0  0  0  0  0  0  0  0
    8.7688   -6.7299    0.9422 H   0  0  0  0  0  0  0  0  0  0  0  0
    7.0359   -7.0236    2.6402 H   0  0  0  0  0  0  0  0  0  0  0  0
    7.4713   -5.4614    3.2847 H   0  0  0  0  0  0  0  0  0  0  0  0
    4.7441   -6.4074    2.3894 H   0  0  0  0  0  0  0  0  0  0  0  0
    5.2887   -6.1615    4.0331 H   0  0  0  0  0  0  0  0  0  0  0  0
    5.5742   -3.7876    3.6653 H   0  0  0  0  0  0  0  0  0  0  0  0
    4.0130   -2.1430    4.4289 H   0  0  0  0  0  0  0  0  0  0  0  0
    2.2718   -2.3710    4.3061 H   0  0  0  0  0  0  0  0  0  0  0  0
    3.1820   -1.8956    2.9015 H   0  0  0  0  0  0  0  0  0  0  0  0
    3.8503   -4.5639    5.5320 H   0  0  0  0  0  0  0  0  0  0  0  0
    3.1535   -5.8864    4.6237 H   0  0  0  0  0  0  0  0  0  0  0  0
    2.1424   -4.5505    5.1369 H   0  0  0  0  0  0  0  0  0  0  0  0
  1  2  1  0
  1 30  1  0
  1 31  1  0
  1 32  1  0
  2  3  1  0
  3  8  2  0
  3  4  1  0
  4  5  2  0
  4 33  1  0
  5  6  1  0
  5 34  1  0
  6  7  2  0
  6 35  1  0
  7  8  1  0
  7 36  1  0
  8  9  1  0
  9 10  1  0
 10 24  1  0
 10 11  1  0
 10 37  1  1
 11 12  1  0
 12 27  1  0
 12 13  1  0
 12 38  1  6
 13 14  1  0
 14 29  1  0
 14 15  1  6
 14 16  1  0
 15 39  1  0
 15 40  1  0
 15 41  1  0
 16 17  1  0
 16 42  1  0
 16 43  1  0
 17 18  1  0
 17 44  1  0
 17 45  1  0
 18 27  1  0
 18 19  1  0
 18 46  1  1
 19 20  1  0
 19 21  1  0
 19 47  1  6
 20 48  1  0
 20 49  1  0
 20 50  1  0
 21 22  1  0
 21 51  1  0
 21 52  1  0
 22 23  1  0
 22 53  1  0
 22 54  1  0
 23 24  1  0
 23 27  1  0
 23 55  1  1
 24 25  1  0
 24 26  1  0
 25 56  1  0
 25 57  1  0
 25 58  1  0
 26 59  1  0
 26 60  1  0
 26 61  1  0
 27 28  1  1
 28 29  1  0
M  END
>  <i_m_ct_stereo_status>  (97) 
1

>  <s_m_source_file>  (97) 
/var/tmp/pbs.5083856.sched01/tmpp8qaxpgj/357889e9et.sdf

>  <i_m_source_file_index>  (97) 
5

>  <i_lp_mmshare_version>  (97) 
48012

>  <i_f3d_flags>  (97) 
0

>  <s_epik_input>  (97) 
W0NIM11PYzFbY0hdW2NIXVtjSF1bY0hdYzFPW0NASF0oT1tDQEBIXTJbQ0BdMzQ1KUMoW0NIM10pKFtDSDNdKVtDQEhdNFtDSDJdW0NIMl1bQ0BIXShbQ0gzXSlbQ0BIXTNbQ0gyXVtDSDJdW0NAXShPMikoW0NIM10pT081

>  <s_epik_cmdline>  (97) 
J2VwaWtfcHl0aG9uJywgJy1waHQnLCAnMi4wJywgJy1waCcsICc3LjAnLCAnLXRuJywgJzgnLCAnLW1hJywgJzIwMCcsICctaW1hZScsICc8aW5maWxlLm1hZT4nLCAnLW9tYWUnLCAnPG91dGZpbGUubWFlPic=

>  <r_lp_tautomer_probability>  (97) 
1

>  <r_epik_Ionization_Penalty>  (97) 
1.18402e-15

>  <r_epik_Ionization_Penalty_Charging>  (97) 
0

>  <r_epik_Ionization_Penalty_Neutral>  (97) 
1.18402e-15

>  <r_epik_State_Penalty>  (97) 
-0

>  <r_epik_Charging_Adjusted_Penalty>  (97) 
0

>  <i_epik_Tot_Q>  (97) 
0

>  <i_epik_Tot_abs_Q>  (97) 
0

>  <s_epik_Chemistry_Notes>  (97) 
This compound contains an acetal/aminal-like group ( X-CH(R)-Y where X, Y are N, S, or O) that may be acid/base labile, releasing an aldehyde.

>  <s_lp_Force_Field>  (97) 
OPLS3e

>  <r_lp_Energy>  (97) 
61.6822

>  <b_lp_Chiralities_Consistent>  (97) 
1

>  <s_lp_Variant>  (97) 
29:0-1

>  <s_i_glide_gridfile>  (97) 
pfpi4k_grid

>  <i_i_glide_lignum>  (97) 
5

>  <i_i_glide_rotatable_bonds>  (97) 
3

>  <r_i_docking_score>  (97) 
-2.20646

>  <r_i_glide_ligand_efficiency>  (97) 
-0.0760847

>  <r_i_glide_ligand_efficiency_sa>  (97) 
-0.233756

>  <r_i_glide_ligand_efficiency_ln>  (97) 
-0.505222

>  <r_i_glide_gscore>  (97) 
-2.20646

>  <r_i_glide_lipo>  (97) 
-0.409181

>  <r_i_glide_hbond>  (97) 
0

>  <r_i_glide_metal>  (97) 
-0

>  <r_i_glide_rewards>  (97) 
-0.678164

>  <r_i_glide_evdw>  (97) 
-24.4651

>  <r_i_glide_ecoul>  (97) 
-0.711814

>  <r_i_glide_erotb>  (97) 
0.240117

>  <r_i_glide_esite>  (97) 
-0.0291995

>  <r_i_glide_emodel>  (97) 
-28.2778

>  <r_i_glide_energy>  (97) 
-25.1769

>  <r_i_glide_einternal>  (97) 
1.81589

>  <r_i_glide_intrahb_reward>  (97) 
-0

>  <i_i_glide_confnum>  (97) 
4

>  <i_i_glide_posenum>  (97) 
26

>  <r_i_glide_eff_state_penalty>  (97) 
0

>  <ligand_id>  (97) 
29

>  <original_smiles>  (97) 
COc1ccccc1OC1OC2OC3(C)CCC4C(C)CCC(C1(C)C)C24OO3

>  <smiles>  (97) 
[H]c1c([H])c([H])c(OC2([H])OC3([H])OC4(C([H])([H])[H])OOC35C([H])(C([H])([H])C4([H])[H])C([H])(C([H])([H])[H])C([H])([H])C([H])([H])C5([H])C2(C([H])([H])[H])C([H])([H])[H])c(OC([H])([H])[H])c1[H]

$$$$
29:0:2
     RDKit          3D

 61 65  0  0  1  0  0  0  0  0999 V2000
    4.4120   -9.3247    0.9902 C   0  0  0  0  0  0  0  0  0  0  0  0
    3.9573   -8.0158    1.3371 O   0  0  0  0  0  0  0  0  0  0  0  0
    2.6686   -7.8675    1.8106 C   0  0  0  0  0  0  0  0  0  0  0  0
    1.8104   -8.9717    2.0738 C   0  0  0  0  0  0  0  0  0  0  0  0
    0.5039   -8.7491    2.5540 C   0  0  0  0  0  0  0  0  0  0  0  0
    0.0394   -7.4596    2.7816 C   0  0  0  0  0  0  0  0  0  0  0  0
    0.8938   -6.3407    2.5374 C   0  0  0  0  0  0  0  0  0  0  0  0
    2.2063   -6.5415    2.0369 C   0  0  0  0  0  0  0  0  0  0  0  0
    3.1108   -5.5262    1.8103 O   0  0  0  0  0  0  0  0  0  0  0  0
    2.7117   -4.1720    1.7075 C   0  0  2  0  0  0  0  0  0  0  0  0
    2.7057   -3.7241    0.3812 O   0  0  0  0  0  0  0  0  0  0  0  0
    3.9306   -3.8244   -0.3080 C   0  0  1  0  0  0  0  0  0  0  0  0
    3.7550   -3.4481   -1.6408 O   0  0  0  0  0  0  0  0  0  0  0  0
    3.9339   -2.0592   -1.8987 C   0  0  2  0  0  0  0  0  0  0  0  0
    2.9635   -1.6469   -3.0080 C   0  0  0  0  0  0  0  0  0  0  0  0
    5.3803   -1.8132   -2.3472 C   0  0  0  0  0  0  0  0  0  0  0  0
    6.3753   -2.8490   -1.8268 C   0  0  0  0  0  0  0  0  0  0  0  0
    6.4244   -3.0362   -0.2933 C   0  0  2  0  0  0  0  0  0  0  0  0
    7.2269   -4.2984    0.0872 C   0  0  1  0  0  0  0  0  0  0  0  0
    8.6617   -4.2413   -0.4642 C   0  0  0  0  0  0  0  0  0  0  0  0
    7.2998   -4.4887    1.5942 C   0  0  0  0  0  0  0  0  0  0  0  0
    5.9246   -4.5425    2.2239 C   0  0  0  0  0  0  0  0  0  0  0  0
    5.0680   -3.2796    1.9138 C   0  0  2  0  0  0  0  0  0  0  0  0
    3.6585   -3.2838    2.5636 C   0  0  0  0  0  0  0  0  0  0  0  0
    3.0279   -1.8692    2.6025 C   0  0  0  0  0  0  0  0  0  0  0  0
    3.6690   -3.7861    4.0234 C   0  0  0  0  0  0  0  0  0  0  0  0
    5.0311   -2.9343    0.3986 C   0  0  2  0  0  0  0  0  0  0  0  0
    4.7526   -1.5350    0.2657 O   0  0  0  0  0  0  0  0  0  0  0  0
    3.6635   -1.2892   -0.7447 O   0  0  0  0  0  0  0  0  0  0  0  0
    5.4410   -9.2698    0.6297 H   0  0  0  0  0  0  0  0  0  0  0  0
    3.8073   -9.7472    0.1872 H   0  0  0  0  0  0  0  0  0  0  0  0
    4.4066  -10.0046    1.8441 H   0  0  0  0  0  0  0  0  0  0  0  0
    2.1262   -9.9915    1.9131 H   0  0  0  0  0  0  0  0  0  0  0  0
   -0.1492   -9.6001    2.7526 H   0  0  0  0  0  0  0  0  0  0  0  0
   -0.9451   -7.2877    3.1660 H   0  0  0  0  0  0  0  0  0  0  0  0
    0.4933   -5.3927    2.7922 H   0  0  0  0  0  0  0  0  0  0  0  0
    1.7096   -3.9770    2.0467 H   0  0  0  0  0  0  0  0  0  0  0  0
    4.2301   -4.8748   -0.3350 H   0  0  0  0  0  0  0  0  0  0  0  0
    1.9333   -1.8351   -2.7129 H   0  0  0  0  0  0  0  0  0  0  0  0
    3.1375   -2.2190   -3.9193 H   0  0  0  0  0  0  0  0  0  0  0  0
    3.0792   -0.5875   -3.2450 H   0  0  0  0  0  0  0  0  0  0  0  0
    5.4084   -1.8801   -3.4309 H   0  0  0  0  0  0  0  0  0  0  0  0
    5.6852   -0.8022   -2.0841 H   0  0  0  0  0  0  0  0  0  0  0  0
    6.1449   -3.8111   -2.2901 H   0  0  0  0  0  0  0  0  0  0  0  0
    7.3576   -2.5684   -2.1971 H   0  0  0  0  0  0  0  0  0  0  0  0
    6.9836   -2.1868    0.1041 H   0  0  0  0  0  0  0  0  0  0  0  0
    6.6940   -5.1610   -0.3110 H   0  0  0  0  0  0  0  0  0  0  0  0
    9.1667   -3.3209   -0.1557 H   0  0  0  0  0  0  0  0  0  0  0  0
    8.6817   -4.2573   -1.5536 H   0  0  0  0  0  0  0  0  0  0  0  0
    9.2501   -5.0886   -0.1128 H   0  0  0  0  0  0  0  0  0  0  0  0
    7.8413   -5.3982    1.8573 H   0  0  0  0  0  0  0  0  0  0  0  0
    7.8537   -3.6611    2.0009 H   0  0  0  0  0  0  0  0  0  0  0  0
    5.4559   -5.4578    1.8631 H   0  0  0  0  0  0  0  0  0  0  0  0
    6.0661   -4.6638    3.2980 H   0  0  0  0  0  0  0  0  0  0  0  0
    5.6312   -2.4676    2.3846 H   0  0  0  0  0  0  0  0  0  0  0  0
    3.7304   -1.1333    3.0139 H   0  0  0  0  0  0  0  0  0  0  0  0
    2.1272   -1.8337    3.2208 H   0  0  0  0  0  0  0  0  0  0  0  0
    2.7207   -1.5073    1.6206 H   0  0  0  0  0  0  0  0  0  0  0  0
    4.3636   -3.1894    4.6278 H   0  0  0  0  0  0  0  0  0  0  0  0
    3.9734   -4.8315    4.1232 H   0  0  0  0  0  0  0  0  0  0  0  0
    2.6886   -3.7068    4.4957 H   0  0  0  0  0  0  0  0  0  0  0  0
  1  2  1  0
  1 30  1  0
  1 31  1  0
  1 32  1  0
  2  3  1  0
  3  8  2  0
  3  4  1  0
  4  5  2  0
  4 33  1  0
  5  6  1  0
  5 34  1  0
  6  7  2  0
  6 35  1  0
  7  8  1  0
  7 36  1  0
  8  9  1  0
  9 10  1  0
 10 24  1  0
 10 11  1  0
 10 37  1  1
 11 12  1  0
 12 27  1  0
 12 13  1  0
 12 38  1  6
 13 14  1  0
 14 29  1  0
 14 15  1  6
 14 16  1  0
 15 39  1  0
 15 40  1  0
 15 41  1  0
 16 17  1  0
 16 42  1  0
 16 43  1  0
 17 18  1  0
 17 44  1  0
 17 45  1  0
 18 27  1  0
 18 19  1  0
 18 46  1  1
 19 20  1  0
 19 21  1  0
 19 47  1  6
 20 48  1  0
 20 49  1  0
 20 50  1  0
 21 22  1  0
 21 51  1  0
 21 52  1  0
 22 23  1  0
 22 53  1  0
 22 54  1  0
 23 24  1  0
 23 27  1  0
 23 55  1  1
 24 25  1  0
 24 26  1  0
 25 56  1  0
 25 57  1  0
 25 58  1  0
 26 59  1  0
 26 60  1  0
 26 61  1  0
 27 28  1  1
 28 29  1  0
M  END
>  <i_m_ct_stereo_status>  (98) 
1

>  <s_m_source_file>  (98) 
/var/tmp/pbs.5083856.sched01/tmpp8qaxpgj/357889e9et.sdf

>  <i_m_source_file_index>  (98) 
5

>  <i_lp_mmshare_version>  (98) 
48012

>  <i_f3d_flags>  (98) 
0

>  <s_epik_input>  (98) 
W0NIM11PYzFbY0hdW2NIXVtjSF1bY0hdYzFPW0NASF0oT1tDQEBIXTJbQ0BdMzQ1KUMoW0NIM10pKFtDSDNdKVtDQEhdNFtDSDJdW0NIMl1bQ0BIXShbQ0gzXSlbQ0BIXTNbQ0gyXVtDSDJdW0NAXShPMikoW0NIM10pT081

>  <s_epik_cmdline>  (98) 
J2VwaWtfcHl0aG9uJywgJy1waHQnLCAnMi4wJywgJy1waCcsICc3LjAnLCAnLXRuJywgJzgnLCAnLW1hJywgJzIwMCcsICctaW1hZScsICc8aW5maWxlLm1hZT4nLCAnLW9tYWUnLCAnPG91dGZpbGUubWFlPic=

>  <r_lp_tautomer_probability>  (98) 
1

>  <r_epik_Ionization_Penalty>  (98) 
1.18402e-15

>  <r_epik_Ionization_Penalty_Charging>  (98) 
0

>  <r_epik_Ionization_Penalty_Neutral>  (98) 
1.18402e-15

>  <r_epik_State_Penalty>  (98) 
-0

>  <r_epik_Charging_Adjusted_Penalty>  (98) 
0

>  <i_epik_Tot_Q>  (98) 
0

>  <i_epik_Tot_abs_Q>  (98) 
0

>  <s_epik_Chemistry_Notes>  (98) 
This compound contains an acetal/aminal-like group ( X-CH(R)-Y where X, Y are N, S, or O) that may be acid/base labile, releasing an aldehyde.

>  <s_lp_Force_Field>  (98) 
OPLS3e

>  <r_lp_Energy>  (98) 
61.6822

>  <b_lp_Chiralities_Consistent>  (98) 
1

>  <s_lp_Variant>  (98) 
29:0-1

>  <s_i_glide_gridfile>  (98) 
pfpi4k_grid

>  <i_i_glide_lignum>  (98) 
5

>  <i_i_glide_rotatable_bonds>  (98) 
3

>  <r_i_docking_score>  (98) 
-1.93788

>  <r_i_glide_ligand_efficiency>  (98) 
-0.0668236

>  <r_i_glide_ligand_efficiency_sa>  (98) 
-0.205303

>  <r_i_glide_ligand_efficiency_ln>  (98) 
-0.443726

>  <r_i_glide_gscore>  (98) 
-1.93788

>  <r_i_glide_lipo>  (98) 
-0.382621

>  <r_i_glide_hbond>  (98) 
0

>  <r_i_glide_metal>  (98) 
-0

>  <r_i_glide_rewards>  (98) 
-0.65116

>  <r_i_glide_evdw>  (98) 
-25.1124

>  <r_i_glide_ecoul>  (98) 
1.03196

>  <r_i_glide_erotb>  (98) 
0.240117

>  <r_i_glide_esite>  (98) 
-0.0433913

>  <r_i_glide_emodel>  (98) 
-26.108

>  <r_i_glide_energy>  (98) 
-24.0805

>  <r_i_glide_einternal>  (98) 
2.54247

>  <r_i_glide_intrahb_reward>  (98) 
-0

>  <i_i_glide_confnum>  (98) 
4

>  <i_i_glide_posenum>  (98) 
24

>  <r_i_glide_eff_state_penalty>  (98) 
0

>  <ligand_id>  (98) 
29

>  <original_smiles>  (98) 
COc1ccccc1OC1OC2OC3(C)CCC4C(C)CCC(C1(C)C)C24OO3

>  <smiles>  (98) 
[H]c1c([H])c([H])c(OC2([H])OC3([H])OC4(C([H])([H])[H])OOC35C([H])(C([H])([H])C4([H])[H])C([H])(C([H])([H])[H])C([H])([H])C([H])([H])C5([H])C2(C([H])([H])[H])C([H])([H])[H])c(OC([H])([H])[H])c1[H]

$$$$
30:0:0
     RDKit          3D

 35 38  0  0  1  0  0  0  0  0999 V2000
    7.4340   -3.1861    0.4699 C   0  0  0  0  0  0  0  0  0  0  0  0
    6.1160   -2.4936    0.0377 C   0  0  1  0  0  0  0  0  0  0  0  0
    6.0609   -1.1255    0.7911 C   0  0  0  0  0  0  0  0  0  0  0  0
    4.6790   -0.4736    1.0239 C   0  0  0  0  0  0  0  0  0  0  0  0
    3.5469   -1.4937    1.2070 C   0  0  1  0  0  0  0  0  0  0  0  0
    2.2880   -0.8496    1.2845 O   0  0  0  0  0  0  0  0  0  0  0  0
    3.5713   -2.5493    0.0893 C   0  0  1  0  0  0  0  0  0  0  0  0
    3.5191   -1.8934   -1.3143 C   0  0  2  0  0  0  0  0  0  0  0  0
    3.0533   -2.6517   -2.5720 C   0  0  0  0  0  0  0  0  0  0  0  0
    4.1775   -1.9667   -3.3546 C   0  0  0  0  0  0  0  0  0  0  0  0
    4.8544   -1.6432   -2.0159 C   0  0  2  0  0  0  0  0  0  0  0  0
    6.0295   -2.4827   -1.5065 C   0  0  2  0  0  0  0  0  0  0  0  0
    5.7326   -3.8465   -1.8150 O   0  0  0  0  0  0  0  0  0  0  0  0
    5.0635   -4.4749   -0.7189 C   0  0  0  0  0  0  0  0  0  0  0  0
    4.8819   -3.3642    0.3117 C   0  0  1  0  0  0  0  0  0  0  0  0
    7.4099   -3.4442    1.5287 H   0  0  0  0  0  0  0  0  0  0  0  0
    8.2914   -2.5319    0.3079 H   0  0  0  0  0  0  0  0  0  0  0  0
    7.6379   -4.1041   -0.0779 H   0  0  0  0  0  0  0  0  0  0  0  0
    6.5103   -1.2591    1.7775 H   0  0  0  0  0  0  0  0  0  0  0  0
    6.7047   -0.4048    0.2898 H   0  0  0  0  0  0  0  0  0  0  0  0
    4.7323    0.1546    1.9097 H   0  0  0  0  0  0  0  0  0  0  0  0
    4.4440    0.2025    0.2053 H   0  0  0  0  0  0  0  0  0  0  0  0
    3.6870   -1.9910    2.1694 H   0  0  0  0  0  0  0  0  0  0  0  0
    1.8765   -0.8241    0.4083 H   0  0  0  0  0  0  0  0  0  0  0  0
    2.7156   -3.2123    0.2137 H   0  0  0  0  0  0  0  0  0  0  0  0
    2.9869   -0.9469   -1.3081 H   0  0  0  0  0  0  0  0  0  0  0  0
    3.1761   -3.7332   -2.5231 H   0  0  0  0  0  0  0  0  0  0  0  0
    2.0424   -2.3876   -2.9024 H   0  0  0  0  0  0  0  0  0  0  0  0
    4.7351   -2.6440   -3.9987 H   0  0  0  0  0  0  0  0  0  0  0  0
    3.8310   -1.0789   -3.8842 H   0  0  0  0  0  0  0  0  0  0  0  0
    5.0856   -0.5774   -1.9806 H   0  0  0  0  0  0  0  0  0  0  0  0
    6.9645   -2.1889   -1.9816 H   0  0  0  0  0  0  0  0  0  0  0  0
    4.1291   -4.9547   -1.0003 H   0  0  0  0  0  0  0  0  0  0  0  0
    5.7090   -5.2632   -0.3309 H   0  0  0  0  0  0  0  0  0  0  0  0
    4.8950   -3.7823    1.3220 H   0  0  0  0  0  0  0  0  0  0  0  0
  2  1  1  6
  1 16  1  0
  1 17  1  0
  1 18  1  0
  2 12  1  0
  2 15  1  0
  2  3  1  0
  3  4  1  0
  3 19  1  0
  3 20  1  0
  4  5  1  0
  4 21  1  0
  4 22  1  0
  5  6  1  0
  5  7  1  0
  5 23  1  1
  6 24  1  0
  7 15  1  0
  7  8  1  0
  7 25  1  1
  8 11  1  0
  8  9  1  0
  8 26  1  1
  9 10  1  0
  9 27  1  0
  9 28  1  0
 10 11  1  0
 10 29  1  0
 10 30  1  0
 11 12  1  0
 11 31  1  6
 12 13  1  0
 12 32  1  6
 13 14  1  0
 14 15  1  0
 14 33  1  0
 14 34  1  0
 15 35  1  1
M  END
>  <i_m_ct_stereo_status>  (99) 
1

>  <s_m_source_file>  (99) 
/var/tmp/pbs.5083856.sched01/tmpkl5n39ct/40v705kqvk.sdf

>  <i_m_source_file_index>  (99) 
1

>  <i_lp_mmshare_version>  (99) 
48012

>  <i_f3d_flags>  (99) 
0

>  <s_epik_input>  (99) 
W0NIM11bQ0BdMTJbQ0BASF0zW0NAQEhdNFtDQEBIXShbQ0gyXVtDSDJdNClbQ0BASF0oW0NASF0yW0NIMl1PMylbQ0BIXShbT0hdKVtDSDJdW0NIMl0x

>  <s_epik_cmdline>  (99) 
J2VwaWtfcHl0aG9uJywgJy1waHQnLCAnMi4wJywgJy1waCcsICc3LjAnLCAnLXRuJywgJzgnLCAnLW1hJywgJzIwMCcsICctaW1hZScsICc8aW5maWxlLm1hZT4nLCAnLW9tYWUnLCAnPG91dGZpbGUubWFlPic=

>  <r_lp_tautomer_probability>  (99) 
1

>  <r_epik_Ionization_Penalty>  (99) 
1.05347e-06

>  <r_epik_Ionization_Penalty_Charging>  (99) 
0

>  <r_epik_Ionization_Penalty_Neutral>  (99) 
1.05347e-06

>  <r_epik_State_Penalty>  (99) 
-0

>  <r_epik_Charging_Adjusted_Penalty>  (99) 
0

>  <i_epik_Tot_Q>  (99) 
0

>  <i_epik_Tot_abs_Q>  (99) 
0

>  <s_lp_Force_Field>  (99) 
OPLS3e

>  <r_lp_Energy>  (99) 
43.918

>  <b_lp_Chiralities_Consistent>  (99) 
1

>  <s_lp_Variant>  (99) 
30:0-1

>  <s_i_glide_gridfile>  (99) 
pfpi4k_grid

>  <i_i_glide_lignum>  (99) 
1

>  <i_i_glide_rotatable_bonds>  (99) 
1

>  <r_i_docking_score>  (99) 
-4.36252

>  <r_i_glide_ligand_efficiency>  (99) 
-0.290835

>  <r_i_glide_ligand_efficiency_sa>  (99) 
-0.71726

>  <r_i_glide_ligand_efficiency_ln>  (99) 
-1.1765

>  <r_i_glide_gscore>  (99) 
-4.36252

>  <r_i_glide_lipo>  (99) 
-0.670421

>  <r_i_glide_hbond>  (99) 
-0.16

>  <r_i_glide_metal>  (99) 
-0

>  <r_i_glide_rewards>  (99) 
-1.98889

>  <r_i_glide_evdw>  (99) 
-20.9895

>  <r_i_glide_ecoul>  (99) 
-3.29156

>  <r_i_glide_erotb>  (99) 
0

>  <r_i_glide_esite>  (99) 
0

>  <r_i_glide_emodel>  (99) 
-30.3399

>  <r_i_glide_energy>  (99) 
-24.2811

>  <r_i_glide_einternal>  (99) 
0.876524

>  <r_i_glide_intrahb_reward>  (99) 
-0

>  <i_i_glide_confnum>  (99) 
1

>  <i_i_glide_posenum>  (99) 
36

>  <r_i_glide_eff_state_penalty>  (99) 
0

>  <ligand_id>  (99) 
30

>  <original_smiles>  (99) 
CC12CCC(O)C3C4CCC4C1OCC32

>  <smiles>  (99) 
[H]OC1([H])C([H])([H])C([H])([H])C2(C([H])([H])[H])C3([H])OC([H])([H])C2([H])C1([H])C1([H])C([H])([H])C([H])([H])C31[H]

$$$$
31:0:0
     RDKit          3D

 31 34  0  0  1  0  0  0  0  0999 V2000
    4.5250   -3.4243   -3.5503 C   0  0  0  0  0  0  0  0  0  0  0  0
    3.7538   -2.3520   -3.7148 C   0  0  0  0  0  0  0  0  0  0  0  0
    3.4146   -1.7919   -2.3545 C   0  0  2  0  0  0  0  0  0  0  0  0
    4.6116   -0.9135   -1.8542 C   0  0  0  0  0  0  0  0  0  0  0  0
    5.5084   -1.4458   -0.5961 C   0  0  2  0  0  0  0  0  0  0  0  0
    5.6312   -2.5389    0.6009 C   0  0  0  0  0  0  0  0  0  0  0  0
    4.4408   -3.5096    0.7905 C   0  0  0  0  0  0  0  0  0  0  0  0
    3.2371   -2.9814    0.0022 C   0  0  1  0  0  0  0  0  0  0  0  0
    3.0363   -1.5778    0.3825 N   0  0  0  0  0  0  0  0  0  0  0  0
    4.3091   -0.8080    0.3217 C   0  0  0  0  0  0  0  0  0  0  0  0
    3.4086   -3.0958   -1.5350 C   0  0  2  0  0  0  0  0  0  0  0  0
    4.7404   -3.6457   -2.0706 C   0  0  2  0  0  0  0  0  0  0  0  0
    5.8918   -2.7100   -1.5668 C   0  0  0  0  0  0  0  0  0  0  0  0
    4.9273   -4.0649   -4.3201 H   0  0  0  0  0  0  0  0  0  0  0  0
    3.3965   -1.9337   -4.6443 H   0  0  0  0  0  0  0  0  0  0  0  0
    2.4563   -1.2743   -2.3571 H   0  0  0  0  0  0  0  0  0  0  0  0
    5.2685   -0.7097   -2.7011 H   0  0  0  0  0  0  0  0  0  0  0  0
    4.2607    0.1189   -1.8173 H   0  0  0  0  0  0  0  0  0  0  0  0
    6.5610   -3.1136    0.6414 H   0  0  0  0  0  0  0  0  0  0  0  0
    5.8503   -2.0794    1.5681 H   0  0  0  0  0  0  0  0  0  0  0  0
    4.7009   -4.5221    0.4792 H   0  0  0  0  0  0  0  0  0  0  0  0
    4.1949   -3.5785    1.8523 H   0  0  0  0  0  0  0  0  0  0  0  0
    2.3474   -3.5411    0.2907 H   0  0  0  0  0  0  0  0  0  0  0  0
    2.3331   -1.1807   -0.2521 H   0  0  0  0  0  0  0  0  0  0  0  0
    4.5876   -0.6052    1.3576 H   0  0  0  0  0  0  0  0  0  0  0  0
    4.0694    0.2360    0.1228 H   0  0  0  0  0  0  0  0  0  0  0  0
    2.5951   -3.7324   -1.8923 H   0  0  0  0  0  0  0  0  0  0  0  0
    4.8962   -4.7004   -1.8414 H   0  0  0  0  0  0  0  0  0  0  0  0
    6.4373   -2.3358   -2.4360 H   0  0  0  0  0  0  0  0  0  0  0  0
    6.7198   -3.3596   -1.2719 H   0  0  0  0  0  0  0  0  0  0  0  0
    2.6609   -1.5234    1.3187 H   0  0  0  0  0  0  0  0  0  0  0  0
  1 12  1  0
  1  2  2  0
  1 14  1  0
  2  3  1  0
  2 15  1  0
  3 11  1  0
  3  4  1  0
  3 16  1  6
  5  4  1  1
  4 17  1  0
  4 18  1  0
  5 10  1  0
  5 13  1  0
  5  6  1  0
  6  7  1  0
  6 19  1  0
  6 20  1  0
  7  8  1  0
  7 21  1  0
  7 22  1  0
  8  9  1  0
  8 11  1  0
  8 23  1  1
  9 10  1  0
  9 24  1  0
  9 31  1  0
 10 25  1  0
 10 26  1  0
 11 12  1  0
 11 27  1  6
 12 13  1  0
 12 28  1  6
 13 29  1  0
 13 30  1  0
M  CHG  1   9   1
M  END
>  <i_m_ct_stereo_status>  (100) 
1

>  <s_m_source_file>  (100) 
/var/tmp/pbs.5083856.sched01/tmpkl5n39ct/40v705kqvk.sdf

>  <i_m_source_file_index>  (100) 
2

>  <i_lp_mmshare_version>  (100) 
48012

>  <i_f3d_flags>  (100) 
2

>  <s_epik_input>  (100) 
W0NIXTE9W0NIXVtDQEBIXShbQ0gyXTIpW0NASF0oW0NASF0xW0NIMl1DMjM0KVtDQEBIXShbQ0gyXVtDSDJdMylbTkhdW0NIMl00

>  <s_epik_cmdline>  (100) 
J2VwaWtfcHl0aG9uJywgJy1waHQnLCAnMi4wJywgJy1waCcsICc3LjAnLCAnLXRuJywgJzgnLCAnLW1hJywgJzIwMCcsICctaW1hZScsICc8aW5maWxlLm1hZT4nLCAnLW9tYWUnLCAnPG91dGZpbGUubWFlPic=

>  <r_lp_tautomer_probability>  (100) 
1

>  <r_epik_Ionization_Penalty>  (100) 
3.31032e-05

>  <r_epik_Ionization_Penalty_Charging>  (100) 
3.31032e-05

>  <r_epik_Ionization_Penalty_Neutral>  (100) 
0

>  <r_epik_State_Penalty>  (100) 
-0

>  <r_epik_Charging_Adjusted_Penalty>  (100) 
3.31032e-05

>  <i_epik_Tot_Q>  (100) 
1

>  <i_epik_Tot_abs_Q>  (100) 
1

>  <s_lp_Force_Field>  (100) 
OPLS3e

>  <r_lp_Energy>  (100) 
198.846

>  <b_lp_Chiralities_Consistent>  (100) 
0

>  <s_lp_Variant>  (100) 
31:0-1

>  <s_i_glide_gridfile>  (100) 
pfpi4k_grid

>  <i_i_glide_lignum>  (100) 
2

>  <i_i_glide_rotatable_bonds>  (100) 
0

>  <r_i_docking_score>  (100) 
-4.79555

>  <r_i_glide_ligand_efficiency>  (100) 
-0.368889

>  <r_i_glide_ligand_efficiency_sa>  (100) 
-0.867381

>  <r_i_glide_ligand_efficiency_ln>  (100) 
-1.3452

>  <r_i_glide_gscore>  (100) 
-4.79555

>  <r_i_glide_lipo>  (100) 
-0.510084

>  <r_i_glide_hbond>  (100) 
-0.2

>  <r_i_glide_metal>  (100) 
-0

>  <r_i_glide_rewards>  (100) 
-2.2072

>  <r_i_glide_evdw>  (100) 
-19.8102

>  <r_i_glide_ecoul>  (100) 
-5.37078

>  <r_i_glide_erotb>  (100) 
0

>  <r_i_glide_esite>  (100) 
-0.0821472

>  <r_i_glide_emodel>  (100) 
-33.9343

>  <r_i_glide_energy>  (100) 
-25.181

>  <r_i_glide_einternal>  (100) 
0

>  <r_i_glide_intrahb_reward>  (100) 
-0

>  <i_i_glide_confnum>  (100) 
1

>  <i_i_glide_posenum>  (100) 
7

>  <r_i_glide_eff_state_penalty>  (100) 
0

>  <ligand_id>  (100) 
31

>  <original_smiles>  (100) 
C1=CC2CC34CCC(NC3)C2C1C4

>  <smiles>  (100) 
[H]C1=C([H])C2([H])C([H])([H])C34C([H])([H])C([H])([H])C([H])(C2([H])C1([H])C3([H])[H])[N+]([H])([H])C4([H])[H]

$$$$
31:0:1
     RDKit          3D

 31 34  0  0  1  0  0  0  0  0999 V2000
    3.3055   -2.9204   -3.2274 C   0  0  0  0  0  0  0  0  0  0  0  0
    4.2274   -2.0018   -3.5100 C   0  0  0  0  0  0  0  0  0  0  0  0
    4.7355   -1.4083   -2.2168 C   0  0  2  0  0  0  0  0  0  0  0  0
    5.8163   -2.3658   -1.5973 C   0  0  0  0  0  0  0  0  0  0  0  0
    5.4512   -3.1730   -0.2232 C   0  0  2  0  0  0  0  0  0  0  0  0
    4.3973   -3.3335    1.0069 C   0  0  0  0  0  0  0  0  0  0  0  0
    3.2360   -2.3128    1.0761 C   0  0  0  0  0  0  0  0  0  0  0  0
    3.5435   -1.1483    0.1316 C   0  0  1  0  0  0  0  0  0  0  0  0
    4.8907   -0.6610    0.4462 N   0  0  0  0  0  0  0  0  0  0  0  0
    5.8731   -1.7782    0.5241 C   0  0  0  0  0  0  0  0  0  0  0  0
    3.4557   -1.5257   -1.3731 C   0  0  2  0  0  0  0  0  0  0  0  0
    3.1346   -2.9827   -1.7263 C   0  0  2  0  0  0  0  0  0  0  0  0
    4.2640   -3.8779   -1.1083 C   0  0  0  0  0  0  0  0  0  0  0  0
    2.7437   -3.5247   -3.9240 H   0  0  0  0  0  0  0  0  0  0  0  0
    4.5724   -1.7024   -4.4864 H   0  0  0  0  0  0  0  0  0  0  0  0
    5.0678   -0.3782   -2.3442 H   0  0  0  0  0  0  0  0  0  0  0  0
    6.1215   -3.0854   -2.3624 H   0  0  0  0  0  0  0  0  0  0  0  0
    6.7772   -1.8541   -1.6227 H   0  0  0  0  0  0  0  0  0  0  0  0
    3.9933   -4.3342    1.1748 H   0  0  0  0  0  0  0  0  0  0  0  0
    4.8919   -3.3463    1.9814 H   0  0  0  0  0  0  0  0  0  0  0  0
    2.2806   -2.7753    0.8257 H   0  0  0  0  0  0  0  0  0  0  0  0
    3.1309   -1.9484    2.0997 H   0  0  0  0  0  0  0  0  0  0  0  0
    2.8372   -0.3407    0.3293 H   0  0  0  0  0  0  0  0  0  0  0  0
    5.1567   -0.0081   -0.2796 H   0  0  0  0  0  0  0  0  0  0  0  0
    6.1251   -1.8864    1.5809 H   0  0  0  0  0  0  0  0  0  0  0  0
    6.8573   -1.3812    0.2701 H   0  0  0  0  0  0  0  0  0  0  0  0
    2.6915   -0.8842   -1.8206 H   0  0  0  0  0  0  0  0  0  0  0  0
    2.1226   -3.2828   -1.4493 H   0  0  0  0  0  0  0  0  0  0  0  0
    4.7214   -4.4597   -1.9125 H   0  0  0  0  0  0  0  0  0  0  0  0
    3.7708   -4.7625   -0.6989 H   0  0  0  0  0  0  0  0  0  0  0  0
    4.8672   -0.1807    1.3312 H   0  0  0  0  0  0  0  0  0  0  0  0
  1 12  1  0
  1  2  2  0
  1 14  1  0
  2  3  1  0
  2 15  1  0
  3 11  1  0
  3  4  1  0
  3 16  1  6
  5  4  1  1
  4 17  1  0
  4 18  1  0
  5 10  1  0
  5 13  1  0
  5  6  1  0
  6  7  1  0
  6 19  1  0
  6 20  1  0
  7  8  1  0
  7 21  1  0
  7 22  1  0
  8  9  1  0
  8 11  1  0
  8 23  1  6
  9 10  1  0
  9 24  1  0
  9 31  1  0
 10 25  1  0
 10 26  1  0
 11 12  1  0
 11 27  1  6
 12 13  1  0
 12 28  1  6
 13 29  1  0
 13 30  1  0
M  CHG  1   9   1
M  END
>  <i_m_ct_stereo_status>  (101) 
1

>  <s_m_source_file>  (101) 
/var/tmp/pbs.5083856.sched01/tmpkl5n39ct/40v705kqvk.sdf

>  <i_m_source_file_index>  (101) 
2

>  <i_lp_mmshare_version>  (101) 
48012

>  <i_f3d_flags>  (101) 
2

>  <s_epik_input>  (101) 
W0NIXTE9W0NIXVtDQEBIXShbQ0gyXTIpW0NASF0oW0NASF0xW0NIMl1DMjM0KVtDQEBIXShbQ0gyXVtDSDJdMylbTkhdW0NIMl00

>  <s_epik_cmdline>  (101) 
J2VwaWtfcHl0aG9uJywgJy1waHQnLCAnMi4wJywgJy1waCcsICc3LjAnLCAnLXRuJywgJzgnLCAnLW1hJywgJzIwMCcsICctaW1hZScsICc8aW5maWxlLm1hZT4nLCAnLW9tYWUnLCAnPG91dGZpbGUubWFlPic=

>  <r_lp_tautomer_probability>  (101) 
1

>  <r_epik_Ionization_Penalty>  (101) 
3.31032e-05

>  <r_epik_Ionization_Penalty_Charging>  (101) 
3.31032e-05

>  <r_epik_Ionization_Penalty_Neutral>  (101) 
0

>  <r_epik_State_Penalty>  (101) 
-0

>  <r_epik_Charging_Adjusted_Penalty>  (101) 
3.31032e-05

>  <i_epik_Tot_Q>  (101) 
1

>  <i_epik_Tot_abs_Q>  (101) 
1

>  <s_lp_Force_Field>  (101) 
OPLS3e

>  <r_lp_Energy>  (101) 
198.846

>  <b_lp_Chiralities_Consistent>  (101) 
0

>  <s_lp_Variant>  (101) 
31:0-1

>  <s_i_glide_gridfile>  (101) 
pfpi4k_grid

>  <i_i_glide_lignum>  (101) 
2

>  <i_i_glide_rotatable_bonds>  (101) 
0

>  <r_i_docking_score>  (101) 
-3.90542

>  <r_i_glide_ligand_efficiency>  (101) 
-0.300417

>  <r_i_glide_ligand_efficiency_sa>  (101) 
-0.706381

>  <r_i_glide_ligand_efficiency_ln>  (101) 
-1.09551

>  <r_i_glide_gscore>  (101) 
-3.90542

>  <r_i_glide_lipo>  (101) 
-0.41949

>  <r_i_glide_hbond>  (101) 
0

>  <r_i_glide_metal>  (101) 
-0

>  <r_i_glide_rewards>  (101) 
-2.2072

>  <r_i_glide_evdw>  (101) 
-18.5532

>  <r_i_glide_ecoul>  (101) 
-2.3405

>  <r_i_glide_erotb>  (101) 
0

>  <r_i_glide_esite>  (101) 
0

>  <r_i_glide_emodel>  (101) 
-28.0234

>  <r_i_glide_energy>  (101) 
-20.8937

>  <r_i_glide_einternal>  (101) 
0

>  <r_i_glide_intrahb_reward>  (101) 
-0

>  <i_i_glide_confnum>  (101) 
2

>  <i_i_glide_posenum>  (101) 
12

>  <r_i_glide_eff_state_penalty>  (101) 
0

>  <ligand_id>  (101) 
31

>  <original_smiles>  (101) 
C1=CC2CC34CCC(NC3)C2C1C4

>  <smiles>  (101) 
[H]C1=C([H])C2([H])C([H])([H])C34C([H])([H])C([H])([H])C([H])(C2([H])C1([H])C3([H])[H])[N+]([H])([H])C4([H])[H]

$$$$
31:0:2
     RDKit          3D

 31 34  0  0  1  0  0  0  0  0999 V2000
    3.8367   -2.2318   -3.7759 C   0  0  0  0  0  0  0  0  0  0  0  0
    4.2288   -1.0673   -3.2706 C   0  0  0  0  0  0  0  0  0  0  0  0
    4.3630   -1.2177   -1.7738 C   0  0  2  0  0  0  0  0  0  0  0  0
    5.7354   -1.8959   -1.4273 C   0  0  0  0  0  0  0  0  0  0  0  0
    5.7359   -3.4201   -0.8351 C   0  0  2  0  0  0  0  0  0  0  0  0
    4.8301   -4.6312   -0.2323 C   0  0  0  0  0  0  0  0  0  0  0  0
    3.3271   -4.3402   -0.0042 C   0  0  0  0  0  0  0  0  0  0  0  0
    3.0952   -2.8344   -0.1044 C   0  0  1  0  0  0  0  0  0  0  0  0
    4.0462   -2.1810    0.8008 N   0  0  0  0  0  0  0  0  0  0  0  0
    5.4307   -2.6914    0.6005 C   0  0  0  0  0  0  0  0  0  0  0  0
    3.2589   -2.2652   -1.5402 C   0  0  2  0  0  0  0  0  0  0  0  0
    3.6683   -3.2169   -2.6530 C   0  0  2  0  0  0  0  0  0  0  0  0
    5.0529   -3.8417   -2.2684 C   0  0  0  0  0  0  0  0  0  0  0  0
    3.6180   -2.4671   -4.7994 H   0  0  0  0  0  0  0  0  0  0  0  0
    4.4196   -0.1562   -3.8156 H   0  0  0  0  0  0  0  0  0  0  0  0
    4.2009   -0.2714   -1.2572 H   0  0  0  0  0  0  0  0  0  0  0  0
    6.3712   -1.8643   -2.3145 H   0  0  0  0  0  0  0  0  0  0  0  0
    6.3247   -1.1552   -0.8869 H   0  0  0  0  0  0  0  0  0  0  0  0
    4.9254   -5.6022   -0.7233 H   0  0  0  0  0  0  0  0  0  0  0  0
    5.2361   -5.0347    0.6981 H   0  0  0  0  0  0  0  0  0  0  0  0
    2.7033   -4.8741   -0.7169 H   0  0  0  0  0  0  0  0  0  0  0  0
    3.0249   -4.7105    0.9762 H   0  0  0  0  0  0  0  0  0  0  0  0
    2.0886   -2.6133    0.2475 H   0  0  0  0  0  0  0  0  0  0  0  0
    4.0141   -1.1895    0.6085 H   0  0  0  0  0  0  0  0  0  0  0  0
    5.6592   -3.2974    1.4798 H   0  0  0  0  0  0  0  0  0  0  0  0
    6.1241   -1.9009    0.8965 H   0  0  0  0  0  0  0  0  0  0  0  0
    2.2927   -1.8709   -1.8575 H   0  0  0  0  0  0  0  0  0  0  0  0
    2.8693   -3.9100   -2.8964 H   0  0  0  0  0  0  0  0  0  0  0  0
    5.7613   -3.6290   -3.0732 H   0  0  0  0  0  0  0  0  0  0  0  0
    5.0136   -4.9018   -2.5260 H   0  0  0  0  0  0  0  0  0  0  0  0
    3.7681   -2.3431    1.7552 H   0  0  0  0  0  0  0  0  0  0  0  0
  1 12  1  0
  1  2  2  0
  1 14  1  0
  2  3  1  0
  2 15  1  0
  3 11  1  0
  3  4  1  0
  3 16  1  1
  5  4  1  6
  4 17  1  0
  4 18  1  0
  5 10  1  0
  5 13  1  0
  5  6  1  0
  6  7  1  0
  6 19  1  0
  6 20  1  0
  7  8  1  0
  7 21  1  0
  7 22  1  0
  8  9  1  0
  8 11  1  0
  8 23  1  1
  9 10  1  0
  9 24  1  0
  9 31  1  0
 10 25  1  0
 10 26  1  0
 11 12  1  0
 11 27  1  6
 12 13  1  0
 12 28  1  6
 13 29  1  0
 13 30  1  0
M  CHG  1   9   1
M  END
>  <i_m_ct_stereo_status>  (102) 
1

>  <s_m_source_file>  (102) 
/var/tmp/pbs.5083856.sched01/tmpkl5n39ct/40v705kqvk.sdf

>  <i_m_source_file_index>  (102) 
2

>  <i_lp_mmshare_version>  (102) 
48012

>  <i_f3d_flags>  (102) 
2

>  <s_epik_input>  (102) 
W0NIXTE9W0NIXVtDQEBIXShbQ0gyXTIpW0NASF0oW0NASF0xW0NIMl1DMjM0KVtDQEBIXShbQ0gyXVtDSDJdMylbTkhdW0NIMl00

>  <s_epik_cmdline>  (102) 
J2VwaWtfcHl0aG9uJywgJy1waHQnLCAnMi4wJywgJy1waCcsICc3LjAnLCAnLXRuJywgJzgnLCAnLW1hJywgJzIwMCcsICctaW1hZScsICc8aW5maWxlLm1hZT4nLCAnLW9tYWUnLCAnPG91dGZpbGUubWFlPic=

>  <r_lp_tautomer_probability>  (102) 
1

>  <r_epik_Ionization_Penalty>  (102) 
3.31032e-05

>  <r_epik_Ionization_Penalty_Charging>  (102) 
3.31032e-05

>  <r_epik_Ionization_Penalty_Neutral>  (102) 
0

>  <r_epik_State_Penalty>  (102) 
-0

>  <r_epik_Charging_Adjusted_Penalty>  (102) 
3.31032e-05

>  <i_epik_Tot_Q>  (102) 
1

>  <i_epik_Tot_abs_Q>  (102) 
1

>  <s_lp_Force_Field>  (102) 
OPLS3e

>  <r_lp_Energy>  (102) 
198.846

>  <b_lp_Chiralities_Consistent>  (102) 
0

>  <s_lp_Variant>  (102) 
31:0-1

>  <s_i_glide_gridfile>  (102) 
pfpi4k_grid

>  <i_i_glide_lignum>  (102) 
2

>  <i_i_glide_rotatable_bonds>  (102) 
0

>  <r_i_docking_score>  (102) 
-3.75868

>  <r_i_glide_ligand_efficiency>  (102) 
-0.289129

>  <r_i_glide_ligand_efficiency_sa>  (102) 
-0.67984

>  <r_i_glide_ligand_efficiency_ln>  (102) 
-1.05434

>  <r_i_glide_gscore>  (102) 
-3.75868

>  <r_i_glide_lipo>  (102) 
-0.401151

>  <r_i_glide_hbond>  (102) 
0

>  <r_i_glide_metal>  (102) 
-0

>  <r_i_glide_rewards>  (102) 
-2.2072

>  <r_i_glide_evdw>  (102) 
-16.6739

>  <r_i_glide_ecoul>  (102) 
-2.04565

>  <r_i_glide_erotb>  (102) 
0

>  <r_i_glide_esite>  (102) 
-0.00979153

>  <r_i_glide_emodel>  (102) 
-25.5314

>  <r_i_glide_energy>  (102) 
-18.7196

>  <r_i_glide_einternal>  (102) 
0

>  <r_i_glide_intrahb_reward>  (102) 
-0

>  <i_i_glide_confnum>  (102) 
2

>  <i_i_glide_posenum>  (102) 
9

>  <r_i_glide_eff_state_penalty>  (102) 
0

>  <ligand_id>  (102) 
31

>  <original_smiles>  (102) 
C1=CC2CC34CCC(NC3)C2C1C4

>  <smiles>  (102) 
[H]C1=C([H])C2([H])C([H])([H])C34C([H])([H])C([H])([H])C([H])(C2([H])C1([H])C3([H])[H])[N+]([H])([H])C4([H])[H]

$$$$
33:0:0
     RDKit          3D

 71 75  0  0  1  0  0  0  0  0999 V2000
    5.1747   -9.0145    0.9280 C   0  0  0  0  0  0  0  0  0  0  0  0
    5.7038   -7.7017    1.1118 O   0  0  0  0  0  0  0  0  0  0  0  0
    4.7383   -6.6483    1.1150 C   0  0  2  0  0  0  0  0  0  0  0  0
    5.4613   -5.2914    1.0129 C   0  0  0  0  0  0  0  0  0  0  0  0
    4.6025   -4.0867    0.5198 C   0  0  1  0  0  0  0  0  0  0  0  0
    3.4232   -3.7428    1.4913 C   0  0  1  0  0  0  0  0  0  0  0  0
    3.8431   -3.3830    2.9481 C   0  0  0  0  0  0  0  0  0  0  0  0
    2.5783   -2.5879    0.8896 C   0  0  0  0  0  0  0  0  0  0  0  0
    3.3652   -1.4041    0.2615 C   0  0  0  0  0  0  0  0  0  0  0  0
    4.4878   -1.8103   -0.7205 C   0  0  2  0  0  0  0  0  0  0  0  0
    4.0033   -2.1126   -2.2126 C   0  0  0  0  0  0  0  0  0  0  0  0
    2.6562   -2.8572   -2.3508 C   0  0  0  0  0  0  0  0  0  0  0  0
    3.8411   -0.7831   -2.9738 C   0  0  0  0  0  0  0  0  0  0  0  0
    5.0280   -2.8925   -3.0465 C   0  0  0  0  0  0  0  0  0  0  0  0
    5.8741   -3.8588   -2.2914 C   0  0  0  0  0  0  0  0  0  0  0  0
    6.5149   -3.2819   -1.0476 C   0  0  1  0  0  0  0  0  0  0  0  0
    7.4023   -2.2760   -1.5105 O   0  0  0  0  0  0  0  0  0  0  0  0
    5.4448   -2.8386   -0.0170 C   0  0  2  0  0  0  0  0  0  0  0  0
    6.2161   -2.1396    1.1328 C   0  0  0  0  0  0  0  0  0  0  0  0
    2.4983   -4.8569    1.4994 O   0  0  0  0  0  0  0  0  0  0  0  0
    2.6380   -5.8703    2.5060 C   0  0  1  0  0  0  0  0  0  0  0  0
    1.7539   -5.6981    3.7320 C   0  0  0  0  0  0  0  0  0  0  0  0
    0.8379   -6.9429    3.7919 C   0  0  1  0  0  0  0  0  0  0  0  0
   -0.3787   -6.6664    3.1349 O   0  0  0  0  0  0  0  0  0  0  0  0
    1.6005   -8.0502    3.0498 C   0  0  1  0  0  0  0  0  0  0  0  0
    0.7268   -9.1683    2.4561 C   0  0  0  0  0  0  0  0  0  0  0  0
    2.4469   -7.3005    2.0420 C   0  0  2  0  0  0  0  0  0  0  0  0
    3.8366   -6.7726    2.3290 C   0  0  1  0  0  0  0  0  0  0  0  0
    4.6253   -7.1477    3.5838 C   0  0  0  0  0  0  0  0  0  0  0  0
    6.0005   -9.7194    0.8426 H   0  0  0  0  0  0  0  0  0  0  0  0
    4.5543   -9.0805    0.0381 H   0  0  0  0  0  0  0  0  0  0  0  0
    4.5562   -9.3488    1.7581 H   0  0  0  0  0  0  0  0  0  0  0  0
    4.1336   -6.7572    0.2118 H   0  0  0  0  0  0  0  0  0  0  0  0
    6.0090   -5.0633    1.9235 H   0  0  0  0  0  0  0  0  0  0  0  0
    6.2084   -5.5111    0.2674 H   0  0  0  0  0  0  0  0  0  0  0  0
    4.0785   -4.4784   -0.3486 H   0  0  0  0  0  0  0  0  0  0  0  0
    4.3229   -2.4165    3.0492 H   0  0  0  0  0  0  0  0  0  0  0  0
    4.5194   -4.1204    3.3791 H   0  0  0  0  0  0  0  0  0  0  0  0
    2.9761   -3.3176    3.6068 H   0  0  0  0  0  0  0  0  0  0  0  0
    1.8749   -3.0022    0.1642 H   0  0  0  0  0  0  0  0  0  0  0  0
    1.9345   -2.1719    1.6665 H   0  0  0  0  0  0  0  0  0  0  0  0
    2.6660   -0.7361   -0.2350 H   0  0  0  0  0  0  0  0  0  0  0  0
    3.7566   -0.7662    1.0578 H   0  0  0  0  0  0  0  0  0  0  0  0
    5.0871   -0.9073   -0.8286 H   0  0  0  0  0  0  0  0  0  0  0  0
    2.3936   -3.0232   -3.3955 H   0  0  0  0  0  0  0  0  0  0  0  0
    1.8396   -2.2657   -1.9532 H   0  0  0  0  0  0  0  0  0  0  0  0
    2.6527   -3.8270   -1.8668 H   0  0  0  0  0  0  0  0  0  0  0  0
    3.5687   -0.9306   -4.0212 H   0  0  0  0  0  0  0  0  0  0  0  0
    4.7679   -0.2099   -2.9602 H   0  0  0  0  0  0  0  0  0  0  0  0
    3.0549   -0.1897   -2.5331 H   0  0  0  0  0  0  0  0  0  0  0  0
    4.5415   -3.4230   -3.8595 H   0  0  0  0  0  0  0  0  0  0  0  0
    5.7442   -2.2558   -3.5349 H   0  0  0  0  0  0  0  0  0  0  0  0
    5.2912   -4.7555   -2.0869 H   0  0  0  0  0  0  0  0  0  0  0  0
    6.6487   -4.1339   -2.9972 H   0  0  0  0  0  0  0  0  0  0  0  0
    7.1997   -3.9931   -0.6046 H   0  0  0  0  0  0  0  0  0  0  0  0
    8.0039   -2.7085   -2.0996 H   0  0  0  0  0  0  0  0  0  0  0  0
    6.9812   -1.4653    0.7637 H   0  0  0  0  0  0  0  0  0  0  0  0
    6.7015   -2.8639    1.7758 H   0  0  0  0  0  0  0  0  0  0  0  0
    5.6039   -1.5058    1.7523 H   0  0  0  0  0  0  0  0  0  0  0  0
    2.3989   -5.6609    4.6143 H   0  0  0  0  0  0  0  0  0  0  0  0
    1.2010   -4.7576    3.6967 H   0  0  0  0  0  0  0  0  0  0  0  0
    0.6225   -7.2381    4.8151 H   0  0  0  0  0  0  0  0  0  0  0  0
   -0.8630   -7.4864    3.1296 H   0  0  0  0  0  0  0  0  0  0  0  0
    2.2844   -8.5338    3.7455 H   0  0  0  0  0  0  0  0  0  0  0  0
    0.0530   -8.7938    1.6825 H   0  0  0  0  0  0  0  0  0  0  0  0
    0.1272   -9.6545    3.2211 H   0  0  0  0  0  0  0  0  0  0  0  0
    1.3412   -9.9361    1.9947 H   0  0  0  0  0  0  0  0  0  0  0  0
    2.1597   -7.4264    1.0067 H   0  0  0  0  0  0  0  0  0  0  0  0
    3.9695   -7.2158    4.4425 H   0  0  0  0  0  0  0  0  0  0  0  0
    5.3982   -6.4079    3.7902 H   0  0  0  0  0  0  0  0  0  0  0  0
    5.1066   -8.1199    3.4923 H   0  0  0  0  0  0  0  0  0  0  0  0
  1  2  1  0
  1 30  1  0
  1 31  1  0
  1 32  1  0
  2  3  1  0
  3 28  1  0
  3  4  1  0
  3 33  1  6
  4  5  1  0
  4 34  1  0
  4 35  1  0
  5 18  1  0
  5  6  1  0
  5 36  1  6
  6  7  1  1
  6  8  1  0
  6 20  1  0
  7 37  1  0
  7 38  1  0
  7 39  1  0
  8  9  1  0
  8 40  1  0
  8 41  1  0
  9 10  1  0
  9 42  1  0
  9 43  1  0
 10 18  1  0
 10 11  1  0
 10 44  1  6
 11 12  1  0
 11 13  1  0
 11 14  1  0
 12 45  1  0
 12 46  1  0
 12 47  1  0
 13 48  1  0
 13 49  1  0
 13 50  1  0
 14 15  1  0
 14 51  1  0
 14 52  1  0
 15 16  1  0
 15 53  1  0
 15 54  1  0
 16 17  1  0
 16 18  1  0
 16 55  1  1
 17 56  1  0
 18 19  1  1
 19 57  1  0
 19 58  1  0
 19 59  1  0
 21 20  1  6
 21 27  1  0
 21 28  1  0
 21 22  1  0
 22 23  1  0
 22 60  1  0
 22 61  1  0
 23 24  1  0
 23 25  1  0
 23 62  1  1
 24 63  1  0
 25 26  1  0
 25 27  1  0
 25 64  1  1
 26 65  1  0
 26 66  1  0
 26 67  1  0
 27 28  1  0
 27 68  1  6
 28 29  1  1
 29 69  1  0
 29 70  1  0
 29 71  1  0
M  END
>  <i_m_ct_stereo_status>  (103) 
1

>  <s_m_source_file>  (103) 
/var/tmp/pbs.5083856.sched01/tmpkl5n39ct/40v705kqvk.sdf

>  <i_m_source_file_index>  (103) 
4

>  <i_lp_mmshare_version>  (103) 
48012

>  <i_f3d_flags>  (103) 
0

>  <s_epik_input>  (103) 
W0NIMl0xW0NAQEhdKFtPSF0pW0NAQEhdKFtDSDNdKVtDQEBIXShbQ0BdMTIzKVtDQEBdMyhbQ0gzXSlbQ0BIXShPW0NIM10pW0NIMl1bQ0BIXTRbQ0BAXShPMikoW0NIM10pW0NIMl1bQ0gyXVtDQEhdNVtDQF00KFtDSDNdKVtDQEhdKFtPSF0pW0NIMl1bQ0gyXUM1KFtDSDNdKVtDSDNd

>  <s_epik_cmdline>  (103) 
J2VwaWtfcHl0aG9uJywgJy1waHQnLCAnMi4wJywgJy1waCcsICc3LjAnLCAnLXRuJywgJzgnLCAnLW1hJywgJzIwMCcsICctaW1hZScsICc8aW5maWxlLm1hZT4nLCAnLW9tYWUnLCAnPG91dGZpbGUubWFlPic=

>  <r_lp_tautomer_probability>  (103) 
1

>  <r_epik_Ionization_Penalty>  (103) 
2.27622e-06

>  <r_epik_Ionization_Penalty_Charging>  (103) 
0

>  <r_epik_Ionization_Penalty_Neutral>  (103) 
2.27622e-06

>  <r_epik_State_Penalty>  (103) 
-0

>  <r_epik_Charging_Adjusted_Penalty>  (103) 
0

>  <i_epik_Tot_Q>  (103) 
0

>  <i_epik_Tot_abs_Q>  (103) 
0

>  <s_lp_Force_Field>  (103) 
OPLS3e

>  <r_lp_Energy>  (103) 
68.0417

>  <b_lp_Chiralities_Consistent>  (103) 
1

>  <s_lp_Variant>  (103) 
33:0-1

>  <s_i_glide_gridfile>  (103) 
pfpi4k_grid

>  <i_i_glide_lignum>  (103) 
4

>  <i_i_glide_rotatable_bonds>  (103) 
3

>  <r_i_docking_score>  (103) 
-4.01808

>  <r_i_glide_ligand_efficiency>  (103) 
-0.138555

>  <r_i_glide_ligand_efficiency_sa>  (103) 
-0.425684

>  <r_i_glide_ligand_efficiency_ln>  (103) 
-0.920039

>  <r_i_glide_gscore>  (103) 
-4.01808

>  <r_i_glide_lipo>  (103) 
-0.830262

>  <r_i_glide_hbond>  (103) 
-0.330243

>  <r_i_glide_metal>  (103) 
-0

>  <r_i_glide_rewards>  (103) 
-0.636828

>  <r_i_glide_evdw>  (103) 
-19.0377

>  <r_i_glide_ecoul>  (103) 
-8.45912

>  <r_i_glide_erotb>  (103) 
0

>  <r_i_glide_esite>  (103) 
0

>  <r_i_glide_emodel>  (103) 
-32.3172

>  <r_i_glide_energy>  (103) 
-27.4968

>  <r_i_glide_einternal>  (103) 
1.0201

>  <r_i_glide_intrahb_reward>  (103) 
-0

>  <i_i_glide_confnum>  (103) 
2

>  <i_i_glide_posenum>  (103) 
23

>  <r_i_glide_eff_state_penalty>  (103) 
0

>  <ligand_id>  (103) 
33

>  <original_smiles>  (103) 
COC1CC2C(C)(CCC3C(C)(C)CCC(O)C32C)OC23CC(O)C(C)C2C13C

>  <smiles>  (103) 
[H]OC1([H])C([H])([H])C23OC4(C([H])([H])[H])C([H])([H])C([H])([H])C5([H])C(C([H])([H])[H])(C([H])([H])[H])C([H])([H])C([H])([H])C([H])(O[H])C5(C([H])([H])[H])C4([H])C([H])([H])C([H])(OC([H])([H])[H])C2(C([H])([H])[H])C3([H])C1([H])C([H])([H])[H]

$$$$
33:0:1
     RDKit          3D

 71 75  0  0  1  0  0  0  0  0999 V2000
    2.7906   -0.0177    1.4653 C   0  0  0  0  0  0  0  0  0  0  0  0
    3.4910   -1.0009    2.2177 O   0  0  0  0  0  0  0  0  0  0  0  0
    3.4905   -2.3020    1.6218 C   0  0  2  0  0  0  0  0  0  0  0  0
    3.8958   -3.3246    2.6984 C   0  0  0  0  0  0  0  0  0  0  0  0
    3.4544   -4.7925    2.4329 C   0  0  1  0  0  0  0  0  0  0  0  0
    4.1102   -5.4154    1.1600 C   0  0  1  0  0  0  0  0  0  0  0  0
    5.6682   -5.4542    1.1470 C   0  0  0  0  0  0  0  0  0  0  0  0
    3.5450   -6.8335    0.9272 C   0  0  0  0  0  0  0  0  0  0  0  0
    3.3998   -7.7501    2.1650 C   0  0  0  0  0  0  0  0  0  0  0  0
    2.7271   -7.0899    3.3966 C   0  0  2  0  0  0  0  0  0  0  0  0
    1.1325   -7.1427    3.3849 C   0  0  0  0  0  0  0  0  0  0  0  0
    0.4816   -6.9361    1.9933 C   0  0  0  0  0  0  0  0  0  0  0  0
    0.6880   -8.5454    3.8563 C   0  0  0  0  0  0  0  0  0  0  0  0
    0.4665   -6.1482    4.3852 C   0  0  0  0  0  0  0  0  0  0  0  0
    1.2011   -4.8282    4.6088 C   0  0  0  0  0  0  0  0  0  0  0  0
    2.6699   -5.0652    4.9146 C   0  0  1  0  0  0  0  0  0  0  0  0
    2.6931   -5.8659    6.0867 O   0  0  0  0  0  0  0  0  0  0  0  0
    3.4331   -5.7223    3.7228 C   0  0  2  0  0  0  0  0  0  0  0  0
    4.8800   -5.9890    4.2299 C   0  0  0  0  0  0  0  0  0  0  0  0
    3.6230   -4.6826    0.0131 O   0  0  0  0  0  0  0  0  0  0  0  0
    4.3834   -3.5799   -0.5053 C   0  0  1  0  0  0  0  0  0  0  0  0
    5.3295   -3.9015   -1.6462 C   0  0  0  0  0  0  0  0  0  0  0  0
    4.8878   -3.0510   -2.8618 C   0  0  1  0  0  0  0  0  0  0  0  0
    4.0530   -3.8337   -3.7067 O   0  0  0  0  0  0  0  0  0  0  0  0
    4.1377   -1.8534   -2.2522 C   0  0  1  0  0  0  0  0  0  0  0  0
    3.0938   -1.1930   -3.1705 C   0  0  0  0  0  0  0  0  0  0  0  0
    3.5782   -2.3768   -0.9508 C   0  0  2  0  0  0  0  0  0  0  0  0
    4.3505   -2.3381    0.3757 C   0  0  1  0  0  0  0  0  0  0  0  0
    5.6505   -1.5605    0.5422 C   0  0  0  0  0  0  0  0  0  0  0  0
    2.8308    0.9347    1.9961 H   0  0  0  0  0  0  0  0  0  0  0  0
    1.7433   -0.2871    1.3293 H   0  0  0  0  0  0  0  0  0  0  0  0
    3.2365    0.1389    0.4805 H   0  0  0  0  0  0  0  0  0  0  0  0
    2.4581   -2.5221    1.3386 H   0  0  0  0  0  0  0  0  0  0  0  0
    4.9554   -3.2519    2.9299 H   0  0  0  0  0  0  0  0  0  0  0  0
    3.3758   -2.9516    3.5718 H   0  0  0  0  0  0  0  0  0  0  0  0
    2.4119   -4.6938    2.1408 H   0  0  0  0  0  0  0  0  0  0  0  0
    6.0973   -6.1875    1.8146 H   0  0  0  0  0  0  0  0  0  0  0  0
    6.1116   -4.4893    1.3874 H   0  0  0  0  0  0  0  0  0  0  0  0
    6.0390   -5.7445    0.1650 H   0  0  0  0  0  0  0  0  0  0  0  0
    2.5672   -6.7140    0.4786 H   0  0  0  0  0  0  0  0  0  0  0  0
    4.1500   -7.3503    0.1811 H   0  0  0  0  0  0  0  0  0  0  0  0
    2.8609   -8.6532    1.8787 H   0  0  0  0  0  0  0  0  0  0  0  0
    4.3828   -8.1407    2.4369 H   0  0  0  0  0  0  0  0  0  0  0  0
    2.9960   -7.7414    4.2316 H   0  0  0  0  0  0  0  0  0  0  0  0
   -0.6032   -6.9981    2.0528 H   0  0  0  0  0  0  0  0  0  0  0  0
    0.7667   -7.7329    1.3058 H   0  0  0  0  0  0  0  0  0  0  0  0
    0.7311   -5.9833    1.5439 H   0  0  0  0  0  0  0  0  0  0  0  0
   -0.4053   -8.6218    3.8797 H   0  0  0  0  0  0  0  0  0  0  0  0
    1.0467   -8.7410    4.8746 H   0  0  0  0  0  0  0  0  0  0  0  0
    1.0664   -9.3403    3.2071 H   0  0  0  0  0  0  0  0  0  0  0  0
   -0.5489   -5.9171    4.0805 H   0  0  0  0  0  0  0  0  0  0  0  0
    0.3478   -6.6249    5.3576 H   0  0  0  0  0  0  0  0  0  0  0  0
    1.0665   -4.1830    3.7429 H   0  0  0  0  0  0  0  0  0  0  0  0
    0.7423   -4.2859    5.4330 H   0  0  0  0  0  0  0  0  0  0  0  0
    3.1581   -4.1429    5.2152 H   0  0  0  0  0  0  0  0  0  0  0  0
    3.5914   -6.0188    6.3294 H   0  0  0  0  0  0  0  0  0  0  0  0
    4.9081   -6.4091    5.2304 H   0  0  0  0  0  0  0  0  0  0  0  0
    5.4767   -5.0793    4.2517 H   0  0  0  0  0  0  0  0  0  0  0  0
    5.4189   -6.7249    3.6480 H   0  0  0  0  0  0  0  0  0  0  0  0
    6.3555   -3.6590   -1.3680 H   0  0  0  0  0  0  0  0  0  0  0  0
    5.3037   -4.9777   -1.8555 H   0  0  0  0  0  0  0  0  0  0  0  0
    5.7423   -2.7300   -3.4752 H   0  0  0  0  0  0  0  0  0  0  0  0
    3.5334   -4.4351   -3.1671 H   0  0  0  0  0  0  0  0  0  0  0  0
    4.8723   -1.0846   -2.0340 H   0  0  0  0  0  0  0  0  0  0  0  0
    2.2660   -1.8518   -3.4086 H   0  0  0  0  0  0  0  0  0  0  0  0
    3.5319   -0.8692   -4.1096 H   0  0  0  0  0  0  0  0  0  0  0  0
    2.6665   -0.3011   -2.7142 H   0  0  0  0  0  0  0  0  0  0  0  0
    2.5001   -2.5000   -0.9070 H   0  0  0  0  0  0  0  0  0  0  0  0
    6.2679   -1.6332   -0.3469 H   0  0  0  0  0  0  0  0  0  0  0  0
    6.2151   -1.9505    1.3905 H   0  0  0  0  0  0  0  0  0  0  0  0
    5.4438   -0.5042    0.7210 H   0  0  0  0  0  0  0  0  0  0  0  0
  1  2  1  0
  1 30  1  0
  1 31  1  0
  1 32  1  0
  2  3  1  0
  3 28  1  0
  3  4  1  0
  3 33  1  6
  4  5  1  0
  4 34  1  0
  4 35  1  0
  5 18  1  0
  5  6  1  0
  5 36  1  6
  6  7  1  1
  6  8  1  0
  6 20  1  0
  7 37  1  0
  7 38  1  0
  7 39  1  0
  8  9  1  0
  8 40  1  0
  8 41  1  0
  9 10  1  0
  9 42  1  0
  9 43  1  0
 10 18  1  0
 10 11  1  0
 10 44  1  1
 11 12  1  0
 11 13  1  0
 11 14  1  0
 12 45  1  0
 12 46  1  0
 12 47  1  0
 13 48  1  0
 13 49  1  0
 13 50  1  0
 14 15  1  0
 14 51  1  0
 14 52  1  0
 15 16  1  0
 15 53  1  0
 15 54  1  0
 16 17  1  0
 16 18  1  0
 16 55  1  1
 17 56  1  0
 18 19  1  1
 19 57  1  0
 19 58  1  0
 19 59  1  0
 21 20  1  1
 21 27  1  0
 21 28  1  0
 21 22  1  0
 22 23  1  0
 22 60  1  0
 22 61  1  0
 23 24  1  0
 23 25  1  0
 23 62  1  6
 24 63  1  0
 25 26  1  0
 25 27  1  0
 25 64  1  1
 26 65  1  0
 26 66  1  0
 26 67  1  0
 27 28  1  0
 27 68  1  1
 28 29  1  6
 29 69  1  0
 29 70  1  0
 29 71  1  0
M  END
>  <i_m_ct_stereo_status>  (104) 
1

>  <s_m_source_file>  (104) 
/var/tmp/pbs.5083856.sched01/tmpkl5n39ct/40v705kqvk.sdf

>  <i_m_source_file_index>  (104) 
4

>  <i_lp_mmshare_version>  (104) 
48012

>  <i_f3d_flags>  (104) 
0

>  <s_epik_input>  (104) 
W0NIMl0xW0NAQEhdKFtPSF0pW0NAQEhdKFtDSDNdKVtDQEBIXShbQ0BdMTIzKVtDQEBdMyhbQ0gzXSlbQ0BIXShPW0NIM10pW0NIMl1bQ0BIXTRbQ0BAXShPMikoW0NIM10pW0NIMl1bQ0gyXVtDQEhdNVtDQF00KFtDSDNdKVtDQEhdKFtPSF0pW0NIMl1bQ0gyXUM1KFtDSDNdKVtDSDNd

>  <s_epik_cmdline>  (104) 
J2VwaWtfcHl0aG9uJywgJy1waHQnLCAnMi4wJywgJy1waCcsICc3LjAnLCAnLXRuJywgJzgnLCAnLW1hJywgJzIwMCcsICctaW1hZScsICc8aW5maWxlLm1hZT4nLCAnLW9tYWUnLCAnPG91dGZpbGUubWFlPic=

>  <r_lp_tautomer_probability>  (104) 
1

>  <r_epik_Ionization_Penalty>  (104) 
2.27622e-06

>  <r_epik_Ionization_Penalty_Charging>  (104) 
0

>  <r_epik_Ionization_Penalty_Neutral>  (104) 
2.27622e-06

>  <r_epik_State_Penalty>  (104) 
-0

>  <r_epik_Charging_Adjusted_Penalty>  (104) 
0

>  <i_epik_Tot_Q>  (104) 
0

>  <i_epik_Tot_abs_Q>  (104) 
0

>  <s_lp_Force_Field>  (104) 
OPLS3e

>  <r_lp_Energy>  (104) 
68.0417

>  <b_lp_Chiralities_Consistent>  (104) 
1

>  <s_lp_Variant>  (104) 
33:0-1

>  <s_i_glide_gridfile>  (104) 
pfpi4k_grid

>  <i_i_glide_lignum>  (104) 
4

>  <i_i_glide_rotatable_bonds>  (104) 
3

>  <r_i_docking_score>  (104) 
-3.26304

>  <r_i_glide_ligand_efficiency>  (104) 
-0.112519

>  <r_i_glide_ligand_efficiency_sa>  (104) 
-0.345693

>  <r_i_glide_ligand_efficiency_ln>  (104) 
-0.747154

>  <r_i_glide_gscore>  (104) 
-3.26304

>  <r_i_glide_lipo>  (104) 
-0.474669

>  <r_i_glide_hbond>  (104) 
-0.32

>  <r_i_glide_metal>  (104) 
-0

>  <r_i_glide_rewards>  (104) 
-0.636828

>  <r_i_glide_evdw>  (104) 
-24.053

>  <r_i_glide_ecoul>  (104) 
-4.19264

>  <r_i_glide_erotb>  (104) 
0

>  <r_i_glide_esite>  (104) 
0

>  <r_i_glide_emodel>  (104) 
-32.5713

>  <r_i_glide_energy>  (104) 
-28.2457

>  <r_i_glide_einternal>  (104) 
0.985338

>  <r_i_glide_intrahb_reward>  (104) 
-0

>  <i_i_glide_confnum>  (104) 
1

>  <i_i_glide_posenum>  (104) 
1

>  <r_i_glide_eff_state_penalty>  (104) 
0

>  <ligand_id>  (104) 
33

>  <original_smiles>  (104) 
COC1CC2C(C)(CCC3C(C)(C)CCC(O)C32C)OC23CC(O)C(C)C2C13C

>  <smiles>  (104) 
[H]OC1([H])C([H])([H])C23OC4(C([H])([H])[H])C([H])([H])C([H])([H])C5([H])C(C([H])([H])[H])(C([H])([H])[H])C([H])([H])C([H])([H])C([H])(O[H])C5(C([H])([H])[H])C4([H])C([H])([H])C([H])(OC([H])([H])[H])C2(C([H])([H])[H])C3([H])C1([H])C([H])([H])[H]

$$$$
33:0:2
     RDKit          3D

 71 75  0  0  1  0  0  0  0  0999 V2000
    1.2632   -0.7933    2.6145 C   0  0  0  0  0  0  0  0  0  0  0  0
    2.6404   -1.0967    2.4496 O   0  0  0  0  0  0  0  0  0  0  0  0
    2.8997   -2.4303    2.0146 C   0  0  2  0  0  0  0  0  0  0  0  0
    3.1175   -3.3480    3.2314 C   0  0  0  0  0  0  0  0  0  0  0  0
    2.9035   -4.8671    2.9700 C   0  0  1  0  0  0  0  0  0  0  0  0
    3.9301   -5.4711    1.9487 C   0  0  1  0  0  0  0  0  0  0  0  0
    5.4280   -5.3236    2.3465 C   0  0  0  0  0  0  0  0  0  0  0  0
    3.5995   -6.9630    1.6812 C   0  0  0  0  0  0  0  0  0  0  0  0
    3.2059   -7.8151    2.9137 C   0  0  0  0  0  0  0  0  0  0  0  0
    2.1767   -7.1723    3.8854 C   0  0  2  0  0  0  0  0  0  0  0  0
    0.6540   -7.3987    3.4775 C   0  0  0  0  0  0  0  0  0  0  0  0
    0.3810   -7.3338    1.9523 C   0  0  0  0  0  0  0  0  0  0  0  0
    0.2342   -8.8181    3.9346 C   0  0  0  0  0  0  0  0  0  0  0  0
   -0.3378   -6.4382    4.1981 C   0  0  0  0  0  0  0  0  0  0  0  0
    0.1880   -5.0330    4.5058 C   0  0  0  0  0  0  0  0  0  0  0  0
    1.5381   -5.1012    5.1980 C   0  0  1  0  0  0  0  0  0  0  0  0
    1.3192   -5.8336    6.3894 O   0  0  0  0  0  0  0  0  0  0  0  0
    2.6406   -5.7239    4.2832 C   0  0  2  0  0  0  0  0  0  0  0  0
    3.9222   -5.7967    5.1645 C   0  0  0  0  0  0  0  0  0  0  0  0
    3.6853   -4.8479    0.6617 O   0  0  0  0  0  0  0  0  0  0  0  0
    4.4417   -3.6847    0.2889 C   0  0  1  0  0  0  0  0  0  0  0  0
    5.6937   -3.9548   -0.5377 C   0  0  0  0  0  0  0  0  0  0  0  0
    5.5110   -3.2189   -1.8850 C   0  0  1  0  0  0  0  0  0  0  0  0
    4.9918   -4.1249   -2.8332 O   0  0  0  0  0  0  0  0  0  0  0  0
    4.5154   -2.0826   -1.5884 C   0  0  1  0  0  0  0  0  0  0  0  0
    3.6922   -1.5813   -2.7856 C   0  0  0  0  0  0  0  0  0  0  0  0
    3.6777   -2.5970   -0.4313 C   0  0  2  0  0  0  0  0  0  0  0  0
    4.0626   -2.4212    1.0309 C   0  0  1  0  0  0  0  0  0  0  0  0
    5.1870   -1.4823    1.4671 C   0  0  0  0  0  0  0  0  0  0  0  0
    1.1536    0.2193    2.9976 H   0  0  0  0  0  0  0  0  0  0  0  0
    0.7768   -1.4723    3.3162 H   0  0  0  0  0  0  0  0  0  0  0  0
    0.7299   -0.8438    1.6659 H   0  0  0  0  0  0  0  0  0  0  0  0
    2.0286   -2.7943    1.4679 H   0  0  0  0  0  0  0  0  0  0  0  0
    4.0667   -3.1398    3.7188 H   0  0  0  0  0  0  0  0  0  0  0  0
    2.3645   -3.0035    3.9261 H   0  0  0  0  0  0  0  0  0  0  0  0
    1.9714   -4.9032    2.4192 H   0  0  0  0  0  0  0  0  0  0  0  0
    5.7370   -5.9632    3.1636 H   0  0  0  0  0  0  0  0  0  0  0  0
    5.6900   -4.3025    2.6215 H   0  0  0  0  0  0  0  0  0  0  0  0
    6.0838   -5.6122    1.5269 H   0  0  0  0  0  0  0  0  0  0  0  0
    2.8079   -7.0232    0.9382 H   0  0  0  0  0  0  0  0  0  0  0  0
    4.4528   -7.4429    1.1982 H   0  0  0  0  0  0  0  0  0  0  0  0
    2.8510   -8.7930    2.5840 H   0  0  0  0  0  0  0  0  0  0  0  0
    4.1120   -8.0665    3.4620 H   0  0  0  0  0  0  0  0  0  0  0  0
    2.2804   -7.7474    4.8085 H   0  0  0  0  0  0  0  0  0  0  0  0
   -0.6712   -7.5081    1.7321 H   0  0  0  0  0  0  0  0  0  0  0  0
    0.9140   -8.1224    1.4210 H   0  0  0  0  0  0  0  0  0  0  0  0
    0.6508   -6.3814    1.5058 H   0  0  0  0  0  0  0  0  0  0  0  0
   -0.8120   -9.0211    3.6883 H   0  0  0  0  0  0  0  0  0  0  0  0
    0.3279   -8.9195    5.0204 H   0  0  0  0  0  0  0  0  0  0  0  0
    0.8432   -9.5996    3.4764 H   0  0  0  0  0  0  0  0  0  0  0  0
   -1.2595   -6.3482    3.6304 H   0  0  0  0  0  0  0  0  0  0  0  0
   -0.6614   -6.8753    5.1423 H   0  0  0  0  0  0  0  0  0  0  0  0
    0.2386   -4.4323    3.6036 H   0  0  0  0  0  0  0  0  0  0  0  0
   -0.5164   -4.5109    5.1488 H   0  0  0  0  0  0  0  0  0  0  0  0
    1.8368   -4.1188    5.5510 H   0  0  0  0  0  0  0  0  0  0  0  0
    2.1523   -5.9380    6.8340 H   0  0  0  0  0  0  0  0  0  0  0  0
    3.7289   -6.1571    6.1713 H   0  0  0  0  0  0  0  0  0  0  0  0
    4.4005   -4.8244    5.2660 H   0  0  0  0  0  0  0  0  0  0  0  0
    4.6648   -6.4952    4.8006 H   0  0  0  0  0  0  0  0  0  0  0  0
    6.5713   -3.5694   -0.0127 H   0  0  0  0  0  0  0  0  0  0  0  0
    5.8402   -5.0289   -0.6599 H   0  0  0  0  0  0  0  0  0  0  0  0
    6.4572   -2.8415   -2.2835 H   0  0  0  0  0  0  0  0  0  0  0  0
    4.2548   -4.5970   -2.4533 H   0  0  0  0  0  0  0  0  0  0  0  0
    5.0875   -1.2236   -1.2367 H   0  0  0  0  0  0  0  0  0  0  0  0
    3.0186   -2.3373   -3.1824 H   0  0  0  0  0  0  0  0  0  0  0  0
    4.3361   -1.2583   -3.6011 H   0  0  0  0  0  0  0  0  0  0  0  0
    3.0806   -0.7237   -2.5071 H   0  0  0  0  0  0  0  0  0  0  0  0
    2.6311   -2.7909   -0.6588 H   0  0  0  0  0  0  0  0  0  0  0  0
    6.0238   -1.5254    0.7728 H   0  0  0  0  0  0  0  0  0  0  0  0
    5.5549   -1.7603    2.4538 H   0  0  0  0  0  0  0  0  0  0  0  0
    4.8305   -0.4526    1.4938 H   0  0  0  0  0  0  0  0  0  0  0  0
  1  2  1  0
  1 30  1  0
  1 31  1  0
  1 32  1  0
  2  3  1  0
  3 28  1  0
  3  4  1  0
  3 33  1  6
  4  5  1  0
  4 34  1  0
  4 35  1  0
  5 18  1  0
  5  6  1  0
  5 36  1  6
  6  7  1  1
  6  8  1  0
  6 20  1  0
  7 37  1  0
  7 38  1  0
  7 39  1  0
  8  9  1  0
  8 40  1  0
  8 41  1  0
  9 10  1  0
  9 42  1  0
  9 43  1  0
 10 18  1  0
 10 11  1  0
 10 44  1  1
 11 12  1  0
 11 13  1  0
 11 14  1  0
 12 45  1  0
 12 46  1  0
 12 47  1  0
 13 48  1  0
 13 49  1  0
 13 50  1  0
 14 15  1  0
 14 51  1  0
 14 52  1  0
 15 16  1  0
 15 53  1  0
 15 54  1  0
 16 17  1  0
 16 18  1  0
 16 55  1  1
 17 56  1  0
 18 19  1  1
 19 57  1  0
 19 58  1  0
 19 59  1  0
 21 20  1  1
 21 27  1  0
 21 28  1  0
 21 22  1  0
 22 23  1  0
 22 60  1  0
 22 61  1  0
 23 24  1  0
 23 25  1  0
 23 62  1  6
 24 63  1  0
 25 26  1  0
 25 27  1  0
 25 64  1  1
 26 65  1  0
 26 66  1  0
 26 67  1  0
 27 28  1  0
 27 68  1  1
 28 29  1  6
 29 69  1  0
 29 70  1  0
 29 71  1  0
M  END
>  <i_m_ct_stereo_status>  (105) 
1

>  <s_m_source_file>  (105) 
/var/tmp/pbs.5083856.sched01/tmpkl5n39ct/40v705kqvk.sdf

>  <i_m_source_file_index>  (105) 
4

>  <i_lp_mmshare_version>  (105) 
48012

>  <i_f3d_flags>  (105) 
0

>  <s_epik_input>  (105) 
W0NIMl0xW0NAQEhdKFtPSF0pW0NAQEhdKFtDSDNdKVtDQEBIXShbQ0BdMTIzKVtDQEBdMyhbQ0gzXSlbQ0BIXShPW0NIM10pW0NIMl1bQ0BIXTRbQ0BAXShPMikoW0NIM10pW0NIMl1bQ0gyXVtDQEhdNVtDQF00KFtDSDNdKVtDQEhdKFtPSF0pW0NIMl1bQ0gyXUM1KFtDSDNdKVtDSDNd

>  <s_epik_cmdline>  (105) 
J2VwaWtfcHl0aG9uJywgJy1waHQnLCAnMi4wJywgJy1waCcsICc3LjAnLCAnLXRuJywgJzgnLCAnLW1hJywgJzIwMCcsICctaW1hZScsICc8aW5maWxlLm1hZT4nLCAnLW9tYWUnLCAnPG91dGZpbGUubWFlPic=

>  <r_lp_tautomer_probability>  (105) 
1

>  <r_epik_Ionization_Penalty>  (105) 
2.27622e-06

>  <r_epik_Ionization_Penalty_Charging>  (105) 
0

>  <r_epik_Ionization_Penalty_Neutral>  (105) 
2.27622e-06

>  <r_epik_State_Penalty>  (105) 
-0

>  <r_epik_Charging_Adjusted_Penalty>  (105) 
0

>  <i_epik_Tot_Q>  (105) 
0

>  <i_epik_Tot_abs_Q>  (105) 
0

>  <s_lp_Force_Field>  (105) 
OPLS3e

>  <r_lp_Energy>  (105) 
68.0417

>  <b_lp_Chiralities_Consistent>  (105) 
1

>  <s_lp_Variant>  (105) 
33:0-1

>  <s_i_glide_gridfile>  (105) 
pfpi4k_grid

>  <i_i_glide_lignum>  (105) 
4

>  <i_i_glide_rotatable_bonds>  (105) 
3

>  <r_i_docking_score>  (105) 
-2.83946

>  <r_i_glide_ligand_efficiency>  (105) 
-0.0979124

>  <r_i_glide_ligand_efficiency_sa>  (105) 
-0.300818

>  <r_i_glide_ligand_efficiency_ln>  (105) 
-0.650165

>  <r_i_glide_gscore>  (105) 
-2.83946

>  <r_i_glide_lipo>  (105) 
-0.377669

>  <r_i_glide_hbond>  (105) 
-0.297832

>  <r_i_glide_metal>  (105) 
-0

>  <r_i_glide_rewards>  (105) 
-0.636828

>  <r_i_glide_evdw>  (105) 
-21.6274

>  <r_i_glide_ecoul>  (105) 
-2.97175

>  <r_i_glide_erotb>  (105) 
0

>  <r_i_glide_esite>  (105) 
0

>  <r_i_glide_emodel>  (105) 
-28.0161

>  <r_i_glide_energy>  (105) 
-24.5992

>  <r_i_glide_einternal>  (105) 
1.75943

>  <r_i_glide_intrahb_reward>  (105) 
-0

>  <i_i_glide_confnum>  (105) 
2

>  <i_i_glide_posenum>  (105) 
9

>  <r_i_glide_eff_state_penalty>  (105) 
0

>  <ligand_id>  (105) 
33

>  <original_smiles>  (105) 
COC1CC2C(C)(CCC3C(C)(C)CCC(O)C32C)OC23CC(O)C(C)C2C13C

>  <smiles>  (105) 
[H]OC1([H])C([H])([H])C23OC4(C([H])([H])[H])C([H])([H])C([H])([H])C5([H])C(C([H])([H])[H])(C([H])([H])[H])C([H])([H])C([H])([H])C([H])(O[H])C5(C([H])([H])[H])C4([H])C([H])([H])C([H])(OC([H])([H])[H])C2(C([H])([H])[H])C3([H])C1([H])C([H])([H])[H]

$$$$
34:0:0
     RDKit          3D

 54 57  0  0  1  0  0  0  0  0999 V2000
    5.9130   -2.5551    0.8124 C   0  0  0  0  0  0  0  0  0  0  0  0
    4.6895   -1.7255    0.3371 C   0  0  0  0  0  0  0  0  0  0  0  0
    4.9774   -1.1740   -1.0694 C   0  0  0  0  0  0  0  0  0  0  0  0
    3.4188   -2.5857    0.2652 C   0  0  0  0  0  0  0  0  0  0  0  0
    2.9319   -3.0577    1.6374 C   0  0  0  0  0  0  0  0  0  0  0  0
    2.3862   -4.1545    1.7490 O   0  0  0  0  0  0  0  0  0  0  0  0
    3.0997   -2.1546    2.8725 C   0  0  1  0  0  0  0  0  0  0  0  0
    4.0228   -0.9519    2.6931 C   0  0  0  0  0  0  0  0  0  0  0  0
    4.4304   -0.2431    3.6566 N   0  0  0  0  0  0  0  0  0  0  0  0
    4.2477   -0.5088    5.0155 C   0  0  0  0  0  0  0  0  0  0  0  0
    3.1161   -0.9872    5.6177 C   0  0  0  0  0  0  0  0  0  0  0  0
    3.1722   -1.2335    7.0946 C   0  0  0  0  0  0  0  0  0  0  0  0
    2.2303   -1.6983    7.7360 O   0  0  0  0  0  0  0  0  0  0  0  0
    4.4404   -0.8754    7.8803 C   0  0  0  0  0  0  0  0  0  0  0  0
    5.7233   -1.0212    7.0509 C   0  0  0  0  0  0  0  0  0  0  0  0
    6.9048   -0.4532    7.8572 C   0  0  0  0  0  0  0  0  0  0  0  0
    6.0164   -2.4986    6.6857 C   0  0  0  0  0  0  0  0  0  0  0  0
    5.5215   -0.1714    5.7873 C   0  0  0  0  0  0  0  0  0  0  0  0
    1.7725   -1.4240    4.9634 C   0  0  1  0  0  0  0  0  0  0  0  0
    0.5656   -0.6421    5.4235 C   0  0  0  0  0  0  0  0  0  0  0  0
    0.4948    0.6226    5.9564 C   0  0  0  0  0  0  0  0  0  0  0  0
   -0.8368    1.0356    6.2553 C   0  0  0  0  0  0  0  0  0  0  0  0
   -1.7710    0.0852    5.9386 C   0  0  0  0  0  0  0  0  0  0  0  0
   -1.0266   -1.3447    5.2813 S   0  0  0  0  0  0  0  0  0  0  0  0
    1.7491   -1.6739    3.4327 C   0  0  1  0  0  0  0  0  0  0  0  0
    1.1899   -0.5310    2.6791 C   0  0  0  0  0  0  0  0  0  0  0  0
    0.7507    0.3620    2.0976 N   0  0  0  0  0  0  0  0  0  0  0  0
    4.4055   -0.5421    1.2787 C   0  0  0  0  0  0  0  0  0  0  0  0
    6.1178   -3.3862    0.1344 H   0  0  0  0  0  0  0  0  0  0  0  0
    5.7634   -2.9894    1.8028 H   0  0  0  0  0  0  0  0  0  0  0  0
    6.8151   -1.9419    0.8718 H   0  0  0  0  0  0  0  0  0  0  0  0
    4.1387   -0.5794   -1.4318 H   0  0  0  0  0  0  0  0  0  0  0  0
    5.1534   -1.9718   -1.7908 H   0  0  0  0  0  0  0  0  0  0  0  0
    5.8457   -0.5203   -1.0560 H   0  0  0  0  0  0  0  0  0  0  0  0
    2.6156   -2.0100   -0.2006 H   0  0  0  0  0  0  0  0  0  0  0  0
    3.5875   -3.4500   -0.3753 H   0  0  0  0  0  0  0  0  0  0  0  0
    3.5608   -2.8087    3.6156 H   0  0  0  0  0  0  0  0  0  0  0  0
    4.3338    0.1550    8.2259 H   0  0  0  0  0  0  0  0  0  0  0  0
    4.4981   -1.4983    8.7708 H   0  0  0  0  0  0  0  0  0  0  0  0
    7.8351   -0.4813    7.2884 H   0  0  0  0  0  0  0  0  0  0  0  0
    7.0630   -1.0036    8.7845 H   0  0  0  0  0  0  0  0  0  0  0  0
    6.7228    0.5876    8.1280 H   0  0  0  0  0  0  0  0  0  0  0  0
    6.9432   -2.5958    6.1194 H   0  0  0  0  0  0  0  0  0  0  0  0
    5.2294   -2.9361    6.0697 H   0  0  0  0  0  0  0  0  0  0  0  0
    6.1140   -3.1241    7.5745 H   0  0  0  0  0  0  0  0  0  0  0  0
    6.3948   -0.2635    5.1382 H   0  0  0  0  0  0  0  0  0  0  0  0
    5.4588    0.8848    6.0575 H   0  0  0  0  0  0  0  0  0  0  0  0
    1.6349   -2.4306    5.3597 H   0  0  0  0  0  0  0  0  0  0  0  0
    1.3420    1.2683    6.1413 H   0  0  0  0  0  0  0  0  0  0  0  0
   -1.0600    2.0062    6.6704 H   0  0  0  0  0  0  0  0  0  0  0  0
   -2.8429    0.1432    6.0310 H   0  0  0  0  0  0  0  0  0  0  0  0
    1.0067   -2.4579    3.2664 H   0  0  0  0  0  0  0  0  0  0  0  0
    5.2836    0.1000    1.3284 H   0  0  0  0  0  0  0  0  0  0  0  0
    3.5972    0.0734    0.8755 H   0  0  0  0  0  0  0  0  0  0  0  0
  1  2  1  0
  1 29  1  0
  1 30  1  0
  1 31  1  0
  2 28  1  0
  2  3  1  0
  2  4  1  0
  3 32  1  0
  3 33  1  0
  3 34  1  0
  4  5  1  0
  4 35  1  0
  4 36  1  0
  5  6  2  0
  5  7  1  0
  7 25  1  0
  7  8  1  0
  7 37  1  1
  8  9  2  0
  8 28  1  0
  9 10  1  0
 10 18  1  0
 10 11  2  0
 11 12  1  0
 11 19  1  0
 12 13  2  0
 12 14  1  0
 14 15  1  0
 14 38  1  0
 14 39  1  0
 15 16  1  0
 15 17  1  0
 15 18  1  0
 16 40  1  0
 16 41  1  0
 16 42  1  0
 17 43  1  0
 17 44  1  0
 17 45  1  0
 18 46  1  0
 18 47  1  0
 19 20  1  0
 19 25  1  0
 19 48  1  1
 20 24  1  0
 20 21  2  0
 21 22  1  0
 21 49  1  0
 22 23  2  0
 22 50  1  0
 23 24  1  0
 23 51  1  0
 25 26  1  0
 25 52  1  1
 26 27  3  0
 28 53  1  0
 28 54  1  0
M  END
>  <i_m_ct_stereo_status>  (106) 
1

>  <s_m_source_file>  (106) 
/var/tmp/pbs.5083856.sched01/tmpkl5n39ct/40v705kqvk.sdf

>  <i_m_source_file_index>  (106) 
5

>  <i_lp_mmshare_version>  (106) 
48012

>  <i_f3d_flags>  (106) 
0

>  <s_epik_input>  (106) 
Tz1DMVtDSDJdQyhbQ0gzXSkoW0NIM10pW0NIMl1DKFtDQEhdMTIpPU5DMz1DKEMoPU8pW0NIMl1DKFtDSDNdKShbQ0gzXSlbQ0gyXTMpW0NASF0oW0NASF0yQyNOKWM0W2NIXVtjSF1bY0hdczQ=

>  <s_epik_cmdline>  (106) 
J2VwaWtfcHl0aG9uJywgJy1waHQnLCAnMi4wJywgJy1waCcsICc3LjAnLCAnLXRuJywgJzgnLCAnLW1hJywgJzIwMCcsICctaW1hZScsICc8aW5maWxlLm1hZT4nLCAnLW9tYWUnLCAnPG91dGZpbGUubWFlPic=

>  <r_lp_tautomer_probability>  (106) 
0.499981

>  <r_epik_Ionization_Penalty>  (106) 
2.88698e-07

>  <r_epik_Ionization_Penalty_Charging>  (106) 
0

>  <r_epik_Ionization_Penalty_Neutral>  (106) 
2.88698e-07

>  <r_epik_State_Penalty>  (106) 
0.41068

>  <r_epik_Charging_Adjusted_Penalty>  (106) 
0.41068

>  <i_epik_Tot_Q>  (106) 
0

>  <i_epik_Tot_abs_Q>  (106) 
0

>  <s_epik_Chemistry_Notes>  (106) 
This compound has an imine and may undergo hydrolysis.

>  <s_lp_Force_Field>  (106) 
OPLS3e

>  <r_lp_Energy>  (106) 
27.8575

>  <b_lp_Chiralities_Consistent>  (106) 
1

>  <s_lp_Variant>  (106) 
34:0-1

>  <s_i_glide_gridfile>  (106) 
pfpi4k_grid

>  <i_i_glide_lignum>  (106) 
5

>  <i_i_glide_rotatable_bonds>  (106) 
2

>  <r_i_docking_score>  (106) 
-2.29063

>  <r_i_glide_ligand_efficiency>  (106) 
-0.0818082

>  <r_i_glide_ligand_efficiency_sa>  (106) 
-0.248418

>  <r_i_glide_ligand_efficiency_ln>  (106) 
-0.528744

>  <r_i_glide_gscore>  (106) 
-2.29063

>  <r_i_glide_lipo>  (106) 
-0.305013

>  <r_i_glide_hbond>  (106) 
0

>  <r_i_glide_metal>  (106) 
-0

>  <r_i_glide_rewards>  (106) 
-0.744176

>  <r_i_glide_evdw>  (106) 
-25.3952

>  <r_i_glide_ecoul>  (106) 
-0.378637

>  <r_i_glide_erotb>  (106) 
0.125572

>  <r_i_glide_esite>  (106) 
-0.0404552

>  <r_i_glide_emodel>  (106) 
-28.4399

>  <r_i_glide_energy>  (106) 
-25.7739

>  <r_i_glide_einternal>  (106) 
1.43595

>  <r_i_glide_intrahb_reward>  (106) 
-0

>  <i_i_glide_confnum>  (106) 
4

>  <i_i_glide_posenum>  (106) 
10

>  <r_i_glide_eff_state_penalty>  (106) 
0

>  <ligand_id>  (106) 
34

>  <original_smiles>  (106) 
CC1(C)CC(=O)C2C(=NC3=C(C(=O)CC(C)(C)C3)C(c3cccs3)C2C#N)C1

>  <smiles>  (106) 
[H]c1sc(C2([H])C3=C(N=C4C([H])([H])C(C([H])([H])[H])(C([H])([H])[H])C([H])([H])C(=O)C4([H])C2([H])C#N)C([H])([H])C(C([H])([H])[H])(C([H])([H])[H])C([H])([H])C3=O)c([H])c1[H]

$$$$
34:0:1
     RDKit          3D

 54 57  0  0  1  0  0  0  0  0999 V2000
    5.8857   -2.5625    0.8520 C   0  0  0  0  0  0  0  0  0  0  0  0
    4.6836   -1.7202    0.3444 C   0  0  0  0  0  0  0  0  0  0  0  0
    5.0146   -1.1773   -1.0555 C   0  0  0  0  0  0  0  0  0  0  0  0
    3.4046   -2.5653    0.2422 C   0  0  0  0  0  0  0  0  0  0  0  0
    2.8792   -3.0277    1.6049 C   0  0  0  0  0  0  0  0  0  0  0  0
    2.3217   -4.1195    1.7084 O   0  0  0  0  0  0  0  0  0  0  0  0
    3.0221   -2.1202    2.8393 C   0  0  1  0  0  0  0  0  0  0  0  0
    3.9649   -0.9307    2.6801 C   0  0  0  0  0  0  0  0  0  0  0  0
    4.3556   -0.2253    3.6544 N   0  0  0  0  0  0  0  0  0  0  0  0
    4.1344   -0.4888    5.0063 C   0  0  0  0  0  0  0  0  0  0  0  0
    2.9851   -0.9607    5.5828 C   0  0  0  0  0  0  0  0  0  0  0  0
    2.9985   -1.1960    7.0597 C   0  0  0  0  0  0  0  0  0  0  0  0
    2.0328   -1.6450    7.6789 O   0  0  0  0  0  0  0  0  0  0  0  0
    4.2506   -0.8428    7.8758 C   0  0  0  0  0  0  0  0  0  0  0  0
    5.5529   -1.0071    7.0813 C   0  0  0  0  0  0  0  0  0  0  0  0
    6.7206   -0.4522    7.9148 C   0  0  0  0  0  0  0  0  0  0  0  0
    5.8392   -2.4876    6.7270 C   0  0  0  0  0  0  0  0  0  0  0  0
    5.3926   -0.1619    5.8103 C   0  0  0  0  0  0  0  0  0  0  0  0
    1.6530   -1.3849    4.8996 C   0  0  1  0  0  0  0  0  0  0  0  0
    0.4558   -0.5722    5.3372 C   0  0  0  0  0  0  0  0  0  0  0  0
   -0.8481   -1.0013    5.4031 C   0  0  0  0  0  0  0  0  0  0  0  0
   -1.7571    0.0154    5.8143 C   0  0  0  0  0  0  0  0  0  0  0  0
   -1.1435    1.2085    6.0740 C   0  0  0  0  0  0  0  0  0  0  0  0
    0.5692    1.1262    5.7542 S   0  0  0  0  0  0  0  0  0  0  0  0
    1.6625   -1.6254    3.3692 C   0  0  1  0  0  0  0  0  0  0  0  0
    1.1410   -0.4638    2.6260 C   0  0  0  0  0  0  0  0  0  0  0  0
    0.7290    0.4502    2.0579 N   0  0  0  0  0  0  0  0  0  0  0  0
    4.3902   -0.5301    1.2749 C   0  0  0  0  0  0  0  0  0  0  0  0
    6.0976   -3.3985    0.1811 H   0  0  0  0  0  0  0  0  0  0  0  0
    5.7056   -2.9922    1.8400 H   0  0  0  0  0  0  0  0  0  0  0  0
    6.7934   -1.9592    0.9322 H   0  0  0  0  0  0  0  0  0  0  0  0
    4.1957   -0.5698   -1.4408 H   0  0  0  0  0  0  0  0  0  0  0  0
    5.1989   -1.9804   -1.7696 H   0  0  0  0  0  0  0  0  0  0  0  0
    5.8942   -0.5402   -1.0160 H   0  0  0  0  0  0  0  0  0  0  0  0
    2.6182   -1.9849   -0.2434 H   0  0  0  0  0  0  0  0  0  0  0  0
    3.5822   -3.4344   -0.3891 H   0  0  0  0  0  0  0  0  0  0  0  0
    3.4590   -2.7759    3.5969 H   0  0  0  0  0  0  0  0  0  0  0  0
    4.1470    0.1898    8.2173 H   0  0  0  0  0  0  0  0  0  0  0  0
    4.2783   -1.4654    8.7675 H   0  0  0  0  0  0  0  0  0  0  0  0
    7.6643   -0.4951    7.3700 H   0  0  0  0  0  0  0  0  0  0  0  0
    6.8481   -1.0025    8.8467 H   0  0  0  0  0  0  0  0  0  0  0  0
    6.5457    0.5912    8.1784 H   0  0  0  0  0  0  0  0  0  0  0  0
    6.7795   -2.5929    6.1841 H   0  0  0  0  0  0  0  0  0  0  0  0
    5.0634   -2.9193    6.0926 H   0  0  0  0  0  0  0  0  0  0  0  0
    5.9083   -3.1113    7.6196 H   0  0  0  0  0  0  0  0  0  0  0  0
    6.2798   -0.2797    5.1816 H   0  0  0  0  0  0  0  0  0  0  0  0
    5.3363    0.8976    6.0742 H   0  0  0  0  0  0  0  0  0  0  0  0
    1.4897   -2.3916    5.2896 H   0  0  0  0  0  0  0  0  0  0  0  0
   -1.1775   -1.9974    5.1617 H   0  0  0  0  0  0  0  0  0  0  0  0
   -2.8189   -0.1650    5.8970 H   0  0  0  0  0  0  0  0  0  0  0  0
   -1.5880    2.1413    6.3998 H   0  0  0  0  0  0  0  0  0  0  0  0
    0.9128   -2.3973    3.1752 H   0  0  0  0  0  0  0  0  0  0  0  0
    5.2760    0.0985    1.3468 H   0  0  0  0  0  0  0  0  0  0  0  0
    3.6006    0.0944    0.8490 H   0  0  0  0  0  0  0  0  0  0  0  0
  1  2  1  0
  1 29  1  0
  1 30  1  0
  1 31  1  0
  2 28  1  0
  2  3  1  0
  2  4  1  0
  3 32  1  0
  3 33  1  0
  3 34  1  0
  4  5  1  0
  4 35  1  0
  4 36  1  0
  5  6  2  0
  5  7  1  0
  7 25  1  0
  7  8  1  0
  7 37  1  1
  8  9  2  0
  8 28  1  0
  9 10  1  0
 10 18  1  0
 10 11  2  0
 11 12  1  0
 11 19  1  0
 12 13  2  0
 12 14  1  0
 14 15  1  0
 14 38  1  0
 14 39  1  0
 15 16  1  0
 15 17  1  0
 15 18  1  0
 16 40  1  0
 16 41  1  0
 16 42  1  0
 17 43  1  0
 17 44  1  0
 17 45  1  0
 18 46  1  0
 18 47  1  0
 19 20  1  0
 19 25  1  0
 19 48  1  1
 20 24  1  0
 20 21  2  0
 21 22  1  0
 21 49  1  0
 22 23  2  0
 22 50  1  0
 23 24  1  0
 23 51  1  0
 25 26  1  0
 25 52  1  1
 26 27  3  0
 28 53  1  0
 28 54  1  0
M  END
>  <i_m_ct_stereo_status>  (107) 
1

>  <s_m_source_file>  (107) 
/var/tmp/pbs.5083856.sched01/tmpkl5n39ct/40v705kqvk.sdf

>  <i_m_source_file_index>  (107) 
5

>  <i_lp_mmshare_version>  (107) 
48012

>  <i_f3d_flags>  (107) 
0

>  <s_epik_input>  (107) 
Tz1DMVtDSDJdQyhbQ0gzXSkoW0NIM10pW0NIMl1DKFtDQEhdMTIpPU5DMz1DKEMoPU8pW0NIMl1DKFtDSDNdKShbQ0gzXSlbQ0gyXTMpW0NASF0oW0NASF0yQyNOKWM0W2NIXVtjSF1bY0hdczQ=

>  <s_epik_cmdline>  (107) 
J2VwaWtfcHl0aG9uJywgJy1waHQnLCAnMi4wJywgJy1waCcsICc3LjAnLCAnLXRuJywgJzgnLCAnLW1hJywgJzIwMCcsICctaW1hZScsICc8aW5maWxlLm1hZT4nLCAnLW9tYWUnLCAnPG91dGZpbGUubWFlPic=

>  <r_lp_tautomer_probability>  (107) 
0.499981

>  <r_epik_Ionization_Penalty>  (107) 
2.88698e-07

>  <r_epik_Ionization_Penalty_Charging>  (107) 
0

>  <r_epik_Ionization_Penalty_Neutral>  (107) 
2.88698e-07

>  <r_epik_State_Penalty>  (107) 
0.41068

>  <r_epik_Charging_Adjusted_Penalty>  (107) 
0.41068

>  <i_epik_Tot_Q>  (107) 
0

>  <i_epik_Tot_abs_Q>  (107) 
0

>  <s_epik_Chemistry_Notes>  (107) 
This compound has an imine and may undergo hydrolysis.

>  <s_lp_Force_Field>  (107) 
OPLS3e

>  <r_lp_Energy>  (107) 
27.8575

>  <b_lp_Chiralities_Consistent>  (107) 
1

>  <s_lp_Variant>  (107) 
34:0-1

>  <s_i_glide_gridfile>  (107) 
pfpi4k_grid

>  <i_i_glide_lignum>  (107) 
5

>  <i_i_glide_rotatable_bonds>  (107) 
2

>  <r_i_docking_score>  (107) 
-2.2557

>  <r_i_glide_ligand_efficiency>  (107) 
-0.0805606

>  <r_i_glide_ligand_efficiency_sa>  (107) 
-0.244629

>  <r_i_glide_ligand_efficiency_ln>  (107) 
-0.520681

>  <r_i_glide_gscore>  (107) 
-2.2557

>  <r_i_glide_lipo>  (107) 
-0.273072

>  <r_i_glide_hbond>  (107) 
0

>  <r_i_glide_metal>  (107) 
-0

>  <r_i_glide_rewards>  (107) 
-0.742905

>  <r_i_glide_evdw>  (107) 
-24.6488

>  <r_i_glide_ecoul>  (107) 
-0.584635

>  <r_i_glide_erotb>  (107) 
0.125572

>  <r_i_glide_esite>  (107) 
-0.0451592

>  <r_i_glide_emodel>  (107) 
-27.4124

>  <r_i_glide_energy>  (107) 
-25.2334

>  <r_i_glide_einternal>  (107) 
2.25435

>  <r_i_glide_intrahb_reward>  (107) 
-0

>  <i_i_glide_confnum>  (107) 
4

>  <i_i_glide_posenum>  (107) 
3

>  <r_i_glide_eff_state_penalty>  (107) 
0

>  <ligand_id>  (107) 
34

>  <original_smiles>  (107) 
CC1(C)CC(=O)C2C(=NC3=C(C(=O)CC(C)(C)C3)C(c3cccs3)C2C#N)C1

>  <smiles>  (107) 
[H]c1sc(C2([H])C3=C(N=C4C([H])([H])C(C([H])([H])[H])(C([H])([H])[H])C([H])([H])C(=O)C4([H])C2([H])C#N)C([H])([H])C(C([H])([H])[H])(C([H])([H])[H])C([H])([H])C3=O)c([H])c1[H]

$$$$
34:1:0
     RDKit          3D

 54 57  0  0  1  0  0  0  0  0999 V2000
    3.6066   -2.2110    0.5599 C   0  0  0  0  0  0  0  0  0  0  0  0
    3.4942   -2.8463    1.9572 C   0  0  0  0  0  0  0  0  0  0  0  0
    4.9137   -3.0354    2.5297 C   0  0  0  0  0  0  0  0  0  0  0  0
    2.6593   -1.9011    2.8582 C   0  0  0  0  0  0  0  0  0  0  0  0
    2.0699   -2.6112    4.0741 C   0  0  0  0  0  0  0  0  0  0  0  0
    2.2352   -2.1928    5.2158 O   0  0  0  0  0  0  0  0  0  0  0  0
    1.1881   -3.8220    3.7424 C   0  0  1  0  0  0  0  0  0  0  0  0
    1.8155   -4.6580    2.6202 C   0  0  0  0  0  0  0  0  0  0  0  0
    1.2804   -5.9103    2.3625 N   0  0  0  0  0  0  0  0  0  0  0  0
    1.4113   -6.8631    3.1981 C   0  0  0  0  0  0  0  0  0  0  0  0
    2.2479   -6.7395    4.4959 C   0  0  2  0  0  0  0  0  0  0  0  0
    2.6615   -8.0917    5.1135 C   0  0  0  0  0  0  0  0  0  0  0  0
    3.5869   -8.1370    5.9192 O   0  0  0  0  0  0  0  0  0  0  0  0
    1.9128   -9.3751    4.7383 C   0  0  0  0  0  0  0  0  0  0  0  0
    1.5105   -9.4288    3.2513 C   0  0  0  0  0  0  0  0  0  0  0  0
    2.7490   -9.5199    2.3218 C   0  0  0  0  0  0  0  0  0  0  0  0
    0.6286  -10.6685    3.0336 C   0  0  0  0  0  0  0  0  0  0  0  0
    0.6765   -8.1744    2.9446 C   0  0  0  0  0  0  0  0  0  0  0  0
    1.6489   -5.7373    5.5488 C   0  0  1  0  0  0  0  0  0  0  0  0
    2.6924   -5.1449    6.4616 C   0  0  0  0  0  0  0  0  0  0  0  0
    3.8977   -4.6013    6.1078 C   0  0  0  0  0  0  0  0  0  0  0  0
    4.6374   -4.0839    7.2060 C   0  0  0  0  0  0  0  0  0  0  0  0
    4.0230   -4.3050    8.4090 C   0  0  0  0  0  0  0  0  0  0  0  0
    2.4922   -5.1206    8.1988 S   0  0  0  0  0  0  0  0  0  0  0  0
    0.6767   -4.6702    4.9503 C   0  0  1  0  0  0  0  0  0  0  0  0
   -0.0362   -3.8719    5.9647 C   0  0  0  0  0  0  0  0  0  0  0  0
   -0.6127   -3.2509    6.7570 N   0  0  0  0  0  0  0  0  0  0  0  0
    2.8247   -4.2127    1.8333 C   0  0  0  0  0  0  0  0  0  0  0  0
    4.0769   -1.2297    0.6159 H   0  0  0  0  0  0  0  0  0  0  0  0
    2.6241   -2.0786    0.1006 H   0  0  0  0  0  0  0  0  0  0  0  0
    4.2062   -2.8299   -0.1116 H   0  0  0  0  0  0  0  0  0  0  0  0
    5.4384   -2.0849    2.6300 H   0  0  0  0  0  0  0  0  0  0  0  0
    5.5112   -3.7029    1.9039 H   0  0  0  0  0  0  0  0  0  0  0  0
    4.8687   -3.4783    3.5166 H   0  0  0  0  0  0  0  0  0  0  0  0
    3.2473   -1.0461    3.1756 H   0  0  0  0  0  0  0  0  0  0  0  0
    1.8140   -1.5068    2.2954 H   0  0  0  0  0  0  0  0  0  0  0  0
    0.3013   -3.3732    3.2949 H   0  0  0  0  0  0  0  0  0  0  0  0
    2.5340  -10.2354    4.9801 H   0  0  0  0  0  0  0  0  0  0  0  0
    1.0267   -9.4591    5.3702 H   0  0  0  0  0  0  0  0  0  0  0  0
    2.4557   -9.5382    1.2706 H   0  0  0  0  0  0  0  0  0  0  0  0
    3.3277  -10.4238    2.5177 H   0  0  0  0  0  0  0  0  0  0  0  0
    3.4276   -8.6751    2.4477 H   0  0  0  0  0  0  0  0  0  0  0  0
    0.2711  -10.7288    2.0052 H   0  0  0  0  0  0  0  0  0  0  0  0
   -0.2478  -10.6384    3.6812 H   0  0  0  0  0  0  0  0  0  0  0  0
    1.1681  -11.5871    3.2591 H   0  0  0  0  0  0  0  0  0  0  0  0
    0.3451   -8.2054    1.9067 H   0  0  0  0  0  0  0  0  0  0  0  0
   -0.2282   -8.1759    3.5561 H   0  0  0  0  0  0  0  0  0  0  0  0
    1.0130   -6.3403    6.1916 H   0  0  0  0  0  0  0  0  0  0  0  0
    4.2522   -4.5452    5.0943 H   0  0  0  0  0  0  0  0  0  0  0  0
    5.5843   -3.5822    7.0723 H   0  0  0  0  0  0  0  0  0  0  0  0
    4.3739   -4.0412    9.3997 H   0  0  0  0  0  0  0  0  0  0  0  0
   -0.1567   -5.2445    4.5438 H   0  0  0  0  0  0  0  0  0  0  0  0
    3.1927   -4.8554    1.0440 H   0  0  0  0  0  0  0  0  0  0  0  0
    3.1939   -6.3074    4.1597 H   0  0  0  0  0  0  0  0  0  0  0  0
  1  2  1  0
  1 29  1  0
  1 30  1  0
  1 31  1  0
  2  3  1  0
  2  4  1  0
  2 28  1  0
  3 32  1  0
  3 33  1  0
  3 34  1  0
  4  5  1  0
  4 35  1  0
  4 36  1  0
  5  6  2  0
  5  7  1  0
  7 25  1  0
  7 37  1  6
  7  8  1  0
  8  9  1  0
  8 28  2  0
  9 10  2  0
 10 11  1  0
 10 18  1  0
 11 12  1  0
 11 19  1  0
 11 54  1  6
 12 13  2  0
 12 14  1  0
 14 15  1  0
 14 38  1  0
 14 39  1  0
 15 16  1  0
 15 17  1  0
 15 18  1  0
 16 40  1  0
 16 41  1  0
 16 42  1  0
 17 43  1  0
 17 44  1  0
 17 45  1  0
 18 46  1  0
 18 47  1  0
 19 20  1  0
 19 25  1  0
 19 48  1  1
 20 24  1  0
 20 21  2  0
 21 22  1  0
 21 49  1  0
 22 23  2  0
 22 50  1  0
 23 24  1  0
 23 51  1  0
 25 26  1  0
 25 52  1  6
 26 27  3  0
 28 53  1  0
M  END
>  <i_m_ct_stereo_status>  (108) 
1

>  <s_m_source_file>  (108) 
/var/tmp/pbs.5083856.sched01/tmpy896zkta/45d6utibzo.sdf

>  <i_m_source_file_index>  (108) 
1

>  <i_lp_mmshare_version>  (108) 
48012

>  <i_f3d_flags>  (108) 
0

>  <s_epik_input>  (108) 
Tz1DMVtDSDJdQyhbQ0gzXSkoW0NIM10pW0NIMl1DKFtDQEhdMTIpPU5DMz1DKEMoPU8pW0NIMl1DKFtDSDNdKShbQ0gzXSlbQ0gyXTMpW0NASF0oW0NASF0yQyNOKWM0W2NIXVtjSF1bY0hdczQ=

>  <s_epik_cmdline>  (108) 
J2VwaWtfcHl0aG9uJywgJy1waHQnLCAnMi4wJywgJy1waCcsICc3LjAnLCAnLXRuJywgJzgnLCAnLW1hJywgJzIwMCcsICctaW1hZScsICc8aW5maWxlLm1hZT4nLCAnLW9tYWUnLCAnPG91dGZpbGUubWFlPic=

>  <r_lp_tautomer_probability>  (108) 
0.499981

>  <r_epik_Ionization_Penalty>  (108) 
2.94107e-08

>  <r_epik_Ionization_Penalty_Charging>  (108) 
0

>  <r_epik_Ionization_Penalty_Neutral>  (108) 
2.94107e-08

>  <r_epik_State_Penalty>  (108) 
0.41068

>  <r_epik_Charging_Adjusted_Penalty>  (108) 
0.41068

>  <i_epik_Tot_Q>  (108) 
0

>  <i_epik_Tot_abs_Q>  (108) 
0

>  <s_epik_Chemistry_Notes>  (108) 
This compound has an imine and may undergo hydrolysis.

>  <s_lp_Force_Field>  (108) 
OPLS3e

>  <r_lp_Energy>  (108) 
24.2016

>  <b_lp_Chiralities_Consistent>  (108) 
1

>  <s_lp_Variant>  (108) 
34:0-2

>  <s_i_glide_gridfile>  (108) 
pfpi4k_grid

>  <i_i_glide_lignum>  (108) 
1

>  <i_i_glide_rotatable_bonds>  (108) 
2

>  <r_i_docking_score>  (108) 
-2.60969

>  <r_i_glide_ligand_efficiency>  (108) 
-0.0932032

>  <r_i_glide_ligand_efficiency_sa>  (108) 
-0.28302

>  <r_i_glide_ligand_efficiency_ln>  (108) 
-0.602393

>  <r_i_glide_gscore>  (108) 
-2.60969

>  <r_i_glide_lipo>  (108) 
-0.139186

>  <r_i_glide_hbond>  (108) 
0

>  <r_i_glide_metal>  (108) 
-0

>  <r_i_glide_rewards>  (108) 
-0.721109

>  <r_i_glide_evdw>  (108) 
-21.6974

>  <r_i_glide_ecoul>  (108) 
-5.07411

>  <r_i_glide_erotb>  (108) 
0.125572

>  <r_i_glide_esite>  (108) 
-0.0289799

>  <r_i_glide_emodel>  (108) 
-30.7582

>  <r_i_glide_energy>  (108) 
-26.7715

>  <r_i_glide_einternal>  (108) 
1.15821

>  <r_i_glide_intrahb_reward>  (108) 
-0

>  <i_i_glide_confnum>  (108) 
4

>  <i_i_glide_posenum>  (108) 
32

>  <r_i_glide_eff_state_penalty>  (108) 
0

>  <ligand_id>  (108) 
34

>  <original_smiles>  (108) 
CC1(C)CC(=O)C2C(=NC3=C(C(=O)CC(C)(C)C3)C(c3cccs3)C2C#N)C1

>  <smiles>  (108) 
[H]C1=C2N=C3C([H])([H])C(C([H])([H])[H])(C([H])([H])[H])C([H])([H])C(=O)C3([H])C([H])(c3sc([H])c([H])c3[H])C([H])(C#N)C2([H])C(=O)C([H])([H])C1(C([H])([H])[H])C([H])([H])[H]

$$$$
34:1:1
     RDKit          3D

 54 57  0  0  1  0  0  0  0  0999 V2000
   -1.1205   -8.8623    2.7696 C   0  0  0  0  0  0  0  0  0  0  0  0
    0.3359   -8.5434    3.1450 C   0  0  0  0  0  0  0  0  0  0  0  0
    0.3666   -8.1435    4.6331 C   0  0  0  0  0  0  0  0  0  0  0  0
    1.2018   -9.8005    2.8833 C   0  0  0  0  0  0  0  0  0  0  0  0
    2.6831   -9.4775    2.7277 C   0  0  0  0  0  0  0  0  0  0  0  0
    3.5462  -10.0524    3.3804 O   0  0  0  0  0  0  0  0  0  0  0  0
    3.0142   -8.4590    1.6333 C   0  0  1  0  0  0  0  0  0  0  0  0
    1.9921   -7.3084    1.6491 C   0  0  0  0  0  0  0  0  0  0  0  0
    2.2460   -6.1561    0.9100 N   0  0  0  0  0  0  0  0  0  0  0  0
    3.2190   -5.3933    1.2012 C   0  0  0  0  0  0  0  0  0  0  0  0
    4.0634   -5.5659    2.4899 C   0  0  2  0  0  0  0  0  0  0  0  0
    4.8125   -4.2873    2.9114 C   0  0  0  0  0  0  0  0  0  0  0  0
    5.2191   -4.1704    4.0674 O   0  0  0  0  0  0  0  0  0  0  0  0
    5.0755   -3.1600    1.9080 C   0  0  0  0  0  0  0  0  0  0  0  0
    3.8981   -2.9269    0.9448 C   0  0  0  0  0  0  0  0  0  0  0  0
    2.6511   -2.3841    1.6865 C   0  0  0  0  0  0  0  0  0  0  0  0
    4.3188   -1.8939   -0.1147 C   0  0  0  0  0  0  0  0  0  0  0  0
    3.5924   -4.2615    0.2486 C   0  0  0  0  0  0  0  0  0  0  0  0
    4.9695   -6.8455    2.5023 C   0  0  1  0  0  0  0  0  0  0  0  0
    5.2860   -7.3298    3.8927 C   0  0  0  0  0  0  0  0  0  0  0  0
    4.3969   -7.5713    4.8943 C   0  0  0  0  0  0  0  0  0  0  0  0
    4.9883   -8.0803    6.0838 C   0  0  0  0  0  0  0  0  0  0  0  0
    6.3478   -8.1391    6.0093 C   0  0  0  0  0  0  0  0  0  0  0  0
    6.9195   -7.6199    4.4374 S   0  0  0  0  0  0  0  0  0  0  0  0
    4.4982   -7.9782    1.5344 C   0  0  1  0  0  0  0  0  0  0  0  0
    5.4684   -9.0686    1.4076 C   0  0  0  0  0  0  0  0  0  0  0  0
    6.2511   -9.9237    1.2886 N   0  0  0  0  0  0  0  0  0  0  0  0
    0.8159   -7.3658    2.3077 C   0  0  0  0  0  0  0  0  0  0  0  0
   -1.4808   -9.7150    3.3437 H   0  0  0  0  0  0  0  0  0  0  0  0
   -1.2165   -9.1239    1.7137 H   0  0  0  0  0  0  0  0  0  0  0  0
   -1.7824   -8.0158    2.9733 H   0  0  0  0  0  0  0  0  0  0  0  0
    0.0315   -8.9583    5.2784 H   0  0  0  0  0  0  0  0  0  0  0  0
   -0.2406   -7.2560    4.8303 H   0  0  0  0  0  0  0  0  0  0  0  0
    1.3680   -7.8991    4.9422 H   0  0  0  0  0  0  0  0  0  0  0  0
    1.0621  -10.5440    3.6634 H   0  0  0  0  0  0  0  0  0  0  0  0
    0.8955  -10.2630    1.9467 H   0  0  0  0  0  0  0  0  0  0  0  0
    2.8176   -9.0178    0.7164 H   0  0  0  0  0  0  0  0  0  0  0  0
    5.2860   -2.2408    2.4507 H   0  0  0  0  0  0  0  0  0  0  0  0
    5.9794   -3.3949    1.3444 H   0  0  0  0  0  0  0  0  0  0  0  0
    1.8211   -2.2395    0.9916 H   0  0  0  0  0  0  0  0  0  0  0  0
    2.8516   -1.4243    2.1664 H   0  0  0  0  0  0  0  0  0  0  0  0
    2.2986   -3.0631    2.4639 H   0  0  0  0  0  0  0  0  0  0  0  0
    3.5211   -1.7222   -0.8421 H   0  0  0  0  0  0  0  0  0  0  0  0
    5.1966   -2.2388   -0.6619 H   0  0  0  0  0  0  0  0  0  0  0  0
    4.5691   -0.9348    0.3387 H   0  0  0  0  0  0  0  0  0  0  0  0
    2.7856   -4.1242   -0.4692 H   0  0  0  0  0  0  0  0  0  0  0  0
    4.4561   -4.5834   -0.3336 H   0  0  0  0  0  0  0  0  0  0  0  0
    5.9208   -6.5321    2.0881 H   0  0  0  0  0  0  0  0  0  0  0  0
    3.3409   -7.4333    4.7881 H   0  0  0  0  0  0  0  0  0  0  0  0
    4.3891   -8.3785    6.9332 H   0  0  0  0  0  0  0  0  0  0  0  0
    7.0489   -8.4683    6.7723 H   0  0  0  0  0  0  0  0  0  0  0  0
    4.5703   -7.5447    0.5314 H   0  0  0  0  0  0  0  0  0  0  0  0
    0.1378   -6.5271    2.2424 H   0  0  0  0  0  0  0  0  0  0  0  0
    3.3162   -5.7101    3.2774 H   0  0  0  0  0  0  0  0  0  0  0  0
  1  2  1  0
  1 29  1  0
  1 30  1  0
  1 31  1  0
  2  3  1  0
  2  4  1  0
  2 28  1  0
  3 32  1  0
  3 33  1  0
  3 34  1  0
  4  5  1  0
  4 35  1  0
  4 36  1  0
  5  6  2  0
  5  7  1  0
  7 25  1  0
  7 37  1  6
  7  8  1  0
  8  9  1  0
  8 28  2  0
  9 10  2  0
 10 11  1  0
 10 18  1  0
 11 12  1  0
 11 19  1  0
 11 54  1  1
 12 13  2  0
 12 14  1  0
 14 15  1  0
 14 38  1  0
 14 39  1  0
 15 16  1  0
 15 17  1  0
 15 18  1  0
 16 40  1  0
 16 41  1  0
 16 42  1  0
 17 43  1  0
 17 44  1  0
 17 45  1  0
 18 46  1  0
 18 47  1  0
 19 20  1  0
 19 25  1  0
 19 48  1  6
 20 24  1  0
 20 21  2  0
 21 22  1  0
 21 49  1  0
 22 23  2  0
 22 50  1  0
 23 24  1  0
 23 51  1  0
 25 26  1  0
 25 52  1  6
 26 27  3  0
 28 53  1  0
M  END
>  <i_m_ct_stereo_status>  (109) 
1

>  <s_m_source_file>  (109) 
/var/tmp/pbs.5083856.sched01/tmpy896zkta/45d6utibzo.sdf

>  <i_m_source_file_index>  (109) 
1

>  <i_lp_mmshare_version>  (109) 
48012

>  <i_f3d_flags>  (109) 
0

>  <s_epik_input>  (109) 
Tz1DMVtDSDJdQyhbQ0gzXSkoW0NIM10pW0NIMl1DKFtDQEhdMTIpPU5DMz1DKEMoPU8pW0NIMl1DKFtDSDNdKShbQ0gzXSlbQ0gyXTMpW0NASF0oW0NASF0yQyNOKWM0W2NIXVtjSF1bY0hdczQ=

>  <s_epik_cmdline>  (109) 
J2VwaWtfcHl0aG9uJywgJy1waHQnLCAnMi4wJywgJy1waCcsICc3LjAnLCAnLXRuJywgJzgnLCAnLW1hJywgJzIwMCcsICctaW1hZScsICc8aW5maWxlLm1hZT4nLCAnLW9tYWUnLCAnPG91dGZpbGUubWFlPic=

>  <r_lp_tautomer_probability>  (109) 
0.499981

>  <r_epik_Ionization_Penalty>  (109) 
2.94107e-08

>  <r_epik_Ionization_Penalty_Charging>  (109) 
0

>  <r_epik_Ionization_Penalty_Neutral>  (109) 
2.94107e-08

>  <r_epik_State_Penalty>  (109) 
0.41068

>  <r_epik_Charging_Adjusted_Penalty>  (109) 
0.41068

>  <i_epik_Tot_Q>  (109) 
0

>  <i_epik_Tot_abs_Q>  (109) 
0

>  <s_epik_Chemistry_Notes>  (109) 
This compound has an imine and may undergo hydrolysis.

>  <s_lp_Force_Field>  (109) 
OPLS3e

>  <r_lp_Energy>  (109) 
24.2016

>  <b_lp_Chiralities_Consistent>  (109) 
1

>  <s_lp_Variant>  (109) 
34:0-2

>  <s_i_glide_gridfile>  (109) 
pfpi4k_grid

>  <i_i_glide_lignum>  (109) 
1

>  <i_i_glide_rotatable_bonds>  (109) 
2

>  <r_i_docking_score>  (109) 
-2.56588

>  <r_i_glide_ligand_efficiency>  (109) 
-0.0916385

>  <r_i_glide_ligand_efficiency_sa>  (109) 
-0.278268

>  <r_i_glide_ligand_efficiency_ln>  (109) 
-0.59228

>  <r_i_glide_gscore>  (109) 
-2.56588

>  <r_i_glide_lipo>  (109) 
-0.150475

>  <r_i_glide_hbond>  (109) 
0

>  <r_i_glide_metal>  (109) 
-0

>  <r_i_glide_rewards>  (109) 
-0.739507

>  <r_i_glide_evdw>  (109) 
-30.1692

>  <r_i_glide_ecoul>  (109) 
-1.81543

>  <r_i_glide_erotb>  (109) 
0.125572

>  <r_i_glide_esite>  (109) 
-0.0206949

>  <r_i_glide_emodel>  (109) 
-35.7675

>  <r_i_glide_energy>  (109) 
-31.9846

>  <r_i_glide_einternal>  (109) 
1.17759

>  <r_i_glide_intrahb_reward>  (109) 
-0

>  <i_i_glide_confnum>  (109) 
4

>  <i_i_glide_posenum>  (109) 
9

>  <r_i_glide_eff_state_penalty>  (109) 
0

>  <ligand_id>  (109) 
34

>  <original_smiles>  (109) 
CC1(C)CC(=O)C2C(=NC3=C(C(=O)CC(C)(C)C3)C(c3cccs3)C2C#N)C1

>  <smiles>  (109) 
[H]C1=C2N=C3C([H])([H])C(C([H])([H])[H])(C([H])([H])[H])C([H])([H])C(=O)C3([H])C([H])(c3sc([H])c([H])c3[H])C([H])(C#N)C2([H])C(=O)C([H])([H])C1(C([H])([H])[H])C([H])([H])[H]

$$$$
34:1:2
     RDKit          3D

 54 57  0  0  1  0  0  0  0  0999 V2000
   -1.2765   -8.9774    2.7345 C   0  0  0  0  0  0  0  0  0  0  0  0
    0.1687   -8.6386    3.1361 C   0  0  0  0  0  0  0  0  0  0  0  0
    0.2012   -8.2854    4.6366 C   0  0  0  0  0  0  0  0  0  0  0  0
    1.0701   -9.8660    2.8445 C   0  0  0  0  0  0  0  0  0  0  0  0
    2.5508   -9.5044    2.7219 C   0  0  0  0  0  0  0  0  0  0  0  0
    3.4218  -10.0802    3.3669 O   0  0  0  0  0  0  0  0  0  0  0  0
    2.8651   -8.4345    1.6701 C   0  0  1  0  0  0  0  0  0  0  0  0
    1.8110   -7.3142    1.6955 C   0  0  0  0  0  0  0  0  0  0  0  0
    2.0612   -6.1368    0.9998 N   0  0  0  0  0  0  0  0  0  0  0  0
    3.0072   -5.3513    1.3404 C   0  0  0  0  0  0  0  0  0  0  0  0
    3.8430   -5.5398    2.6252 C   0  0  2  0  0  0  0  0  0  0  0  0
    4.5529   -4.2657    3.1261 C   0  0  0  0  0  0  0  0  0  0  0  0
    4.9358   -4.1886    4.2916 O   0  0  0  0  0  0  0  0  0  0  0  0
    4.7921   -3.0972    2.1697 C   0  0  0  0  0  0  0  0  0  0  0  0
    3.6191   -2.8591    1.1997 C   0  0  0  0  0  0  0  0  0  0  0  0
    2.3502   -2.3764    1.9525 C   0  0  0  0  0  0  0  0  0  0  0  0
    4.0347   -1.7795    0.1867 C   0  0  0  0  0  0  0  0  0  0  0  0
    3.3593   -4.1733    0.4413 C   0  0  0  0  0  0  0  0  0  0  0  0
    4.7661   -6.8082    2.6303 C   0  0  1  0  0  0  0  0  0  0  0  0
    5.0165   -7.3276    4.0304 C   0  0  0  0  0  0  0  0  0  0  0  0
    6.1989   -7.7722    4.5733 C   0  0  0  0  0  0  0  0  0  0  0  0
    6.0644   -8.2430    5.9162 C   0  0  0  0  0  0  0  0  0  0  0  0
    4.7802   -8.1579    6.3812 C   0  0  0  0  0  0  0  0  0  0  0  0
    3.7388   -7.3946    5.2228 S   0  0  0  0  0  0  0  0  0  0  0  0
    4.3383   -7.9155    1.6086 C   0  0  1  0  0  0  0  0  0  0  0  0
    5.3487   -8.9792    1.4518 C   0  0  0  0  0  0  0  0  0  0  0  0
    6.1544   -9.8021    1.3142 N   0  0  0  0  0  0  0  0  0  0  0  0
    0.6249   -7.4234    2.3391 C   0  0  0  0  0  0  0  0  0  0  0  0
   -1.6265   -9.8546    3.2786 H   0  0  0  0  0  0  0  0  0  0  0  0
   -1.3511   -9.2060    1.6712 H   0  0  0  0  0  0  0  0  0  0  0  0
   -1.9571   -8.1523    2.9557 H   0  0  0  0  0  0  0  0  0  0  0  0
   -0.1163   -9.1277    5.2520 H   0  0  0  0  0  0  0  0  0  0  0  0
   -0.4309   -7.4234    4.8645 H   0  0  0  0  0  0  0  0  0  0  0  0
    1.2114   -8.0283    4.9361 H   0  0  0  0  0  0  0  0  0  0  0  0
    0.9356  -10.6385    3.5928 H   0  0  0  0  0  0  0  0  0  0  0  0
    0.7848  -10.3004    1.8880 H   0  0  0  0  0  0  0  0  0  0  0  0
    2.6988   -8.9687    0.7335 H   0  0  0  0  0  0  0  0  0  0  0  0
    4.9721   -2.1971    2.7526 H   0  0  0  0  0  0  0  0  0  0  0  0
    5.7094   -3.2938    1.6121 H   0  0  0  0  0  0  0  0  0  0  0  0
    1.5212   -2.2208    1.2615 H   0  0  0  0  0  0  0  0  0  0  0  0
    2.5238   -1.4310    2.4680 H   0  0  0  0  0  0  0  0  0  0  0  0
    2.0075   -3.0951    2.6987 H   0  0  0  0  0  0  0  0  0  0  0  0
    3.2455   -1.6001   -0.5463 H   0  0  0  0  0  0  0  0  0  0  0  0
    4.9284   -2.0848   -0.3594 H   0  0  0  0  0  0  0  0  0  0  0  0
    4.2555   -0.8334    0.6778 H   0  0  0  0  0  0  0  0  0  0  0  0
    2.5589   -4.0282   -0.2831 H   0  0  0  0  0  0  0  0  0  0  0  0
    4.2455   -4.4523   -0.1337 H   0  0  0  0  0  0  0  0  0  0  0  0
    5.7377   -6.4748    2.2654 H   0  0  0  0  0  0  0  0  0  0  0  0
    7.1491   -7.7846    4.0582 H   0  0  0  0  0  0  0  0  0  0  0  0
    6.8943   -8.6358    6.4890 H   0  0  0  0  0  0  0  0  0  0  0  0
    4.3724   -8.4759    7.3333 H   0  0  0  0  0  0  0  0  0  0  0  0
    4.4153   -7.4456    0.6249 H   0  0  0  0  0  0  0  0  0  0  0  0
   -0.0678   -6.5945    2.2996 H   0  0  0  0  0  0  0  0  0  0  0  0
    3.0749   -5.7117    3.3770 H   0  0  0  0  0  0  0  0  0  0  0  0
  1  2  1  0
  1 29  1  0
  1 30  1  0
  1 31  1  0
  2  3  1  0
  2  4  1  0
  2 28  1  0
  3 32  1  0
  3 33  1  0
  3 34  1  0
  4  5  1  0
  4 35  1  0
  4 36  1  0
  5  6  2  0
  5  7  1  0
  7 25  1  0
  7 37  1  6
  7  8  1  0
  8  9  1  0
  8 28  2  0
  9 10  2  0
 10 11  1  0
 10 18  1  0
 11 12  1  0
 11 19  1  0
 11 54  1  1
 12 13  2  0
 12 14  1  0
 14 15  1  0
 14 38  1  0
 14 39  1  0
 15 16  1  0
 15 17  1  0
 15 18  1  0
 16 40  1  0
 16 41  1  0
 16 42  1  0
 17 43  1  0
 17 44  1  0
 17 45  1  0
 18 46  1  0
 18 47  1  0
 19 20  1  0
 19 25  1  0
 19 48  1  6
 20 24  1  0
 20 21  2  0
 21 22  1  0
 21 49  1  0
 22 23  2  0
 22 50  1  0
 23 24  1  0
 23 51  1  0
 25 26  1  0
 25 52  1  6
 26 27  3  0
 28 53  1  0
M  END
>  <i_m_ct_stereo_status>  (110) 
1

>  <s_m_source_file>  (110) 
/var/tmp/pbs.5083856.sched01/tmpy896zkta/45d6utibzo.sdf

>  <i_m_source_file_index>  (110) 
1

>  <i_lp_mmshare_version>  (110) 
48012

>  <i_f3d_flags>  (110) 
0

>  <s_epik_input>  (110) 
Tz1DMVtDSDJdQyhbQ0gzXSkoW0NIM10pW0NIMl1DKFtDQEhdMTIpPU5DMz1DKEMoPU8pW0NIMl1DKFtDSDNdKShbQ0gzXSlbQ0gyXTMpW0NASF0oW0NASF0yQyNOKWM0W2NIXVtjSF1bY0hdczQ=

>  <s_epik_cmdline>  (110) 
J2VwaWtfcHl0aG9uJywgJy1waHQnLCAnMi4wJywgJy1waCcsICc3LjAnLCAnLXRuJywgJzgnLCAnLW1hJywgJzIwMCcsICctaW1hZScsICc8aW5maWxlLm1hZT4nLCAnLW9tYWUnLCAnPG91dGZpbGUubWFlPic=

>  <r_lp_tautomer_probability>  (110) 
0.499981

>  <r_epik_Ionization_Penalty>  (110) 
2.94107e-08

>  <r_epik_Ionization_Penalty_Charging>  (110) 
0

>  <r_epik_Ionization_Penalty_Neutral>  (110) 
2.94107e-08

>  <r_epik_State_Penalty>  (110) 
0.41068

>  <r_epik_Charging_Adjusted_Penalty>  (110) 
0.41068

>  <i_epik_Tot_Q>  (110) 
0

>  <i_epik_Tot_abs_Q>  (110) 
0

>  <s_epik_Chemistry_Notes>  (110) 
This compound has an imine and may undergo hydrolysis.

>  <s_lp_Force_Field>  (110) 
OPLS3e

>  <r_lp_Energy>  (110) 
24.2016

>  <b_lp_Chiralities_Consistent>  (110) 
1

>  <s_lp_Variant>  (110) 
34:0-2

>  <s_i_glide_gridfile>  (110) 
pfpi4k_grid

>  <i_i_glide_lignum>  (110) 
1

>  <i_i_glide_rotatable_bonds>  (110) 
2

>  <r_i_docking_score>  (110) 
-2.56376

>  <r_i_glide_ligand_efficiency>  (110) 
-0.091563

>  <r_i_glide_ligand_efficiency_sa>  (110) 
-0.278039

>  <r_i_glide_ligand_efficiency_ln>  (110) 
-0.591792

>  <r_i_glide_gscore>  (110) 
-2.56376

>  <r_i_glide_lipo>  (110) 
-0.161195

>  <r_i_glide_hbond>  (110) 
0

>  <r_i_glide_metal>  (110) 
-0

>  <r_i_glide_rewards>  (110) 
-0.73057

>  <r_i_glide_evdw>  (110) 
-29.9934

>  <r_i_glide_ecoul>  (110) 
-1.84281

>  <r_i_glide_erotb>  (110) 
0.125572

>  <r_i_glide_esite>  (110) 
-0.0214767

>  <r_i_glide_emodel>  (110) 
-36.1053

>  <r_i_glide_energy>  (110) 
-31.8362

>  <r_i_glide_einternal>  (110) 
0.213166

>  <r_i_glide_intrahb_reward>  (110) 
-0

>  <i_i_glide_confnum>  (110) 
3

>  <i_i_glide_posenum>  (110) 
4

>  <r_i_glide_eff_state_penalty>  (110) 
0

>  <ligand_id>  (110) 
34

>  <original_smiles>  (110) 
CC1(C)CC(=O)C2C(=NC3=C(C(=O)CC(C)(C)C3)C(c3cccs3)C2C#N)C1

>  <smiles>  (110) 
[H]C1=C2N=C3C([H])([H])C(C([H])([H])[H])(C([H])([H])[H])C([H])([H])C(=O)C3([H])C([H])(c3sc([H])c([H])c3[H])C([H])(C#N)C2([H])C(=O)C([H])([H])C1(C([H])([H])[H])C([H])([H])[H]

$$$$
34:2:0
     RDKit          3D

 54 57  0  0  1  0  0  0  0  0999 V2000
    0.7378  -11.3174    4.2397 C   0  0  0  0  0  0  0  0  0  0  0  0
    0.5494   -9.9255    3.5986 C   0  0  0  0  0  0  0  0  0  0  0  0
   -0.5328   -9.9703    2.4986 C   0  0  0  0  0  0  0  0  0  0  0  0
    0.1346   -8.9152    4.6879 C   0  0  0  0  0  0  0  0  0  0  0  0
    0.3254   -7.4796    4.2146 C   0  0  0  0  0  0  0  0  0  0  0  0
   -0.5989   -6.6652    4.1905 O   0  0  0  0  0  0  0  0  0  0  0  0
    1.7520   -7.1194    3.7894 C   0  0  1  0  0  0  0  0  0  0  0  0
    2.4177   -8.2850    3.0281 C   0  0  0  0  0  0  0  0  0  0  0  0
    3.5627   -8.1324    2.2461 N   0  0  0  0  0  0  0  0  0  0  0  0
    4.4176   -7.1944    2.3344 C   0  0  0  0  0  0  0  0  0  0  0  0
    4.3645   -6.0351    3.3482 C   0  0  1  0  0  0  0  0  0  0  0  0
    5.6905   -5.3013    3.5986 C   0  0  0  0  0  0  0  0  0  0  0  0
    5.7956   -4.5579    4.5706 O   0  0  0  0  0  0  0  0  0  0  0  0
    6.8582   -5.4703    2.6195 C   0  0  0  0  0  0  0  0  0  0  0  0
    6.9502   -6.8838    2.0331 C   0  0  0  0  0  0  0  0  0  0  0  0
    8.0323   -6.8869    0.9463 C   0  0  0  0  0  0  0  0  0  0  0  0
    7.3379   -7.9256    3.1143 C   0  0  0  0  0  0  0  0  0  0  0  0
    5.5999   -7.2185    1.3785 C   0  0  0  0  0  0  0  0  0  0  0  0
    3.1552   -5.0687    3.1727 C   0  0  1  0  0  0  0  0  0  0  0  0
    3.3498   -3.9020    2.2396 C   0  0  0  0  0  0  0  0  0  0  0  0
    3.7924   -3.8998    0.9403 C   0  0  0  0  0  0  0  0  0  0  0  0
    3.8398   -2.6008    0.3605 C   0  0  0  0  0  0  0  0  0  0  0  0
    3.4202   -1.6178    1.2162 C   0  0  0  0  0  0  0  0  0  0  0  0
    2.9740   -2.2804    2.7657 S   0  0  0  0  0  0  0  0  0  0  0  0
    1.8050   -5.7892    2.9973 C   0  0  1  0  0  0  0  0  0  0  0  0
    1.4129   -6.0145    1.5964 C   0  0  0  0  0  0  0  0  0  0  0  0
    1.0816   -6.1897    0.4971 N   0  0  0  0  0  0  0  0  0  0  0  0
    1.8599   -9.5159    2.9468 C   0  0  0  0  0  0  0  0  0  0  0  0
   -0.1625  -11.6551    4.7440 H   0  0  0  0  0  0  0  0  0  0  0  0
    1.5339  -11.3003    4.9879 H   0  0  0  0  0  0  0  0  0  0  0  0
    1.0011  -12.0789    3.5018 H   0  0  0  0  0  0  0  0  0  0  0  0
   -1.5053  -10.2264    2.9131 H   0  0  0  0  0  0  0  0  0  0  0  0
   -0.2994  -10.7273    1.7472 H   0  0  0  0  0  0  0  0  0  0  0  0
   -0.6415   -9.0149    1.9824 H   0  0  0  0  0  0  0  0  0  0  0  0
   -0.8923   -9.0805    4.9976 H   0  0  0  0  0  0  0  0  0  0  0  0
    0.7566   -9.0591    5.5670 H   0  0  0  0  0  0  0  0  0  0  0  0
    2.2807   -6.9957    4.7360 H   0  0  0  0  0  0  0  0  0  0  0  0
    6.7580   -4.7340    1.8225 H   0  0  0  0  0  0  0  0  0  0  0  0
    7.7950   -5.2492    3.1211 H   0  0  0  0  0  0  0  0  0  0  0  0
    8.1276   -7.8750    0.4958 H   0  0  0  0  0  0  0  0  0  0  0  0
    9.0059   -6.6258    1.3568 H   0  0  0  0  0  0  0  0  0  0  0  0
    7.8040   -6.1729    0.1564 H   0  0  0  0  0  0  0  0  0  0  0  0
    7.3691   -8.9332    2.6953 H   0  0  0  0  0  0  0  0  0  0  0  0
    6.6259   -7.9481    3.9417 H   0  0  0  0  0  0  0  0  0  0  0  0
    8.3198   -7.7121    3.5429 H   0  0  0  0  0  0  0  0  0  0  0  0
    5.3924   -6.5093    0.5776 H   0  0  0  0  0  0  0  0  0  0  0  0
    5.6575   -8.2045    0.9201 H   0  0  0  0  0  0  0  0  0  0  0  0
    3.0698   -4.6103    4.1557 H   0  0  0  0  0  0  0  0  0  0  0  0
    4.0713   -4.7737    0.3755 H   0  0  0  0  0  0  0  0  0  0  0  0
    4.1569   -2.4367   -0.6587 H   0  0  0  0  0  0  0  0  0  0  0  0
    3.3278   -0.5568    1.0209 H   0  0  0  0  0  0  0  0  0  0  0  0
    1.0533   -5.0931    3.3770 H   0  0  0  0  0  0  0  0  0  0  0  0
    2.3474  -10.2844    2.3603 H   0  0  0  0  0  0  0  0  0  0  0  0
    4.2104   -6.5286    4.3100 H   0  0  0  0  0  0  0  0  0  0  0  0
  1  2  1  0
  1 29  1  0
  1 30  1  0
  1 31  1  0
  2  3  1  0
  2  4  1  0
  2 28  1  0
  3 32  1  0
  3 33  1  0
  3 34  1  0
  4  5  1  0
  4 35  1  0
  4 36  1  0
  5  6  2  0
  5  7  1  0
  7 25  1  0
  7 37  1  1
  7  8  1  0
  8  9  1  0
  8 28  2  0
  9 10  2  0
 10 11  1  0
 10 18  1  0
 11 12  1  0
 11 19  1  0
 11 54  1  1
 12 13  2  0
 12 14  1  0
 14 15  1  0
 14 38  1  0
 14 39  1  0
 15 16  1  0
 15 17  1  0
 15 18  1  0
 16 40  1  0
 16 41  1  0
 16 42  1  0
 17 43  1  0
 17 44  1  0
 17 45  1  0
 18 46  1  0
 18 47  1  0
 19 20  1  0
 19 25  1  0
 19 48  1  1
 20 24  1  0
 20 21  2  0
 21 22  1  0
 21 49  1  0
 22 23  2  0
 22 50  1  0
 23 24  1  0
 23 51  1  0
 25 26  1  0
 25 52  1  1
 26 27  3  0
 28 53  1  0
M  END
>  <i_m_ct_stereo_status>  (111) 
1

>  <s_m_source_file>  (111) 
/var/tmp/pbs.5083856.sched01/tmpy896zkta/45d6utibzo.sdf

>  <i_m_source_file_index>  (111) 
2

>  <i_lp_mmshare_version>  (111) 
48012

>  <i_f3d_flags>  (111) 
0

>  <s_epik_input>  (111) 
Tz1DMVtDSDJdQyhbQ0gzXSkoW0NIM10pW0NIMl1DKFtDQEhdMTIpPU5DMz1DKEMoPU8pW0NIMl1DKFtDSDNdKShbQ0gzXSlbQ0gyXTMpW0NASF0oW0NASF0yQyNOKWM0W2NIXVtjSF1bY0hdczQ=

>  <s_epik_cmdline>  (111) 
J2VwaWtfcHl0aG9uJywgJy1waHQnLCAnMi4wJywgJy1waCcsICc3LjAnLCAnLXRuJywgJzgnLCAnLW1hJywgJzIwMCcsICctaW1hZScsICc8aW5maWxlLm1hZT4nLCAnLW9tYWUnLCAnPG91dGZpbGUubWFlPic=

>  <r_lp_tautomer_probability>  (111) 
0.499981

>  <r_epik_Ionization_Penalty>  (111) 
2.94107e-08

>  <r_epik_Ionization_Penalty_Charging>  (111) 
0

>  <r_epik_Ionization_Penalty_Neutral>  (111) 
2.94107e-08

>  <r_epik_State_Penalty>  (111) 
0.41068

>  <r_epik_Charging_Adjusted_Penalty>  (111) 
0.41068

>  <i_epik_Tot_Q>  (111) 
0

>  <i_epik_Tot_abs_Q>  (111) 
0

>  <s_epik_Chemistry_Notes>  (111) 
This compound has an imine and may undergo hydrolysis.

>  <s_lp_Force_Field>  (111) 
OPLS3e

>  <r_lp_Energy>  (111) 
21.7205

>  <b_lp_Chiralities_Consistent>  (111) 
1

>  <s_lp_Variant>  (111) 
34:0-3

>  <s_i_glide_gridfile>  (111) 
pfpi4k_grid

>  <i_i_glide_lignum>  (111) 
2

>  <i_i_glide_rotatable_bonds>  (111) 
2

>  <r_i_docking_score>  (111) 
-3.09262

>  <r_i_glide_ligand_efficiency>  (111) 
-0.110451

>  <r_i_glide_ligand_efficiency_sa>  (111) 
-0.335393

>  <r_i_glide_ligand_efficiency_ln>  (111) 
-0.713868

>  <r_i_glide_gscore>  (111) 
-3.09262

>  <r_i_glide_lipo>  (111) 
-0.284738

>  <r_i_glide_hbond>  (111) 
-0.169127

>  <r_i_glide_metal>  (111) 
-0

>  <r_i_glide_rewards>  (111) 
-0.729226

>  <r_i_glide_evdw>  (111) 
-25.3774

>  <r_i_glide_ecoul>  (111) 
-4.44779

>  <r_i_glide_erotb>  (111) 
0.125572

>  <r_i_glide_esite>  (111) 
-0.0990593

>  <r_i_glide_emodel>  (111) 
-34.7141

>  <r_i_glide_energy>  (111) 
-29.8252

>  <r_i_glide_einternal>  (111) 
2.09178

>  <r_i_glide_intrahb_reward>  (111) 
-0

>  <i_i_glide_confnum>  (111) 
2

>  <i_i_glide_posenum>  (111) 
2

>  <r_i_glide_eff_state_penalty>  (111) 
0

>  <ligand_id>  (111) 
34

>  <original_smiles>  (111) 
CC1(C)CC(=O)C2C(=NC3=C(C(=O)CC(C)(C)C3)C(c3cccs3)C2C#N)C1

>  <smiles>  (111) 
[H]C1=C2N=C3C([H])([H])C(C([H])([H])[H])(C([H])([H])[H])C([H])([H])C(=O)C3([H])C([H])(c3sc([H])c([H])c3[H])C([H])(C#N)C2([H])C(=O)C([H])([H])C1(C([H])([H])[H])C([H])([H])[H]

$$$$
34:2:1
     RDKit          3D

 54 57  0  0  1  0  0  0  0  0999 V2000
    0.9734  -11.0596    3.6585 C   0  0  0  0  0  0  0  0  0  0  0  0
    1.2015   -9.5540    3.4213 C   0  0  0  0  0  0  0  0  0  0  0  0
    2.3004   -9.3574    2.3531 C   0  0  0  0  0  0  0  0  0  0  0  0
   -0.1216   -8.9116    2.9506 C   0  0  0  0  0  0  0  0  0  0  0  0
   -0.0920   -7.3963    3.0864 C   0  0  0  0  0  0  0  0  0  0  0  0
   -0.3377   -6.6572    2.1312 O   0  0  0  0  0  0  0  0  0  0  0  0
    0.1958   -6.8585    4.4932 C   0  0  1  0  0  0  0  0  0  0  0  0
    1.2272   -7.7366    5.2267 C   0  0  0  0  0  0  0  0  0  0  0  0
    1.8812   -7.3129    6.3873 N   0  0  0  0  0  0  0  0  0  0  0  0
    1.5080   -6.3981    7.1944 C   0  0  0  0  0  0  0  0  0  0  0  0
    0.2140   -5.5681    7.0818 C   0  0  1  0  0  0  0  0  0  0  0  0
   -0.2585   -4.8638    8.3720 C   0  0  0  0  0  0  0  0  0  0  0  0
   -1.3896   -4.3851    8.4323 O   0  0  0  0  0  0  0  0  0  0  0  0
    0.6970   -4.7176    9.5587 C   0  0  0  0  0  0  0  0  0  0  0  0
    1.6604   -5.9077    9.7122 C   0  0  0  0  0  0  0  0  0  0  0  0
    2.6898   -5.5567   10.7998 C   0  0  0  0  0  0  0  0  0  0  0  0
    0.9109   -7.2006   10.1243 C   0  0  0  0  0  0  0  0  0  0  0  0
    2.4110   -6.0952    8.3817 C   0  0  0  0  0  0  0  0  0  0  0  0
    0.1525   -4.6590    5.8192 C   0  0  1  0  0  0  0  0  0  0  0  0
    0.6986   -3.2626    5.9643 C   0  0  0  0  0  0  0  0  0  0  0  0
    1.9332   -2.8685    6.4153 C   0  0  0  0  0  0  0  0  0  0  0  0
    2.1161   -1.4573    6.4054 C   0  0  0  0  0  0  0  0  0  0  0  0
    1.0236   -0.7821    5.9341 C   0  0  0  0  0  0  0  0  0  0  0  0
   -0.2631   -1.8786    5.5046 S   0  0  0  0  0  0  0  0  0  0  0  0
    0.5764   -5.3547    4.5043 C   0  0  1  0  0  0  0  0  0  0  0  0
    1.9869   -5.1298    4.1283 C   0  0  0  0  0  0  0  0  0  0  0  0
    3.0892   -4.9497    3.8340 N   0  0  0  0  0  0  0  0  0  0  0  0
    1.6700   -8.9146    4.7246 C   0  0  0  0  0  0  0  0  0  0  0  0
    0.6154  -11.5555    2.7574 H   0  0  0  0  0  0  0  0  0  0  0  0
    0.2276  -11.2213    4.4386 H   0  0  0  0  0  0  0  0  0  0  0  0
    1.8876  -11.5696    3.9712 H   0  0  0  0  0  0  0  0  0  0  0  0
    2.0051   -9.7763    1.3911 H   0  0  0  0  0  0  0  0  0  0  0  0
    3.2372   -9.8347    2.6464 H   0  0  0  0  0  0  0  0  0  0  0  0
    2.5157   -8.2986    2.1973 H   0  0  0  0  0  0  0  0  0  0  0  0
   -0.3582   -9.2091    1.9325 H   0  0  0  0  0  0  0  0  0  0  0  0
   -0.9350   -9.2734    3.5758 H   0  0  0  0  0  0  0  0  0  0  0  0
   -0.7576   -6.9906    5.0068 H   0  0  0  0  0  0  0  0  0  0  0  0
    1.2593   -3.7935    9.4182 H   0  0  0  0  0  0  0  0  0  0  0  0
    0.1172   -4.5877   10.4708 H   0  0  0  0  0  0  0  0  0  0  0  0
    3.4276   -6.3524   10.9208 H   0  0  0  0  0  0  0  0  0  0  0  0
    2.2124   -5.3891   11.7661 H   0  0  0  0  0  0  0  0  0  0  0  0
    3.2313   -4.6450   10.5413 H   0  0  0  0  0  0  0  0  0  0  0  0
    1.5995   -8.0428   10.2096 H   0  0  0  0  0  0  0  0  0  0  0  0
    0.1495   -7.4907    9.3988 H   0  0  0  0  0  0  0  0  0  0  0  0
    0.4105   -7.0809   11.0869 H   0  0  0  0  0  0  0  0  0  0  0  0
    2.9824   -5.1970    8.1463 H   0  0  0  0  0  0  0  0  0  0  0  0
    3.1374   -6.9009    8.4854 H   0  0  0  0  0  0  0  0  0  0  0  0
   -0.9174   -4.5142    5.6965 H   0  0  0  0  0  0  0  0  0  0  0  0
    2.7165   -3.5332    6.7389 H   0  0  0  0  0  0  0  0  0  0  0  0
    3.0382   -0.9969    6.7277 H   0  0  0  0  0  0  0  0  0  0  0  0
    0.9084    0.2867    5.8045 H   0  0  0  0  0  0  0  0  0  0  0  0
    0.0418   -4.8346    3.7152 H   0  0  0  0  0  0  0  0  0  0  0  0
    2.4322   -9.4640    5.2625 H   0  0  0  0  0  0  0  0  0  0  0  0
   -0.5652   -6.3180    6.9399 H   0  0  0  0  0  0  0  0  0  0  0  0
  1  2  1  0
  1 29  1  0
  1 30  1  0
  1 31  1  0
  2  3  1  0
  2  4  1  0
  2 28  1  0
  3 32  1  0
  3 33  1  0
  3 34  1  0
  4  5  1  0
  4 35  1  0
  4 36  1  0
  5  6  2  0
  5  7  1  0
  7 25  1  0
  7 37  1  1
  7  8  1  0
  8  9  1  0
  8 28  2  0
  9 10  2  0
 10 11  1  0
 10 18  1  0
 11 12  1  0
 11 19  1  0
 11 54  1  6
 12 13  2  0
 12 14  1  0
 14 15  1  0
 14 38  1  0
 14 39  1  0
 15 16  1  0
 15 17  1  0
 15 18  1  0
 16 40  1  0
 16 41  1  0
 16 42  1  0
 17 43  1  0
 17 44  1  0
 17 45  1  0
 18 46  1  0
 18 47  1  0
 19 20  1  0
 19 25  1  0
 19 48  1  6
 20 24  1  0
 20 21  2  0
 21 22  1  0
 21 49  1  0
 22 23  2  0
 22 50  1  0
 23 24  1  0
 23 51  1  0
 25 26  1  0
 25 52  1  6
 26 27  3  0
 28 53  1  0
M  END
>  <i_m_ct_stereo_status>  (112) 
1

>  <s_m_source_file>  (112) 
/var/tmp/pbs.5083856.sched01/tmpy896zkta/45d6utibzo.sdf

>  <i_m_source_file_index>  (112) 
2

>  <i_lp_mmshare_version>  (112) 
48012

>  <i_f3d_flags>  (112) 
0

>  <s_epik_input>  (112) 
Tz1DMVtDSDJdQyhbQ0gzXSkoW0NIM10pW0NIMl1DKFtDQEhdMTIpPU5DMz1DKEMoPU8pW0NIMl1DKFtDSDNdKShbQ0gzXSlbQ0gyXTMpW0NASF0oW0NASF0yQyNOKWM0W2NIXVtjSF1bY0hdczQ=

>  <s_epik_cmdline>  (112) 
J2VwaWtfcHl0aG9uJywgJy1waHQnLCAnMi4wJywgJy1waCcsICc3LjAnLCAnLXRuJywgJzgnLCAnLW1hJywgJzIwMCcsICctaW1hZScsICc8aW5maWxlLm1hZT4nLCAnLW9tYWUnLCAnPG91dGZpbGUubWFlPic=

>  <r_lp_tautomer_probability>  (112) 
0.499981

>  <r_epik_Ionization_Penalty>  (112) 
2.94107e-08

>  <r_epik_Ionization_Penalty_Charging>  (112) 
0

>  <r_epik_Ionization_Penalty_Neutral>  (112) 
2.94107e-08

>  <r_epik_State_Penalty>  (112) 
0.41068

>  <r_epik_Charging_Adjusted_Penalty>  (112) 
0.41068

>  <i_epik_Tot_Q>  (112) 
0

>  <i_epik_Tot_abs_Q>  (112) 
0

>  <s_epik_Chemistry_Notes>  (112) 
This compound has an imine and may undergo hydrolysis.

>  <s_lp_Force_Field>  (112) 
OPLS3e

>  <r_lp_Energy>  (112) 
21.7205

>  <b_lp_Chiralities_Consistent>  (112) 
1

>  <s_lp_Variant>  (112) 
34:0-3

>  <s_i_glide_gridfile>  (112) 
pfpi4k_grid

>  <i_i_glide_lignum>  (112) 
2

>  <i_i_glide_rotatable_bonds>  (112) 
2

>  <r_i_docking_score>  (112) 
-2.79467

>  <r_i_glide_ligand_efficiency>  (112) 
-0.0998096

>  <r_i_glide_ligand_efficiency_sa>  (112) 
-0.303081

>  <r_i_glide_ligand_efficiency_ln>  (112) 
-0.645092

>  <r_i_glide_gscore>  (112) 
-2.79467

>  <r_i_glide_lipo>  (112) 
-0.189603

>  <r_i_glide_hbond>  (112) 
-0.16

>  <r_i_glide_metal>  (112) 
-0

>  <r_i_glide_rewards>  (112) 
-0.719109

>  <r_i_glide_evdw>  (112) 
-25.3532

>  <r_i_glide_ecoul>  (112) 
-3.52301

>  <r_i_glide_erotb>  (112) 
0.125572

>  <r_i_glide_esite>  (112) 
-0.0554166

>  <r_i_glide_emodel>  (112) 
-33.2188

>  <r_i_glide_energy>  (112) 
-28.8762

>  <r_i_glide_einternal>  (112) 
2.10796

>  <r_i_glide_intrahb_reward>  (112) 
-0

>  <i_i_glide_confnum>  (112) 
3

>  <i_i_glide_posenum>  (112) 
37

>  <r_i_glide_eff_state_penalty>  (112) 
0

>  <ligand_id>  (112) 
34

>  <original_smiles>  (112) 
CC1(C)CC(=O)C2C(=NC3=C(C(=O)CC(C)(C)C3)C(c3cccs3)C2C#N)C1

>  <smiles>  (112) 
[H]C1=C2N=C3C([H])([H])C(C([H])([H])[H])(C([H])([H])[H])C([H])([H])C(=O)C3([H])C([H])(c3sc([H])c([H])c3[H])C([H])(C#N)C2([H])C(=O)C([H])([H])C1(C([H])([H])[H])C([H])([H])[H]

$$$$
34:2:2
     RDKit          3D

 54 57  0  0  1  0  0  0  0  0999 V2000
    1.2110  -10.8865    4.8515 C   0  0  0  0  0  0  0  0  0  0  0  0
    1.1793   -9.6080    3.9928 C   0  0  0  0  0  0  0  0  0  0  0  0
    1.3793   -9.9731    2.5067 C   0  0  0  0  0  0  0  0  0  0  0  0
   -0.1825   -8.9096    4.1891 C   0  0  0  0  0  0  0  0  0  0  0  0
   -0.1507   -7.4663    3.7041 C   0  0  0  0  0  0  0  0  0  0  0  0
   -0.9544   -7.0409    2.8723 O   0  0  0  0  0  0  0  0  0  0  0  0
    0.9151   -6.5758    4.3632 C   0  0  1  0  0  0  0  0  0  0  0  0
    2.2236   -7.3532    4.6079 C   0  0  0  0  0  0  0  0  0  0  0  0
    3.4309   -6.7143    4.9007 N   0  0  0  0  0  0  0  0  0  0  0  0
    3.5895   -5.5368    5.3634 C   0  0  0  0  0  0  0  0  0  0  0  0
    2.4608   -4.5562    5.7392 C   0  0  1  0  0  0  0  0  0  0  0  0
    2.8492   -3.4081    6.6907 C   0  0  0  0  0  0  0  0  0  0  0  0
    1.9709   -2.7528    7.2461 O   0  0  0  0  0  0  0  0  0  0  0  0
    4.3264   -3.0682    6.9225 C   0  0  0  0  0  0  0  0  0  0  0  0
    5.2369   -4.3084    6.9064 C   0  0  0  0  0  0  0  0  0  0  0  0
    6.6999   -3.8361    6.9588 C   0  0  0  0  0  0  0  0  0  0  0  0
    4.9648   -5.2328    8.1215 C   0  0  0  0  0  0  0  0  0  0  0  0
    5.0138   -5.0466    5.5743 C   0  0  0  0  0  0  0  0  0  0  0  0
    1.5899   -4.0997    4.5328 C   0  0  1  0  0  0  0  0  0  0  0  0
    2.0488   -2.8646    3.8013 C   0  0  0  0  0  0  0  0  0  0  0  0
    3.2290   -2.6519    3.1341 C   0  0  0  0  0  0  0  0  0  0  0  0
    3.3167   -1.3628    2.5342 C   0  0  0  0  0  0  0  0  0  0  0  0
    2.2019   -0.5993    2.7456 C   0  0  0  0  0  0  0  0  0  0  0  0
    1.0185   -1.4570    3.6964 S   0  0  0  0  0  0  0  0  0  0  0  0
    1.1486   -5.2484    3.5976 C   0  0  1  0  0  0  0  0  0  0  0  0
    2.0090   -5.4396    2.4116 C   0  0  0  0  0  0  0  0  0  0  0  0
    2.6708   -5.5832    1.4764 N   0  0  0  0  0  0  0  0  0  0  0  0
    2.3182   -8.6903    4.4207 C   0  0  0  0  0  0  0  0  0  0  0  0
    0.3923  -11.5618    4.6007 H   0  0  0  0  0  0  0  0  0  0  0  0
    1.1133  -10.6485    5.9121 H   0  0  0  0  0  0  0  0  0  0  0  0
    2.1442  -11.4394    4.7318 H   0  0  0  0  0  0  0  0  0  0  0  0
    0.5727  -10.6111    2.1422 H   0  0  0  0  0  0  0  0  0  0  0  0
    2.3189  -10.5043    2.3450 H   0  0  0  0  0  0  0  0  0  0  0  0
    1.4002   -9.0846    1.8738 H   0  0  0  0  0  0  0  0  0  0  0  0
   -0.9795   -9.4665    3.7017 H   0  0  0  0  0  0  0  0  0  0  0  0
   -0.4249   -8.8906    5.2499 H   0  0  0  0  0  0  0  0  0  0  0  0
    0.4878   -6.3505    5.3396 H   0  0  0  0  0  0  0  0  0  0  0  0
    4.6351   -2.3623    6.1508 H   0  0  0  0  0  0  0  0  0  0  0  0
    4.4255   -2.5471    7.8725 H   0  0  0  0  0  0  0  0  0  0  0  0
    7.3926   -4.6783    6.9077 H   0  0  0  0  0  0  0  0  0  0  0  0
    6.9102   -3.2813    7.8740 H   0  0  0  0  0  0  0  0  0  0  0  0
    6.9225   -3.1769    6.1188 H   0  0  0  0  0  0  0  0  0  0  0  0
    5.5971   -6.1222    8.0921 H   0  0  0  0  0  0  0  0  0  0  0  0
    3.9315   -5.5814    8.1583 H   0  0  0  0  0  0  0  0  0  0  0  0
    5.1572   -4.7192    9.0647 H   0  0  0  0  0  0  0  0  0  0  0  0
    5.2668   -4.3952    4.7361 H   0  0  0  0  0  0  0  0  0  0  0  0
    5.6900   -5.9004    5.5196 H   0  0  0  0  0  0  0  0  0  0  0  0
    0.6559   -3.8002    5.0089 H   0  0  0  0  0  0  0  0  0  0  0  0
    4.0245   -3.3744    3.0380 H   0  0  0  0  0  0  0  0  0  0  0  0
    4.1797   -1.0487    1.9658 H   0  0  0  0  0  0  0  0  0  0  0  0
    2.0023    0.4043    2.3915 H   0  0  0  0  0  0  0  0  0  0  0  0
    0.2151   -4.9128    3.1619 H   0  0  0  0  0  0  0  0  0  0  0  0
    3.2763   -9.1763    4.5592 H   0  0  0  0  0  0  0  0  0  0  0  0
    1.7983   -5.1491    6.3712 H   0  0  0  0  0  0  0  0  0  0  0  0
  1  2  1  0
  1 29  1  0
  1 30  1  0
  1 31  1  0
  2  3  1  0
  2  4  1  0
  2 28  1  0
  3 32  1  0
  3 33  1  0
  3 34  1  0
  4  5  1  0
  4 35  1  0
  4 36  1  0
  5  6  2  0
  5  7  1  0
  7 25  1  0
  7 37  1  1
  7  8  1  0
  8  9  1  0
  8 28  2  0
  9 10  2  0
 10 11  1  0
 10 18  1  0
 11 12  1  0
 11 19  1  0
 11 54  1  1
 12 13  2  0
 12 14  1  0
 14 15  1  0
 14 38  1  0
 14 39  1  0
 15 16  1  0
 15 17  1  0
 15 18  1  0
 16 40  1  0
 16 41  1  0
 16 42  1  0
 17 43  1  0
 17 44  1  0
 17 45  1  0
 18 46  1  0
 18 47  1  0
 19 20  1  0
 19 25  1  0
 19 48  1  1
 20 24  1  0
 20 21  2  0
 21 22  1  0
 21 49  1  0
 22 23  2  0
 22 50  1  0
 23 24  1  0
 23 51  1  0
 25 26  1  0
 25 52  1  6
 26 27  3  0
 28 53  1  0
M  END
>  <i_m_ct_stereo_status>  (113) 
1

>  <s_m_source_file>  (113) 
/var/tmp/pbs.5083856.sched01/tmpy896zkta/45d6utibzo.sdf

>  <i_m_source_file_index>  (113) 
2

>  <i_lp_mmshare_version>  (113) 
48012

>  <i_f3d_flags>  (113) 
0

>  <s_epik_input>  (113) 
Tz1DMVtDSDJdQyhbQ0gzXSkoW0NIM10pW0NIMl1DKFtDQEhdMTIpPU5DMz1DKEMoPU8pW0NIMl1DKFtDSDNdKShbQ0gzXSlbQ0gyXTMpW0NASF0oW0NASF0yQyNOKWM0W2NIXVtjSF1bY0hdczQ=

>  <s_epik_cmdline>  (113) 
J2VwaWtfcHl0aG9uJywgJy1waHQnLCAnMi4wJywgJy1waCcsICc3LjAnLCAnLXRuJywgJzgnLCAnLW1hJywgJzIwMCcsICctaW1hZScsICc8aW5maWxlLm1hZT4nLCAnLW9tYWUnLCAnPG91dGZpbGUubWFlPic=

>  <r_lp_tautomer_probability>  (113) 
0.499981

>  <r_epik_Ionization_Penalty>  (113) 
2.94107e-08

>  <r_epik_Ionization_Penalty_Charging>  (113) 
0

>  <r_epik_Ionization_Penalty_Neutral>  (113) 
2.94107e-08

>  <r_epik_State_Penalty>  (113) 
0.41068

>  <r_epik_Charging_Adjusted_Penalty>  (113) 
0.41068

>  <i_epik_Tot_Q>  (113) 
0

>  <i_epik_Tot_abs_Q>  (113) 
0

>  <s_epik_Chemistry_Notes>  (113) 
This compound has an imine and may undergo hydrolysis.

>  <s_lp_Force_Field>  (113) 
OPLS3e

>  <r_lp_Energy>  (113) 
21.7205

>  <b_lp_Chiralities_Consistent>  (113) 
1

>  <s_lp_Variant>  (113) 
34:0-3

>  <s_i_glide_gridfile>  (113) 
pfpi4k_grid

>  <i_i_glide_lignum>  (113) 
2

>  <i_i_glide_rotatable_bonds>  (113) 
2

>  <r_i_docking_score>  (113) 
-2.48144

>  <r_i_glide_ligand_efficiency>  (113) 
-0.0886227

>  <r_i_glide_ligand_efficiency_sa>  (113) 
-0.269111

>  <r_i_glide_ligand_efficiency_ln>  (113) 
-0.572788

>  <r_i_glide_gscore>  (113) 
-2.48144

>  <r_i_glide_lipo>  (113) 
-0.153382

>  <r_i_glide_hbond>  (113) 
-0.16

>  <r_i_glide_metal>  (113) 
-0

>  <r_i_glide_rewards>  (113) 
-0.719109

>  <r_i_glide_evdw>  (113) 
-22.7012

>  <r_i_glide_ecoul>  (113) 
-2.50756

>  <r_i_glide_erotb>  (113) 
0.125572

>  <r_i_glide_esite>  (113) 
-0.0633221

>  <r_i_glide_emodel>  (113) 
-28.9583

>  <r_i_glide_energy>  (113) 
-25.2088

>  <r_i_glide_einternal>  (113) 
2.09129

>  <r_i_glide_intrahb_reward>  (113) 
-0

>  <i_i_glide_confnum>  (113) 
3

>  <i_i_glide_posenum>  (113) 
40

>  <r_i_glide_eff_state_penalty>  (113) 
0

>  <ligand_id>  (113) 
34

>  <original_smiles>  (113) 
CC1(C)CC(=O)C2C(=NC3=C(C(=O)CC(C)(C)C3)C(c3cccs3)C2C#N)C1

>  <smiles>  (113) 
[H]C1=C2N=C3C([H])([H])C(C([H])([H])[H])(C([H])([H])[H])C([H])([H])C(=O)C3([H])C([H])(c3sc([H])c([H])c3[H])C([H])(C#N)C2([H])C(=O)C([H])([H])C1(C([H])([H])[H])C([H])([H])[H]

$$$$
35:0:0
     RDKit          3D

 69 74  0  0  1  0  0  0  0  0999 V2000
    3.5964   -0.0722    6.4468 C   0  0  0  0  0  0  0  0  0  0  0  0
    4.7785   -1.0319    6.2147 C   0  0  0  0  0  0  0  0  0  0  0  0
    6.1266   -0.2961    6.3174 C   0  0  0  0  0  0  0  0  0  0  0  0
    4.6176   -1.8813    4.9420 C   0  0  1  0  0  0  0  0  0  0  0  0
    5.4448   -3.0412    4.8077 O   0  0  0  0  0  0  0  0  0  0  0  0
    4.0400   -3.2706    4.9996 C   0  0  2  0  0  0  0  0  0  0  0  0
    3.2551   -3.9020    3.8504 C   0  0  0  0  0  0  0  0  0  0  0  0
    3.1336   -3.0417    2.5496 C   0  0  1  0  0  0  0  0  0  0  0  0
    3.1855   -1.5393    2.8946 C   0  0  1  0  0  0  0  0  0  0  0  0
    4.4574   -1.1423    3.6493 C   0  0  0  0  0  0  0  0  0  0  0  0
    5.2382   -0.2692    3.2651 O   0  0  0  0  0  0  0  0  0  0  0  0
    2.7836   -0.6719    1.6728 C   0  0  1  0  0  0  0  0  0  0  0  0
    2.7679    0.7457    1.8788 O   0  0  0  0  0  0  0  0  0  0  0  0
    1.8942    1.3300    2.7787 C   0  0  0  0  0  0  0  0  0  0  0  0
    1.0891    0.6954    3.6563 C   0  0  0  0  0  0  0  0  0  0  0  0
    0.2692    1.4103    4.6120 C   0  0  0  0  0  0  0  0  0  0  0  0
   -0.6523    0.6910    5.2798 C   0  0  0  0  0  0  0  0  0  0  0  0
   -1.6476    1.3377    6.1321 C   0  0  0  0  0  0  0  0  0  0  0  0
   -2.3702    0.6670    6.8667 O   0  0  0  0  0  0  0  0  0  0  0  0
   -1.7591    2.7983    6.0692 C   0  0  0  0  0  0  0  0  0  0  0  0
   -0.8120    3.5180    5.4316 C   0  0  0  0  0  0  0  0  0  0  0  0
    0.4337    2.9226    4.7715 C   0  0  1  0  0  0  0  0  0  0  0  0
    1.6395    3.2217    5.6871 C   0  0  0  0  0  0  0  0  0  0  0  0
    0.6628    3.4833    3.3461 C   0  0  1  0  0  0  0  0  0  0  0  0
    0.7862    4.8897    3.3146 O   0  0  0  0  0  0  0  0  0  0  0  0
    1.8783    2.8441    2.6235 C   0  0  0  0  0  0  0  0  0  0  0  0
    3.7367   -0.9860    0.5078 C   0  0  0  0  0  0  0  0  0  0  0  0
    3.6862   -2.4809    0.0931 C   0  0  1  0  0  0  0  0  0  0  0  0
    4.6512   -2.7461   -1.0936 C   0  0  0  0  0  0  0  0  0  0  0  0
    6.1165   -2.7807   -0.6505 C   0  0  0  0  0  0  0  0  0  0  0  0
    6.9861   -2.4300   -1.4477 O   0  0  0  0  0  0  0  0  0  0  0  0
    6.4249   -3.2469    0.7133 C   0  0  0  0  0  0  0  0  0  0  0  0
    5.4401   -3.5716    1.5746 C   0  0  0  0  0  0  0  0  0  0  0  0
    3.9475   -3.4742    1.2833 C   0  0  1  0  0  0  0  0  0  0  0  0
    3.4743   -4.8800    0.8487 C   0  0  0  0  0  0  0  0  0  0  0  0
    3.5740    0.7199    5.6984 H   0  0  0  0  0  0  0  0  0  0  0  0
    3.6621    0.4057    7.4261 H   0  0  0  0  0  0  0  0  0  0  0  0
    2.6455   -0.6034    6.4073 H   0  0  0  0  0  0  0  0  0  0  0  0
    4.7607   -1.7343    7.0489 H   0  0  0  0  0  0  0  0  0  0  0  0
    6.2283    0.4864    5.5661 H   0  0  0  0  0  0  0  0  0  0  0  0
    6.9607   -0.9855    6.2043 H   0  0  0  0  0  0  0  0  0  0  0  0
    6.2365    0.1781    7.2934 H   0  0  0  0  0  0  0  0  0  0  0  0
    3.8073   -3.6778    5.9817 H   0  0  0  0  0  0  0  0  0  0  0  0
    3.6668   -4.8917    3.6598 H   0  0  0  0  0  0  0  0  0  0  0  0
    2.2438   -4.0635    4.2407 H   0  0  0  0  0  0  0  0  0  0  0  0
    2.0948   -3.1920    2.2511 H   0  0  0  0  0  0  0  0  0  0  0  0
    2.4521   -1.4968    3.6918 H   0  0  0  0  0  0  0  0  0  0  0  0
    1.7747   -0.9325    1.3555 H   0  0  0  0  0  0  0  0  0  0  0  0
    0.9901   -0.3757    3.7115 H   0  0  0  0  0  0  0  0  0  0  0  0
   -0.7232   -0.3798    5.1576 H   0  0  0  0  0  0  0  0  0  0  0  0
   -2.6153    3.2566    6.5512 H   0  0  0  0  0  0  0  0  0  0  0  0
   -0.9030    4.5944    5.3923 H   0  0  0  0  0  0  0  0  0  0  0  0
    1.4895    2.8025    6.6838 H   0  0  0  0  0  0  0  0  0  0  0  0
    1.7887    4.2978    5.8090 H   0  0  0  0  0  0  0  0  0  0  0  0
    2.5716    2.8074    5.3001 H   0  0  0  0  0  0  0  0  0  0  0  0
   -0.2326    3.2477    2.7702 H   0  0  0  0  0  0  0  0  0  0  0  0
    0.6702    5.1171    2.3873 H   0  0  0  0  0  0  0  0  0  0  0  0
    2.8246    3.2590    2.9660 H   0  0  0  0  0  0  0  0  0  0  0  0
    1.8217    3.0462    1.5569 H   0  0  0  0  0  0  0  0  0  0  0  0
    3.4712   -0.3756   -0.3456 H   0  0  0  0  0  0  0  0  0  0  0  0
    4.7541   -0.6861    0.7584 H   0  0  0  0  0  0  0  0  0  0  0  0
    2.6760   -2.6486   -0.2920 H   0  0  0  0  0  0  0  0  0  0  0  0
    4.4179   -3.6908   -1.5878 H   0  0  0  0  0  0  0  0  0  0  0  0
    4.5370   -1.9702   -1.8520 H   0  0  0  0  0  0  0  0  0  0  0  0
    7.4633   -3.3455    1.0029 H   0  0  0  0  0  0  0  0  0  0  0  0
    5.6981   -3.9208    2.5578 H   0  0  0  0  0  0  0  0  0  0  0  0
    2.4017   -4.9083    0.6390 H   0  0  0  0  0  0  0  0  0  0  0  0
    3.6811   -5.6306    1.6107 H   0  0  0  0  0  0  0  0  0  0  0  0
    3.9899   -5.2180   -0.0541 H   0  0  0  0  0  0  0  0  0  0  0  0
  1  2  1  0
  1 36  1  0
  1 37  1  0
  1 38  1  0
  2  3  1  0
  4  2  1  1
  2 39  1  0
  3 40  1  0
  3 41  1  0
  3 42  1  0
  4  6  1  0
  4 10  1  0
  4  5  1  0
  5  6  1  0
  6  7  1  0
  6 43  1  1
  7  8  1  0
  7 44  1  0
  7 45  1  0
  8 34  1  0
  8  9  1  0
  8 46  1  6
  9 10  1  0
  9 12  1  0
  9 47  1  1
 10 11  2  0
 12 13  1  0
 12 27  1  0
 12 48  1  6
 13 14  1  0
 14 26  1  0
 14 15  2  0
 15 16  1  0
 15 49  1  0
 16 22  1  0
 16 17  2  0
 17 18  1  0
 17 50  1  0
 18 19  2  0
 18 20  1  0
 20 21  2  0
 20 51  1  0
 21 22  1  0
 21 52  1  0
 22 23  1  1
 22 24  1  0
 23 53  1  0
 23 54  1  0
 23 55  1  0
 24 25  1  0
 24 26  1  0
 24 56  1  6
 25 57  1  0
 26 58  1  0
 26 59  1  0
 27 28  1  0
 27 60  1  0
 27 61  1  0
 28 34  1  0
 28 29  1  0
 28 62  1  6
 29 30  1  0
 29 63  1  0
 29 64  1  0
 30 31  2  0
 30 32  1  0
 32 33  2  0
 32 65  1  0
 33 34  1  0
 33 66  1  0
 34 35  1  6
 35 67  1  0
 35 68  1  0
 35 69  1  0
M  END
>  <i_m_ct_stereo_status>  (114) 
1

>  <s_m_source_file>  (114) 
/var/tmp/pbs.5083856.sched01/tmpy896zkta/45d6utibzo.sdf

>  <i_m_source_file_index>  (114) 
3

>  <i_lp_mmshare_version>  (114) 
48012

>  <i_f3d_flags>  (114) 
0

>  <s_epik_input>  (114) 
W0NIM11bQ0hdKFtDSDNdKVtDQF0xMltDQEhdKE8xKVtDSDJdW0NASF0zW0NAQEhdKEMyPU8pW0NASF0oW0NIMl1bQ0BASF00W0NAQF0zKFtDSDNdKVtDSF09W0NIXUMoPU8pW0NIMl00KU9DKFtDSDJdW0NAQEhdNVtPSF0pPVtDSF1DKFtDQEBdNTZbQ0gzXSk9W0NIXUMoPU8pW0NIXT1bQ0hdNg==

>  <s_epik_cmdline>  (114) 
J2VwaWtfcHl0aG9uJywgJy1waHQnLCAnMi4wJywgJy1waCcsICc3LjAnLCAnLXRuJywgJzgnLCAnLW1hJywgJzIwMCcsICctaW1hZScsICc8aW5maWxlLm1hZT4nLCAnLW9tYWUnLCAnPG91dGZpbGUubWFlPic=

>  <r_lp_tautomer_probability>  (114) 
1

>  <r_epik_Ionization_Penalty>  (114) 
5.57647e-05

>  <r_epik_Ionization_Penalty_Charging>  (114) 
0

>  <r_epik_Ionization_Penalty_Neutral>  (114) 
5.57647e-05

>  <r_epik_State_Penalty>  (114) 
-0

>  <r_epik_Charging_Adjusted_Penalty>  (114) 
0

>  <i_epik_Tot_Q>  (114) 
0

>  <i_epik_Tot_abs_Q>  (114) 
0

>  <s_lp_Force_Field>  (114) 
OPLS3e

>  <r_lp_Energy>  (114) 
31.4667

>  <b_lp_Chiralities_Consistent>  (114) 
1

>  <s_lp_Variant>  (114) 
35:0-1

>  <s_i_glide_gridfile>  (114) 
pfpi4k_grid

>  <i_i_glide_lignum>  (114) 
3

>  <i_i_glide_rotatable_bonds>  (114) 
4

>  <r_i_docking_score>  (114) 
-3.69818

>  <r_i_glide_ligand_efficiency>  (114) 
-0.105662

>  <r_i_glide_ligand_efficiency_sa>  (114) 
-0.345629

>  <r_i_glide_ligand_efficiency_ln>  (114) 
-0.811834

>  <r_i_glide_gscore>  (114) 
-3.69818

>  <r_i_glide_lipo>  (114) 
-0.278023

>  <r_i_glide_hbond>  (114) 
-0.453353

>  <r_i_glide_metal>  (114) 
-0

>  <r_i_glide_rewards>  (114) 
-0.194128

>  <r_i_glide_evdw>  (114) 
-25.6622

>  <r_i_glide_ecoul>  (114) 
-10.8477

>  <r_i_glide_erotb>  (114) 
0.176963

>  <r_i_glide_esite>  (114) 
-0.0393848

>  <r_i_glide_emodel>  (114) 
-44.0605

>  <r_i_glide_energy>  (114) 
-36.5098

>  <r_i_glide_einternal>  (114) 
1.88253

>  <r_i_glide_intrahb_reward>  (114) 
-0

>  <i_i_glide_confnum>  (114) 
3

>  <i_i_glide_posenum>  (114) 
10

>  <r_i_glide_eff_state_penalty>  (114) 
0

>  <ligand_id>  (114) 
35

>  <original_smiles>  (114) 
CC(C)C12OC1CC1C(C2=O)C(OC2=CC3=CC(=O)C=CC3(C)C(O)C2)CC2CC(=O)C=CC21C

>  <smiles>  (114) 
[H]OC1([H])C([H])([H])C(OC2([H])C([H])([H])C3([H])C([H])([H])C(=O)C([H])=C([H])C3(C([H])([H])[H])C3([H])C([H])([H])C4([H])OC4(C([H])(C([H])([H])[H])C([H])([H])[H])C(=O)C23[H])=C([H])C2=C([H])C(=O)C([H])=C([H])C21C([H])([H])[H]

$$$$
35:0:1
     RDKit          3D

 69 74  0  0  1  0  0  0  0  0999 V2000
    5.5404   -2.0864    7.1649 C   0  0  0  0  0  0  0  0  0  0  0  0
    5.1073   -1.2569    5.9339 C   0  0  0  0  0  0  0  0  0  0  0  0
    3.8670   -0.4100    6.2902 C   0  0  0  0  0  0  0  0  0  0  0  0
    4.8725   -2.1243    4.6894 C   0  0  1  0  0  0  0  0  0  0  0  0
    5.7198   -3.2575    4.4888 O   0  0  0  0  0  0  0  0  0  0  0  0
    4.3293   -3.5243    4.7499 C   0  0  2  0  0  0  0  0  0  0  0  0
    3.5123   -4.1540    3.6364 C   0  0  0  0  0  0  0  0  0  0  0  0
    3.3026   -3.2769    2.3616 C   0  0  1  0  0  0  0  0  0  0  0  0
    3.3390   -1.7701    2.7154 C   0  0  1  0  0  0  0  0  0  0  0  0
    4.6378   -1.3634    3.4154 C   0  0  0  0  0  0  0  0  0  0  0  0
    5.3867   -0.4799    3.0082 O   0  0  0  0  0  0  0  0  0  0  0  0
    2.8755   -0.9238    1.5052 C   0  0  1  0  0  0  0  0  0  0  0  0
    2.8511    0.4901    1.7150 O   0  0  0  0  0  0  0  0  0  0  0  0
    1.9613    1.0520    2.6030 C   0  0  0  0  0  0  0  0  0  0  0  0
    1.1050    0.3944    3.4163 C   0  0  0  0  0  0  0  0  0  0  0  0
    0.2637    1.0874    4.3702 C   0  0  0  0  0  0  0  0  0  0  0  0
   -0.7194    0.3891    4.9590 C   0  0  0  0  0  0  0  0  0  0  0  0
   -1.7158    1.0333    5.8077 C   0  0  0  0  0  0  0  0  0  0  0  0
   -2.4781    0.3580    6.4772 O   0  0  0  0  0  0  0  0  0  0  0  0
   -1.7717    2.5005    5.8159 C   0  0  0  0  0  0  0  0  0  0  0  0
   -0.7701    3.2070    5.2595 C   0  0  0  0  0  0  0  0  0  0  0  0
    0.4771    2.5923    4.6208 C   0  0  1  0  0  0  0  0  0  0  0  0
    1.6522    2.7996    5.6019 C   0  0  0  0  0  0  0  0  0  0  0  0
    0.7838    3.2268    3.2432 C   0  0  1  0  0  0  0  0  0  0  0  0
    0.9700    4.6316    3.2831 O   0  0  0  0  0  0  0  0  0  0  0  0
    1.9939    2.5721    2.5344 C   0  0  0  0  0  0  0  0  0  0  0  0
    3.7671   -1.2288    0.2867 C   0  0  0  0  0  0  0  0  0  0  0  0
    3.7329   -2.7205   -0.1233 C   0  0  1  0  0  0  0  0  0  0  0  0
    4.6416   -2.9633   -1.3553 C   0  0  0  0  0  0  0  0  0  0  0  0
    6.1283   -2.9705   -0.9872 C   0  0  0  0  0  0  0  0  0  0  0  0
    6.9473   -2.5976   -1.8240 O   0  0  0  0  0  0  0  0  0  0  0  0
    6.5150   -3.4249    0.3601 C   0  0  0  0  0  0  0  0  0  0  0  0
    5.5814   -3.7724    1.2667 C   0  0  0  0  0  0  0  0  0  0  0  0
    4.0710   -3.7003    1.0565 C   0  0  1  0  0  0  0  0  0  0  0  0
    3.6085   -5.1178    0.6358 C   0  0  0  0  0  0  0  0  0  0  0  0
    4.7606   -2.7783    7.4911 H   0  0  0  0  0  0  0  0  0  0  0  0
    5.7709   -1.4584    8.0282 H   0  0  0  0  0  0  0  0  0  0  0  0
    6.4347   -2.6774    6.9489 H   0  0  0  0  0  0  0  0  0  0  0  0
    5.9288   -0.5665    5.7110 H   0  0  0  0  0  0  0  0  0  0  0  0
    3.0205   -1.0479    6.5375 H   0  0  0  0  0  0  0  0  0  0  0  0
    3.5644    0.2309    5.4647 H   0  0  0  0  0  0  0  0  0  0  0  0
    4.0535    0.2379    7.1459 H   0  0  0  0  0  0  0  0  0  0  0  0
    4.1588   -3.9713    5.7219 H   0  0  0  0  0  0  0  0  0  0  0  0
    3.9437   -5.1325    3.4191 H   0  0  0  0  0  0  0  0  0  0  0  0
    2.5270   -4.3435    4.0788 H   0  0  0  0  0  0  0  0  0  0  0  0
    2.2618   -3.4611    2.1064 H   0  0  0  0  0  0  0  0  0  0  0  0
    2.6258   -1.6988    3.5318 H   0  0  0  0  0  0  0  0  0  0  0  0
    1.8522   -1.2119    1.2592 H   0  0  0  0  0  0  0  0  0  0  0  0
    1.0067   -0.6745    3.3980 H   0  0  0  0  0  0  0  0  0  0  0  0
   -0.8289   -0.6714    4.7752 H   0  0  0  0  0  0  0  0  0  0  0  0
   -2.6272    2.9691    6.2849 H   0  0  0  0  0  0  0  0  0  0  0  0
   -0.8129    4.2913    5.2748 H   0  0  0  0  0  0  0  0  0  0  0  0
    1.4433    2.3337    6.5674 H   0  0  0  0  0  0  0  0  0  0  0  0
    1.8348    3.8630    5.7853 H   0  0  0  0  0  0  0  0  0  0  0  0
    2.5827    2.3710    5.2293 H   0  0  0  0  0  0  0  0  0  0  0  0
   -0.0933    3.0519    2.6172 H   0  0  0  0  0  0  0  0  0  0  0  0
    0.8471    4.9200    2.3728 H   0  0  0  0  0  0  0  0  0  0  0  0
    2.9421    2.9367    2.9314 H   0  0  0  0  0  0  0  0  0  0  0  0
    1.9538    2.8491    1.4829 H   0  0  0  0  0  0  0  0  0  0  0  0
    3.4305   -0.6578   -0.5726 H   0  0  0  0  0  0  0  0  0  0  0  0
    4.7882   -0.8967    0.4830 H   0  0  0  0  0  0  0  0  0  0  0  0
    2.7089   -2.9077   -0.4558 H   0  0  0  0  0  0  0  0  0  0  0  0
    4.4014   -3.9110   -1.8435 H   0  0  0  0  0  0  0  0  0  0  0  0
    4.4724   -2.1885   -2.1063 H   0  0  0  0  0  0  0  0  0  0  0  0
    7.5667   -3.5024    0.5894 H   0  0  0  0  0  0  0  0  0  0  0  0
    5.8977   -4.1173    2.2347 H   0  0  0  0  0  0  0  0  0  0  0  0
    2.5281   -5.1684    0.4780 H   0  0  0  0  0  0  0  0  0  0  0  0
    3.8684   -5.8667    1.3822 H   0  0  0  0  0  0  0  0  0  0  0  0
    4.0845   -5.4423   -0.2916 H   0  0  0  0  0  0  0  0  0  0  0  0
  1  2  1  0
  1 36  1  0
  1 37  1  0
  1 38  1  0
  2  3  1  0
  4  2  1  1
  2 39  1  0
  3 40  1  0
  3 41  1  0
  3 42  1  0
  4  6  1  0
  4 10  1  0
  4  5  1  0
  5  6  1  0
  6  7  1  0
  6 43  1  1
  7  8  1  0
  7 44  1  0
  7 45  1  0
  8 34  1  0
  8  9  1  0
  8 46  1  6
  9 10  1  0
  9 12  1  0
  9 47  1  1
 10 11  2  0
 12 13  1  0
 12 27  1  0
 12 48  1  6
 13 14  1  0
 14 26  1  0
 14 15  2  0
 15 16  1  0
 15 49  1  0
 16 22  1  0
 16 17  2  0
 17 18  1  0
 17 50  1  0
 18 19  2  0
 18 20  1  0
 20 21  2  0
 20 51  1  0
 21 22  1  0
 21 52  1  0
 22 23  1  1
 22 24  1  0
 23 53  1  0
 23 54  1  0
 23 55  1  0
 24 25  1  0
 24 26  1  0
 24 56  1  6
 25 57  1  0
 26 58  1  0
 26 59  1  0
 27 28  1  0
 27 60  1  0
 27 61  1  0
 28 34  1  0
 28 29  1  0
 28 62  1  6
 29 30  1  0
 29 63  1  0
 29 64  1  0
 30 31  2  0
 30 32  1  0
 32 33  2  0
 32 65  1  0
 33 34  1  0
 33 66  1  0
 34 35  1  6
 35 67  1  0
 35 68  1  0
 35 69  1  0
M  END
>  <i_m_ct_stereo_status>  (115) 
1

>  <s_m_source_file>  (115) 
/var/tmp/pbs.5083856.sched01/tmpy896zkta/45d6utibzo.sdf

>  <i_m_source_file_index>  (115) 
3

>  <i_lp_mmshare_version>  (115) 
48012

>  <i_f3d_flags>  (115) 
0

>  <s_epik_input>  (115) 
W0NIM11bQ0hdKFtDSDNdKVtDQF0xMltDQEhdKE8xKVtDSDJdW0NASF0zW0NAQEhdKEMyPU8pW0NASF0oW0NIMl1bQ0BASF00W0NAQF0zKFtDSDNdKVtDSF09W0NIXUMoPU8pW0NIMl00KU9DKFtDSDJdW0NAQEhdNVtPSF0pPVtDSF1DKFtDQEBdNTZbQ0gzXSk9W0NIXUMoPU8pW0NIXT1bQ0hdNg==

>  <s_epik_cmdline>  (115) 
J2VwaWtfcHl0aG9uJywgJy1waHQnLCAnMi4wJywgJy1waCcsICc3LjAnLCAnLXRuJywgJzgnLCAnLW1hJywgJzIwMCcsICctaW1hZScsICc8aW5maWxlLm1hZT4nLCAnLW9tYWUnLCAnPG91dGZpbGUubWFlPic=

>  <r_lp_tautomer_probability>  (115) 
1

>  <r_epik_Ionization_Penalty>  (115) 
5.57647e-05

>  <r_epik_Ionization_Penalty_Charging>  (115) 
0

>  <r_epik_Ionization_Penalty_Neutral>  (115) 
5.57647e-05

>  <r_epik_State_Penalty>  (115) 
-0

>  <r_epik_Charging_Adjusted_Penalty>  (115) 
0

>  <i_epik_Tot_Q>  (115) 
0

>  <i_epik_Tot_abs_Q>  (115) 
0

>  <s_lp_Force_Field>  (115) 
OPLS3e

>  <r_lp_Energy>  (115) 
31.4667

>  <b_lp_Chiralities_Consistent>  (115) 
1

>  <s_lp_Variant>  (115) 
35:0-1

>  <s_i_glide_gridfile>  (115) 
pfpi4k_grid

>  <i_i_glide_lignum>  (115) 
3

>  <i_i_glide_rotatable_bonds>  (115) 
4

>  <r_i_docking_score>  (115) 
-3.54271

>  <r_i_glide_ligand_efficiency>  (115) 
-0.10122

>  <r_i_glide_ligand_efficiency_sa>  (115) 
-0.331099

>  <r_i_glide_ligand_efficiency_ln>  (115) 
-0.777704

>  <r_i_glide_gscore>  (115) 
-3.54271

>  <r_i_glide_lipo>  (115) 
-0.267177

>  <r_i_glide_hbond>  (115) 
-0.410307

>  <r_i_glide_metal>  (115) 
-0

>  <r_i_glide_rewards>  (115) 
-0.257166

>  <r_i_glide_evdw>  (115) 
-24.5914

>  <r_i_glide_ecoul>  (115) 
-10.0757

>  <r_i_glide_erotb>  (115) 
0.176963

>  <r_i_glide_esite>  (115) 
-0.0441025

>  <r_i_glide_emodel>  (115) 
-40.6828

>  <r_i_glide_energy>  (115) 
-34.6671

>  <r_i_glide_einternal>  (115) 
4.5447

>  <r_i_glide_intrahb_reward>  (115) 
-0

>  <i_i_glide_confnum>  (115) 
1

>  <i_i_glide_posenum>  (115) 
32

>  <r_i_glide_eff_state_penalty>  (115) 
0

>  <ligand_id>  (115) 
35

>  <original_smiles>  (115) 
CC(C)C12OC1CC1C(C2=O)C(OC2=CC3=CC(=O)C=CC3(C)C(O)C2)CC2CC(=O)C=CC21C

>  <smiles>  (115) 
[H]OC1([H])C([H])([H])C(OC2([H])C([H])([H])C3([H])C([H])([H])C(=O)C([H])=C([H])C3(C([H])([H])[H])C3([H])C([H])([H])C4([H])OC4(C([H])(C([H])([H])[H])C([H])([H])[H])C(=O)C23[H])=C([H])C2=C([H])C(=O)C([H])=C([H])C21C([H])([H])[H]

$$$$
35:0:2
     RDKit          3D

 69 74  0  0  1  0  0  0  0  0999 V2000
    3.1252    5.1257    4.3933 C   0  0  0  0  0  0  0  0  0  0  0  0
    1.9343    4.7939    3.4742 C   0  0  0  0  0  0  0  0  0  0  0  0
    1.0671    6.0670    3.3062 C   0  0  0  0  0  0  0  0  0  0  0  0
    1.1141    3.5532    3.8824 C   0  0  1  0  0  0  0  0  0  0  0  0
    0.3111    3.6282    5.0881 O   0  0  0  0  0  0  0  0  0  0  0  0
   -0.3994    3.4740    3.8297 C   0  0  2  0  0  0  0  0  0  0  0  0
   -1.1588    2.2040    3.5730 C   0  0  0  0  0  0  0  0  0  0  0  0
   -0.3078    0.8936    3.4872 C   0  0  1  0  0  0  0  0  0  0  0  0
    1.1243    1.1582    2.9237 C   0  0  1  0  0  0  0  0  0  0  0  0
    1.8292    2.2351    3.7774 C   0  0  0  0  0  0  0  0  0  0  0  0
    2.8933    1.9946    4.3641 O   0  0  0  0  0  0  0  0  0  0  0  0
    1.8715   -0.1928    2.7152 C   0  0  1  0  0  0  0  0  0  0  0  0
    3.1706    0.0673    2.1834 O   0  0  0  0  0  0  0  0  0  0  0  0
    3.9228   -0.9820    1.6689 C   0  0  0  0  0  0  0  0  0  0  0  0
    3.5165   -2.2800    1.5684 C   0  0  0  0  0  0  0  0  0  0  0  0
    4.4226   -3.3083    1.0742 C   0  0  0  0  0  0  0  0  0  0  0  0
    4.1099   -4.5975    1.3509 C   0  0  0  0  0  0  0  0  0  0  0  0
    5.0172   -5.6930    0.9706 C   0  0  0  0  0  0  0  0  0  0  0  0
    4.6496   -6.8616    1.0404 O   0  0  0  0  0  0  0  0  0  0  0  0
    6.3615   -5.3354    0.4922 C   0  0  0  0  0  0  0  0  0  0  0  0
    6.6589   -4.0546    0.2078 C   0  0  0  0  0  0  0  0  0  0  0  0
    5.6788   -2.8884    0.3176 C   0  0  1  0  0  0  0  0  0  0  0  0
    5.2682   -2.4906   -1.1199 C   0  0  0  0  0  0  0  0  0  0  0  0
    6.3053   -1.6941    1.0933 C   0  0  1  0  0  0  0  0  0  0  0  0
    7.4739   -1.1790    0.4778 O   0  0  0  0  0  0  0  0  0  0  0  0
    5.3143   -0.5319    1.2953 C   0  0  0  0  0  0  0  0  0  0  0  0
    1.8937   -0.9939    4.0364 C   0  0  0  0  0  0  0  0  0  0  0  0
    0.4726   -1.3422    4.4944 C   0  0  1  0  0  0  0  0  0  0  0  0
    0.5564   -2.2338    5.7549 C   0  0  0  0  0  0  0  0  0  0  0  0
    0.9647   -1.4386    6.9907 C   0  0  0  0  0  0  0  0  0  0  0  0
    1.5746   -2.0183    7.8892 O   0  0  0  0  0  0  0  0  0  0  0  0
    0.5830   -0.0082    7.0638 C   0  0  0  0  0  0  0  0  0  0  0  0
   -0.0710    0.5834    6.0456 C   0  0  0  0  0  0  0  0  0  0  0  0
   -0.4262   -0.0851    4.7207 C   0  0  1  0  0  0  0  0  0  0  0  0
   -1.8881   -0.5707    4.8541 C   0  0  0  0  0  0  0  0  0  0  0  0
    2.8007    5.4224    5.3868 H   0  0  0  0  0  0  0  0  0  0  0  0
    3.6979    5.9610    3.9816 H   0  0  0  0  0  0  0  0  0  0  0  0
    3.8306    4.3115    4.4975 H   0  0  0  0  0  0  0  0  0  0  0  0
    2.3374    4.5646    2.4871 H   0  0  0  0  0  0  0  0  0  0  0  0
    0.6187    6.3652    4.2537 H   0  0  0  0  0  0  0  0  0  0  0  0
    0.2688    5.9400    2.5703 H   0  0  0  0  0  0  0  0  0  0  0  0
    1.6490    6.9099    2.9417 H   0  0  0  0  0  0  0  0  0  0  0  0
   -0.9846    4.3532    3.5897 H   0  0  0  0  0  0  0  0  0  0  0  0
   -1.9522    2.1474    4.3141 H   0  0  0  0  0  0  0  0  0  0  0  0
   -1.6464    2.3470    2.6123 H   0  0  0  0  0  0  0  0  0  0  0  0
   -0.7991    0.3494    2.6747 H   0  0  0  0  0  0  0  0  0  0  0  0
    1.0075    1.6277    1.9399 H   0  0  0  0  0  0  0  0  0  0  0  0
    1.3047   -0.7106    1.9374 H   0  0  0  0  0  0  0  0  0  0  0  0
    2.5185   -2.5904    1.8128 H   0  0  0  0  0  0  0  0  0  0  0  0
    3.2243   -4.8603    1.8910 H   0  0  0  0  0  0  0  0  0  0  0  0
    7.0678   -6.1429    0.3734 H   0  0  0  0  0  0  0  0  0  0  0  0
    7.6515   -3.8113   -0.1531 H   0  0  0  0  0  0  0  0  0  0  0  0
    4.8092   -3.3359   -1.6384 H   0  0  0  0  0  0  0  0  0  0  0  0
    6.1273   -2.1771   -1.7127 H   0  0  0  0  0  0  0  0  0  0  0  0
    4.5361   -1.6804   -1.1300 H   0  0  0  0  0  0  0  0  0  0  0  0
    6.6033   -2.0540    2.0738 H   0  0  0  0  0  0  0  0  0  0  0  0
    7.7852   -0.4564    1.0113 H   0  0  0  0  0  0  0  0  0  0  0  0
    5.2194    0.0613    0.3795 H   0  0  0  0  0  0  0  0  0  0  0  0
    5.6948    0.1377    2.0713 H   0  0  0  0  0  0  0  0  0  0  0  0
    2.4252   -1.9335    3.9615 H   0  0  0  0  0  0  0  0  0  0  0  0
    2.4489   -0.4446    4.7893 H   0  0  0  0  0  0  0  0  0  0  0  0
    0.0212   -1.9550    3.7110 H   0  0  0  0  0  0  0  0  0  0  0  0
   -0.3807   -2.7498    5.9593 H   0  0  0  0  0  0  0  0  0  0  0  0
    1.2997   -3.0211    5.5883 H   0  0  0  0  0  0  0  0  0  0  0  0
    0.8141    0.5188    7.9753 H   0  0  0  0  0  0  0  0  0  0  0  0
   -0.3637    1.6081    6.1469 H   0  0  0  0  0  0  0  0  0  0  0  0
   -2.2415   -1.0482    3.9421 H   0  0  0  0  0  0  0  0  0  0  0  0
   -2.5775    0.2425    5.0777 H   0  0  0  0  0  0  0  0  0  0  0  0
   -2.0102   -1.2972    5.6563 H   0  0  0  0  0  0  0  0  0  0  0  0
  1  2  1  0
  1 36  1  0
  1 37  1  0
  1 38  1  0
  2  3  1  0
  4  2  1  6
  2 39  1  0
  3 40  1  0
  3 41  1  0
  3 42  1  0
  4  6  1  0
  4 10  1  0
  4  5  1  0
  5  6  1  0
  6  7  1  0
  6 43  1  6
  7  8  1  0
  7 44  1  0
  7 45  1  0
  8 34  1  0
  8  9  1  0
  8 46  1  6
  9 10  1  0
  9 12  1  0
  9 47  1  6
 10 11  2  0
 12 13  1  0
 12 27  1  0
 12 48  1  6
 13 14  1  0
 14 26  1  0
 14 15  2  0
 15 16  1  0
 15 49  1  0
 16 22  1  0
 16 17  2  0
 17 18  1  0
 17 50  1  0
 18 19  2  0
 18 20  1  0
 20 21  2  0
 20 51  1  0
 21 22  1  0
 21 52  1  0
 22 23  1  6
 22 24  1  0
 23 53  1  0
 23 54  1  0
 23 55  1  0
 24 25  1  0
 24 26  1  0
 24 56  1  1
 25 57  1  0
 26 58  1  0
 26 59  1  0
 27 28  1  0
 27 60  1  0
 27 61  1  0
 28 34  1  0
 28 29  1  0
 28 62  1  6
 29 30  1  0
 29 63  1  0
 29 64  1  0
 30 31  2  0
 30 32  1  0
 32 33  2  0
 32 65  1  0
 33 34  1  0
 33 66  1  0
 34 35  1  1
 35 67  1  0
 35 68  1  0
 35 69  1  0
M  END
>  <i_m_ct_stereo_status>  (116) 
1

>  <s_m_source_file>  (116) 
/var/tmp/pbs.5083856.sched01/tmpy896zkta/45d6utibzo.sdf

>  <i_m_source_file_index>  (116) 
3

>  <i_lp_mmshare_version>  (116) 
48012

>  <i_f3d_flags>  (116) 
0

>  <s_epik_input>  (116) 
W0NIM11bQ0hdKFtDSDNdKVtDQF0xMltDQEhdKE8xKVtDSDJdW0NASF0zW0NAQEhdKEMyPU8pW0NASF0oW0NIMl1bQ0BASF00W0NAQF0zKFtDSDNdKVtDSF09W0NIXUMoPU8pW0NIMl00KU9DKFtDSDJdW0NAQEhdNVtPSF0pPVtDSF1DKFtDQEBdNTZbQ0gzXSk9W0NIXUMoPU8pW0NIXT1bQ0hdNg==

>  <s_epik_cmdline>  (116) 
J2VwaWtfcHl0aG9uJywgJy1waHQnLCAnMi4wJywgJy1waCcsICc3LjAnLCAnLXRuJywgJzgnLCAnLW1hJywgJzIwMCcsICctaW1hZScsICc8aW5maWxlLm1hZT4nLCAnLW9tYWUnLCAnPG91dGZpbGUubWFlPic=

>  <r_lp_tautomer_probability>  (116) 
1

>  <r_epik_Ionization_Penalty>  (116) 
5.57647e-05

>  <r_epik_Ionization_Penalty_Charging>  (116) 
0

>  <r_epik_Ionization_Penalty_Neutral>  (116) 
5.57647e-05

>  <r_epik_State_Penalty>  (116) 
-0

>  <r_epik_Charging_Adjusted_Penalty>  (116) 
0

>  <i_epik_Tot_Q>  (116) 
0

>  <i_epik_Tot_abs_Q>  (116) 
0

>  <s_lp_Force_Field>  (116) 
OPLS3e

>  <r_lp_Energy>  (116) 
31.4667

>  <b_lp_Chiralities_Consistent>  (116) 
1

>  <s_lp_Variant>  (116) 
35:0-1

>  <s_i_glide_gridfile>  (116) 
pfpi4k_grid

>  <i_i_glide_lignum>  (116) 
3

>  <i_i_glide_rotatable_bonds>  (116) 
4

>  <r_i_docking_score>  (116) 
-3.34775

>  <r_i_glide_ligand_efficiency>  (116) 
-0.0956499

>  <r_i_glide_ligand_efficiency_sa>  (116) 
-0.312877

>  <r_i_glide_ligand_efficiency_ln>  (116) 
-0.734905

>  <r_i_glide_gscore>  (116) 
-3.34775

>  <r_i_glide_lipo>  (116) 
-0.5804

>  <r_i_glide_hbond>  (116) 
-0.352003

>  <r_i_glide_metal>  (116) 
-0

>  <r_i_glide_rewards>  (116) 
-0.257562

>  <r_i_glide_evdw>  (116) 
-30.1939

>  <r_i_glide_ecoul>  (116) 
-5.31215

>  <r_i_glide_erotb>  (116) 
0.176963

>  <r_i_glide_esite>  (116) 
-0.028228

>  <r_i_glide_emodel>  (116) 
-39.9927

>  <r_i_glide_energy>  (116) 
-35.5061

>  <r_i_glide_einternal>  (116) 
6.79891

>  <r_i_glide_intrahb_reward>  (116) 
-0

>  <i_i_glide_confnum>  (116) 
4

>  <i_i_glide_posenum>  (116) 
21

>  <r_i_glide_eff_state_penalty>  (116) 
0

>  <ligand_id>  (116) 
35

>  <original_smiles>  (116) 
CC(C)C12OC1CC1C(C2=O)C(OC2=CC3=CC(=O)C=CC3(C)C(O)C2)CC2CC(=O)C=CC21C

>  <smiles>  (116) 
[H]OC1([H])C([H])([H])C(OC2([H])C([H])([H])C3([H])C([H])([H])C(=O)C([H])=C([H])C3(C([H])([H])[H])C3([H])C([H])([H])C4([H])OC4(C([H])(C([H])([H])[H])C([H])([H])[H])C(=O)C23[H])=C([H])C2=C([H])C(=O)C([H])=C([H])C21C([H])([H])[H]

$$$$
36:0:0
     RDKit          3D

 40 42  0  0  1  0  0  0  0  0999 V2000
   -1.0776    1.4048    2.5044 C   0  0  0  0  0  0  0  0  0  0  0  0
    0.0595    0.7561    3.0338 O   0  0  0  0  0  0  0  0  0  0  0  0
    1.0417    0.5152    2.0443 C   0  0  0  0  0  0  0  0  0  0  0  0
    2.2676   -0.1274    2.7108 C   0  0  2  0  0  0  0  0  0  0  0  0
    3.4717   -0.1298    1.7365 C   0  0  0  0  0  0  0  0  0  0  0  0
    3.3333   -1.1697    0.6577 N   0  0  1  0  0  0  0  0  0  0  0  0
    4.3715   -1.0115   -0.3919 C   0  0  0  0  0  0  0  0  0  0  0  0
    3.9017   -1.4758   -1.7341 C   0  0  0  0  0  0  0  0  0  0  0  0
    3.5179   -2.7352   -2.1386 C   0  0  0  0  0  0  0  0  0  0  0  0
    3.0161   -2.7581   -3.8034 S   0  0  0  0  0  0  0  0  0  0  0  0
    3.3805   -1.0420   -3.9007 C   0  0  0  0  0  0  0  0  0  0  0  0
    3.1834   -0.2293   -5.1269 C   0  0  0  0  0  0  0  0  0  0  0  0
    3.8595   -0.5431   -2.7672 N   0  0  0  0  0  0  0  0  0  0  0  0
    3.2685   -2.5641    1.2051 C   0  0  0  0  0  0  0  0  0  0  0  0
    2.3901   -2.6180    2.4123 C   0  0  0  0  0  0  0  0  0  0  0  0
    1.8603   -3.7589    3.0032 N   0  0  0  0  0  0  0  0  0  0  0  0
    1.1360   -3.3954    4.0178 N   0  0  0  0  0  0  0  0  0  0  0  0
    1.1854   -2.0390    4.0941 N   0  0  0  0  0  0  0  0  0  0  0  0
    0.4537   -1.3262    5.1180 C   0  0  0  0  0  0  0  0  0  0  0  0
    1.9802   -1.5255    3.0968 C   0  0  0  0  0  0  0  0  0  0  0  0
   -1.7848    1.5717    3.3154 H   0  0  0  0  0  0  0  0  0  0  0  0
   -1.5628    0.7978    1.7378 H   0  0  0  0  0  0  0  0  0  0  0  0
   -0.8049    2.3706    2.0779 H   0  0  0  0  0  0  0  0  0  0  0  0
    0.6372   -0.1567    1.2913 H   0  0  0  0  0  0  0  0  0  0  0  0
    1.3115    1.4476    1.5405 H   0  0  0  0  0  0  0  0  0  0  0  0
    2.5421    0.4534    3.5964 H   0  0  0  0  0  0  0  0  0  0  0  0
    3.5838    0.8750    1.3195 H   0  0  0  0  0  0  0  0  0  0  0  0
    4.3889   -0.3387    2.2948 H   0  0  0  0  0  0  0  0  0  0  0  0
    4.6288    0.0493   -0.4638 H   0  0  0  0  0  0  0  0  0  0  0  0
    5.3034   -1.5049   -0.1036 H   0  0  0  0  0  0  0  0  0  0  0  0
    3.4911   -3.6546   -1.5790 H   0  0  0  0  0  0  0  0  0  0  0  0
    3.4733    0.8020   -4.9368 H   0  0  0  0  0  0  0  0  0  0  0  0
    2.1381   -0.2394   -5.4305 H   0  0  0  0  0  0  0  0  0  0  0  0
    3.7931   -0.6297   -5.9341 H   0  0  0  0  0  0  0  0  0  0  0  0
    2.8899   -3.2673    0.4690 H   0  0  0  0  0  0  0  0  0  0  0  0
    4.2680   -2.8923    1.4908 H   0  0  0  0  0  0  0  0  0  0  0  0
    0.9352   -0.3642    5.3027 H   0  0  0  0  0  0  0  0  0  0  0  0
    0.4369   -1.8955    6.0509 H   0  0  0  0  0  0  0  0  0  0  0  0
   -0.5675   -1.1422    4.7751 H   0  0  0  0  0  0  0  0  0  0  0  0
    2.4358   -0.9946    0.2071 H   0  0  0  0  0  0  0  0  0  0  0  0
  1  2  1  0
  1 21  1  0
  1 22  1  0
  1 23  1  0
  2  3  1  0
  3  4  1  0
  3 24  1  0
  3 25  1  0
  4 20  1  0
  4  5  1  0
  4 26  1  1
  5  6  1  0
  5 27  1  0
  5 28  1  0
  6  7  1  0
  6 14  1  0
  6 40  1  6
  7  8  1  0
  7 29  1  0
  7 30  1  0
  8 13  1  0
  8  9  2  0
  9 10  1  0
  9 31  1  0
 10 11  1  0
 11 12  1  0
 11 13  2  0
 12 32  1  0
 12 33  1  0
 12 34  1  0
 14 15  1  0
 14 35  1  0
 14 36  1  0
 15 20  2  0
 15 16  1  0
 16 17  2  0
 17 18  1  0
 18 19  1  0
 18 20  1  0
 19 37  1  0
 19 38  1  0
 19 39  1  0
M  CHG  1   6   1
M  END
>  <i_m_ct_stereo_status>  (117) 
1

>  <s_m_source_file>  (117) 
/var/tmp/pbs.5083856.sched01/tmpy896zkta/45d6utibzo.sdf

>  <i_m_source_file_index>  (117) 
4

>  <i_lp_mmshare_version>  (117) 
48012

>  <i_f3d_flags>  (117) 
0

>  <s_epik_input>  (117) 
bjFubihbQ0gzXSljKGMxMilbQ0BIXShbQ0gyXU9bQ0gzXSlbQ0gyXU4oW0NIMl0yKVtDSDJdYzNbY0hdc2MobjMpW0NIM10=

>  <s_epik_cmdline>  (117) 
J2VwaWtfcHl0aG9uJywgJy1waHQnLCAnMi4wJywgJy1waCcsICc3LjAnLCAnLXRuJywgJzgnLCAnLW1hJywgJzIwMCcsICctaW1hZScsICc8aW5maWxlLm1hZT4nLCAnLW9tYWUnLCAnPG91dGZpbGUubWFlPic=

>  <r_lp_tautomer_probability>  (117) 
1

>  <r_epik_Ionization_Penalty>  (117) 
0.0110421

>  <r_epik_Ionization_Penalty_Charging>  (117) 
0.0110418

>  <r_epik_Ionization_Penalty_Neutral>  (117) 
3.43169e-07

>  <r_epik_State_Penalty>  (117) 
0.00847673

>  <r_epik_Charging_Adjusted_Penalty>  (117) 
0.0195185

>  <i_epik_Tot_Q>  (117) 
1

>  <i_epik_Tot_abs_Q>  (117) 
1

>  <s_lp_Force_Field>  (117) 
OPLS3e

>  <r_lp_Energy>  (117) 
15.8699

>  <b_lp_Chiralities_Consistent>  (117) 
1

>  <s_lp_Variant>  (117) 
36:0-1

>  <s_i_glide_gridfile>  (117) 
pfpi4k_grid

>  <i_i_glide_lignum>  (117) 
4

>  <i_i_glide_rotatable_bonds>  (117) 
4

>  <r_i_docking_score>  (117) 
-3.51975

>  <r_i_glide_ligand_efficiency>  (117) 
-0.175988

>  <r_i_glide_ligand_efficiency_sa>  (117) 
-0.477704

>  <r_i_glide_ligand_efficiency_ln>  (117) 
-0.880878

>  <r_i_glide_gscore>  (117) 
-3.51975

>  <r_i_glide_lipo>  (117) 
-0.446383

>  <r_i_glide_hbond>  (117) 
-0.2

>  <r_i_glide_metal>  (117) 
-0

>  <r_i_glide_rewards>  (117) 
-1.41694

>  <r_i_glide_evdw>  (117) 
-29.0045

>  <r_i_glide_ecoul>  (117) 
-3.82568

>  <r_i_glide_erotb>  (117) 
0.633025

>  <r_i_glide_esite>  (117) 
-0.0653788

>  <r_i_glide_emodel>  (117) 
-40.0241

>  <r_i_glide_energy>  (117) 
-32.8302

>  <r_i_glide_einternal>  (117) 
2.27226

>  <r_i_glide_intrahb_reward>  (117) 
-0

>  <i_i_glide_confnum>  (117) 
1

>  <i_i_glide_posenum>  (117) 
2

>  <r_i_glide_eff_state_penalty>  (117) 
0

>  <ligand_id>  (117) 
36

>  <original_smiles>  (117) 
COCC1CN(Cc2csc(C)n2)Cc2nnn(C)c21

>  <smiles>  (117) 
[H]c1sc(C([H])([H])[H])nc1C([H])([H])[N+]1([H])C([H])([H])c2nnn(C([H])([H])[H])c2C([H])(C([H])([H])OC([H])([H])[H])C1([H])[H]

$$$$
36:0:1
     RDKit          3D

 40 42  0  0  1  0  0  0  0  0999 V2000
    4.5019   -2.4440    5.4602 C   0  0  0  0  0  0  0  0  0  0  0  0
    4.0669   -1.9696    4.1964 O   0  0  0  0  0  0  0  0  0  0  0  0
    3.1161   -2.8103    3.5666 C   0  0  0  0  0  0  0  0  0  0  0  0
    3.7544   -4.1421    3.1118 C   0  0  2  0  0  0  0  0  0  0  0  0
    4.8929   -3.8849    2.0838 C   0  0  0  0  0  0  0  0  0  0  0  0
    4.3736   -3.5537    0.7093 N   0  0  1  0  0  0  0  0  0  0  0  0
    5.4694   -3.0900   -0.1783 C   0  0  0  0  0  0  0  0  0  0  0  0
    4.9570   -2.6839   -1.5271 C   0  0  0  0  0  0  0  0  0  0  0  0
    4.6999   -3.5048   -2.5950 C   0  0  0  0  0  0  0  0  0  0  0  0
    3.9426   -2.6606   -3.9035 S   0  0  0  0  0  0  0  0  0  0  0  0
    4.1393   -1.1806   -2.9933 C   0  0  0  0  0  0  0  0  0  0  0  0
    3.7433    0.1385   -3.5265 C   0  0  0  0  0  0  0  0  0  0  0  0
    4.6737   -1.3452   -1.7847 N   0  0  0  0  0  0  0  0  0  0  0  0
    3.5289   -4.6498    0.1221 C   0  0  0  0  0  0  0  0  0  0  0  0
    2.6144   -5.2285    1.1549 C   0  0  0  0  0  0  0  0  0  0  0  0
    1.5118   -6.0495    0.9525 N   0  0  0  0  0  0  0  0  0  0  0  0
    0.9912   -6.3453    2.1028 N   0  0  0  0  0  0  0  0  0  0  0  0
    1.7138   -5.7052    3.0550 N   0  0  0  0  0  0  0  0  0  0  0  0
    1.3560   -5.7971    4.4706 C   0  0  0  0  0  0  0  0  0  0  0  0
    2.7452   -5.0046    2.4846 C   0  0  0  0  0  0  0  0  0  0  0  0
    5.1865   -1.7193    5.8995 H   0  0  0  0  0  0  0  0  0  0  0  0
    5.0440   -3.3860    5.3914 H   0  0  0  0  0  0  0  0  0  0  0  0
    3.6489   -2.5788    6.1255 H   0  0  0  0  0  0  0  0  0  0  0  0
    2.2473   -2.9582    4.2098 H   0  0  0  0  0  0  0  0  0  0  0  0
    2.7307   -2.2773    2.6943 H   0  0  0  0  0  0  0  0  0  0  0  0
    4.1659   -4.7049    3.9543 H   0  0  0  0  0  0  0  0  0  0  0  0
    5.5413   -3.0903    2.4495 H   0  0  0  0  0  0  0  0  0  0  0  0
    5.5131   -4.7826    2.0151 H   0  0  0  0  0  0  0  0  0  0  0  0
    5.9586   -2.2377    0.2967 H   0  0  0  0  0  0  0  0  0  0  0  0
    6.2375   -3.8623   -0.2757 H   0  0  0  0  0  0  0  0  0  0  0  0
    4.8514   -4.5665   -2.6445 H   0  0  0  0  0  0  0  0  0  0  0  0
    3.9533    0.8929   -2.7706 H   0  0  0  0  0  0  0  0  0  0  0  0
    2.6806    0.1465   -3.7639 H   0  0  0  0  0  0  0  0  0  0  0  0
    4.3125    0.3838   -4.4183 H   0  0  0  0  0  0  0  0  0  0  0  0
    2.9027   -4.3079   -0.7003 H   0  0  0  0  0  0  0  0  0  0  0  0
    4.1656   -5.4535   -0.2439 H   0  0  0  0  0  0  0  0  0  0  0  0
    2.2367   -5.6341    5.0852 H   0  0  0  0  0  0  0  0  0  0  0  0
    0.9523   -6.7850    4.6843 H   0  0  0  0  0  0  0  0  0  0  0  0
    0.6182   -5.0322    4.7071 H   0  0  0  0  0  0  0  0  0  0  0  0
    3.7444   -2.7724    0.8256 H   0  0  0  0  0  0  0  0  0  0  0  0
  1  2  1  0
  1 21  1  0
  1 22  1  0
  1 23  1  0
  2  3  1  0
  3  4  1  0
  3 24  1  0
  3 25  1  0
  4 20  1  0
  4  5  1  0
  4 26  1  1
  5  6  1  0
  5 27  1  0
  5 28  1  0
  6  7  1  0
  6 14  1  0
  6 40  1  1
  7  8  1  0
  7 29  1  0
  7 30  1  0
  8 13  1  0
  8  9  2  0
  9 10  1  0
  9 31  1  0
 10 11  1  0
 11 12  1  0
 11 13  2  0
 12 32  1  0
 12 33  1  0
 12 34  1  0
 14 15  1  0
 14 35  1  0
 14 36  1  0
 15 20  2  0
 15 16  1  0
 16 17  2  0
 17 18  1  0
 18 19  1  0
 18 20  1  0
 19 37  1  0
 19 38  1  0
 19 39  1  0
M  CHG  1   6   1
M  END
>  <i_m_ct_stereo_status>  (118) 
1

>  <s_m_source_file>  (118) 
/var/tmp/pbs.5083856.sched01/tmpy896zkta/45d6utibzo.sdf

>  <i_m_source_file_index>  (118) 
4

>  <i_lp_mmshare_version>  (118) 
48012

>  <i_f3d_flags>  (118) 
0

>  <s_epik_input>  (118) 
bjFubihbQ0gzXSljKGMxMilbQ0BIXShbQ0gyXU9bQ0gzXSlbQ0gyXU4oW0NIMl0yKVtDSDJdYzNbY0hdc2MobjMpW0NIM10=

>  <s_epik_cmdline>  (118) 
J2VwaWtfcHl0aG9uJywgJy1waHQnLCAnMi4wJywgJy1waCcsICc3LjAnLCAnLXRuJywgJzgnLCAnLW1hJywgJzIwMCcsICctaW1hZScsICc8aW5maWxlLm1hZT4nLCAnLW9tYWUnLCAnPG91dGZpbGUubWFlPic=

>  <r_lp_tautomer_probability>  (118) 
1

>  <r_epik_Ionization_Penalty>  (118) 
0.0110421

>  <r_epik_Ionization_Penalty_Charging>  (118) 
0.0110418

>  <r_epik_Ionization_Penalty_Neutral>  (118) 
3.43169e-07

>  <r_epik_State_Penalty>  (118) 
0.00847673

>  <r_epik_Charging_Adjusted_Penalty>  (118) 
0.0195185

>  <i_epik_Tot_Q>  (118) 
1

>  <i_epik_Tot_abs_Q>  (118) 
1

>  <s_lp_Force_Field>  (118) 
OPLS3e

>  <r_lp_Energy>  (118) 
15.8699

>  <b_lp_Chiralities_Consistent>  (118) 
1

>  <s_lp_Variant>  (118) 
36:0-1

>  <s_i_glide_gridfile>  (118) 
pfpi4k_grid

>  <i_i_glide_lignum>  (118) 
4

>  <i_i_glide_rotatable_bonds>  (118) 
4

>  <r_i_docking_score>  (118) 
-3.07376

>  <r_i_glide_ligand_efficiency>  (118) 
-0.153688

>  <r_i_glide_ligand_efficiency_sa>  (118) 
-0.417174

>  <r_i_glide_ligand_efficiency_ln>  (118) 
-0.769261

>  <r_i_glide_gscore>  (118) 
-3.07376

>  <r_i_glide_lipo>  (118) 
-0.218385

>  <r_i_glide_hbond>  (118) 
0

>  <r_i_glide_metal>  (118) 
-0

>  <r_i_glide_rewards>  (118) 
-1.40184

>  <r_i_glide_evdw>  (118) 
-23.1097

>  <r_i_glide_ecoul>  (118) 
-5.11585

>  <r_i_glide_erotb>  (118) 
0.633025

>  <r_i_glide_esite>  (118) 
-0.1637

>  <r_i_glide_emodel>  (118) 
-33.9903

>  <r_i_glide_energy>  (118) 
-28.2256

>  <r_i_glide_einternal>  (118) 
2.67588

>  <r_i_glide_intrahb_reward>  (118) 
-0

>  <i_i_glide_confnum>  (118) 
3

>  <i_i_glide_posenum>  (118) 
8

>  <r_i_glide_eff_state_penalty>  (118) 
0

>  <ligand_id>  (118) 
36

>  <original_smiles>  (118) 
COCC1CN(Cc2csc(C)n2)Cc2nnn(C)c21

>  <smiles>  (118) 
[H]c1sc(C([H])([H])[H])nc1C([H])([H])[N+]1([H])C([H])([H])c2nnn(C([H])([H])[H])c2C([H])(C([H])([H])OC([H])([H])[H])C1([H])[H]

$$$$
36:0:2
     RDKit          3D

 40 42  0  0  1  0  0  0  0  0999 V2000
    0.1485   -1.2466    4.2635 C   0  0  0  0  0  0  0  0  0  0  0  0
    1.0669   -2.2742    3.9764 O   0  0  0  0  0  0  0  0  0  0  0  0
    2.0554   -1.8889    3.0436 C   0  0  0  0  0  0  0  0  0  0  0  0
    3.1101   -3.0101    2.9611 C   0  0  2  0  0  0  0  0  0  0  0  0
    4.2559   -2.5761    2.0058 C   0  0  0  0  0  0  0  0  0  0  0  0
    3.8475   -2.6533    0.5610 N   0  0  1  0  0  0  0  0  0  0  0  0
    4.8728   -2.0240   -0.3223 C   0  0  0  0  0  0  0  0  0  0  0  0
    4.4115   -1.8523   -1.7440 C   0  0  0  0  0  0  0  0  0  0  0  0
    3.9989   -2.7686   -2.6453 C   0  0  0  0  0  0  0  0  0  0  0  0
    3.4059   -2.0479   -4.1038 S   0  0  0  0  0  0  0  0  0  0  0  0
    3.9155   -0.4969   -3.4888 C   0  0  0  0  0  0  0  0  0  0  0  0
    3.8234    0.7549   -4.2952 C   0  0  0  0  0  0  0  0  0  0  0  0
    4.4344   -0.5550   -2.2803 N   0  0  0  0  0  0  0  0  0  0  0  0
    3.4527   -4.0246    0.1218 C   0  0  0  0  0  0  0  0  0  0  0  0
    2.6574   -4.7252    1.1656 C   0  0  0  0  0  0  0  0  0  0  0  0
    1.8750   -5.8527    0.9920 N   0  0  0  0  0  0  0  0  0  0  0  0
    1.2806   -6.1198    2.1240 N   0  0  0  0  0  0  0  0  0  0  0  0
    1.6504   -5.1701    3.0153 N   0  0  0  0  0  0  0  0  0  0  0  0
    1.1195   -5.1758    4.3499 C   0  0  0  0  0  0  0  0  0  0  0  0
    2.5326   -4.2660    2.4517 C   0  0  0  0  0  0  0  0  0  0  0  0
   -0.5828   -1.6289    4.9745 H   0  0  0  0  0  0  0  0  0  0  0  0
   -0.3708   -0.9149    3.3651 H   0  0  0  0  0  0  0  0  0  0  0  0
    0.6639   -0.3992    4.7137 H   0  0  0  0  0  0  0  0  0  0  0  0
    1.5876   -1.7243    2.0703 H   0  0  0  0  0  0  0  0  0  0  0  0
    2.5210   -0.9488    3.3412 H   0  0  0  0  0  0  0  0  0  0  0  0
    3.5219   -3.1838    3.9610 H   0  0  0  0  0  0  0  0  0  0  0  0
    4.5933   -1.5721    2.2865 H   0  0  0  0  0  0  0  0  0  0  0  0
    5.1126   -3.2364    2.1584 H   0  0  0  0  0  0  0  0  0  0  0  0
    5.1302   -1.0476    0.0980 H   0  0  0  0  0  0  0  0  0  0  0  0
    5.8052   -2.6034   -0.2906 H   0  0  0  0  0  0  0  0  0  0  0  0
    3.9144   -3.8484   -2.5230 H   0  0  0  0  0  0  0  0  0  0  0  0
    4.2161    1.5899   -3.7145 H   0  0  0  0  0  0  0  0  0  0  0  0
    2.7910    0.9473   -4.5870 H   0  0  0  0  0  0  0  0  0  0  0  0
    4.4340    0.6519   -5.1889 H   0  0  0  0  0  0  0  0  0  0  0  0
    2.8482   -3.9990   -0.7855 H   0  0  0  0  0  0  0  0  0  0  0  0
    4.3459   -4.6167   -0.0804 H   0  0  0  0  0  0  0  0  0  0  0  0
    1.8134   -4.6518    5.0078 H   0  0  0  0  0  0  0  0  0  0  0  0
    0.9919   -6.2053    4.7107 H   0  0  0  0  0  0  0  0  0  0  0  0
    0.1581   -4.6522    4.3692 H   0  0  0  0  0  0  0  0  0  0  0  0
    3.0193   -2.0784    0.4783 H   0  0  0  0  0  0  0  0  0  0  0  0
  1  2  1  0
  1 21  1  0
  1 22  1  0
  1 23  1  0
  2  3  1  0
  3  4  1  0
  3 24  1  0
  3 25  1  0
  4 20  1  0
  4  5  1  0
  4 26  1  1
  5  6  1  0
  5 27  1  0
  5 28  1  0
  6  7  1  0
  6 14  1  0
  6 40  1  1
  7  8  1  0
  7 29  1  0
  7 30  1  0
  8 13  1  0
  8  9  2  0
  9 10  1  0
  9 31  1  0
 10 11  1  0
 11 12  1  0
 11 13  2  0
 12 32  1  0
 12 33  1  0
 12 34  1  0
 14 15  1  0
 14 35  1  0
 14 36  1  0
 15 20  2  0
 15 16  1  0
 16 17  2  0
 17 18  1  0
 18 19  1  0
 18 20  1  0
 19 37  1  0
 19 38  1  0
 19 39  1  0
M  CHG  1   6   1
M  END
>  <i_m_ct_stereo_status>  (119) 
1

>  <s_m_source_file>  (119) 
/var/tmp/pbs.5083856.sched01/tmpy896zkta/45d6utibzo.sdf

>  <i_m_source_file_index>  (119) 
4

>  <i_lp_mmshare_version>  (119) 
48012

>  <i_f3d_flags>  (119) 
0

>  <s_epik_input>  (119) 
bjFubihbQ0gzXSljKGMxMilbQ0BIXShbQ0gyXU9bQ0gzXSlbQ0gyXU4oW0NIMl0yKVtDSDJdYzNbY0hdc2MobjMpW0NIM10=

>  <s_epik_cmdline>  (119) 
J2VwaWtfcHl0aG9uJywgJy1waHQnLCAnMi4wJywgJy1waCcsICc3LjAnLCAnLXRuJywgJzgnLCAnLW1hJywgJzIwMCcsICctaW1hZScsICc8aW5maWxlLm1hZT4nLCAnLW9tYWUnLCAnPG91dGZpbGUubWFlPic=

>  <r_lp_tautomer_probability>  (119) 
1

>  <r_epik_Ionization_Penalty>  (119) 
0.0110421

>  <r_epik_Ionization_Penalty_Charging>  (119) 
0.0110418

>  <r_epik_Ionization_Penalty_Neutral>  (119) 
3.43169e-07

>  <r_epik_State_Penalty>  (119) 
0.00847673

>  <r_epik_Charging_Adjusted_Penalty>  (119) 
0.0195185

>  <i_epik_Tot_Q>  (119) 
1

>  <i_epik_Tot_abs_Q>  (119) 
1

>  <s_lp_Force_Field>  (119) 
OPLS3e

>  <r_lp_Energy>  (119) 
15.8699

>  <b_lp_Chiralities_Consistent>  (119) 
1

>  <s_lp_Variant>  (119) 
36:0-1

>  <s_i_glide_gridfile>  (119) 
pfpi4k_grid

>  <i_i_glide_lignum>  (119) 
4

>  <i_i_glide_rotatable_bonds>  (119) 
4

>  <r_i_docking_score>  (119) 
-3.0208

>  <r_i_glide_ligand_efficiency>  (119) 
-0.15104

>  <r_i_glide_ligand_efficiency_sa>  (119) 
-0.409986

>  <r_i_glide_ligand_efficiency_ln>  (119) 
-0.756007

>  <r_i_glide_gscore>  (119) 
-3.0208

>  <r_i_glide_lipo>  (119) 
-0.246898

>  <r_i_glide_hbond>  (119) 
0

>  <r_i_glide_metal>  (119) 
-0

>  <r_i_glide_rewards>  (119) 
-1.40184

>  <r_i_glide_evdw>  (119) 
-23.6838

>  <r_i_glide_ecoul>  (119) 
-4.49423

>  <r_i_glide_erotb>  (119) 
0.633025

>  <r_i_glide_esite>  (119) 
-0.146766

>  <r_i_glide_emodel>  (119) 
-34.0321

>  <r_i_glide_energy>  (119) 
-28.178

>  <r_i_glide_einternal>  (119) 
1.61747

>  <r_i_glide_intrahb_reward>  (119) 
-0

>  <i_i_glide_confnum>  (119) 
1

>  <i_i_glide_posenum>  (119) 
33

>  <r_i_glide_eff_state_penalty>  (119) 
0

>  <ligand_id>  (119) 
36

>  <original_smiles>  (119) 
COCC1CN(Cc2csc(C)n2)Cc2nnn(C)c21

>  <smiles>  (119) 
[H]c1sc(C([H])([H])[H])nc1C([H])([H])[N+]1([H])C([H])([H])c2nnn(C([H])([H])[H])c2C([H])(C([H])([H])OC([H])([H])[H])C1([H])[H]

$$$$
36:1:0
     RDKit          3D

 39 41  0  0  1  0  0  0  0  0999 V2000
    2.0816    0.0630    1.9787 C   0  0  0  0  0  0  0  0  0  0  0  0
    3.1436   -0.8619    1.8354 O   0  0  0  0  0  0  0  0  0  0  0  0
    4.4089   -0.2917    2.1203 C   0  0  0  0  0  0  0  0  0  0  0  0
    5.5065   -1.3482    1.8595 C   0  0  2  0  0  0  0  0  0  0  0  0
    5.6670   -1.5240    0.3192 C   0  0  0  0  0  0  0  0  0  0  0  0
    6.4825   -2.6922   -0.0913 N   0  0  0  0  0  0  0  0  0  0  0  0
    6.6304   -2.7089   -1.5411 C   0  0  0  0  0  0  0  0  0  0  0  0
    5.4178   -2.5431   -2.4141 C   0  0  0  0  0  0  0  0  0  0  0  0
    4.5949   -3.5048   -2.9223 C   0  0  0  0  0  0  0  0  0  0  0  0
    3.1939   -2.8308   -3.7170 S   0  0  0  0  0  0  0  0  0  0  0  0
    3.8610   -1.2346   -3.4073 C   0  0  0  0  0  0  0  0  0  0  0  0
    3.2238    0.0311   -3.8585 C   0  0  0  0  0  0  0  0  0  0  0  0
    4.9877   -1.2547   -2.7126 N   0  0  0  0  0  0  0  0  0  0  0  0
    5.8574   -3.9287    0.3862 C   0  0  0  0  0  0  0  0  0  0  0  0
    5.3913   -3.8728    1.8017 C   0  0  0  0  0  0  0  0  0  0  0  0
    5.0260   -4.9136    2.6394 N   0  0  0  0  0  0  0  0  0  0  0  0
    4.6517   -4.4164    3.7788 N   0  0  0  0  0  0  0  0  0  0  0  0
    4.7808   -3.0622    3.7052 N   0  0  0  0  0  0  0  0  0  0  0  0
    4.4517   -2.2240    4.8562 C   0  0  0  0  0  0  0  0  0  0  0  0
    5.2212   -2.6779    2.4621 C   0  0  0  0  0  0  0  0  0  0  0  0
    1.1248   -0.4122    1.7475 H   0  0  0  0  0  0  0  0  0  0  0  0
    2.2277    0.8974    1.2935 H   0  0  0  0  0  0  0  0  0  0  0  0
    2.0421    0.4419    3.0009 H   0  0  0  0  0  0  0  0  0  0  0  0
    4.5678    0.5449    1.4386 H   0  0  0  0  0  0  0  0  0  0  0  0
    4.4015    0.0886    3.1395 H   0  0  0  0  0  0  0  0  0  0  0  0
    6.4649   -0.9884    2.2372 H   0  0  0  0  0  0  0  0  0  0  0  0
    4.6587   -1.6780   -0.0784 H   0  0  0  0  0  0  0  0  0  0  0  0
    6.0689   -0.6062   -0.1175 H   0  0  0  0  0  0  0  0  0  0  0  0
    7.3318   -1.8973   -1.7536 H   0  0  0  0  0  0  0  0  0  0  0  0
    7.1781   -3.6156   -1.8216 H   0  0  0  0  0  0  0  0  0  0  0  0
    4.7005   -4.5622   -2.7767 H   0  0  0  0  0  0  0  0  0  0  0  0
    3.8293    0.8748   -3.5221 H   0  0  0  0  0  0  0  0  0  0  0  0
    2.2277    0.1442   -3.4350 H   0  0  0  0  0  0  0  0  0  0  0  0
    3.1707    0.0644   -4.9431 H   0  0  0  0  0  0  0  0  0  0  0  0
    4.9843   -4.1755   -0.2174 H   0  0  0  0  0  0  0  0  0  0  0  0
    6.5653   -4.7572    0.2823 H   0  0  0  0  0  0  0  0  0  0  0  0
    5.0562   -1.3204    4.8424 H   0  0  0  0  0  0  0  0  0  0  0  0
    4.6512   -2.7833    5.7741 H   0  0  0  0  0  0  0  0  0  0  0  0
    3.3948   -1.9559    4.8028 H   0  0  0  0  0  0  0  0  0  0  0  0
  1  2  1  0
  1 21  1  0
  1 22  1  0
  1 23  1  0
  2  3  1  0
  3  4  1  0
  3 24  1  0
  3 25  1  0
  4 20  1  0
  4  5  1  0
  4 26  1  1
  5  6  1  0
  5 27  1  0
  5 28  1  0
  6  7  1  0
  6 14  1  0
  7  8  1  0
  7 29  1  0
  7 30  1  0
  8 13  1  0
  8  9  2  0
  9 10  1  0
  9 31  1  0
 10 11  1  0
 11 12  1  0
 11 13  2  0
 12 32  1  0
 12 33  1  0
 12 34  1  0
 14 15  1  0
 14 35  1  0
 14 36  1  0
 15 20  2  0
 15 16  1  0
 16 17  2  0
 17 18  1  0
 18 19  1  0
 18 20  1  0
 19 37  1  0
 19 38  1  0
 19 39  1  0
M  END
>  <i_m_ct_stereo_status>  (120) 
1

>  <s_m_source_file>  (120) 
/var/tmp/pbs.5083856.sched01/tmpy896zkta/45d6utibzo.sdf

>  <i_m_source_file_index>  (120) 
5

>  <i_lp_mmshare_version>  (120) 
48012

>  <i_f3d_flags>  (120) 
0

>  <s_epik_input>  (120) 
bjFubihbQ0gzXSljKGMxMilbQ0BIXShbQ0gyXU9bQ0gzXSlbQ0gyXU4oW0NIMl0yKVtDSDJdYzNbY0hdc2MobjMpW0NIM10=

>  <s_epik_cmdline>  (120) 
J2VwaWtfcHl0aG9uJywgJy1waHQnLCAnMi4wJywgJy1waCcsICc3LjAnLCAnLXRuJywgJzgnLCAnLW1hJywgJzIwMCcsICctaW1hZScsICc8aW5maWxlLm1hZT4nLCAnLW9tYWUnLCAnPG91dGZpbGUubWFlPic=

>  <r_lp_tautomer_probability>  (120) 
1

>  <r_epik_Ionization_Penalty>  (120) 
2.36599

>  <r_epik_Ionization_Penalty_Charging>  (120) 
0

>  <r_epik_Ionization_Penalty_Neutral>  (120) 
2.36599

>  <r_epik_State_Penalty>  (120) 
2.52052

>  <r_epik_Charging_Adjusted_Penalty>  (120) 
2.52052

>  <i_epik_Tot_Q>  (120) 
0

>  <i_epik_Tot_abs_Q>  (120) 
0

>  <s_lp_Force_Field>  (120) 
OPLS3e

>  <r_lp_Energy>  (120) 
19.069

>  <b_lp_Chiralities_Consistent>  (120) 
1

>  <s_lp_Variant>  (120) 
36:0-2

>  <s_i_glide_gridfile>  (120) 
pfpi4k_grid

>  <i_i_glide_lignum>  (120) 
5

>  <i_i_glide_rotatable_bonds>  (120) 
4

>  <r_i_docking_score>  (120) 
-3.29209

>  <r_i_glide_ligand_efficiency>  (120) 
-0.164605

>  <r_i_glide_ligand_efficiency_sa>  (120) 
-0.446805

>  <r_i_glide_ligand_efficiency_ln>  (120) 
-0.823902

>  <r_i_glide_gscore>  (120) 
-3.29209

>  <r_i_glide_lipo>  (120) 
-1.05757

>  <r_i_glide_hbond>  (120) 
0

>  <r_i_glide_metal>  (120) 
-0

>  <r_i_glide_rewards>  (120) 
-1.45342

>  <r_i_glide_evdw>  (120) 
-24.7289

>  <r_i_glide_ecoul>  (120) 
-1.20991

>  <r_i_glide_erotb>  (120) 
0.636827

>  <r_i_glide_esite>  (120) 
0

>  <r_i_glide_emodel>  (120) 
-30.1999

>  <r_i_glide_energy>  (120) 
-25.9388

>  <r_i_glide_einternal>  (120) 
3.98698

>  <r_i_glide_intrahb_reward>  (120) 
-0

>  <i_i_glide_confnum>  (120) 
4

>  <i_i_glide_posenum>  (120) 
2

>  <r_i_glide_eff_state_penalty>  (120) 
0

>  <ligand_id>  (120) 
36

>  <original_smiles>  (120) 
COCC1CN(Cc2csc(C)n2)Cc2nnn(C)c21

>  <smiles>  (120) 
[H]c1sc(C([H])([H])[H])nc1C([H])([H])N1C([H])([H])c2nnn(C([H])([H])[H])c2C([H])(C([H])([H])OC([H])([H])[H])C1([H])[H]

$$$$
36:1:1
     RDKit          3D

 39 41  0  0  1  0  0  0  0  0999 V2000
    2.5088  -11.0725    4.9984 C   0  0  0  0  0  0  0  0  0  0  0  0
    2.5571   -9.9351    4.1628 O   0  0  0  0  0  0  0  0  0  0  0  0
    2.7155  -10.2746    2.7951 C   0  0  0  0  0  0  0  0  0  0  0  0
    2.4466   -9.0021    1.9733 C   0  0  2  0  0  0  0  0  0  0  0  0
    3.6223   -7.9880    2.1790 C   0  0  0  0  0  0  0  0  0  0  0  0
    3.3370   -6.6738    1.5762 N   0  0  0  0  0  0  0  0  0  0  0  0
    4.4933   -5.7943    1.6464 C   0  0  0  0  0  0  0  0  0  0  0  0
    4.4461   -4.5258    0.8780 C   0  0  0  0  0  0  0  0  0  0  0  0
    4.6688   -4.3472   -0.4654 C   0  0  0  0  0  0  0  0  0  0  0  0
    4.3369   -2.7144   -0.9806 S   0  0  0  0  0  0  0  0  0  0  0  0
    3.9332   -2.3210    0.6942 C   0  0  0  0  0  0  0  0  0  0  0  0
    3.5139   -0.9778    1.1545 C   0  0  0  0  0  0  0  0  0  0  0  0
    4.0520   -3.3502    1.5281 N   0  0  0  0  0  0  0  0  0  0  0  0
    2.1815   -6.0652    2.2579 C   0  0  0  0  0  0  0  0  0  0  0  0
    1.0200   -6.9770    2.4223 C   0  0  0  0  0  0  0  0  0  0  0  0
   -0.3018   -6.6607    2.7193 N   0  0  0  0  0  0  0  0  0  0  0  0
   -0.9699   -7.7654    2.7820 N   0  0  0  0  0  0  0  0  0  0  0  0
   -0.1168   -8.7974    2.5024 N   0  0  0  0  0  0  0  0  0  0  0  0
   -0.6096  -10.1493    2.4658 C   0  0  0  0  0  0  0  0  0  0  0  0
    1.1633   -8.3177    2.3005 C   0  0  0  0  0  0  0  0  0  0  0  0
    2.4338  -10.7677    6.0437 H   0  0  0  0  0  0  0  0  0  0  0  0
    3.4162  -11.6597    4.8669 H   0  0  0  0  0  0  0  0  0  0  0  0
    1.6445  -11.6952    4.7619 H   0  0  0  0  0  0  0  0  0  0  0  0
    3.7144  -10.6685    2.6001 H   0  0  0  0  0  0  0  0  0  0  0  0
    2.0277  -11.0743    2.5400 H   0  0  0  0  0  0  0  0  0  0  0  0
    2.4237   -9.2527    0.9131 H   0  0  0  0  0  0  0  0  0  0  0  0
    3.8176   -7.8555    3.2481 H   0  0  0  0  0  0  0  0  0  0  0  0
    4.5274   -8.4097    1.7403 H   0  0  0  0  0  0  0  0  0  0  0  0
    4.6919   -5.5736    2.6987 H   0  0  0  0  0  0  0  0  0  0  0  0
    5.3640   -6.3606    1.3132 H   0  0  0  0  0  0  0  0  0  0  0  0
    4.9432   -5.0979   -1.1880 H   0  0  0  0  0  0  0  0  0  0  0  0
    3.2965   -1.0231    2.2190 H   0  0  0  0  0  0  0  0  0  0  0  0
    2.6207   -0.6578    0.6238 H   0  0  0  0  0  0  0  0  0  0  0  0
    4.3213   -0.2719    0.9871 H   0  0  0  0  0  0  0  0  0  0  0  0
    2.4755   -5.7034    3.2491 H   0  0  0  0  0  0  0  0  0  0  0  0
    1.8702   -5.1788    1.6981 H   0  0  0  0  0  0  0  0  0  0  0  0
   -0.0519  -10.7582    1.7547 H   0  0  0  0  0  0  0  0  0  0  0  0
   -1.6507  -10.1635    2.1288 H   0  0  0  0  0  0  0  0  0  0  0  0
   -0.5259  -10.5943    3.4641 H   0  0  0  0  0  0  0  0  0  0  0  0
  1  2  1  0
  1 21  1  0
  1 22  1  0
  1 23  1  0
  2  3  1  0
  3  4  1  0
  3 24  1  0
  3 25  1  0
  4 20  1  0
  4  5  1  0
  4 26  1  6
  5  6  1  0
  5 27  1  0
  5 28  1  0
  6  7  1  0
  6 14  1  0
  7  8  1  0
  7 29  1  0
  7 30  1  0
  8 13  1  0
  8  9  2  0
  9 10  1  0
  9 31  1  0
 10 11  1  0
 11 12  1  0
 11 13  2  0
 12 32  1  0
 12 33  1  0
 12 34  1  0
 14 15  1  0
 14 35  1  0
 14 36  1  0
 15 20  2  0
 15 16  1  0
 16 17  2  0
 17 18  1  0
 18 19  1  0
 18 20  1  0
 19 37  1  0
 19 38  1  0
 19 39  1  0
M  END
>  <i_m_ct_stereo_status>  (121) 
1

>  <s_m_source_file>  (121) 
/var/tmp/pbs.5083856.sched01/tmpy896zkta/45d6utibzo.sdf

>  <i_m_source_file_index>  (121) 
5

>  <i_lp_mmshare_version>  (121) 
48012

>  <i_f3d_flags>  (121) 
0

>  <s_epik_input>  (121) 
bjFubihbQ0gzXSljKGMxMilbQ0BIXShbQ0gyXU9bQ0gzXSlbQ0gyXU4oW0NIMl0yKVtDSDJdYzNbY0hdc2MobjMpW0NIM10=

>  <s_epik_cmdline>  (121) 
J2VwaWtfcHl0aG9uJywgJy1waHQnLCAnMi4wJywgJy1waCcsICc3LjAnLCAnLXRuJywgJzgnLCAnLW1hJywgJzIwMCcsICctaW1hZScsICc8aW5maWxlLm1hZT4nLCAnLW9tYWUnLCAnPG91dGZpbGUubWFlPic=

>  <r_lp_tautomer_probability>  (121) 
1

>  <r_epik_Ionization_Penalty>  (121) 
2.36599

>  <r_epik_Ionization_Penalty_Charging>  (121) 
0

>  <r_epik_Ionization_Penalty_Neutral>  (121) 
2.36599

>  <r_epik_State_Penalty>  (121) 
2.52052

>  <r_epik_Charging_Adjusted_Penalty>  (121) 
2.52052

>  <i_epik_Tot_Q>  (121) 
0

>  <i_epik_Tot_abs_Q>  (121) 
0

>  <s_lp_Force_Field>  (121) 
OPLS3e

>  <r_lp_Energy>  (121) 
19.069

>  <b_lp_Chiralities_Consistent>  (121) 
1

>  <s_lp_Variant>  (121) 
36:0-2

>  <s_i_glide_gridfile>  (121) 
pfpi4k_grid

>  <i_i_glide_lignum>  (121) 
5

>  <i_i_glide_rotatable_bonds>  (121) 
4

>  <r_i_docking_score>  (121) 
-2.90522

>  <r_i_glide_ligand_efficiency>  (121) 
-0.145261

>  <r_i_glide_ligand_efficiency_sa>  (121) 
-0.394299

>  <r_i_glide_ligand_efficiency_ln>  (121) 
-0.727081

>  <r_i_glide_gscore>  (121) 
-2.90522

>  <r_i_glide_lipo>  (121) 
-0.126892

>  <r_i_glide_hbond>  (121) 
0

>  <r_i_glide_metal>  (121) 
-0

>  <r_i_glide_rewards>  (121) 
-1.40871

>  <r_i_glide_evdw>  (121) 
-23.4622

>  <r_i_glide_ecoul>  (121) 
-4.22086

>  <r_i_glide_erotb>  (121) 
0.636827

>  <r_i_glide_esite>  (121) 
-0.200202

>  <r_i_glide_emodel>  (121) 
-33.0519

>  <r_i_glide_energy>  (121) 
-27.6831

>  <r_i_glide_einternal>  (121) 
0.471675

>  <r_i_glide_intrahb_reward>  (121) 
-0

>  <i_i_glide_confnum>  (121) 
6

>  <i_i_glide_posenum>  (121) 
29

>  <r_i_glide_eff_state_penalty>  (121) 
0

>  <ligand_id>  (121) 
36

>  <original_smiles>  (121) 
COCC1CN(Cc2csc(C)n2)Cc2nnn(C)c21

>  <smiles>  (121) 
[H]c1sc(C([H])([H])[H])nc1C([H])([H])N1C([H])([H])c2nnn(C([H])([H])[H])c2C([H])(C([H])([H])OC([H])([H])[H])C1([H])[H]

$$$$
36:1:2
     RDKit          3D

 39 41  0  0  1  0  0  0  0  0999 V2000
   -0.1864    1.3357    1.6825 C   0  0  0  0  0  0  0  0  0  0  0  0
    0.8747    0.4074    1.7111 O   0  0  0  0  0  0  0  0  0  0  0  0
    2.1028    0.9650    2.1456 C   0  0  0  0  0  0  0  0  0  0  0  0
    3.1232   -0.1763    2.3218 C   0  0  2  0  0  0  0  0  0  0  0  0
    3.7722   -0.5202    0.9420 C   0  0  0  0  0  0  0  0  0  0  0  0
    4.5773   -1.7610    0.9836 N   0  0  0  0  0  0  0  0  0  0  0  0
    5.2353   -1.9705   -0.2964 C   0  0  0  0  0  0  0  0  0  0  0  0
    4.3975   -2.0509   -1.5381 C   0  0  0  0  0  0  0  0  0  0  0  0
    3.4899   -3.0126   -1.9094 C   0  0  0  0  0  0  0  0  0  0  0  0
    2.6521   -2.6061   -3.3798 S   0  0  0  0  0  0  0  0  0  0  0  0
    3.6244   -1.1443   -3.4653 C   0  0  0  0  0  0  0  0  0  0  0  0
    3.5017   -0.1641   -4.5714 C   0  0  0  0  0  0  0  0  0  0  0  0
    4.4928   -1.0164   -2.4629 N   0  0  0  0  0  0  0  0  0  0  0  0
    3.7287   -2.9116    1.3486 C   0  0  0  0  0  0  0  0  0  0  0  0
    2.8183   -2.6693    2.5097 C   0  0  0  0  0  0  0  0  0  0  0  0
    2.0391   -3.5707    3.2264 N   0  0  0  0  0  0  0  0  0  0  0  0
    1.3187   -2.9102    4.0825 N   0  0  0  0  0  0  0  0  0  0  0  0
    1.6231   -1.5926    3.9435 N   0  0  0  0  0  0  0  0  0  0  0  0
    0.9916   -0.5966    4.7894 C   0  0  0  0  0  0  0  0  0  0  0  0
    2.5396   -1.4125    2.9290 C   0  0  0  0  0  0  0  0  0  0  0  0
   -1.1052    0.8667    1.3329 H   0  0  0  0  0  0  0  0  0  0  0  0
    0.0620    2.1393    0.9871 H   0  0  0  0  0  0  0  0  0  0  0  0
   -0.3742    1.7553    2.6740 H   0  0  0  0  0  0  0  0  0  0  0  0
    2.4545    1.7181    1.4394 H   0  0  0  0  0  0  0  0  0  0  0  0
    1.9510    1.4727    3.0947 H   0  0  0  0  0  0  0  0  0  0  0  0
    3.9262    0.1734    2.9721 H   0  0  0  0  0  0  0  0  0  0  0  0
    2.9829   -0.6540    0.1944 H   0  0  0  0  0  0  0  0  0  0  0  0
    4.3911    0.3202    0.6101 H   0  0  0  0  0  0  0  0  0  0  0  0
    5.9358   -1.1350   -0.3938 H   0  0  0  0  0  0  0  0  0  0  0  0
    5.8710   -2.8554   -0.2073 H   0  0  0  0  0  0  0  0  0  0  0  0
    3.2337   -3.9070   -1.3704 H   0  0  0  0  0  0  0  0  0  0  0  0
    4.1915    0.6598   -4.4122 H   0  0  0  0  0  0  0  0  0  0  0  0
    2.4885    0.2326   -4.6269 H   0  0  0  0  0  0  0  0  0  0  0  0
    3.7470   -0.6523   -5.5102 H   0  0  0  0  0  0  0  0  0  0  0  0
    3.0813   -3.1645    0.5084 H   0  0  0  0  0  0  0  0  0  0  0  0
    4.3694   -3.7772    1.5652 H   0  0  0  0  0  0  0  0  0  0  0  0
    1.6352    0.2840    4.8513 H   0  0  0  0  0  0  0  0  0  0  0  0
    0.8530   -1.0023    5.7957 H   0  0  0  0  0  0  0  0  0  0  0  0
    0.0285   -0.3152    4.3522 H   0  0  0  0  0  0  0  0  0  0  0  0
  1  2  1  0
  1 21  1  0
  1 22  1  0
  1 23  1  0
  2  3  1  0
  3  4  1  0
  3 24  1  0
  3 25  1  0
  4 20  1  0
  4  5  1  0
  4 26  1  1
  5  6  1  0
  5 27  1  0
  5 28  1  0
  6  7  1  0
  6 14  1  0
  7  8  1  0
  7 29  1  0
  7 30  1  0
  8 13  1  0
  8  9  2  0
  9 10  1  0
  9 31  1  0
 10 11  1  0
 11 12  1  0
 11 13  2  0
 12 32  1  0
 12 33  1  0
 12 34  1  0
 14 15  1  0
 14 35  1  0
 14 36  1  0
 15 20  2  0
 15 16  1  0
 16 17  2  0
 17 18  1  0
 18 19  1  0
 18 20  1  0
 19 37  1  0
 19 38  1  0
 19 39  1  0
M  END
>  <i_m_ct_stereo_status>  (122) 
1

>  <s_m_source_file>  (122) 
/var/tmp/pbs.5083856.sched01/tmpy896zkta/45d6utibzo.sdf

>  <i_m_source_file_index>  (122) 
5

>  <i_lp_mmshare_version>  (122) 
48012

>  <i_f3d_flags>  (122) 
0

>  <s_epik_input>  (122) 
bjFubihbQ0gzXSljKGMxMilbQ0BIXShbQ0gyXU9bQ0gzXSlbQ0gyXU4oW0NIMl0yKVtDSDJdYzNbY0hdc2MobjMpW0NIM10=

>  <s_epik_cmdline>  (122) 
J2VwaWtfcHl0aG9uJywgJy1waHQnLCAnMi4wJywgJy1waCcsICc3LjAnLCAnLXRuJywgJzgnLCAnLW1hJywgJzIwMCcsICctaW1hZScsICc8aW5maWxlLm1hZT4nLCAnLW9tYWUnLCAnPG91dGZpbGUubWFlPic=

>  <r_lp_tautomer_probability>  (122) 
1

>  <r_epik_Ionization_Penalty>  (122) 
2.36599

>  <r_epik_Ionization_Penalty_Charging>  (122) 
0

>  <r_epik_Ionization_Penalty_Neutral>  (122) 
2.36599

>  <r_epik_State_Penalty>  (122) 
2.52052

>  <r_epik_Charging_Adjusted_Penalty>  (122) 
2.52052

>  <i_epik_Tot_Q>  (122) 
0

>  <i_epik_Tot_abs_Q>  (122) 
0

>  <s_lp_Force_Field>  (122) 
OPLS3e

>  <r_lp_Energy>  (122) 
19.069

>  <b_lp_Chiralities_Consistent>  (122) 
1

>  <s_lp_Variant>  (122) 
36:0-2

>  <s_i_glide_gridfile>  (122) 
pfpi4k_grid

>  <i_i_glide_lignum>  (122) 
5

>  <i_i_glide_rotatable_bonds>  (122) 
4

>  <r_i_docking_score>  (122) 
-2.73334

>  <r_i_glide_ligand_efficiency>  (122) 
-0.136667

>  <r_i_glide_ligand_efficiency_sa>  (122) 
-0.370972

>  <r_i_glide_ligand_efficiency_ln>  (122) 
-0.684065

>  <r_i_glide_gscore>  (122) 
-2.73334

>  <r_i_glide_lipo>  (122) 
-0.642226

>  <r_i_glide_hbond>  (122) 
0

>  <r_i_glide_metal>  (122) 
-0

>  <r_i_glide_rewards>  (122) 
-1.40871

>  <r_i_glide_evdw>  (122) 
-29.1914

>  <r_i_glide_ecoul>  (122) 
0.937533

>  <r_i_glide_erotb>  (122) 
0.636827

>  <r_i_glide_esite>  (122) 
-0.000288639

>  <r_i_glide_emodel>  (122) 
-31.5142

>  <r_i_glide_energy>  (122) 
-28.2539

>  <r_i_glide_einternal>  (122) 
3.36307

>  <r_i_glide_intrahb_reward>  (122) 
-0

>  <i_i_glide_confnum>  (122) 
4

>  <i_i_glide_posenum>  (122) 
10

>  <r_i_glide_eff_state_penalty>  (122) 
0

>  <ligand_id>  (122) 
36

>  <original_smiles>  (122) 
COCC1CN(Cc2csc(C)n2)Cc2nnn(C)c21

>  <smiles>  (122) 
[H]c1sc(C([H])([H])[H])nc1C([H])([H])N1C([H])([H])c2nnn(C([H])([H])[H])c2C([H])(C([H])([H])OC([H])([H])[H])C1([H])[H]

$$$$
37:0:0
     RDKit          3D

 66 71  0  0  1  0  0  0  0  0999 V2000
    7.1399   -4.6061    1.2160 C   0  0  0  0  0  0  0  0  0  0  0  0
    5.5906   -4.7115    1.0063 C   0  0  1  0  0  0  0  0  0  0  0  0
    5.3706   -6.2042    0.8858 C   0  0  0  0  0  0  0  0  0  0  0  0
    4.2706   -6.5949    0.2621 C   0  0  0  0  0  0  0  0  0  0  0  0
    3.2802   -7.2746    1.1389 C   0  0  0  0  0  0  0  0  0  0  0  0
    3.5435   -6.9039    2.6280 C   0  0  1  0  0  0  0  0  0  0  0  0
    2.6238   -7.7809    3.5435 C   0  0  2  0  0  0  0  0  0  0  0  0
    1.5914   -8.8277    3.0917 C   0  0  0  0  0  0  0  0  0  0  0  0
    1.2057   -7.5445    3.5532 O   0  0  0  0  0  0  0  0  0  0  0  0
    4.8133   -7.4602    2.9236 O   0  0  0  0  0  0  0  0  0  0  0  0
    5.8555   -7.0461    2.0706 C   0  0  0  0  0  0  0  0  0  0  0  0
    3.5901   -5.3209    3.0090 C   0  0  0  0  0  0  0  0  0  0  0  0
    2.1055   -4.8203    2.9351 C   0  0  0  0  0  0  0  0  0  0  0  0
    3.9321   -5.2207    4.5267 C   0  0  0  0  0  0  0  0  0  0  0  0
    4.7029   -4.3182    2.2947 C   0  0  2  0  0  0  0  0  0  0  0  0
    4.3385   -2.7958    2.4620 C   0  0  1  0  0  0  0  0  0  0  0  0
    5.2768   -2.0634    3.2174 O   0  0  0  0  0  0  0  0  0  0  0  0
    5.1779   -0.7545    3.0425 C   0  0  0  0  0  0  0  0  0  0  0  0
    5.7662    0.1384    3.6722 O   0  0  0  0  0  0  0  0  0  0  0  0
    4.2389   -0.4528    1.9125 C   0  0  0  0  0  0  0  0  0  0  0  0
    3.8684   -1.8238    1.3225 C   0  0  1  0  0  0  0  0  0  0  0  0
    4.3570   -2.0731   -0.1408 C   0  0  1  0  0  0  0  0  0  0  0  0
    3.8551   -0.9468   -0.8274 O   0  0  0  0  0  0  0  0  0  0  0  0
    5.8238   -2.4292   -0.5056 C   0  0  0  0  0  0  0  0  0  0  0  0
    6.3717   -2.1217   -1.9026 C   0  0  0  0  0  0  0  0  0  0  0  0
    6.8800   -1.7422    0.3795 C   0  0  0  0  0  0  0  0  0  0  0  0
    5.2883   -3.8974   -0.3036 C   0  0  2  0  0  0  0  0  0  0  0  0
    3.8960   -3.3664   -0.8317 C   0  0  0  0  0  0  0  0  0  0  0  0
    2.5743   -3.9106   -0.3162 C   0  0  0  0  0  0  0  0  0  0  0  0
    3.6375   -3.3441   -2.3576 C   0  0  0  0  0  0  0  0  0  0  0  0
    7.4010   -4.0122    2.0621 H   0  0  0  0  0  0  0  0  0  0  0  0
    7.6272   -4.1876    0.3389 H   0  0  0  0  0  0  0  0  0  0  0  0
    7.6895   -5.5429    1.3023 H   0  0  0  0  0  0  0  0  0  0  0  0
    3.8280   -6.0314   -0.5288 H   0  0  0  0  0  0  0  0  0  0  0  0
    2.2839   -6.9539    0.8446 H   0  0  0  0  0  0  0  0  0  0  0  0
    3.4024   -8.3473    0.9804 H   0  0  0  0  0  0  0  0  0  0  0  0
    3.0422   -7.9284    4.5458 H   0  0  0  0  0  0  0  0  0  0  0  0
    1.2463   -8.9729    2.0686 H   0  0  0  0  0  0  0  0  0  0  0  0
    1.3514   -9.6456    3.7693 H   0  0  0  0  0  0  0  0  0  0  0  0
    6.2938   -7.9503    1.6483 H   0  0  0  0  0  0  0  0  0  0  0  0
    6.6142   -6.5979    2.7021 H   0  0  0  0  0  0  0  0  0  0  0  0
    1.9346   -3.7544    2.8563 H   0  0  0  0  0  0  0  0  0  0  0  0
    1.5516   -5.0924    3.8314 H   0  0  0  0  0  0  0  0  0  0  0  0
    1.5626   -5.2778    2.1085 H   0  0  0  0  0  0  0  0  0  0  0  0
    4.0005   -4.1811    4.8457 H   0  0  0  0  0  0  0  0  0  0  0  0
    4.8878   -5.6889    4.7675 H   0  0  0  0  0  0  0  0  0  0  0  0
    3.1848   -5.6920    5.1625 H   0  0  0  0  0  0  0  0  0  0  0  0
    5.4984   -4.4124    3.0321 H   0  0  0  0  0  0  0  0  0  0  0  0
    3.5245   -2.7580    3.1725 H   0  0  0  0  0  0  0  0  0  0  0  0
    3.3644    0.0459    2.3256 H   0  0  0  0  0  0  0  0  0  0  0  0
    4.7132    0.2183    1.1968 H   0  0  0  0  0  0  0  0  0  0  0  0
    2.7753   -1.8430    1.3231 H   0  0  0  0  0  0  0  0  0  0  0  0
    2.9240   -1.0399   -0.8094 H   0  0  0  0  0  0  0  0  0  0  0  0
    7.4582   -2.1278   -1.9496 H   0  0  0  0  0  0  0  0  0  0  0  0
    6.0085   -1.1521   -2.2423 H   0  0  0  0  0  0  0  0  0  0  0  0
    6.1076   -2.8604   -2.6558 H   0  0  0  0  0  0  0  0  0  0  0  0
    7.9072   -1.9525    0.0843 H   0  0  0  0  0  0  0  0  0  0  0  0
    6.8169   -2.0563    1.4089 H   0  0  0  0  0  0  0  0  0  0  0  0
    6.7551   -0.6568    0.3677 H   0  0  0  0  0  0  0  0  0  0  0  0
    5.6993   -4.4631   -1.1453 H   0  0  0  0  0  0  0  0  0  0  0  0
    2.1784   -4.7500   -0.8862 H   0  0  0  0  0  0  0  0  0  0  0  0
    1.8176   -3.1264   -0.3337 H   0  0  0  0  0  0  0  0  0  0  0  0
    2.7006   -4.2460    0.6903 H   0  0  0  0  0  0  0  0  0  0  0  0
    4.1296   -4.1609   -2.8769 H   0  0  0  0  0  0  0  0  0  0  0  0
    3.9785   -2.4323   -2.8431 H   0  0  0  0  0  0  0  0  0  0  0  0
    2.5764   -3.3881   -2.6110 H   0  0  0  0  0  0  0  0  0  0  0  0
  2  1  1  1
  1 31  1  0
  1 32  1  0
  1 33  1  0
  2 15  1  0
  2 27  1  0
  2  3  1  0
  3 11  1  0
  3  4  2  0
  4  5  1  0
  4 34  1  0
  5  6  1  0
  5 35  1  0
  5 36  1  0
  6  7  1  0
  6 10  1  1
  6 12  1  0
  7  9  1  0
  7  8  1  0
  7 37  1  1
  8  9  1  0
  8 38  1  0
  8 39  1  0
 10 11  1  0
 11 40  1  0
 11 41  1  0
 12 13  1  0
 12 14  1  0
 12 15  1  0
 13 42  1  0
 13 43  1  0
 13 44  1  0
 14 45  1  0
 14 46  1  0
 14 47  1  0
 15 16  1  0
 15 48  1  1
 16 21  1  0
 16 17  1  0
 16 49  1  1
 17 18  1  0
 18 19  2  0
 18 20  1  0
 20 21  1  0
 20 50  1  0
 20 51  1  0
 21 22  1  0
 21 52  1  6
 22 28  1  0
 22 23  1  6
 22 24  1  0
 23 53  1  0
 24 25  1  0
 24 26  1  0
 24 27  1  0
 25 54  1  0
 25 55  1  0
 25 56  1  0
 26 57  1  0
 26 58  1  0
 26 59  1  0
 27 28  1  0
 27 60  1  6
 28 29  1  0
 28 30  1  0
 29 61  1  0
 29 62  1  0
 29 63  1  0
 30 64  1  0
 30 65  1  0
 30 66  1  0
M  END
>  <i_m_ct_stereo_status>  (123) 
1

>  <s_m_source_file>  (123) 
/var/tmp/pbs.5083856.sched01/tmpbm0m_nsv/50cjcjamfn.sdf

>  <i_m_source_file_index>  (123) 
1

>  <i_lp_mmshare_version>  (123) 
48012

>  <i_f3d_flags>  (123) 
0

>  <s_epik_input>  (123) 
W0NIM11bQ0BAXTEyQzM9W0NIXVtDSDJdW0NAQF0oW0NAQEhdNFtDSDJdTzQpKE9bQ0gyXTMpQyhbQ0gzXSkoW0NIM10pW0NAQEhdMVtDQEBIXTVbQ0BASF0oW0NIMl1DKE81KT1PKVtDQEBdNihbT0hdKUMoW0NIM10pKFtDSDNdKVtDQEBIXTJDNihbQ0gzXSlbQ0gzXQ==

>  <s_epik_cmdline>  (123) 
J2VwaWtfcHl0aG9uJywgJy1waHQnLCAnMi4wJywgJy1waCcsICc3LjAnLCAnLXRuJywgJzgnLCAnLW1hJywgJzIwMCcsICctaW1hZScsICc8aW5maWxlLm1hZT4nLCAnLW9tYWUnLCAnPG91dGZpbGUubWFlPic=

>  <r_lp_tautomer_probability>  (123) 
1

>  <r_epik_Ionization_Penalty>  (123) 
4.91391e-07

>  <r_epik_Ionization_Penalty_Charging>  (123) 
0

>  <r_epik_Ionization_Penalty_Neutral>  (123) 
4.91391e-07

>  <r_epik_State_Penalty>  (123) 
-0

>  <r_epik_Charging_Adjusted_Penalty>  (123) 
0

>  <i_epik_Tot_Q>  (123) 
0

>  <i_epik_Tot_abs_Q>  (123) 
0

>  <s_epik_Chemistry_Notes>  (123) 
This compound has an ester and may undergo hydrolysis at high or low pH.

>  <s_lp_Force_Field>  (123) 
OPLS3e

>  <r_lp_Energy>  (123) 
162.672

>  <b_lp_Chiralities_Consistent>  (123) 
1

>  <s_lp_Variant>  (123) 
37:0-1

>  <s_i_glide_gridfile>  (123) 
pfpi4k_grid

>  <i_i_glide_lignum>  (123) 
1

>  <i_i_glide_rotatable_bonds>  (123) 
2

>  <r_i_docking_score>  (123) 
-3.06542

>  <r_i_glide_ligand_efficiency>  (123) 
-0.102181

>  <r_i_glide_ligand_efficiency_sa>  (123) 
-0.317499

>  <r_i_glide_ligand_efficiency_ln>  (123) 
-0.696497

>  <r_i_glide_gscore>  (123) 
-3.06542

>  <r_i_glide_lipo>  (123) 
-0.731772

>  <r_i_glide_hbond>  (123) 
-0.104983

>  <r_i_glide_metal>  (123) 
-0

>  <r_i_glide_rewards>  (123) 
-0.739444

>  <r_i_glide_evdw>  (123) 
-21.6732

>  <r_i_glide_ecoul>  (123) 
-3.46283

>  <r_i_glide_erotb>  (123) 
0.113864

>  <r_i_glide_esite>  (123) 
0

>  <r_i_glide_emodel>  (123) 
-27.7961

>  <r_i_glide_energy>  (123) 
-25.136

>  <r_i_glide_einternal>  (123) 
3.12289

>  <r_i_glide_intrahb_reward>  (123) 
-0

>  <i_i_glide_confnum>  (123) 
4

>  <i_i_glide_posenum>  (123) 
15

>  <r_i_glide_eff_state_penalty>  (123) 
0

>  <ligand_id>  (123) 
37

>  <original_smiles>  (123) 
CC12C3=CCC(C4CO4)(OC3)C(C)(C)C1C1OC(=O)CC1C1(O)C(C)(C)C2C1(C)C

>  <smiles>  (123) 
[H]OC12C3([H])C([H])([H])C(=O)OC3([H])C3([H])C(C([H])([H])[H])(C4=C([H])C([H])([H])C(C5([H])OC5([H])[H])(OC4([H])[H])C3(C([H])([H])[H])C([H])([H])[H])C([H])(C1(C([H])([H])[H])C([H])([H])[H])C2(C([H])([H])[H])C([H])([H])[H]

$$$$
37:0:1
     RDKit          3D

 66 71  0  0  1  0  0  0  0  0999 V2000
    5.2168   -2.0480    3.1808 C   0  0  0  0  0  0  0  0  0  0  0  0
    4.5213   -2.8703    2.0572 C   0  0  1  0  0  0  0  0  0  0  0  0
    3.9007   -1.7966    1.2275 C   0  0  0  0  0  0  0  0  0  0  0  0
    2.8690   -2.1780    0.4765 C   0  0  0  0  0  0  0  0  0  0  0  0
    3.1100   -2.1307   -0.9822 C   0  0  0  0  0  0  0  0  0  0  0  0
    4.6540   -2.1569   -1.2619 C   0  0  1  0  0  0  0  0  0  0  0  0
    4.8596   -1.9471   -2.7822 C   0  0  2  0  0  0  0  0  0  0  0  0
    4.2089   -0.7968   -3.5509 C   0  0  0  0  0  0  0  0  0  0  0  0
    3.7612   -2.1478   -3.6909 O   0  0  0  0  0  0  0  0  0  0  0  0
    5.1617   -0.9455   -0.7361 O   0  0  0  0  0  0  0  0  0  0  0  0
    4.8657   -0.7508    0.6258 C   0  0  0  0  0  0  0  0  0  0  0  0
    5.4793   -3.3956   -0.6287 C   0  0  0  0  0  0  0  0  0  0  0  0
    5.0051   -4.6067   -1.4809 C   0  0  0  0  0  0  0  0  0  0  0  0
    6.9870   -3.2276   -0.9907 C   0  0  0  0  0  0  0  0  0  0  0  0
    5.4889   -3.6272    1.0113 C   0  0  2  0  0  0  0  0  0  0  0  0
    5.9643   -5.0849    1.4005 C   0  0  1  0  0  0  0  0  0  0  0  0
    7.2085   -5.1057    2.0703 O   0  0  0  0  0  0  0  0  0  0  0  0
    7.4283   -6.2241    2.7518 C   0  0  0  0  0  0  0  0  0  0  0  0
    8.4432   -6.5552    3.3684 O   0  0  0  0  0  0  0  0  0  0  0  0
    6.1917   -7.0819    2.7328 C   0  0  0  0  0  0  0  0  0  0  0  0
    5.1086   -6.2094    2.0630 C   0  0  1  0  0  0  0  0  0  0  0  0
    3.8796   -5.8408    2.9860 C   0  0  1  0  0  0  0  0  0  0  0  0
    3.4808   -7.0638    3.5161 O   0  0  0  0  0  0  0  0  0  0  0  0
    3.9651   -4.7026    4.0450 C   0  0  0  0  0  0  0  0  0  0  0  0
    3.0063   -4.7325    5.2724 C   0  0  0  0  0  0  0  0  0  0  0  0
    5.3201   -4.6065    4.7537 C   0  0  0  0  0  0  0  0  0  0  0  0
    3.5003   -3.8059    2.8404 C   0  0  2  0  0  0  0  0  0  0  0  0
    2.7344   -5.0660    2.2938 C   0  0  0  0  0  0  0  0  0  0  0  0
    2.5803   -5.3439    0.8111 C   0  0  0  0  0  0  0  0  0  0  0  0
    1.2795   -5.2880    2.7965 C   0  0  0  0  0  0  0  0  0  0  0  0
    6.2213   -2.3807    3.2421 H   0  0  0  0  0  0  0  0  0  0  0  0
    4.7589   -2.1691    4.1604 H   0  0  0  0  0  0  0  0  0  0  0  0
    5.2443   -0.9626    3.0765 H   0  0  0  0  0  0  0  0  0  0  0  0
    2.1725   -2.9219    0.7934 H   0  0  0  0  0  0  0  0  0  0  0  0
    2.5894   -2.9622   -1.4625 H   0  0  0  0  0  0  0  0  0  0  0  0
    2.6525   -1.2290   -1.3895 H   0  0  0  0  0  0  0  0  0  0  0  0
    5.8088   -2.2506   -3.1894 H   0  0  0  0  0  0  0  0  0  0  0  0
    3.5426   -0.1206   -3.0239 H   0  0  0  0  0  0  0  0  0  0  0  0
    4.6441   -0.3955   -4.4600 H   0  0  0  0  0  0  0  0  0  0  0  0
    4.3728    0.2136    0.7019 H   0  0  0  0  0  0  0  0  0  0  0  0
    5.8205   -0.6440    1.1310 H   0  0  0  0  0  0  0  0  0  0  0  0
    5.2251   -5.5987   -1.0995 H   0  0  0  0  0  0  0  0  0  0  0  0
    5.4032   -4.5860   -2.4966 H   0  0  0  0  0  0  0  0  0  0  0  0
    3.9459   -4.5649   -1.6169 H   0  0  0  0  0  0  0  0  0  0  0  0
    7.5911   -4.0055   -0.5291 H   0  0  0  0  0  0  0  0  0  0  0  0
    7.3757   -2.2726   -0.6416 H   0  0  0  0  0  0  0  0  0  0  0  0
    7.2228   -3.3082   -2.0477 H   0  0  0  0  0  0  0  0  0  0  0  0
    6.3894   -3.0600    1.2364 H   0  0  0  0  0  0  0  0  0  0  0  0
    6.3207   -5.5404    0.4887 H   0  0  0  0  0  0  0  0  0  0  0  0
    6.3881   -7.9691    2.1273 H   0  0  0  0  0  0  0  0  0  0  0  0
    5.9276   -7.4104    3.7373 H   0  0  0  0  0  0  0  0  0  0  0  0
    4.7225   -6.8169    1.2384 H   0  0  0  0  0  0  0  0  0  0  0  0
    3.3775   -7.6735    2.7954 H   0  0  0  0  0  0  0  0  0  0  0  0
    3.3605   -4.1209    6.1026 H   0  0  0  0  0  0  0  0  0  0  0  0
    2.8772   -5.7375    5.6664 H   0  0  0  0  0  0  0  0  0  0  0  0
    2.0303   -4.3195    5.0614 H   0  0  0  0  0  0  0  0  0  0  0  0
    5.3644   -3.8544    5.5434 H   0  0  0  0  0  0  0  0  0  0  0  0
    6.1181   -4.3354    4.0768 H   0  0  0  0  0  0  0  0  0  0  0  0
    5.6107   -5.5568    5.2088 H   0  0  0  0  0  0  0  0  0  0  0  0
    2.7389   -3.1599    3.2568 H   0  0  0  0  0  0  0  0  0  0  0  0
    1.7119   -4.8888    0.3385 H   0  0  0  0  0  0  0  0  0  0  0  0
    2.5409   -6.4093    0.5834 H   0  0  0  0  0  0  0  0  0  0  0  0
    3.4290   -4.9434    0.2989 H   0  0  0  0  0  0  0  0  0  0  0  0
    0.7487   -4.3431    2.9051 H   0  0  0  0  0  0  0  0  0  0  0  0
    1.2269   -5.8118    3.7400 H   0  0  0  0  0  0  0  0  0  0  0  0
    0.6949   -5.9126    2.1203 H   0  0  0  0  0  0  0  0  0  0  0  0
  2  1  1  1
  1 31  1  0
  1 32  1  0
  1 33  1  0
  2 15  1  0
  2 27  1  0
  2  3  1  0
  3 11  1  0
  3  4  2  0
  4  5  1  0
  4 34  1  0
  5  6  1  0
  5 35  1  0
  5 36  1  0
  6  7  1  0
  6 10  1  1
  6 12  1  0
  7  9  1  0
  7  8  1  0
  7 37  1  6
  8  9  1  0
  8 38  1  0
  8 39  1  0
 10 11  1  0
 11 40  1  0
 11 41  1  0
 12 13  1  0
 12 14  1  0
 12 15  1  0
 13 42  1  0
 13 43  1  0
 13 44  1  0
 14 45  1  0
 14 46  1  0
 14 47  1  0
 15 16  1  0
 15 48  1  1
 16 21  1  0
 16 17  1  0
 16 49  1  6
 17 18  1  0
 18 19  2  0
 18 20  1  0
 20 21  1  0
 20 50  1  0
 20 51  1  0
 21 22  1  0
 21 52  1  6
 22 28  1  0
 22 23  1  1
 22 24  1  0
 23 53  1  0
 24 25  1  0
 24 26  1  0
 24 27  1  0
 25 54  1  0
 25 55  1  0
 25 56  1  0
 26 57  1  0
 26 58  1  0
 26 59  1  0
 27 28  1  0
 27 60  1  1
 28 29  1  0
 28 30  1  0
 29 61  1  0
 29 62  1  0
 29 63  1  0
 30 64  1  0
 30 65  1  0
 30 66  1  0
M  END
>  <i_m_ct_stereo_status>  (124) 
1

>  <s_m_source_file>  (124) 
/var/tmp/pbs.5083856.sched01/tmpbm0m_nsv/50cjcjamfn.sdf

>  <i_m_source_file_index>  (124) 
1

>  <i_lp_mmshare_version>  (124) 
48012

>  <i_f3d_flags>  (124) 
0

>  <s_epik_input>  (124) 
W0NIM11bQ0BAXTEyQzM9W0NIXVtDSDJdW0NAQF0oW0NAQEhdNFtDSDJdTzQpKE9bQ0gyXTMpQyhbQ0gzXSkoW0NIM10pW0NAQEhdMVtDQEBIXTVbQ0BASF0oW0NIMl1DKE81KT1PKVtDQEBdNihbT0hdKUMoW0NIM10pKFtDSDNdKVtDQEBIXTJDNihbQ0gzXSlbQ0gzXQ==

>  <s_epik_cmdline>  (124) 
J2VwaWtfcHl0aG9uJywgJy1waHQnLCAnMi4wJywgJy1waCcsICc3LjAnLCAnLXRuJywgJzgnLCAnLW1hJywgJzIwMCcsICctaW1hZScsICc8aW5maWxlLm1hZT4nLCAnLW9tYWUnLCAnPG91dGZpbGUubWFlPic=

>  <r_lp_tautomer_probability>  (124) 
1

>  <r_epik_Ionization_Penalty>  (124) 
4.91391e-07

>  <r_epik_Ionization_Penalty_Charging>  (124) 
0

>  <r_epik_Ionization_Penalty_Neutral>  (124) 
4.91391e-07

>  <r_epik_State_Penalty>  (124) 
-0

>  <r_epik_Charging_Adjusted_Penalty>  (124) 
0

>  <i_epik_Tot_Q>  (124) 
0

>  <i_epik_Tot_abs_Q>  (124) 
0

>  <s_epik_Chemistry_Notes>  (124) 
This compound has an ester and may undergo hydrolysis at high or low pH.

>  <s_lp_Force_Field>  (124) 
OPLS3e

>  <r_lp_Energy>  (124) 
162.672

>  <b_lp_Chiralities_Consistent>  (124) 
1

>  <s_lp_Variant>  (124) 
37:0-1

>  <s_i_glide_gridfile>  (124) 
pfpi4k_grid

>  <i_i_glide_lignum>  (124) 
1

>  <i_i_glide_rotatable_bonds>  (124) 
2

>  <r_i_docking_score>  (124) 
-2.23958

>  <r_i_glide_ligand_efficiency>  (124) 
-0.0746528

>  <r_i_glide_ligand_efficiency_sa>  (124) 
-0.231964

>  <r_i_glide_ligand_efficiency_ln>  (124) 
-0.508858

>  <r_i_glide_gscore>  (124) 
-2.23958

>  <r_i_glide_lipo>  (124) 
-0.806197

>  <r_i_glide_hbond>  (124) 
0

>  <r_i_glide_metal>  (124) 
-0

>  <r_i_glide_rewards>  (124) 
-0.571176

>  <r_i_glide_evdw>  (124) 
-19.5987

>  <r_i_glide_ecoul>  (124) 
0.0257284

>  <r_i_glide_erotb>  (124) 
0.113864

>  <r_i_glide_esite>  (124) 
0

>  <r_i_glide_emodel>  (124) 
-21.504

>  <r_i_glide_energy>  (124) 
-19.573

>  <r_i_glide_einternal>  (124) 
1.97044

>  <r_i_glide_intrahb_reward>  (124) 
-0

>  <i_i_glide_confnum>  (124) 
2

>  <i_i_glide_posenum>  (124) 
2

>  <r_i_glide_eff_state_penalty>  (124) 
0

>  <ligand_id>  (124) 
37

>  <original_smiles>  (124) 
CC12C3=CCC(C4CO4)(OC3)C(C)(C)C1C1OC(=O)CC1C1(O)C(C)(C)C2C1(C)C

>  <smiles>  (124) 
[H]OC12C3([H])C([H])([H])C(=O)OC3([H])C3([H])C(C([H])([H])[H])(C4=C([H])C([H])([H])C(C5([H])OC5([H])[H])(OC4([H])[H])C3(C([H])([H])[H])C([H])([H])[H])C([H])(C1(C([H])([H])[H])C([H])([H])[H])C2(C([H])([H])[H])C([H])([H])[H]

$$$$
37:0:2
     RDKit          3D

 66 71  0  0  1  0  0  0  0  0999 V2000
    2.3347   -7.2244    2.6065 C   0  0  0  0  0  0  0  0  0  0  0  0
    3.6652   -6.4645    2.2352 C   0  0  1  0  0  0  0  0  0  0  0  0
    3.5186   -6.1748    0.7518 C   0  0  0  0  0  0  0  0  0  0  0  0
    4.6239   -5.9244    0.0593 C   0  0  0  0  0  0  0  0  0  0  0  0
    4.7479   -4.5204   -0.4479 C   0  0  0  0  0  0  0  0  0  0  0  0
    3.7960   -3.5802    0.3858 C   0  0  1  0  0  0  0  0  0  0  0  0
    3.8078   -2.1751   -0.2612 C   0  0  2  0  0  0  0  0  0  0  0  0
    3.4219   -1.9845   -1.7097 C   0  0  0  0  0  0  0  0  0  0  0  0
    4.7886   -1.9001   -1.2791 O   0  0  0  0  0  0  0  0  0  0  0  0
    2.4875   -4.0366    0.0804 O   0  0  0  0  0  0  0  0  0  0  0  0
    2.2482   -5.4018    0.3481 C   0  0  0  0  0  0  0  0  0  0  0  0
    3.9963   -3.5823    1.9987 C   0  0  0  0  0  0  0  0  0  0  0  0
    5.3558   -2.8288    2.2175 C   0  0  0  0  0  0  0  0  0  0  0  0
    2.9326   -2.6176    2.6223 C   0  0  0  0  0  0  0  0  0  0  0  0
    3.7932   -4.9865    2.8716 C   0  0  2  0  0  0  0  0  0  0  0  0
    4.3949   -4.8947    4.3261 C   0  0  1  0  0  0  0  0  0  0  0  0
    3.4194   -4.9605    5.3488 O   0  0  0  0  0  0  0  0  0  0  0  0
    3.9321   -5.2639    6.5399 C   0  0  0  0  0  0  0  0  0  0  0  0
    3.3348   -5.2660    7.6136 O   0  0  0  0  0  0  0  0  0  0  0  0
    5.3866   -5.6560    6.3875 C   0  0  0  0  0  0  0  0  0  0  0  0
    5.6286   -5.6928    4.8669 C   0  0  1  0  0  0  0  0  0  0  0  0
    6.0072   -7.1009    4.2819 C   0  0  1  0  0  0  0  0  0  0  0  0
    7.0656   -7.5324    5.1126 O   0  0  0  0  0  0  0  0  0  0  0  0
    4.9135   -8.1795    4.0085 C   0  0  0  0  0  0  0  0  0  0  0  0
    5.3110   -9.6824    3.9718 C   0  0  0  0  0  0  0  0  0  0  0  0
    3.7649   -8.1998    5.0364 C   0  0  0  0  0  0  0  0  0  0  0  0
    4.8380   -7.4769    2.5939 C   0  0  2  0  0  0  0  0  0  0  0  0
    6.3708   -7.1308    2.7756 C   0  0  0  0  0  0  0  0  0  0  0  0
    6.9822   -5.8382    2.2411 C   0  0  0  0  0  0  0  0  0  0  0  0
    7.3982   -8.1901    2.2813 C   0  0  0  0  0  0  0  0  0  0  0  0
    1.8106   -6.7983    3.4617 H   0  0  0  0  0  0  0  0  0  0  0  0
    2.5178   -8.2771    2.8085 H   0  0  0  0  0  0  0  0  0  0  0  0
    1.5964   -7.3245    1.8132 H   0  0  0  0  0  0  0  0  0  0  0  0
    5.5608   -6.3858    0.2997 H   0  0  0  0  0  0  0  0  0  0  0  0
    5.7854   -4.2033   -0.3642 H   0  0  0  0  0  0  0  0  0  0  0  0
    4.5045   -4.5197   -1.5094 H   0  0  0  0  0  0  0  0  0  0  0  0
    3.5506   -1.3232    0.3632 H   0  0  0  0  0  0  0  0  0  0  0  0
    3.1721   -2.8648   -2.3028 H   0  0  0  0  0  0  0  0  0  0  0  0
    2.9684   -1.0418   -2.0107 H   0  0  0  0  0  0  0  0  0  0  0  0
    1.8484   -5.8403   -0.5647 H   0  0  0  0  0  0  0  0  0  0  0  0
    1.4383   -5.4266    1.0681 H   0  0  0  0  0  0  0  0  0  0  0  0
    5.8054   -2.9214    3.2009 H   0  0  0  0  0  0  0  0  0  0  0  0
    5.2472   -1.7550    2.0626 H   0  0  0  0  0  0  0  0  0  0  0  0
    6.1277   -3.1186    1.5065 H   0  0  0  0  0  0  0  0  0  0  0  0
    2.9787   -2.6204    3.7108 H   0  0  0  0  0  0  0  0  0  0  0  0
    1.9185   -2.9031    2.3458 H   0  0  0  0  0  0  0  0  0  0  0  0
    3.0470   -1.5725    2.3492 H   0  0  0  0  0  0  0  0  0  0  0  0
    2.7348   -4.8690    3.0989 H   0  0  0  0  0  0  0  0  0  0  0  0
    4.6820   -3.8615    4.4669 H   0  0  0  0  0  0  0  0  0  0  0  0
    6.0040   -4.8915    6.8544 H   0  0  0  0  0  0  0  0  0  0  0  0
    5.5799   -6.6033    6.8870 H   0  0  0  0  0  0  0  0  0  0  0  0
    6.4985   -5.0530    4.7105 H   0  0  0  0  0  0  0  0  0  0  0  0
    7.3549   -8.3527    4.7537 H   0  0  0  0  0  0  0  0  0  0  0  0
    4.4607  -10.3540    4.1027 H   0  0  0  0  0  0  0  0  0  0  0  0
    6.0185   -9.9397    4.7580 H   0  0  0  0  0  0  0  0  0  0  0  0
    5.7246  -10.0034    3.0192 H   0  0  0  0  0  0  0  0  0  0  0  0
    3.0384   -8.9975    4.8748 H   0  0  0  0  0  0  0  0  0  0  0  0
    3.1795   -7.2965    5.0299 H   0  0  0  0  0  0  0  0  0  0  0  0
    4.1475   -8.3241    6.0508 H   0  0  0  0  0  0  0  0  0  0  0  0
    4.7837   -8.2782    1.8564 H   0  0  0  0  0  0  0  0  0  0  0  0
    7.3634   -5.9143    1.2220 H   0  0  0  0  0  0  0  0  0  0  0  0
    7.8133   -5.5019    2.8616 H   0  0  0  0  0  0  0  0  0  0  0  0
    6.2425   -5.0694    2.2455 H   0  0  0  0  0  0  0  0  0  0  0  0
    7.0741   -8.6657    1.3543 H   0  0  0  0  0  0  0  0  0  0  0  0
    7.6063   -8.9745    3.0029 H   0  0  0  0  0  0  0  0  0  0  0  0
    8.3824   -7.7639    2.0777 H   0  0  0  0  0  0  0  0  0  0  0  0
  2  1  1  1
  1 31  1  0
  1 32  1  0
  1 33  1  0
  2 15  1  0
  2 27  1  0
  2  3  1  0
  3 11  1  0
  3  4  2  0
  4  5  1  0
  4 34  1  0
  5  6  1  0
  5 35  1  0
  5 36  1  0
  6  7  1  0
  6 10  1  1
  6 12  1  0
  7  9  1  0
  7  8  1  0
  7 37  1  1
  8  9  1  0
  8 38  1  0
  8 39  1  0
 10 11  1  0
 11 40  1  0
 11 41  1  0
 12 13  1  0
 12 14  1  0
 12 15  1  0
 13 42  1  0
 13 43  1  0
 13 44  1  0
 14 45  1  0
 14 46  1  0
 14 47  1  0
 15 16  1  0
 15 48  1  1
 16 21  1  0
 16 17  1  0
 16 49  1  6
 17 18  1  0
 18 19  2  0
 18 20  1  0
 20 21  1  0
 20 50  1  0
 20 51  1  0
 21 22  1  0
 21 52  1  1
 22 28  1  0
 22 23  1  1
 22 24  1  0
 23 53  1  0
 24 25  1  0
 24 26  1  0
 24 27  1  0
 25 54  1  0
 25 55  1  0
 25 56  1  0
 26 57  1  0
 26 58  1  0
 26 59  1  0
 27 28  1  0
 27 60  1  6
 28 29  1  0
 28 30  1  0
 29 61  1  0
 29 62  1  0
 29 63  1  0
 30 64  1  0
 30 65  1  0
 30 66  1  0
M  END
>  <i_m_ct_stereo_status>  (125) 
1

>  <s_m_source_file>  (125) 
/var/tmp/pbs.5083856.sched01/tmpbm0m_nsv/50cjcjamfn.sdf

>  <i_m_source_file_index>  (125) 
1

>  <i_lp_mmshare_version>  (125) 
48012

>  <i_f3d_flags>  (125) 
0

>  <s_epik_input>  (125) 
W0NIM11bQ0BAXTEyQzM9W0NIXVtDSDJdW0NAQF0oW0NAQEhdNFtDSDJdTzQpKE9bQ0gyXTMpQyhbQ0gzXSkoW0NIM10pW0NAQEhdMVtDQEBIXTVbQ0BASF0oW0NIMl1DKE81KT1PKVtDQEBdNihbT0hdKUMoW0NIM10pKFtDSDNdKVtDQEBIXTJDNihbQ0gzXSlbQ0gzXQ==

>  <s_epik_cmdline>  (125) 
J2VwaWtfcHl0aG9uJywgJy1waHQnLCAnMi4wJywgJy1waCcsICc3LjAnLCAnLXRuJywgJzgnLCAnLW1hJywgJzIwMCcsICctaW1hZScsICc8aW5maWxlLm1hZT4nLCAnLW9tYWUnLCAnPG91dGZpbGUubWFlPic=

>  <r_lp_tautomer_probability>  (125) 
1

>  <r_epik_Ionization_Penalty>  (125) 
4.91391e-07

>  <r_epik_Ionization_Penalty_Charging>  (125) 
0

>  <r_epik_Ionization_Penalty_Neutral>  (125) 
4.91391e-07

>  <r_epik_State_Penalty>  (125) 
-0

>  <r_epik_Charging_Adjusted_Penalty>  (125) 
0

>  <i_epik_Tot_Q>  (125) 
0

>  <i_epik_Tot_abs_Q>  (125) 
0

>  <s_epik_Chemistry_Notes>  (125) 
This compound has an ester and may undergo hydrolysis at high or low pH.

>  <s_lp_Force_Field>  (125) 
OPLS3e

>  <r_lp_Energy>  (125) 
162.672

>  <b_lp_Chiralities_Consistent>  (125) 
1

>  <s_lp_Variant>  (125) 
37:0-1

>  <s_i_glide_gridfile>  (125) 
pfpi4k_grid

>  <i_i_glide_lignum>  (125) 
1

>  <i_i_glide_rotatable_bonds>  (125) 
2

>  <r_i_docking_score>  (125) 
-1.5987

>  <r_i_glide_ligand_efficiency>  (125) 
-0.0532899

>  <r_i_glide_ligand_efficiency_sa>  (125) 
-0.165584

>  <r_i_glide_ligand_efficiency_ln>  (125) 
-0.363242

>  <r_i_glide_gscore>  (125) 
-1.5987

>  <r_i_glide_lipo>  (125) 
-0.204108

>  <r_i_glide_hbond>  (125) 
0

>  <r_i_glide_metal>  (125) 
-0

>  <r_i_glide_rewards>  (125) 
-0.568975

>  <r_i_glide_evdw>  (125) 
-17.7103

>  <r_i_glide_ecoul>  (125) 
-0.359764

>  <r_i_glide_erotb>  (125) 
0.113864

>  <r_i_glide_esite>  (125) 
0

>  <r_i_glide_emodel>  (125) 
-19.7584

>  <r_i_glide_energy>  (125) 
-18.0701

>  <r_i_glide_einternal>  (125) 
1.04745

>  <r_i_glide_intrahb_reward>  (125) 
-0

>  <i_i_glide_confnum>  (125) 
5

>  <i_i_glide_posenum>  (125) 
18

>  <r_i_glide_eff_state_penalty>  (125) 
0

>  <ligand_id>  (125) 
37

>  <original_smiles>  (125) 
CC12C3=CCC(C4CO4)(OC3)C(C)(C)C1C1OC(=O)CC1C1(O)C(C)(C)C2C1(C)C

>  <smiles>  (125) 
[H]OC12C3([H])C([H])([H])C(=O)OC3([H])C3([H])C(C([H])([H])[H])(C4=C([H])C([H])([H])C(C5([H])OC5([H])[H])(OC4([H])[H])C3(C([H])([H])[H])C([H])([H])[H])C([H])(C1(C([H])([H])[H])C([H])([H])[H])C2(C([H])([H])[H])C([H])([H])[H]

$$$$
38:0:0
     RDKit          3D

 76 83  0  0  1  0  0  0  0  0999 V2000
    5.0355   -2.2485   -2.9525 C   0  0  0  0  0  0  0  0  0  0  0  0
    5.1174   -1.7924   -1.6058 O   0  0  0  0  0  0  0  0  0  0  0  0
    5.4356   -2.7889   -0.6308 C   0  0  0  0  0  0  0  0  0  0  0  0
    4.3125   -3.8345   -0.4820 C   0  0  0  0  0  0  0  0  0  0  0  0
    4.5658   -4.8440    0.5979 N   0  0  2  0  0  0  0  0  0  0  0  0
    5.5866   -5.8552    0.3302 C   0  0  2  0  0  0  0  0  0  0  0  0
    4.4552   -6.8101   -0.0149 C   0  0  0  0  0  0  0  0  0  0  0  0
    3.5304   -5.8916    0.7511 C   0  0  1  0  0  0  0  0  0  0  0  0
    2.9270   -6.0804    2.1845 C   0  0  2  0  0  0  0  0  0  0  0  0
    1.5766   -5.6966    2.0000 O   0  0  0  0  0  0  0  0  0  0  0  0
    3.4356   -5.2715    3.4008 C   0  0  2  0  0  0  0  0  0  0  0  0
    4.3028   -4.0039    3.2961 C   0  0  1  0  0  0  0  0  0  0  0  0
    4.0663   -2.9780    4.4106 C   0  0  0  0  0  0  0  0  0  0  0  0
    5.8191   -4.3252    3.2711 C   0  0  0  0  0  0  0  0  0  0  0  0
    6.3774   -5.7628    2.9935 C   0  0  2  0  0  0  0  0  0  0  0  0
    7.8203   -5.8107    3.5822 C   0  0  0  0  0  0  0  0  0  0  0  0
    6.6519   -6.0152    1.4464 C   0  0  1  0  0  0  0  0  0  0  0  0
    7.3299   -7.2467    1.2429 O   0  0  0  0  0  0  0  0  0  0  0  0
    8.4817   -7.2304    0.4127 C   0  0  0  0  0  0  0  0  0  0  0  0
    5.5735   -6.7644    3.9118 C   0  0  2  0  0  0  0  0  0  0  0  0
    5.8049   -8.2633    3.7555 C   0  0  2  0  0  0  0  0  0  0  0  0
    7.0256   -8.9434    3.3641 O   0  0  0  0  0  0  0  0  0  0  0  0
    6.1452   -9.9606    2.7314 C   0  0  0  0  0  0  0  0  0  0  0  0
    5.0861   -8.8781    2.5889 C   0  0  1  0  0  0  0  0  0  0  0  0
    3.5816   -8.8484    2.7888 C   0  0  2  0  0  0  0  0  0  0  0  0
    3.4500   -9.7181    3.9266 O   0  0  0  0  0  0  0  0  0  0  0  0
    2.5371   -9.4336    1.8289 C   0  0  0  0  0  0  0  0  0  0  0  0
    1.3100   -8.8841    2.5271 C   0  0  0  0  0  0  0  0  0  0  0  0
    0.0217   -9.4067    2.4859 C   0  0  0  0  0  0  0  0  0  0  0  0
   -0.9181   -8.8587    3.3571 C   0  0  0  0  0  0  0  0  0  0  0  0
   -2.1789   -9.3221    3.2651 O   0  0  0  0  0  0  0  0  0  0  0  0
   -0.5875   -7.8728    4.3019 C   0  0  0  0  0  0  0  0  0  0  0  0
    0.7141   -7.3386    4.3465 C   0  0  0  0  0  0  0  0  0  0  0  0
    1.6363   -7.8479    3.4033 C   0  0  0  0  0  0  0  0  0  0  0  0
    3.0621   -7.3904    3.1189 C   0  0  2  0  0  0  0  0  0  0  0  0
    4.0325   -6.5338    3.9942 C   0  0  2  0  0  0  0  0  0  0  0  0
    4.8662   -1.4092   -3.6278 H   0  0  0  0  0  0  0  0  0  0  0  0
    4.1929   -2.9214   -3.0983 H   0  0  0  0  0  0  0  0  0  0  0  0
    5.9534   -2.7536   -3.2553 H   0  0  0  0  0  0  0  0  0  0  0  0
    6.4117   -3.2402   -0.8718 H   0  0  0  0  0  0  0  0  0  0  0  0
    5.5683   -2.2453    0.3118 H   0  0  0  0  0  0  0  0  0  0  0  0
    3.3913   -3.3165   -0.2472 H   0  0  0  0  0  0  0  0  0  0  0  0
    4.1394   -4.3778   -1.4089 H   0  0  0  0  0  0  0  0  0  0  0  0
    6.0551   -5.6010   -0.6140 H   0  0  0  0  0  0  0  0  0  0  0  0
    4.2648   -6.7018   -1.0689 H   0  0  0  0  0  0  0  0  0  0  0  0
    4.4629   -7.8685    0.1937 H   0  0  0  0  0  0  0  0  0  0  0  0
    2.7117   -5.6687    0.0536 H   0  0  0  0  0  0  0  0  0  0  0  0
    1.1078   -6.5210    2.0507 H   0  0  0  0  0  0  0  0  0  0  0  0
    2.5780   -5.0420    4.0372 H   0  0  0  0  0  0  0  0  0  0  0  0
    4.0077   -3.4214    2.4011 H   0  0  0  0  0  0  0  0  0  0  0  0
    4.3386   -3.3601    5.3983 H   0  0  0  0  0  0  0  0  0  0  0  0
    3.0294   -2.6442    4.4363 H   0  0  0  0  0  0  0  0  0  0  0  0
    4.6877   -2.1026    4.2290 H   0  0  0  0  0  0  0  0  0  0  0  0
    6.2465   -3.6669    2.5385 H   0  0  0  0  0  0  0  0  0  0  0  0
    6.1928   -4.0583    4.2648 H   0  0  0  0  0  0  0  0  0  0  0  0
    8.2931   -6.7957    3.4983 H   0  0  0  0  0  0  0  0  0  0  0  0
    7.8282   -5.5537    4.6372 H   0  0  0  0  0  0  0  0  0  0  0  0
    8.5003   -5.1094    3.0876 H   0  0  0  0  0  0  0  0  0  0  0  0
    7.3915   -5.2309    1.2050 H   0  0  0  0  0  0  0  0  0  0  0  0
    8.9240   -8.2301    0.4013 H   0  0  0  0  0  0  0  0  0  0  0  0
    9.2054   -6.4962    0.7521 H   0  0  0  0  0  0  0  0  0  0  0  0
    8.2701   -6.9988   -0.6224 H   0  0  0  0  0  0  0  0  0  0  0  0
    5.9425   -6.5484    4.9242 H   0  0  0  0  0  0  0  0  0  0  0  0
    5.4850   -8.7276    4.6863 H   0  0  0  0  0  0  0  0  0  0  0  0
    6.5422  -10.3100    1.7870 H   0  0  0  0  0  0  0  0  0  0  0  0
    5.9021  -10.7868    3.4131 H   0  0  0  0  0  0  0  0  0  0  0  0
    5.3964   -8.3479    1.7355 H   0  0  0  0  0  0  0  0  0  0  0  0
    3.7416  -10.5753    3.6563 H   0  0  0  0  0  0  0  0  0  0  0  0
    2.5827   -8.9733    0.8540 H   0  0  0  0  0  0  0  0  0  0  0  0
    2.5556  -10.5253    1.7341 H   0  0  0  0  0  0  0  0  0  0  0  0
   -0.2559  -10.2126    1.8125 H   0  0  0  0  0  0  0  0  0  0  0  0
   -2.3014   -9.9868    3.9691 H   0  0  0  0  0  0  0  0  0  0  0  0
   -1.3613   -7.5363    4.9854 H   0  0  0  0  0  0  0  0  0  0  0  0
    0.9738   -6.5903    5.0833 H   0  0  0  0  0  0  0  0  0  0  0  0
    3.7050   -6.6600    5.0160 H   0  0  0  0  0  0  0  0  0  0  0  0
    4.7435   -4.4262    1.5051 H   0  0  0  0  0  0  0  0  0  0  0  0
  1  2  1  0
  1 37  1  0
  1 38  1  0
  1 39  1  0
  2  3  1  0
  3  4  1  0
  3 40  1  0
  3 41  1  0
  4  5  1  0
  4 42  1  0
  4 43  1  0
  5  8  1  0
  5  6  1  0
  5 76  1  1
  6 17  1  0
  6  7  1  0
  6 44  1  6
  7  8  1  0
  7 45  1  0
  7 46  1  0
  8  9  1  0
  8 47  1  6
  9 35  1  0
  9 10  1  6
  9 11  1  0
 10 48  1  0
 11 36  1  0
 11 12  1  0
 11 49  1  1
 12 13  1  0
 12 14  1  0
 12 50  1  6
 13 51  1  0
 13 52  1  0
 13 53  1  0
 14 15  1  0
 14 54  1  0
 14 55  1  0
 15 16  1  1
 15 17  1  0
 15 20  1  0
 16 56  1  0
 16 57  1  0
 16 58  1  0
 17 18  1  0
 17 59  1  6
 18 19  1  0
 19 60  1  0
 19 61  1  0
 19 62  1  0
 20 36  1  0
 20 21  1  0
 20 63  1  1
 21 24  1  0
 21 22  1  0
 21 64  1  1
 22 23  1  0
 23 24  1  0
 23 65  1  0
 23 66  1  0
 24 25  1  0
 24 67  1  6
 25 35  1  0
 25 26  1  1
 25 27  1  0
 26 68  1  0
 27 28  1  0
 27 69  1  0
 27 70  1  0
 28 34  2  0
 28 29  1  0
 29 30  2  0
 29 71  1  0
 30 31  1  0
 30 32  1  0
 31 72  1  0
 32 33  2  0
 32 73  1  0
 33 34  1  0
 33 74  1  0
 35 34  1  1
 35 36  1  0
 36 75  1  1
M  CHG  1   5   1
M  END
>  <i_m_ct_stereo_status>  (126) 
1

>  <s_m_source_file>  (126) 
/var/tmp/pbs.5083856.sched01/tmpbm0m_nsv/50cjcjamfn.sdf

>  <i_m_source_file_index>  (126) 
2

>  <i_lp_mmshare_version>  (126) 
48012

>  <i_f3d_flags>  (126) 
0

>  <s_epik_input>  (126) 
W0NIM11PW0NIMl1bQ0gyXU4oW0NAQEhdMVtDQF0yKFtDQF0zNDUpW09IXSlbQ0BIXShbQ0gyXTEpW0NASF0oT1tDSDNdKVtDQF02KFtDSDNdKVtDQEhdKFtDQEhdNVtDQEhdMltDQEBIXShbQ0gzXSlbQ0gyXTYpW0NASF03W0NAQEhdKFtDSDJdTzcpW0NAXTMoW09IXSlbQ0gyXWM4YzRbY0hdW2NIXWMoW2NIXTgpW09IXQ==

>  <s_epik_cmdline>  (126) 
J2VwaWtfcHl0aG9uJywgJy1waHQnLCAnMi4wJywgJy1waCcsICc3LjAnLCAnLXRuJywgJzgnLCAnLW1hJywgJzIwMCcsICctaW1hZScsICc8aW5maWxlLm1hZT4nLCAnLW9tYWUnLCAnPG91dGZpbGUubWFlPic=

>  <r_lp_tautomer_probability>  (126) 
1

>  <r_epik_Ionization_Penalty>  (126) 
0.000850527

>  <r_epik_Ionization_Penalty_Charging>  (126) 
0.000751048

>  <r_epik_Ionization_Penalty_Neutral>  (126) 
9.94796e-05

>  <r_epik_State_Penalty>  (126) 
0.000480234

>  <r_epik_Charging_Adjusted_Penalty>  (126) 
0.00123128

>  <i_epik_Tot_Q>  (126) 
1

>  <i_epik_Tot_abs_Q>  (126) 
1

>  <s_lp_Force_Field>  (126) 
OPLS3e

>  <r_lp_Energy>  (126) 
171.913

>  <b_lp_Chiralities_Consistent>  (126) 
1

>  <s_lp_Variant>  (126) 
38:0-1

>  <s_i_glide_gridfile>  (126) 
pfpi4k_grid

>  <i_i_glide_lignum>  (126) 
2

>  <i_i_glide_rotatable_bonds>  (126) 
7

>  <r_i_docking_score>  (126) 
-2.44148

>  <r_i_glide_ligand_efficiency>  (126) 
-0.0678188

>  <r_i_glide_ligand_efficiency_sa>  (126) 
-0.223933

>  <r_i_glide_ligand_efficiency_ln>  (126) 
-0.532664

>  <r_i_glide_gscore>  (126) 
-2.44148

>  <r_i_glide_lipo>  (126) 
-0.371473

>  <r_i_glide_hbond>  (126) 
-0.186305

>  <r_i_glide_metal>  (126) 
-0

>  <r_i_glide_rewards>  (126) 
-0.00933409

>  <r_i_glide_evdw>  (126) 
-16.1144

>  <r_i_glide_ecoul>  (126) 
-8.21867

>  <r_i_glide_erotb>  (126) 
0.164156

>  <r_i_glide_esite>  (126) 
0

>  <r_i_glide_emodel>  (126) 
-24.9579

>  <r_i_glide_energy>  (126) 
-24.3331

>  <r_i_glide_einternal>  (126) 
5.63587

>  <r_i_glide_intrahb_reward>  (126) 
-0

>  <i_i_glide_confnum>  (126) 
1

>  <i_i_glide_posenum>  (126) 
35

>  <r_i_glide_eff_state_penalty>  (126) 
0

>  <ligand_id>  (126) 
38

>  <original_smiles>  (126) 
COCCN1C2CC1C1(O)C3C(C)CC(C)(C2OC)C2C4OCC4C4(O)Cc5cc(O)ccc5C41C23

>  <smiles>  (126) 
[H]Oc1c([H])c([H])c2c(c1[H])C([H])([H])C1(O[H])C3([H])C([H])([H])OC3([H])C3([H])C4([H])C5([H])C([H])(C([H])([H])[H])C([H])([H])C3(C([H])([H])[H])C([H])(OC([H])([H])[H])C3([H])C([H])([H])C([H])(C5(O[H])C241)[N+]3([H])C([H])([H])C([H])([H])OC([H])([H])[H]

$$$$
38:0:1
     RDKit          3D

 76 83  0  0  1  0  0  0  0  0999 V2000
    5.1425   -2.2093   -2.7511 C   0  0  0  0  0  0  0  0  0  0  0  0
    4.9435   -1.7132   -1.4332 O   0  0  0  0  0  0  0  0  0  0  0  0
    5.1860   -2.6304   -0.3669 C   0  0  0  0  0  0  0  0  0  0  0  0
    4.2989   -3.8945   -0.4622 C   0  0  0  0  0  0  0  0  0  0  0  0
    4.5557   -4.8929    0.6226 N   0  0  2  0  0  0  0  0  0  0  0  0
    5.5968   -5.8832    0.3527 C   0  0  2  0  0  0  0  0  0  0  0  0
    4.4850   -6.8601   -0.0215 C   0  0  0  0  0  0  0  0  0  0  0  0
    3.5461   -5.9621    0.7485 C   0  0  1  0  0  0  0  0  0  0  0  0
    2.9294   -6.1559    2.1910 C   0  0  2  0  0  0  0  0  0  0  0  0
    1.5748   -5.7836    1.9870 O   0  0  0  0  0  0  0  0  0  0  0  0
    3.4269   -5.3299    3.4177 C   0  0  2  0  0  0  0  0  0  0  0  0
    4.2915   -4.0634    3.3213 C   0  0  1  0  0  0  0  0  0  0  0  0
    4.0334   -3.0262    4.4252 C   0  0  0  0  0  0  0  0  0  0  0  0
    5.8213   -4.3600    3.2918 C   0  0  0  0  0  0  0  0  0  0  0  0
    6.3830   -5.7936    3.0263 C   0  0  2  0  0  0  0  0  0  0  0  0
    7.8201   -5.8274    3.6307 C   0  0  0  0  0  0  0  0  0  0  0  0
    6.6623   -6.0465    1.4767 C   0  0  1  0  0  0  0  0  0  0  0  0
    7.3545   -7.2752    1.2790 O   0  0  0  0  0  0  0  0  0  0  0  0
    8.4799   -7.2531    0.4134 C   0  0  0  0  0  0  0  0  0  0  0  0
    5.5762   -6.7947    3.9385 C   0  0  2  0  0  0  0  0  0  0  0  0
    5.8272   -8.2929    3.7951 C   0  0  2  0  0  0  0  0  0  0  0  0
    7.0495   -8.9692    3.4138 O   0  0  0  0  0  0  0  0  0  0  0  0
    6.1964   -9.9917    2.7845 C   0  0  0  0  0  0  0  0  0  0  0  0
    5.1199   -8.9221    2.6261 C   0  0  1  0  0  0  0  0  0  0  0  0
    3.6125   -8.9158    2.8190 C   0  0  2  0  0  0  0  0  0  0  0  0
    3.5078   -9.7790    3.9617 O   0  0  0  0  0  0  0  0  0  0  0  0
    2.5816   -9.5097    1.8464 C   0  0  0  0  0  0  0  0  0  0  0  0
    1.3435   -8.9884    2.5453 C   0  0  0  0  0  0  0  0  0  0  0  0
    0.0506   -9.5224    2.4899 C   0  0  0  0  0  0  0  0  0  0  0  0
   -0.9078   -8.9772    3.3521 C   0  0  0  0  0  0  0  0  0  0  0  0
   -2.1736   -9.4447    3.2610 O   0  0  0  0  0  0  0  0  0  0  0  0
   -0.5927   -7.9890    4.3063 C   0  0  0  0  0  0  0  0  0  0  0  0
    0.7108   -7.4477    4.3533 C   0  0  0  0  0  0  0  0  0  0  0  0
    1.6463   -7.9365    3.4245 C   0  0  0  0  0  0  0  0  0  0  0  0
    3.0702   -7.4643    3.1396 C   0  0  2  0  0  0  0  0  0  0  0  0
    4.0264   -6.5916    4.0118 C   0  0  2  0  0  0  0  0  0  0  0  0
    5.0235   -1.4146   -3.4908 H   0  0  0  0  0  0  0  0  0  0  0  0
    4.3826   -2.9422   -3.0126 H   0  0  0  0  0  0  0  0  0  0  0  0
    6.1317   -2.6548   -2.8658 H   0  0  0  0  0  0  0  0  0  0  0  0
    6.2507   -2.8701   -0.3232 H   0  0  0  0  0  0  0  0  0  0  0  0
    4.9563   -2.0799    0.5505 H   0  0  0  0  0  0  0  0  0  0  0  0
    3.2614   -3.5653   -0.4279 H   0  0  0  0  0  0  0  0  0  0  0  0
    4.4205   -4.4270   -1.4031 H   0  0  0  0  0  0  0  0  0  0  0  0
    6.0976   -5.6133   -0.5707 H   0  0  0  0  0  0  0  0  0  0  0  0
    4.3059   -6.7745   -1.0978 H   0  0  0  0  0  0  0  0  0  0  0  0
    4.5098   -7.9125    0.2017 H   0  0  0  0  0  0  0  0  0  0  0  0
    2.7320   -5.7465    0.0548 H   0  0  0  0  0  0  0  0  0  0  0  0
    1.1234   -6.5985    1.8119 H   0  0  0  0  0  0  0  0  0  0  0  0
    2.5540   -5.1038    4.0366 H   0  0  0  0  0  0  0  0  0  0  0  0
    3.9872   -3.4947    2.4374 H   0  0  0  0  0  0  0  0  0  0  0  0
    4.2980   -3.3880    5.4211 H   0  0  0  0  0  0  0  0  0  0  0  0
    2.9925   -2.7055    4.4310 H   0  0  0  0  0  0  0  0  0  0  0  0
    4.6392   -2.1382    4.2340 H   0  0  0  0  0  0  0  0  0  0  0  0
    6.2400   -3.6840    2.5624 H   0  0  0  0  0  0  0  0  0  0  0  0
    6.2076   -4.0716    4.2723 H   0  0  0  0  0  0  0  0  0  0  0  0
    8.2998   -6.8025    3.5659 H   0  0  0  0  0  0  0  0  0  0  0  0
    7.8128   -5.5650    4.6822 H   0  0  0  0  0  0  0  0  0  0  0  0
    8.4935   -5.1125    3.1500 H   0  0  0  0  0  0  0  0  0  0  0  0
    7.3968   -5.2663    1.2420 H   0  0  0  0  0  0  0  0  0  0  0  0
    8.9603   -8.2362    0.4210 H   0  0  0  0  0  0  0  0  0  0  0  0
    9.2025   -6.4981    0.7072 H   0  0  0  0  0  0  0  0  0  0  0  0
    8.2236   -7.0390   -0.6132 H   0  0  0  0  0  0  0  0  0  0  0  0
    5.9215   -6.5638    4.9507 H   0  0  0  0  0  0  0  0  0  0  0  0
    5.5152   -8.7555    4.7354 H   0  0  0  0  0  0  0  0  0  0  0  0
    6.6054  -10.3457    1.8396 H   0  0  0  0  0  0  0  0  0  0  0  0
    5.9451  -10.8233    3.4535 H   0  0  0  0  0  0  0  0  0  0  0  0
    5.4221   -8.3805    1.7717 H   0  0  0  0  0  0  0  0  0  0  0  0
    2.5908   -9.9495    4.1380 H   0  0  0  0  0  0  0  0  0  0  0  0
    2.6345   -9.0461    0.8673 H   0  0  0  0  0  0  0  0  0  0  0  0
    2.6198  -10.5982    1.7468 H   0  0  0  0  0  0  0  0  0  0  0  0
   -0.2175  -10.3105    1.8024 H   0  0  0  0  0  0  0  0  0  0  0  0
   -2.3058  -10.0695    3.9870 H   0  0  0  0  0  0  0  0  0  0  0  0
   -1.3675   -7.6506    4.9746 H   0  0  0  0  0  0  0  0  0  0  0  0
    0.9501   -6.6865    5.0829 H   0  0  0  0  0  0  0  0  0  0  0  0
    3.7015   -6.7171    5.0424 H   0  0  0  0  0  0  0  0  0  0  0  0
    4.7168   -4.4569    1.5158 H   0  0  0  0  0  0  0  0  0  0  0  0
  1  2  1  0
  1 37  1  0
  1 38  1  0
  1 39  1  0
  2  3  1  0
  3  4  1  0
  3 40  1  0
  3 41  1  0
  4  5  1  0
  4 42  1  0
  4 43  1  0
  5  8  1  0
  5  6  1  0
  5 76  1  1
  6 17  1  0
  6  7  1  0
  6 44  1  6
  7  8  1  0
  7 45  1  0
  7 46  1  0
  8  9  1  0
  8 47  1  6
  9 35  1  0
  9 10  1  6
  9 11  1  0
 10 48  1  0
 11 36  1  0
 11 12  1  0
 11 49  1  1
 12 13  1  0
 12 14  1  0
 12 50  1  6
 13 51  1  0
 13 52  1  0
 13 53  1  0
 14 15  1  0
 14 54  1  0
 14 55  1  0
 15 16  1  1
 15 17  1  0
 15 20  1  0
 16 56  1  0
 16 57  1  0
 16 58  1  0
 17 18  1  0
 17 59  1  6
 18 19  1  0
 19 60  1  0
 19 61  1  0
 19 62  1  0
 20 36  1  0
 20 21  1  0
 20 63  1  1
 21 24  1  0
 21 22  1  0
 21 64  1  1
 22 23  1  0
 23 24  1  0
 23 65  1  0
 23 66  1  0
 24 25  1  0
 24 67  1  6
 25 35  1  0
 25 26  1  1
 25 27  1  0
 26 68  1  0
 27 28  1  0
 27 69  1  0
 27 70  1  0
 28 34  2  0
 28 29  1  0
 29 30  2  0
 29 71  1  0
 30 31  1  0
 30 32  1  0
 31 72  1  0
 32 33  2  0
 32 73  1  0
 33 34  1  0
 33 74  1  0
 35 34  1  1
 35 36  1  0
 36 75  1  1
M  CHG  1   5   1
M  END
>  <i_m_ct_stereo_status>  (127) 
1

>  <s_m_source_file>  (127) 
/var/tmp/pbs.5083856.sched01/tmpbm0m_nsv/50cjcjamfn.sdf

>  <i_m_source_file_index>  (127) 
2

>  <i_lp_mmshare_version>  (127) 
48012

>  <i_f3d_flags>  (127) 
0

>  <s_epik_input>  (127) 
W0NIM11PW0NIMl1bQ0gyXU4oW0NAQEhdMVtDQF0yKFtDQF0zNDUpW09IXSlbQ0BIXShbQ0gyXTEpW0NASF0oT1tDSDNdKVtDQF02KFtDSDNdKVtDQEhdKFtDQEhdNVtDQEhdMltDQEBIXShbQ0gzXSlbQ0gyXTYpW0NASF03W0NAQEhdKFtDSDJdTzcpW0NAXTMoW09IXSlbQ0gyXWM4YzRbY0hdW2NIXWMoW2NIXTgpW09IXQ==

>  <s_epik_cmdline>  (127) 
J2VwaWtfcHl0aG9uJywgJy1waHQnLCAnMi4wJywgJy1waCcsICc3LjAnLCAnLXRuJywgJzgnLCAnLW1hJywgJzIwMCcsICctaW1hZScsICc8aW5maWxlLm1hZT4nLCAnLW9tYWUnLCAnPG91dGZpbGUubWFlPic=

>  <r_lp_tautomer_probability>  (127) 
1

>  <r_epik_Ionization_Penalty>  (127) 
0.000850527

>  <r_epik_Ionization_Penalty_Charging>  (127) 
0.000751048

>  <r_epik_Ionization_Penalty_Neutral>  (127) 
9.94796e-05

>  <r_epik_State_Penalty>  (127) 
0.000480234

>  <r_epik_Charging_Adjusted_Penalty>  (127) 
0.00123128

>  <i_epik_Tot_Q>  (127) 
1

>  <i_epik_Tot_abs_Q>  (127) 
1

>  <s_lp_Force_Field>  (127) 
OPLS3e

>  <r_lp_Energy>  (127) 
171.913

>  <b_lp_Chiralities_Consistent>  (127) 
1

>  <s_lp_Variant>  (127) 
38:0-1

>  <s_i_glide_gridfile>  (127) 
pfpi4k_grid

>  <i_i_glide_lignum>  (127) 
2

>  <i_i_glide_rotatable_bonds>  (127) 
7

>  <r_i_docking_score>  (127) 
-2.42605

>  <r_i_glide_ligand_efficiency>  (127) 
-0.0673903

>  <r_i_glide_ligand_efficiency_sa>  (127) 
-0.222518

>  <r_i_glide_ligand_efficiency_ln>  (127) 
-0.529299

>  <r_i_glide_gscore>  (127) 
-2.42605

>  <r_i_glide_lipo>  (127) 
-0.4159

>  <r_i_glide_hbond>  (127) 
-0.158941

>  <r_i_glide_metal>  (127) 
-0

>  <r_i_glide_rewards>  (127) 
-0.00933409

>  <r_i_glide_evdw>  (127) 
-14.6142

>  <r_i_glide_ecoul>  (127) 
-8.50214

>  <r_i_glide_erotb>  (127) 
0.164156

>  <r_i_glide_esite>  (127) 
0

>  <r_i_glide_emodel>  (127) 
-22.961

>  <r_i_glide_energy>  (127) 
-23.1163

>  <r_i_glide_einternal>  (127) 
6.29244

>  <r_i_glide_intrahb_reward>  (127) 
-0

>  <i_i_glide_confnum>  (127) 
1

>  <i_i_glide_posenum>  (127) 
32

>  <r_i_glide_eff_state_penalty>  (127) 
0

>  <ligand_id>  (127) 
38

>  <original_smiles>  (127) 
COCCN1C2CC1C1(O)C3C(C)CC(C)(C2OC)C2C4OCC4C4(O)Cc5cc(O)ccc5C41C23

>  <smiles>  (127) 
[H]Oc1c([H])c([H])c2c(c1[H])C([H])([H])C1(O[H])C3([H])C([H])([H])OC3([H])C3([H])C4([H])C5([H])C([H])(C([H])([H])[H])C([H])([H])C3(C([H])([H])[H])C([H])(OC([H])([H])[H])C3([H])C([H])([H])C([H])(C5(O[H])C241)[N+]3([H])C([H])([H])C([H])([H])OC([H])([H])[H]

$$$$
38:0:2
     RDKit          3D

 76 83  0  0  1  0  0  0  0  0999 V2000
   -2.0142   -9.4414    2.1551 C   0  0  0  0  0  0  0  0  0  0  0  0
   -1.7941   -8.8503    3.4269 O   0  0  0  0  0  0  0  0  0  0  0  0
   -0.4480   -8.5015    3.7023 C   0  0  0  0  0  0  0  0  0  0  0  0
   -0.0896   -7.2542    2.8684 C   0  0  0  0  0  0  0  0  0  0  0  0
    1.2581   -6.7110    3.1170 N   0  0  2  0  0  0  0  0  0  0  0  0
    1.4916   -6.0446    4.3740 C   0  0  2  0  0  0  0  0  0  0  0  0
    1.2810   -4.7273    3.6276 C   0  0  0  0  0  0  0  0  0  0  0  0
    1.5864   -5.5023    2.3648 C   0  0  1  0  0  0  0  0  0  0  0  0
    2.8639   -5.5026    1.4481 C   0  0  2  0  0  0  0  0  0  0  0  0
    2.2957   -5.4052    0.1477 O   0  0  0  0  0  0  0  0  0  0  0  0
    3.8155   -6.7379    1.4061 C   0  0  2  0  0  0  0  0  0  0  0  0
    3.4402   -8.1344    1.9378 C   0  0  1  0  0  0  0  0  0  0  0  0
    4.0926   -9.2743    1.1401 C   0  0  0  0  0  0  0  0  0  0  0  0
    3.7824   -8.3479    3.4448 C   0  0  0  0  0  0  0  0  0  0  0  0
    4.0704   -7.1223    4.3717 C   0  0  2  0  0  0  0  0  0  0  0  0
    4.8733   -7.7227    5.5668 C   0  0  0  0  0  0  0  0  0  0  0  0
    2.7630   -6.5405    5.1102 C   0  0  1  0  0  0  0  0  0  0  0  0
    3.1215   -5.5953    6.1130 O   0  0  0  0  0  0  0  0  0  0  0  0
    2.1793   -5.3451    7.1484 C   0  0  0  0  0  0  0  0  0  0  0  0
    5.1265   -6.2063    3.6401 C   0  0  2  0  0  0  0  0  0  0  0  0
    5.5059   -4.8843    4.2800 C   0  0  2  0  0  0  0  0  0  0  0  0
    5.5884   -4.5420    5.6766 O   0  0  0  0  0  0  0  0  0  0  0  0
    5.2014   -3.1826    5.2912 C   0  0  0  0  0  0  0  0  0  0  0  0
    4.5254   -3.7638    4.0511 C   0  0  1  0  0  0  0  0  0  0  0  0
    4.4497   -3.3547    2.5820 C   0  0  2  0  0  0  0  0  0  0  0  0
    5.7685   -2.8229    2.3801 O   0  0  0  0  0  0  0  0  0  0  0  0
    3.5743   -2.2247    2.0008 C   0  0  0  0  0  0  0  0  0  0  0  0
    3.8342   -2.4990    0.5329 C   0  0  0  0  0  0  0  0  0  0  0  0
    3.7574   -1.5923   -0.5315 C   0  0  0  0  0  0  0  0  0  0  0  0
    4.2416   -1.9758   -1.7945 C   0  0  0  0  0  0  0  0  0  0  0  0
    4.1269   -1.1477   -2.8647 O   0  0  0  0  0  0  0  0  0  0  0  0
    4.8660   -3.2544   -1.9610 C   0  0  0  0  0  0  0  0  0  0  0  0
    4.9217   -4.1717   -0.8830 C   0  0  0  0  0  0  0  0  0  0  0  0
    4.3586   -3.7921    0.3444 C   0  0  0  0  0  0  0  0  0  0  0  0
    4.1922   -4.5973    1.6414 C   0  0  2  0  0  0  0  0  0  0  0  0
    4.8739   -5.9229    2.1219 C   0  0  2  0  0  0  0  0  0  0  0  0
   -3.0116   -9.8613    2.1160 H   0  0  0  0  0  0  0  0  0  0  0  0
   -1.3137  -10.2439    1.9169 H   0  0  0  0  0  0  0  0  0  0  0  0
   -1.9836   -8.6813    1.3793 H   0  0  0  0  0  0  0  0  0  0  0  0
   -0.4236   -8.2688    4.7738 H   0  0  0  0  0  0  0  0  0  0  0  0
    0.2528   -9.3333    3.5426 H   0  0  0  0  0  0  0  0  0  0  0  0
   -0.1061   -7.5019    1.8076 H   0  0  0  0  0  0  0  0  0  0  0  0
   -0.8869   -6.5186    3.0284 H   0  0  0  0  0  0  0  0  0  0  0  0
    0.6049   -6.1505    5.0088 H   0  0  0  0  0  0  0  0  0  0  0  0
    0.2233   -4.4618    3.6609 H   0  0  0  0  0  0  0  0  0  0  0  0
    1.8371   -3.8284    3.8422 H   0  0  0  0  0  0  0  0  0  0  0  0
    0.7347   -5.3555    1.7070 H   0  0  0  0  0  0  0  0  0  0  0  0
    2.9867   -5.5262   -0.4836 H   0  0  0  0  0  0  0  0  0  0  0  0
    4.1793   -6.8316    0.3794 H   0  0  0  0  0  0  0  0  0  0  0  0
    2.3840   -8.3271    1.7425 H   0  0  0  0  0  0  0  0  0  0  0  0
    5.1790   -9.2782    1.2346 H   0  0  0  0  0  0  0  0  0  0  0  0
    3.8306   -9.2471    0.0814 H   0  0  0  0  0  0  0  0  0  0  0  0
    3.7270  -10.2247    1.5403 H   0  0  0  0  0  0  0  0  0  0  0  0
    2.9738   -8.9191    3.8941 H   0  0  0  0  0  0  0  0  0  0  0  0
    4.6532   -9.0159    3.4890 H   0  0  0  0  0  0  0  0  0  0  0  0
    5.1936   -6.9590    6.2813 H   0  0  0  0  0  0  0  0  0  0  0  0
    5.7849   -8.2209    5.2288 H   0  0  0  0  0  0  0  0  0  0  0  0
    4.2987   -8.4738    6.1122 H   0  0  0  0  0  0  0  0  0  0  0  0
    2.4095   -7.4018    5.6788 H   0  0  0  0  0  0  0  0  0  0  0  0
    2.6443   -4.6977    7.8920 H   0  0  0  0  0  0  0  0  0  0  0  0
    1.8789   -6.2624    7.6551 H   0  0  0  0  0  0  0  0  0  0  0  0
    1.2911   -4.8245    6.7880 H   0  0  0  0  0  0  0  0  0  0  0  0
    6.0529   -6.7867    3.6621 H   0  0  0  0  0  0  0  0  0  0  0  0
    6.4826   -4.6577    3.8585 H   0  0  0  0  0  0  0  0  0  0  0  0
    4.4986   -2.7305    5.9946 H   0  0  0  0  0  0  0  0  0  0  0  0
    6.0537   -2.5238    5.1089 H   0  0  0  0  0  0  0  0  0  0  0  0
    3.6032   -4.1092    4.4303 H   0  0  0  0  0  0  0  0  0  0  0  0
    6.3962   -3.4842    2.6135 H   0  0  0  0  0  0  0  0  0  0  0  0
    2.5187   -2.3850    2.1987 H   0  0  0  0  0  0  0  0  0  0  0  0
    3.8624   -1.2206    2.3194 H   0  0  0  0  0  0  0  0  0  0  0  0
    3.3025   -0.6281   -0.3591 H   0  0  0  0  0  0  0  0  0  0  0  0
    3.5244   -0.4248   -2.7101 H   0  0  0  0  0  0  0  0  0  0  0  0
    5.2542   -3.5232   -2.9229 H   0  0  0  0  0  0  0  0  0  0  0  0
    5.3879   -5.1411   -1.0157 H   0  0  0  0  0  0  0  0  0  0  0  0
    5.8175   -5.9856    1.5796 H   0  0  0  0  0  0  0  0  0  0  0  0
    1.9859   -7.4115    2.9358 H   0  0  0  0  0  0  0  0  0  0  0  0
  1  2  1  0
  1 37  1  0
  1 38  1  0
  1 39  1  0
  2  3  1  0
  3  4  1  0
  3 40  1  0
  3 41  1  0
  4  5  1  0
  4 42  1  0
  4 43  1  0
  5  8  1  0
  5  6  1  0
  5 76  1  6
  6 17  1  0
  6  7  1  0
  6 44  1  1
  7  8  1  0
  7 45  1  0
  7 46  1  0
  8  9  1  0
  8 47  1  6
  9 35  1  0
  9 10  1  6
  9 11  1  0
 10 48  1  0
 11 36  1  0
 11 12  1  0
 11 49  1  6
 12 13  1  0
 12 14  1  0
 12 50  1  1
 13 51  1  0
 13 52  1  0
 13 53  1  0
 14 15  1  0
 14 54  1  0
 14 55  1  0
 15 16  1  1
 15 17  1  0
 15 20  1  0
 16 56  1  0
 16 57  1  0
 16 58  1  0
 17 18  1  0
 17 59  1  1
 18 19  1  0
 19 60  1  0
 19 61  1  0
 19 62  1  0
 20 36  1  0
 20 21  1  0
 20 63  1  6
 21 24  1  0
 21 22  1  0
 21 64  1  6
 22 23  1  0
 23 24  1  0
 23 65  1  0
 23 66  1  0
 24 25  1  0
 24 67  1  1
 25 35  1  0
 25 26  1  6
 25 27  1  0
 26 68  1  0
 27 28  1  0
 27 69  1  0
 27 70  1  0
 28 34  2  0
 28 29  1  0
 29 30  2  0
 29 71  1  0
 30 31  1  0
 30 32  1  0
 31 72  1  0
 32 33  2  0
 32 73  1  0
 33 34  1  0
 33 74  1  0
 35 34  1  6
 35 36  1  0
 36 75  1  6
M  CHG  1   5   1
M  END
>  <i_m_ct_stereo_status>  (128) 
1

>  <s_m_source_file>  (128) 
/var/tmp/pbs.5083856.sched01/tmpbm0m_nsv/50cjcjamfn.sdf

>  <i_m_source_file_index>  (128) 
2

>  <i_lp_mmshare_version>  (128) 
48012

>  <i_f3d_flags>  (128) 
0

>  <s_epik_input>  (128) 
W0NIM11PW0NIMl1bQ0gyXU4oW0NAQEhdMVtDQF0yKFtDQF0zNDUpW09IXSlbQ0BIXShbQ0gyXTEpW0NASF0oT1tDSDNdKVtDQF02KFtDSDNdKVtDQEhdKFtDQEhdNVtDQEhdMltDQEBIXShbQ0gzXSlbQ0gyXTYpW0NASF03W0NAQEhdKFtDSDJdTzcpW0NAXTMoW09IXSlbQ0gyXWM4YzRbY0hdW2NIXWMoW2NIXTgpW09IXQ==

>  <s_epik_cmdline>  (128) 
J2VwaWtfcHl0aG9uJywgJy1waHQnLCAnMi4wJywgJy1waCcsICc3LjAnLCAnLXRuJywgJzgnLCAnLW1hJywgJzIwMCcsICctaW1hZScsICc8aW5maWxlLm1hZT4nLCAnLW9tYWUnLCAnPG91dGZpbGUubWFlPic=

>  <r_lp_tautomer_probability>  (128) 
1

>  <r_epik_Ionization_Penalty>  (128) 
0.000850527

>  <r_epik_Ionization_Penalty_Charging>  (128) 
0.000751048

>  <r_epik_Ionization_Penalty_Neutral>  (128) 
9.94796e-05

>  <r_epik_State_Penalty>  (128) 
0.000480234

>  <r_epik_Charging_Adjusted_Penalty>  (128) 
0.00123128

>  <i_epik_Tot_Q>  (128) 
1

>  <i_epik_Tot_abs_Q>  (128) 
1

>  <s_lp_Force_Field>  (128) 
OPLS3e

>  <r_lp_Energy>  (128) 
171.913

>  <b_lp_Chiralities_Consistent>  (128) 
1

>  <s_lp_Variant>  (128) 
38:0-1

>  <s_i_glide_gridfile>  (128) 
pfpi4k_grid

>  <i_i_glide_lignum>  (128) 
2

>  <i_i_glide_rotatable_bonds>  (128) 
7

>  <r_i_docking_score>  (128) 
-2.3797

>  <r_i_glide_ligand_efficiency>  (128) 
-0.0661029

>  <r_i_glide_ligand_efficiency_sa>  (128) 
-0.218267

>  <r_i_glide_ligand_efficiency_ln>  (128) 
-0.519187

>  <r_i_glide_gscore>  (128) 
-2.3797

>  <r_i_glide_lipo>  (128) 
-0.455307

>  <r_i_glide_hbond>  (128) 
-0.124704

>  <r_i_glide_metal>  (128) 
-0

>  <r_i_glide_rewards>  (128) 
-0.00933409

>  <r_i_glide_evdw>  (128) 
-25.319

>  <r_i_glide_ecoul>  (128) 
-4.43714

>  <r_i_glide_erotb>  (128) 
0.164156

>  <r_i_glide_esite>  (128) 
-0.0229905

>  <r_i_glide_emodel>  (128) 
-32.1371

>  <r_i_glide_energy>  (128) 
-29.7562

>  <r_i_glide_einternal>  (128) 
2.47292

>  <r_i_glide_intrahb_reward>  (128) 
-0

>  <i_i_glide_confnum>  (128) 
1

>  <i_i_glide_posenum>  (128) 
14

>  <r_i_glide_eff_state_penalty>  (128) 
0

>  <ligand_id>  (128) 
38

>  <original_smiles>  (128) 
COCCN1C2CC1C1(O)C3C(C)CC(C)(C2OC)C2C4OCC4C4(O)Cc5cc(O)ccc5C41C23

>  <smiles>  (128) 
[H]Oc1c([H])c([H])c2c(c1[H])C([H])([H])C1(O[H])C3([H])C([H])([H])OC3([H])C3([H])C4([H])C5([H])C([H])(C([H])([H])[H])C([H])([H])C3(C([H])([H])[H])C([H])(OC([H])([H])[H])C3([H])C([H])([H])C([H])(C5(O[H])C241)[N+]3([H])C([H])([H])C([H])([H])OC([H])([H])[H]

$$$$
38:1:0
     RDKit          3D

 76 83  0  0  1  0  0  0  0  0999 V2000
    5.2028   -0.9109    5.1346 C   0  0  0  0  0  0  0  0  0  0  0  0
    5.9660   -1.5400    6.1606 O   0  0  0  0  0  0  0  0  0  0  0  0
    5.2798   -2.5255    6.9276 C   0  0  0  0  0  0  0  0  0  0  0  0
    5.0776   -3.8393    6.1487 C   0  0  0  0  0  0  0  0  0  0  0  0
    4.3266   -4.8761    6.9192 N   0  0  2  0  0  0  0  0  0  0  0  0
    5.0792   -5.6074    7.9455 C   0  0  2  0  0  0  0  0  0  0  0  0
    5.1059   -6.7714    6.9610 C   0  0  0  0  0  0  0  0  0  0  0  0
    3.9643   -6.1049    6.1654 C   0  0  1  0  0  0  0  0  0  0  0  0
    2.3677   -6.3492    6.0120 C   0  0  2  0  0  0  0  0  0  0  0  0
    2.1304   -5.9899    4.6687 O   0  0  0  0  0  0  0  0  0  0  0  0
    1.3634   -5.5367    6.9056 C   0  0  2  0  0  0  0  0  0  0  0  0
    1.6417   -4.2457    7.7046 C   0  0  1  0  0  0  0  0  0  0  0  0
    0.4069   -3.3331    7.7907 C   0  0  0  0  0  0  0  0  0  0  0  0
    2.0970   -4.5377    9.1748 C   0  0  0  0  0  0  0  0  0  0  0  0
    2.8401   -5.8677    9.5623 C   0  0  2  0  0  0  0  0  0  0  0  0
    2.5240   -6.1142   11.0549 C   0  0  0  0  0  0  0  0  0  0  0  0
    4.4211   -5.7036    9.3794 C   0  0  1  0  0  0  0  0  0  0  0  0
    5.0058   -6.8492    9.9941 O   0  0  0  0  0  0  0  0  0  0  0  0
    6.3660   -6.7476   10.4042 C   0  0  0  0  0  0  0  0  0  0  0  0
    2.2942   -7.0674    8.7514 C   0  0  1  0  0  0  0  0  0  0  0  0
    2.2389   -8.5253    9.1712 C   0  0  2  0  0  0  0  0  0  0  0  0
    3.1855   -9.2922    9.9520 O   0  0  0  0  0  0  0  0  0  0  0  0
    2.8904  -10.4110    9.0214 C   0  0  0  0  0  0  0  0  0  0  0  0
    2.6612   -9.3630    7.9519 C   0  0  1  0  0  0  0  0  0  0  0  0
    1.7273   -9.1788    6.7632 C   0  0  2  0  0  0  0  0  0  0  0  0
    0.5543   -9.8482    7.2499 O   0  0  0  0  0  0  0  0  0  0  0  0
    1.9892   -9.8225    5.3862 C   0  0  0  0  0  0  0  0  0  0  0  0
    0.9328   -9.1017    4.5699 C   0  0  0  0  0  0  0  0  0  0  0  0
    0.3150   -9.5339    3.3823 C   0  0  0  0  0  0  0  0  0  0  0  0
   -0.8040   -8.8207    2.9022 C   0  0  0  0  0  0  0  0  0  0  0  0
   -1.3919   -9.0891    1.7042 O   0  0  0  0  0  0  0  0  0  0  0  0
   -1.3397   -7.7399    3.6681 C   0  0  0  0  0  0  0  0  0  0  0  0
   -0.6933   -7.2945    4.8360 C   0  0  0  0  0  0  0  0  0  0  0  0
    0.4756   -7.9532    5.2559 C   0  0  0  0  0  0  0  0  0  0  0  0
    1.4184   -7.6362    6.4312 C   0  0  2  0  0  0  0  0  0  0  0  0
    1.2021   -6.7976    7.7111 C   0  0  2  0  0  0  0  0  0  0  0  0
    5.7913   -0.1474    4.6245 H   0  0  0  0  0  0  0  0  0  0  0  0
    4.3053   -0.4339    5.5296 H   0  0  0  0  0  0  0  0  0  0  0  0
    4.9095   -1.6239    4.3684 H   0  0  0  0  0  0  0  0  0  0  0  0
    5.9091   -2.7006    7.8033 H   0  0  0  0  0  0  0  0  0  0  0  0
    4.3424   -2.1028    7.3013 H   0  0  0  0  0  0  0  0  0  0  0  0
    4.4887   -3.6413    5.2677 H   0  0  0  0  0  0  0  0  0  0  0  0
    6.0356   -4.2082    5.7835 H   0  0  0  0  0  0  0  0  0  0  0  0
    6.0862   -5.1996    8.0052 H   0  0  0  0  0  0  0  0  0  0  0  0
    6.0548   -6.7741    6.3992 H   0  0  0  0  0  0  0  0  0  0  0  0
    4.9718   -7.7184    7.4454 H   0  0  0  0  0  0  0  0  0  0  0  0
    4.3835   -6.0290    5.1566 H   0  0  0  0  0  0  0  0  0  0  0  0
    2.3083   -6.7662    4.1567 H   0  0  0  0  0  0  0  0  0  0  0  0
    0.4568   -5.3858    6.3190 H   0  0  0  0  0  0  0  0  0  0  0  0
    2.3408   -3.6011    7.1527 H   0  0  0  0  0  0  0  0  0  0  0  0
   -0.4219   -3.7989    8.3259 H   0  0  0  0  0  0  0  0  0  0  0  0
    0.0520   -3.0335    6.8038 H   0  0  0  0  0  0  0  0  0  0  0  0
    0.6670   -2.4230    8.3266 H   0  0  0  0  0  0  0  0  0  0  0  0
    2.7212   -3.7148    9.4828 H   0  0  0  0  0  0  0  0  0  0  0  0
    1.1992   -4.4706    9.8171 H   0  0  0  0  0  0  0  0  0  0  0  0
    2.9869   -7.0215   11.4457 H   0  0  0  0  0  0  0  0  0  0  0  0
    1.4530   -6.2344   11.1966 H   0  0  0  0  0  0  0  0  0  0  0  0
    2.8429   -5.2784   11.6802 H   0  0  0  0  0  0  0  0  0  0  0  0
    4.7181   -4.8368    9.9772 H   0  0  0  0  0  0  0  0  0  0  0  0
    6.6569   -7.6520   10.9401 H   0  0  0  0  0  0  0  0  0  0  0  0
    6.5235   -5.9081   11.0817 H   0  0  0  0  0  0  0  0  0  0  0  0
    7.0454   -6.6527    9.5574 H   0  0  0  0  0  0  0  0  0  0  0  0
    3.1552   -7.1732    8.1708 H   0  0  0  0  0  0  0  0  0  0  0  0
    1.2264   -8.7810    9.4957 H   0  0  0  0  0  0  0  0  0  0  0  0
    3.7423  -11.0575    8.8446 H   0  0  0  0  0  0  0  0  0  0  0  0
    2.0069  -10.9997    9.2975 H   0  0  0  0  0  0  0  0  0  0  0  0
    3.6701   -9.1963    7.6320 H   0  0  0  0  0  0  0  0  0  0  0  0
    0.7911  -10.7763    7.3750 H   0  0  0  0  0  0  0  0  0  0  0  0
    2.9600   -9.5197    5.0073 H   0  0  0  0  0  0  0  0  0  0  0  0
    1.9047  -10.9189    5.3761 H   0  0  0  0  0  0  0  0  0  0  0  0
    0.7008  -10.4100    2.8564 H   0  0  0  0  0  0  0  0  0  0  0  0
   -0.8042   -9.4533    1.0424 H   0  0  0  0  0  0  0  0  0  0  0  0
   -2.2265   -7.2521    3.3069 H   0  0  0  0  0  0  0  0  0  0  0  0
   -1.1219   -6.4618    5.3930 H   0  0  0  0  0  0  0  0  0  0  0  0
    0.1958   -6.9180    8.1000 H   0  0  0  0  0  0  0  0  0  0  0  0
    3.4838   -4.4856    7.3136 H   0  0  0  0  0  0  0  0  0  0  0  0
  1  2  1  0
  1 37  1  0
  1 38  1  0
  1 39  1  0
  2  3  1  0
  3  4  1  0
  3 40  1  0
  3 41  1  0
  4  5  1  0
  4 42  1  0
  4 43  1  0
  5  8  1  0
  5  6  1  0
  5 76  1  1
  6 17  1  0
  6  7  1  0
  6 44  1  1
  7  8  1  0
  7 45  1  0
  7 46  1  0
  8  9  1  0
  8 47  1  6
  9 35  1  0
  9 10  1  6
  9 11  1  0
 10 48  1  0
 11 36  1  0
 11 12  1  0
 11 49  1  6
 12 13  1  0
 12 14  1  0
 12 50  1  6
 13 51  1  0
 13 52  1  0
 13 53  1  0
 14 15  1  0
 14 54  1  0
 14 55  1  0
 15 16  1  1
 15 17  1  0
 15 20  1  0
 16 56  1  0
 16 57  1  0
 16 58  1  0
 17 18  1  0
 17 59  1  1
 18 19  1  0
 19 60  1  0
 19 61  1  0
 19 62  1  0
 20 36  1  0
 20 21  1  0
 20 63  1  6
 21 24  1  0
 21 22  1  0
 21 64  1  1
 22 23  1  0
 23 24  1  0
 23 65  1  0
 23 66  1  0
 24 25  1  0
 24 67  1  6
 25 35  1  0
 25 26  1  1
 25 27  1  0
 26 68  1  0
 27 28  1  0
 27 69  1  0
 27 70  1  0
 28 34  2  0
 28 29  1  0
 29 30  2  0
 29 71  1  0
 30 31  1  0
 30 32  1  0
 31 72  1  0
 32 33  2  0
 32 73  1  0
 33 34  1  0
 33 74  1  0
 35 34  1  6
 35 36  1  0
 36 75  1  1
M  CHG  1   5   1
M  END
>  <i_m_ct_stereo_status>  (129) 
1

>  <s_m_source_file>  (129) 
/var/tmp/pbs.5083856.sched01/tmpbm0m_nsv/50cjcjamfn.sdf

>  <i_m_source_file_index>  (129) 
3

>  <i_lp_mmshare_version>  (129) 
48012

>  <i_f3d_flags>  (129) 
0

>  <s_epik_input>  (129) 
W0NIM11PW0NIMl1bQ0gyXU4oW0NAQEhdMVtDQF0yKFtDQF0zNDUpW09IXSlbQ0BIXShbQ0gyXTEpW0NASF0oT1tDSDNdKVtDQF02KFtDSDNdKVtDQEhdKFtDQEhdNVtDQEhdMltDQEBIXShbQ0gzXSlbQ0gyXTYpW0NASF03W0NAQEhdKFtDSDJdTzcpW0NAXTMoW09IXSlbQ0gyXWM4YzRbY0hdW2NIXWMoW2NIXTgpW09IXQ==

>  <s_epik_cmdline>  (129) 
J2VwaWtfcHl0aG9uJywgJy1waHQnLCAnMi4wJywgJy1waCcsICc3LjAnLCAnLXRuJywgJzgnLCAnLW1hJywgJzIwMCcsICctaW1hZScsICc8aW5maWxlLm1hZT4nLCAnLW9tYWUnLCAnPG91dGZpbGUubWFlPic=

>  <r_lp_tautomer_probability>  (129) 
1

>  <r_epik_Ionization_Penalty>  (129) 
0.000850527

>  <r_epik_Ionization_Penalty_Charging>  (129) 
0.000751048

>  <r_epik_Ionization_Penalty_Neutral>  (129) 
9.94796e-05

>  <r_epik_State_Penalty>  (129) 
0.000480234

>  <r_epik_Charging_Adjusted_Penalty>  (129) 
0.00123128

>  <i_epik_Tot_Q>  (129) 
1

>  <i_epik_Tot_abs_Q>  (129) 
1

>  <s_lp_Force_Field>  (129) 
OPLS3e

>  <r_lp_Energy>  (129) 
183.051

>  <b_lp_Chiralities_Consistent>  (129) 
1

>  <s_lp_Variant>  (129) 
38:0-2

>  <s_i_glide_gridfile>  (129) 
pfpi4k_grid

>  <i_i_glide_lignum>  (129) 
3

>  <i_i_glide_rotatable_bonds>  (129) 
7

>  <r_i_docking_score>  (129) 
-2.91876

>  <r_i_glide_ligand_efficiency>  (129) 
-0.0810766

>  <r_i_glide_ligand_efficiency_sa>  (129) 
-0.267709

>  <r_i_glide_ligand_efficiency_ln>  (129) 
-0.636794

>  <r_i_glide_gscore>  (129) 
-2.91876

>  <r_i_glide_lipo>  (129) 
-0.0439359

>  <r_i_glide_hbond>  (129) 
-0.456

>  <r_i_glide_metal>  (129) 
-0

>  <r_i_glide_rewards>  (129) 
-0.00933409

>  <r_i_glide_evdw>  (129) 
-14.8765

>  <r_i_glide_ecoul>  (129) 
-12.1988

>  <r_i_glide_erotb>  (129) 
0.164156

>  <r_i_glide_esite>  (129) 
0

>  <r_i_glide_emodel>  (129) 
-32.6062

>  <r_i_glide_energy>  (129) 
-27.0753

>  <r_i_glide_einternal>  (129) 
2.00594

>  <r_i_glide_intrahb_reward>  (129) 
-0

>  <i_i_glide_confnum>  (129) 
2

>  <i_i_glide_posenum>  (129) 
3

>  <r_i_glide_eff_state_penalty>  (129) 
0

>  <ligand_id>  (129) 
38

>  <original_smiles>  (129) 
COCCN1C2CC1C1(O)C3C(C)CC(C)(C2OC)C2C4OCC4C4(O)Cc5cc(O)ccc5C41C23

>  <smiles>  (129) 
[H]Oc1c([H])c([H])c2c(c1[H])C([H])([H])C1(O[H])C3([H])C([H])([H])OC3([H])C3([H])C4([H])C5([H])C([H])(C([H])([H])[H])C([H])([H])C3(C([H])([H])[H])C([H])(OC([H])([H])[H])C3([H])C([H])([H])C([H])(C5(O[H])C241)[N+]3([H])C([H])([H])C([H])([H])OC([H])([H])[H]

$$$$
38:1:1
     RDKit          3D

 76 83  0  0  1  0  0  0  0  0999 V2000
    1.6461  -11.7030    4.4024 C   0  0  0  0  0  0  0  0  0  0  0  0
    0.6062  -11.9203    3.4873 O   0  0  0  0  0  0  0  0  0  0  0  0
    0.4331  -10.8688    2.5446 C   0  0  0  0  0  0  0  0  0  0  0  0
   -0.2022   -9.5646    3.0957 C   0  0  0  0  0  0  0  0  0  0  0  0
    0.7457   -8.7086    3.8889 N   0  0  2  0  0  0  0  0  0  0  0  0
    0.5022   -8.5890    5.3477 C   0  0  2  0  0  0  0  0  0  0  0  0
   -0.0241   -7.1949    5.0668 C   0  0  0  0  0  0  0  0  0  0  0  0
    0.6811   -7.2415    3.6914 C   0  0  1  0  0  0  0  0  0  0  0  0
    2.0331   -6.5777    3.0702 C   0  0  2  0  0  0  0  0  0  0  0  0
    1.6586   -6.3407    1.7192 O   0  0  0  0  0  0  0  0  0  0  0  0
    3.3973   -7.3996    3.0923 C   0  0  2  0  0  0  0  0  0  0  0  0
    3.6058   -8.9138    3.3325 C   0  0  1  0  0  0  0  0  0  0  0  0
    4.7677   -9.5019    2.5063 C   0  0  0  0  0  0  0  0  0  0  0  0
    3.8264   -9.3192    4.8281 C   0  0  0  0  0  0  0  0  0  0  0  0
    3.2185   -8.4348    5.9783 C   0  0  2  0  0  0  0  0  0  0  0  0
    4.1353   -8.6825    7.2025 C   0  0  0  0  0  0  0  0  0  0  0  0
    1.7191   -8.8418    6.3576 C   0  0  1  0  0  0  0  0  0  0  0  0
    1.3666   -8.1715    7.5702 O   0  0  0  0  0  0  0  0  0  0  0  0
    0.3994   -8.8307    8.3890 C   0  0  0  0  0  0  0  0  0  0  0  0
    3.2748   -6.9265    5.6106 C   0  0  1  0  0  0  0  0  0  0  0  0
    3.4253   -5.7637    6.5789 C   0  0  2  0  0  0  0  0  0  0  0  0
    2.8764   -5.5603    7.8950 O   0  0  0  0  0  0  0  0  0  0  0  0
    2.6605   -4.1593    7.5039 C   0  0  0  0  0  0  0  0  0  0  0  0
    2.4516   -4.6676    6.0841 C   0  0  1  0  0  0  0  0  0  0  0  0
    2.7813   -4.1849    4.6762 C   0  0  2  0  0  0  0  0  0  0  0  0
    4.0256   -3.5088    4.9205 O   0  0  0  0  0  0  0  0  0  0  0  0
    1.9152   -3.1656    3.9165 C   0  0  0  0  0  0  0  0  0  0  0  0
    2.5811   -3.2531    2.5594 C   0  0  0  0  0  0  0  0  0  0  0  0
    2.5800   -2.2779    1.5408 C   0  0  0  0  0  0  0  0  0  0  0  0
    3.4301   -2.4618    0.4386 C   0  0  0  0  0  0  0  0  0  0  0  0
    3.4742   -1.5730   -0.5749 O   0  0  0  0  0  0  0  0  0  0  0  0
    4.2887   -3.6021    0.3714 C   0  0  0  0  0  0  0  0  0  0  0  0
    4.2506   -4.5852    1.3851 C   0  0  0  0  0  0  0  0  0  0  0  0
    3.3462   -4.4049    2.4523 C   0  0  0  0  0  0  0  0  0  0  0  0
    3.0116   -5.3609    3.6215 C   0  0  2  0  0  0  0  0  0  0  0  0
    3.8175   -6.5209    4.2322 C   0  0  2  0  0  0  0  0  0  0  0  0
    1.6770  -12.5157    5.1065 H   0  0  0  0  0  0  0  0  0  0  0  0
    1.4267  -10.8293    4.9205 H   0  0  0  0  0  0  0  0  0  0  0  0
    2.6102  -11.6548    3.8940 H   0  0  0  0  0  0  0  0  0  0  0  0
    1.3847  -10.6592    2.0662 H   0  0  0  0  0  0  0  0  0  0  0  0
   -0.2171  -11.2342    1.7507 H   0  0  0  0  0  0  0  0  0  0  0  0
   -0.5345   -8.9984    2.2124 H   0  0  0  0  0  0  0  0  0  0  0  0
   -1.1182   -9.7905    3.6457 H   0  0  0  0  0  0  0  0  0  0  0  0
   -0.3472   -9.2210    5.6299 H   0  0  0  0  0  0  0  0  0  0  0  0
   -1.1156   -7.1992    4.9554 H   0  0  0  0  0  0  0  0  0  0  0  0
    0.2306   -6.4617    5.8259 H   0  0  0  0  0  0  0  0  0  0  0  0
   -0.1225   -6.9969    2.9818 H   0  0  0  0  0  0  0  0  0  0  0  0
    1.8648   -7.1164    1.2251 H   0  0  0  0  0  0  0  0  0  0  0  0
    3.9632   -7.1399    2.2032 H   0  0  0  0  0  0  0  0  0  0  0  0
    2.7794   -9.4317    2.8980 H   0  0  0  0  0  0  0  0  0  0  0  0
    5.7252   -9.0956    2.8230 H   0  0  0  0  0  0  0  0  0  0  0  0
    4.6584   -9.3272    1.4349 H   0  0  0  0  0  0  0  0  0  0  0  0
    4.8066  -10.5883    2.6453 H   0  0  0  0  0  0  0  0  0  0  0  0
    3.5456  -10.3453    4.9902 H   0  0  0  0  0  0  0  0  0  0  0  0
    4.9195   -9.2543    4.9619 H   0  0  0  0  0  0  0  0  0  0  0  0
    3.8307   -8.1341    8.0972 H   0  0  0  0  0  0  0  0  0  0  0  0
    5.1610   -8.3868    6.9684 H   0  0  0  0  0  0  0  0  0  0  0  0
    4.1474   -9.7484    7.4418 H   0  0  0  0  0  0  0  0  0  0  0  0
    1.7646   -9.9033    6.6030 H   0  0  0  0  0  0  0  0  0  0  0  0
    0.2988   -8.3001    9.3357 H   0  0  0  0  0  0  0  0  0  0  0  0
    0.6822   -9.8586    8.6262 H   0  0  0  0  0  0  0  0  0  0  0  0
   -0.5818   -8.8459    7.9153 H   0  0  0  0  0  0  0  0  0  0  0  0
    2.2392   -6.8217    5.4909 H   0  0  0  0  0  0  0  0  0  0  0  0
    4.4768   -5.4384    6.5872 H   0  0  0  0  0  0  0  0  0  0  0  0
    1.7686   -3.7269    7.9661 H   0  0  0  0  0  0  0  0  0  0  0  0
    3.5510   -3.5306    7.6542 H   0  0  0  0  0  0  0  0  0  0  0  0
    1.4065   -4.9481    6.1147 H   0  0  0  0  0  0  0  0  0  0  0  0
    4.6173   -4.1122    5.3349 H   0  0  0  0  0  0  0  0  0  0  0  0
    0.8886   -3.5226    3.8459 H   0  0  0  0  0  0  0  0  0  0  0  0
    1.9257   -2.1766    4.3606 H   0  0  0  0  0  0  0  0  0  0  0  0
    1.9599   -1.4029    1.6292 H   0  0  0  0  0  0  0  0  0  0  0  0
    2.5716   -1.1928   -0.7117 H   0  0  0  0  0  0  0  0  0  0  0  0
    4.9425   -3.7132   -0.4623 H   0  0  0  0  0  0  0  0  0  0  0  0
    4.9122   -5.4304    1.3220 H   0  0  0  0  0  0  0  0  0  0  0  0
    4.9034   -6.3454    4.2417 H   0  0  0  0  0  0  0  0  0  0  0  0
    1.7169   -9.0140    3.7467 H   0  0  0  0  0  0  0  0  0  0  0  0
  1  2  1  0
  1 37  1  0
  1 38  1  0
  1 39  1  0
  2  3  1  0
  3  4  1  0
  3 40  1  0
  3 41  1  0
  4  5  1  0
  4 42  1  0
  4 43  1  0
  5  8  1  0
  5  6  1  0
  5 76  1  1
  6 17  1  0
  6  7  1  0
  6 44  1  1
  7  8  1  0
  7 45  1  0
  7 46  1  0
  8  9  1  0
  8 47  1  6
  9 35  1  0
  9 10  1  6
  9 11  1  0
 10 48  1  0
 11 36  1  0
 11 12  1  0
 11 49  1  6
 12 13  1  0
 12 14  1  0
 12 50  1  6
 13 51  1  0
 13 52  1  0
 13 53  1  0
 14 15  1  0
 14 54  1  0
 14 55  1  0
 15 16  1  1
 15 17  1  0
 15 20  1  0
 16 56  1  0
 16 57  1  0
 16 58  1  0
 17 18  1  0
 17 59  1  1
 18 19  1  0
 19 60  1  0
 19 61  1  0
 19 62  1  0
 20 36  1  0
 20 21  1  0
 20 63  1  6
 21 24  1  0
 21 22  1  0
 21 64  1  1
 22 23  1  0
 23 24  1  0
 23 65  1  0
 23 66  1  0
 24 25  1  0
 24 67  1  6
 25 35  1  0
 25 26  1  1
 25 27  1  0
 26 68  1  0
 27 28  1  0
 27 69  1  0
 27 70  1  0
 28 34  2  0
 28 29  1  0
 29 30  2  0
 29 71  1  0
 30 31  1  0
 30 32  1  0
 31 72  1  0
 32 33  2  0
 32 73  1  0
 33 34  1  0
 33 74  1  0
 35 34  1  6
 35 36  1  0
 36 75  1  1
M  CHG  1   5   1
M  END
>  <i_m_ct_stereo_status>  (130) 
1

>  <s_m_source_file>  (130) 
/var/tmp/pbs.5083856.sched01/tmpbm0m_nsv/50cjcjamfn.sdf

>  <i_m_source_file_index>  (130) 
3

>  <i_lp_mmshare_version>  (130) 
48012

>  <i_f3d_flags>  (130) 
0

>  <s_epik_input>  (130) 
W0NIM11PW0NIMl1bQ0gyXU4oW0NAQEhdMVtDQF0yKFtDQF0zNDUpW09IXSlbQ0BIXShbQ0gyXTEpW0NASF0oT1tDSDNdKVtDQF02KFtDSDNdKVtDQEhdKFtDQEhdNVtDQEhdMltDQEBIXShbQ0gzXSlbQ0gyXTYpW0NASF03W0NAQEhdKFtDSDJdTzcpW0NAXTMoW09IXSlbQ0gyXWM4YzRbY0hdW2NIXWMoW2NIXTgpW09IXQ==

>  <s_epik_cmdline>  (130) 
J2VwaWtfcHl0aG9uJywgJy1waHQnLCAnMi4wJywgJy1waCcsICc3LjAnLCAnLXRuJywgJzgnLCAnLW1hJywgJzIwMCcsICctaW1hZScsICc8aW5maWxlLm1hZT4nLCAnLW9tYWUnLCAnPG91dGZpbGUubWFlPic=

>  <r_lp_tautomer_probability>  (130) 
1

>  <r_epik_Ionization_Penalty>  (130) 
0.000850527

>  <r_epik_Ionization_Penalty_Charging>  (130) 
0.000751048

>  <r_epik_Ionization_Penalty_Neutral>  (130) 
9.94796e-05

>  <r_epik_State_Penalty>  (130) 
0.000480234

>  <r_epik_Charging_Adjusted_Penalty>  (130) 
0.00123128

>  <i_epik_Tot_Q>  (130) 
1

>  <i_epik_Tot_abs_Q>  (130) 
1

>  <s_lp_Force_Field>  (130) 
OPLS3e

>  <r_lp_Energy>  (130) 
183.051

>  <b_lp_Chiralities_Consistent>  (130) 
1

>  <s_lp_Variant>  (130) 
38:0-2

>  <s_i_glide_gridfile>  (130) 
pfpi4k_grid

>  <i_i_glide_lignum>  (130) 
3

>  <i_i_glide_rotatable_bonds>  (130) 
7

>  <r_i_docking_score>  (130) 
-2.4699

>  <r_i_glide_ligand_efficiency>  (130) 
-0.0686082

>  <r_i_glide_ligand_efficiency_sa>  (130) 
-0.226539

>  <r_i_glide_ligand_efficiency_ln>  (130) 
-0.538865

>  <r_i_glide_gscore>  (130) 
-2.4699

>  <r_i_glide_lipo>  (130) 
-0.160025

>  <r_i_glide_hbond>  (130) 
-0.16

>  <r_i_glide_metal>  (130) 
-0

>  <r_i_glide_rewards>  (130) 
-0.00933409

>  <r_i_glide_evdw>  (130) 
-22.0844

>  <r_i_glide_ecoul>  (130) 
-7.84075

>  <r_i_glide_erotb>  (130) 
0.164156

>  <r_i_glide_esite>  (130) 
-0.0243635

>  <r_i_glide_emodel>  (130) 
-30.1543

>  <r_i_glide_energy>  (130) 
-29.9251

>  <r_i_glide_einternal>  (130) 
5.35306

>  <r_i_glide_intrahb_reward>  (130) 
-0

>  <i_i_glide_confnum>  (130) 
2

>  <i_i_glide_posenum>  (130) 
33

>  <r_i_glide_eff_state_penalty>  (130) 
0

>  <ligand_id>  (130) 
38

>  <original_smiles>  (130) 
COCCN1C2CC1C1(O)C3C(C)CC(C)(C2OC)C2C4OCC4C4(O)Cc5cc(O)ccc5C41C23

>  <smiles>  (130) 
[H]Oc1c([H])c([H])c2c(c1[H])C([H])([H])C1(O[H])C3([H])C([H])([H])OC3([H])C3([H])C4([H])C5([H])C([H])(C([H])([H])[H])C([H])([H])C3(C([H])([H])[H])C([H])(OC([H])([H])[H])C3([H])C([H])([H])C([H])(C5(O[H])C241)[N+]3([H])C([H])([H])C([H])([H])OC([H])([H])[H]

$$$$
38:1:2
     RDKit          3D

 76 83  0  0  1  0  0  0  0  0999 V2000
    0.6010   -8.3708   10.1039 C   0  0  0  0  0  0  0  0  0  0  0  0
   -0.1516   -8.6290    8.9210 O   0  0  0  0  0  0  0  0  0  0  0  0
    0.6409   -9.0775    7.8115 C   0  0  0  0  0  0  0  0  0  0  0  0
    1.3856   -7.8956    7.1291 C   0  0  0  0  0  0  0  0  0  0  0  0
    2.3812   -8.3149    6.1176 N   0  0  2  0  0  0  0  0  0  0  0  0
    3.5530   -9.0415    6.6069 C   0  0  2  0  0  0  0  0  0  0  0  0
    4.3254   -7.7382    6.4238 C   0  0  0  0  0  0  0  0  0  0  0  0
    3.1719   -7.2127    5.5344 C   0  0  1  0  0  0  0  0  0  0  0  0
    2.9604   -7.0075    3.9397 C   0  0  2  0  0  0  0  0  0  0  0  0
    2.1589   -5.8419    3.8993 O   0  0  0  0  0  0  0  0  0  0  0  0
    2.2470   -8.1274    3.0977 C   0  0  2  0  0  0  0  0  0  0  0  0
    1.3892   -9.2882    3.6270 C   0  0  1  0  0  0  0  0  0  0  0  0
    0.2673   -9.6650    2.6485 C   0  0  0  0  0  0  0  0  0  0  0  0
    2.2164  -10.5830    3.9015 C   0  0  0  0  0  0  0  0  0  0  0  0
    3.7399  -10.5142    4.2749 C   0  0  2  0  0  0  0  0  0  0  0  0
    4.3475  -11.8619    3.8131 C   0  0  0  0  0  0  0  0  0  0  0  0
    3.9217  -10.3770    5.8585 C   0  0  1  0  0  0  0  0  0  0  0  0
    5.3128  -10.5862    6.1086 O   0  0  0  0  0  0  0  0  0  0  0  0
    5.6776  -10.9967    7.4234 C   0  0  0  0  0  0  0  0  0  0  0  0
    4.4650   -9.3824    3.5141 C   0  0  1  0  0  0  0  0  0  0  0  0
    5.9155   -9.3187    3.0804 C   0  0  2  0  0  0  0  0  0  0  0  0
    7.1048   -9.7967    3.7469 O   0  0  0  0  0  0  0  0  0  0  0  0
    7.7570   -8.5620    3.2658 C   0  0  0  0  0  0  0  0  0  0  0  0
    6.4022   -7.8899    3.3818 C   0  0  1  0  0  0  0  0  0  0  0  0
    5.6232   -6.8294    2.6036 C   0  0  2  0  0  0  0  0  0  0  0  0
    6.0734   -7.0990    1.2786 O   0  0  0  0  0  0  0  0  0  0  0  0
    5.8693   -5.3195    2.7905 C   0  0  0  0  0  0  0  0  0  0  0  0
    4.6972   -4.7994    1.9839 C   0  0  0  0  0  0  0  0  0  0  0  0
    4.5944   -3.5329    1.3550 C   0  0  0  0  0  0  0  0  0  0  0  0
    3.5058   -3.3215    0.4735 C   0  0  0  0  0  0  0  0  0  0  0  0
    3.3418   -2.0845   -0.0988 O   0  0  0  0  0  0  0  0  0  0  0  0
    2.6213   -4.3748    0.1651 C   0  0  0  0  0  0  0  0  0  0  0  0
    2.7180   -5.6319    0.8148 C   0  0  0  0  0  0  0  0  0  0  0  0
    3.7524   -5.7980    1.7760 C   0  0  0  0  0  0  0  0  0  0  0  0
    4.0385   -7.0130    2.6873 C   0  0  2  0  0  0  0  0  0  0  0  0
    3.6227   -8.4891    2.5905 C   0  0  2  0  0  0  0  0  0  0  0  0
   -0.0685   -8.1253   10.9252 H   0  0  0  0  0  0  0  0  0  0  0  0
    1.2659   -7.5190    9.9818 H   0  0  0  0  0  0  0  0  0  0  0  0
    1.1988   -9.2308   10.4087 H   0  0  0  0  0  0  0  0  0  0  0  0
    1.3104   -9.8827    8.1441 H   0  0  0  0  0  0  0  0  0  0  0  0
   -0.0459   -9.5441    7.0953 H   0  0  0  0  0  0  0  0  0  0  0  0
    0.6263   -7.2579    6.6811 H   0  0  0  0  0  0  0  0  0  0  0  0
    1.8731   -7.2721    7.8753 H   0  0  0  0  0  0  0  0  0  0  0  0
    3.4751   -9.2035    7.6795 H   0  0  0  0  0  0  0  0  0  0  0  0
    4.3903   -7.1921    7.3726 H   0  0  0  0  0  0  0  0  0  0  0  0
    5.3223   -7.8891    6.0435 H   0  0  0  0  0  0  0  0  0  0  0  0
    2.9066   -6.2670    6.0201 H   0  0  0  0  0  0  0  0  0  0  0  0
    2.7571   -5.1066    3.9501 H   0  0  0  0  0  0  0  0  0  0  0  0
    1.6998   -7.6289    2.2967 H   0  0  0  0  0  0  0  0  0  0  0  0
    0.7948   -8.9723    4.4856 H   0  0  0  0  0  0  0  0  0  0  0  0
    0.6680  -10.0465    1.7077 H   0  0  0  0  0  0  0  0  0  0  0  0
   -0.4011   -8.8301    2.4253 H   0  0  0  0  0  0  0  0  0  0  0  0
   -0.3461  -10.4584    3.0803 H   0  0  0  0  0  0  0  0  0  0  0  0
    1.7010  -11.1369    4.6825 H   0  0  0  0  0  0  0  0  0  0  0  0
    2.1258  -11.2194    3.0098 H   0  0  0  0  0  0  0  0  0  0  0  0
    5.4176  -11.9417    4.0203 H   0  0  0  0  0  0  0  0  0  0  0  0
    4.2375  -11.9761    2.7317 H   0  0  0  0  0  0  0  0  0  0  0  0
    3.8500  -12.7159    4.2806 H   0  0  0  0  0  0  0  0  0  0  0  0
    3.3840  -11.2109    6.3151 H   0  0  0  0  0  0  0  0  0  0  0  0
    6.7470  -11.2166    7.4513 H   0  0  0  0  0  0  0  0  0  0  0  0
    5.1508  -11.9033    7.7262 H   0  0  0  0  0  0  0  0  0  0  0  0
    5.4967  -10.2156    8.1634 H   0  0  0  0  0  0  0  0  0  0  0  0
    4.5838   -8.7903    4.3613 H   0  0  0  0  0  0  0  0  0  0  0  0
    5.9882   -9.5807    2.0254 H   0  0  0  0  0  0  0  0  0  0  0  0
    8.5114   -8.1809    3.9568 H   0  0  0  0  0  0  0  0  0  0  0  0
    8.1459   -8.6296    2.2508 H   0  0  0  0  0  0  0  0  0  0  0  0
    6.4028   -7.6269    4.4200 H   0  0  0  0  0  0  0  0  0  0  0  0
    5.9552   -8.0218    1.1043 H   0  0  0  0  0  0  0  0  0  0  0  0
    5.7255   -5.0356    3.8285 H   0  0  0  0  0  0  0  0  0  0  0  0
    6.8437   -4.9778    2.4363 H   0  0  0  0  0  0  0  0  0  0  0  0
    5.3160   -2.7609    1.5514 H   0  0  0  0  0  0  0  0  0  0  0  0
    2.4681   -1.8993   -0.4469 H   0  0  0  0  0  0  0  0  0  0  0  0
    1.8373   -4.2188   -0.5665 H   0  0  0  0  0  0  0  0  0  0  0  0
    2.0356   -6.4258    0.5677 H   0  0  0  0  0  0  0  0  0  0  0  0
    3.5907   -8.8385    1.5637 H   0  0  0  0  0  0  0  0  0  0  0  0
    1.9418   -8.8431    5.3763 H   0  0  0  0  0  0  0  0  0  0  0  0
  1  2  1  0
  1 37  1  0
  1 38  1  0
  1 39  1  0
  2  3  1  0
  3  4  1  0
  3 40  1  0
  3 41  1  0
  4  5  1  0
  4 42  1  0
  4 43  1  0
  5  8  1  0
  5  6  1  0
  5 76  1  6
  6 17  1  0
  6  7  1  0
  6 44  1  1
  7  8  1  0
  7 45  1  0
  7 46  1  0
  8  9  1  0
  8 47  1  1
  9 35  1  0
  9 10  1  1
  9 11  1  0
 10 48  1  0
 11 36  1  0
 11 12  1  0
 11 49  1  6
 12 13  1  0
 12 14  1  0
 12 50  1  1
 13 51  1  0
 13 52  1  0
 13 53  1  0
 14 15  1  0
 14 54  1  0
 14 55  1  0
 15 16  1  6
 15 17  1  0
 15 20  1  0
 16 56  1  0
 16 57  1  0
 16 58  1  0
 17 18  1  0
 17 59  1  1
 18 19  1  0
 19 60  1  0
 19 61  1  0
 19 62  1  0
 20 36  1  0
 20 21  1  0
 20 63  1  1
 21 24  1  0
 21 22  1  0
 21 64  1  6
 22 23  1  0
 23 24  1  0
 23 65  1  0
 23 66  1  0
 24 25  1  0
 24 67  1  1
 25 35  1  0
 25 26  1  6
 25 27  1  0
 26 68  1  0
 27 28  1  0
 27 69  1  0
 27 70  1  0
 28 34  2  0
 28 29  1  0
 29 30  2  0
 29 71  1  0
 30 31  1  0
 30 32  1  0
 31 72  1  0
 32 33  2  0
 32 73  1  0
 33 34  1  0
 33 74  1  0
 35 34  1  6
 35 36  1  0
 36 75  1  6
M  CHG  1   5   1
M  END
>  <i_m_ct_stereo_status>  (131) 
1

>  <s_m_source_file>  (131) 
/var/tmp/pbs.5083856.sched01/tmpbm0m_nsv/50cjcjamfn.sdf

>  <i_m_source_file_index>  (131) 
3

>  <i_lp_mmshare_version>  (131) 
48012

>  <i_f3d_flags>  (131) 
0

>  <s_epik_input>  (131) 
W0NIM11PW0NIMl1bQ0gyXU4oW0NAQEhdMVtDQF0yKFtDQF0zNDUpW09IXSlbQ0BIXShbQ0gyXTEpW0NASF0oT1tDSDNdKVtDQF02KFtDSDNdKVtDQEhdKFtDQEhdNVtDQEhdMltDQEBIXShbQ0gzXSlbQ0gyXTYpW0NASF03W0NAQEhdKFtDSDJdTzcpW0NAXTMoW09IXSlbQ0gyXWM4YzRbY0hdW2NIXWMoW2NIXTgpW09IXQ==

>  <s_epik_cmdline>  (131) 
J2VwaWtfcHl0aG9uJywgJy1waHQnLCAnMi4wJywgJy1waCcsICc3LjAnLCAnLXRuJywgJzgnLCAnLW1hJywgJzIwMCcsICctaW1hZScsICc8aW5maWxlLm1hZT4nLCAnLW9tYWUnLCAnPG91dGZpbGUubWFlPic=

>  <r_lp_tautomer_probability>  (131) 
1

>  <r_epik_Ionization_Penalty>  (131) 
0.000850527

>  <r_epik_Ionization_Penalty_Charging>  (131) 
0.000751048

>  <r_epik_Ionization_Penalty_Neutral>  (131) 
9.94796e-05

>  <r_epik_State_Penalty>  (131) 
0.000480234

>  <r_epik_Charging_Adjusted_Penalty>  (131) 
0.00123128

>  <i_epik_Tot_Q>  (131) 
1

>  <i_epik_Tot_abs_Q>  (131) 
1

>  <s_lp_Force_Field>  (131) 
OPLS3e

>  <r_lp_Energy>  (131) 
183.051

>  <b_lp_Chiralities_Consistent>  (131) 
1

>  <s_lp_Variant>  (131) 
38:0-2

>  <s_i_glide_gridfile>  (131) 
pfpi4k_grid

>  <i_i_glide_lignum>  (131) 
3

>  <i_i_glide_rotatable_bonds>  (131) 
7

>  <r_i_docking_score>  (131) 
-2.15427

>  <r_i_glide_ligand_efficiency>  (131) 
-0.0598409

>  <r_i_glide_ligand_efficiency_sa>  (131) 
-0.19759

>  <r_i_glide_ligand_efficiency_ln>  (131) 
-0.470004

>  <r_i_glide_gscore>  (131) 
-2.15427

>  <r_i_glide_lipo>  (131) 
-0.0925812

>  <r_i_glide_hbond>  (131) 
-0.18937

>  <r_i_glide_metal>  (131) 
-0

>  <r_i_glide_rewards>  (131) 
-0.00933409

>  <r_i_glide_evdw>  (131) 
-21.4497

>  <r_i_glide_ecoul>  (131) 
-6.29608

>  <r_i_glide_erotb>  (131) 
0.164156

>  <r_i_glide_esite>  (131) 
-0.0102472

>  <r_i_glide_emodel>  (131) 
-31.5954

>  <r_i_glide_energy>  (131) 
-27.7458

>  <r_i_glide_einternal>  (131) 
1.66446

>  <r_i_glide_intrahb_reward>  (131) 
-0

>  <i_i_glide_confnum>  (131) 
2

>  <i_i_glide_posenum>  (131) 
2

>  <r_i_glide_eff_state_penalty>  (131) 
0

>  <ligand_id>  (131) 
38

>  <original_smiles>  (131) 
COCCN1C2CC1C1(O)C3C(C)CC(C)(C2OC)C2C4OCC4C4(O)Cc5cc(O)ccc5C41C23

>  <smiles>  (131) 
[H]Oc1c([H])c([H])c2c(c1[H])C([H])([H])C1(O[H])C3([H])C([H])([H])OC3([H])C3([H])C4([H])C5([H])C([H])(C([H])([H])[H])C([H])([H])C3(C([H])([H])[H])C([H])(OC([H])([H])[H])C3([H])C([H])([H])C([H])(C5(O[H])C241)[N+]3([H])C([H])([H])C([H])([H])OC([H])([H])[H]

$$$$
40:0:0
     RDKit          3D

 78 83  0  0  1  0  0  0  0  0999 V2000
    2.0876    5.7629    3.1710 C   0  0  0  0  0  0  0  0  0  0  0  0
    1.1201    5.3416    4.2707 C   0  0  0  0  0  0  0  0  0  0  0  0
   -0.0091    5.7924    4.3574 O   0  0  0  0  0  0  0  0  0  0  0  0
    1.6850    4.4668    5.1141 O   0  0  0  0  0  0  0  0  0  0  0  0
    0.9737    3.8375    6.1968 C   0  0  0  0  0  0  0  0  0  0  0  0
    0.8195    2.2425    6.1323 C   0  0  1  0  0  0  0  0  0  0  0  0
    0.5489    1.9880    4.5488 C   0  0  1  0  0  0  0  0  0  0  0  0
    0.6504    0.5359    3.9883 C   0  0  0  0  0  0  0  0  0  0  0  0
    1.7461    0.2638    2.9007 C   0  0  1  0  0  0  0  0  0  0  0  0
    1.8707    1.3428    1.8059 C   0  0  0  0  0  0  0  0  0  0  0  0
    3.1105   -0.3629    3.3630 C   0  0  2  0  0  0  0  0  0  0  0  0
    2.8612   -1.8414    3.7739 C   0  0  0  0  0  0  0  0  0  0  0  0
    2.5267   -1.6820    5.2300 C   0  0  0  0  0  0  0  0  0  0  0  0
    2.9624   -0.5191    5.7362 C   0  0  0  0  0  0  0  0  0  0  0  0
    3.7738    0.2162    4.6663 C   0  0  1  0  0  0  0  0  0  0  0  0
    5.2602   -0.2716    4.6717 C   0  0  0  0  0  0  0  0  0  0  0  0
    3.8105    1.7587    4.7730 C   0  0  0  0  0  0  0  0  0  0  0  0
    3.4955    2.3293    6.1514 C   0  0  0  0  0  0  0  0  0  0  0  0
    2.2319    1.6873    6.8124 C   0  0  2  0  0  0  0  0  0  0  0  0
    2.6666    0.1444    7.0989 C   0  0  2  0  0  0  0  0  0  0  0  0
    4.0574    0.0966    7.8560 C   0  0  0  0  0  0  0  0  0  0  0  0
    1.7287   -0.6603    8.1181 C   0  0  0  0  0  0  0  0  0  0  0  0
    1.9790   -2.1996    8.1881 C   0  0  0  0  0  0  0  0  0  0  0  0
    1.9356   -0.2114    9.6120 C   0  0  0  0  0  0  0  0  0  0  0  0
    0.2502   -0.4845    7.7703 C   0  0  0  0  0  0  0  0  0  0  0  0
   -0.3470    0.8883    8.1462 C   0  0  0  0  0  0  0  0  0  0  0  0
   -0.5366    1.9128    7.0192 C   0  0  1  0  0  0  0  0  0  0  0  0
   -1.1154    3.1223    7.8412 C   0  0  0  0  0  0  0  0  0  0  0  0
   -1.7800    1.4487    6.1970 C   0  0  0  0  0  0  0  0  0  0  0  0
   -1.8984    2.2533    4.9577 C   0  0  0  0  0  0  0  0  0  0  0  0
   -2.9600    2.9441    4.2880 C   0  0  0  0  0  0  0  0  0  0  0  0
   -2.5649    3.4966    3.1504 N   0  0  0  0  0  0  0  0  0  0  0  0
   -1.2240    3.2528    3.1231 N   0  0  0  0  0  0  0  0  0  0  0  0
   -0.8137    2.5044    4.2113 C   0  0  0  0  0  0  0  0  0  0  0  0
   -0.6617    3.5217    2.3011 H   0  0  0  0  0  0  0  0  0  0  0  0
    3.1194    5.4869    3.3888 H   0  0  0  0  0  0  0  0  0  0  0  0
    2.0354    6.8400    3.0582 H   0  0  0  0  0  0  0  0  0  0  0  0
    1.8083    5.3190    2.2168 H   0  0  0  0  0  0  0  0  0  0  0  0
    1.4477    4.1022    7.1452 H   0  0  0  0  0  0  0  0  0  0  0  0
    0.0260    4.3643    6.2179 H   0  0  0  0  0  0  0  0  0  0  0  0
    1.2116    2.5804    3.9472 H   0  0  0  0  0  0  0  0  0  0  0  0
    0.6152   -0.1912    4.7786 H   0  0  0  0  0  0  0  0  0  0  0  0
   -0.2807    0.3185    3.4574 H   0  0  0  0  0  0  0  0  0  0  0  0
    1.2876   -0.5354    2.3201 H   0  0  0  0  0  0  0  0  0  0  0  0
    2.3959    2.2493    2.0950 H   0  0  0  0  0  0  0  0  0  0  0  0
    0.8886    1.6343    1.4301 H   0  0  0  0  0  0  0  0  0  0  0  0
    2.4263    0.9279    0.9485 H   0  0  0  0  0  0  0  0  0  0  0  0
    3.7911   -0.3192    2.5198 H   0  0  0  0  0  0  0  0  0  0  0  0
    2.0515   -2.3150    3.2277 H   0  0  0  0  0  0  0  0  0  0  0  0
    3.7594   -2.4488    3.6433 H   0  0  0  0  0  0  0  0  0  0  0  0
    1.9378   -2.4428    5.6907 H   0  0  0  0  0  0  0  0  0  0  0  0
    5.7245   -0.1608    3.6865 H   0  0  0  0  0  0  0  0  0  0  0  0
    5.3468   -1.3248    4.9587 H   0  0  0  0  0  0  0  0  0  0  0  0
    5.8848    0.2971    5.3617 H   0  0  0  0  0  0  0  0  0  0  0  0
    4.8012    2.1063    4.4999 H   0  0  0  0  0  0  0  0  0  0  0  0
    3.1961    2.2308    4.0353 H   0  0  0  0  0  0  0  0  0  0  0  0
    4.3754    2.2423    6.7836 H   0  0  0  0  0  0  0  0  0  0  0  0
    3.4684    3.4026    6.1105 H   0  0  0  0  0  0  0  0  0  0  0  0
    2.2091    2.1065    7.7991 H   0  0  0  0  0  0  0  0  0  0  0  0
    4.0967    0.8210    8.6656 H   0  0  0  0  0  0  0  0  0  0  0  0
    4.9185    0.3053    7.2161 H   0  0  0  0  0  0  0  0  0  0  0  0
    4.2935   -0.8787    8.2725 H   0  0  0  0  0  0  0  0  0  0  0  0
    1.8284   -2.5932    9.1916 H   0  0  0  0  0  0  0  0  0  0  0  0
    2.9834   -2.5058    7.8838 H   0  0  0  0  0  0  0  0  0  0  0  0
    1.2652   -2.7714    7.5768 H   0  0  0  0  0  0  0  0  0  0  0  0
    1.1034   -0.5359   10.2301 H   0  0  0  0  0  0  0  0  0  0  0  0
    2.0477    0.8592    9.7224 H   0  0  0  0  0  0  0  0  0  0  0  0
    2.8306   -0.6624   10.0538 H   0  0  0  0  0  0  0  0  0  0  0  0
    0.0585   -0.7475    6.7363 H   0  0  0  0  0  0  0  0  0  0  0  0
   -0.2868   -1.2281    8.3514 H   0  0  0  0  0  0  0  0  0  0  0  0
   -1.3313    0.6545    8.5512 H   0  0  0  0  0  0  0  0  0  0  0  0
    0.1379    1.3445    8.9977 H   0  0  0  0  0  0  0  0  0  0  0  0
   -1.8861    2.7975    8.5414 H   0  0  0  0  0  0  0  0  0  0  0  0
   -1.6301    3.8439    7.1826 H   0  0  0  0  0  0  0  0  0  0  0  0
   -0.3569    3.6487    8.4380 H   0  0  0  0  0  0  0  0  0  0  0  0
   -1.6315    0.3925    5.9088 H   0  0  0  0  0  0  0  0  0  0  0  0
   -2.6993    1.4591    6.7932 H   0  0  0  0  0  0  0  0  0  0  0  0
   -4.0006    2.9984    4.5852 H   0  0  0  0  0  0  0  0  0  0  0  0
  1  2  1  0
  1 36  1  0
  1 37  1  0
  1 38  1  0
  2  3  2  0
  2  4  1  0
  4  5  1  0
  6  5  1  6
  5 39  1  0
  5 40  1  0
  6 19  1  0
  6 27  1  0
  6  7  1  0
  7 34  1  0
  7  8  1  0
  7 41  1  6
  8  9  1  0
  8 42  1  0
  8 43  1  0
  9 10  1  0
  9 11  1  0
  9 44  1  6
 10 45  1  0
 10 46  1  0
 10 47  1  0
 11 15  1  0
 11 12  1  0
 11 48  1  6
 12 13  1  0
 12 49  1  0
 12 50  1  0
 13 14  2  0
 13 51  1  0
 14 20  1  0
 14 15  1  0
 15 16  1  6
 15 17  1  0
 16 52  1  0
 16 53  1  0
 16 54  1  0
 17 18  1  0
 17 55  1  0
 17 56  1  0
 18 19  1  0
 18 57  1  0
 18 58  1  0
 19 20  1  0
 19 59  1  1
 20 21  1  1
 20 22  1  0
 21 60  1  0
 21 61  1  0
 21 62  1  0
 22 23  1  0
 22 24  1  0
 22 25  1  0
 23 63  1  0
 23 64  1  0
 23 65  1  0
 24 66  1  0
 24 67  1  0
 24 68  1  0
 25 26  1  0
 25 69  1  0
 25 70  1  0
 26 27  1  0
 26 71  1  0
 26 72  1  0
 27 28  1  1
 27 29  1  0
 28 73  1  0
 28 74  1  0
 28 75  1  0
 29 30  1  0
 29 76  1  0
 29 77  1  0
 30 34  2  0
 30 31  1  0
 31 32  2  0
 31 78  1  0
 32 33  1  0
 33 35  1  0
 33 34  1  0
M  END
>  <i_m_ct_stereo_status>  (132) 
1

>  <s_m_source_file>  (132) 
/var/tmp/pbs.5083856.sched01/tmpzwbhtbm6/55gsn014jk.sdf

>  <i_m_source_file_index>  (132) 
2

>  <i_lp_mmshare_version>  (132) 
48012

>  <i_f3d_flags>  (132) 
0

>  <s_epik_input>  (132) 
W0NIM11DKD1PKU9bQ0gyXVtDQEBdMTJbQ0BASF0zYzRjKFtjSF1uW25IXTQpW0NIMl1bQ0BAXTIoW0NIM10pW0NIMl1bQ0gyXUMoW0NIM10pKFtDSDNdKVtDQEBdNShbQ0gzXSlDNltDQEBdKFtDSDNdKShbQ0BIXShbQ0BASF0oW0NIMl0zKVtDSDNdKVtDSDJdW0NIXT02KVtDSDJdW0NIMl1bQ0hdMTU=

>  <s_epik_cmdline>  (132) 
J2VwaWtfcHl0aG9uJywgJy1waHQnLCAnMi4wJywgJy1waCcsICc3LjAnLCAnLXRuJywgJzgnLCAnLW1hJywgJzIwMCcsICctaW1hZScsICc8aW5maWxlLm1hZT4nLCAnLW9tYWUnLCAnPG91dGZpbGUubWFlPic=

>  <r_lp_tautomer_probability>  (132) 
0.5

>  <r_epik_Ionization_Penalty>  (132) 
0.00866917

>  <r_epik_Ionization_Penalty_Charging>  (132) 
0

>  <r_epik_Ionization_Penalty_Neutral>  (132) 
0.00866917

>  <r_epik_State_Penalty>  (132) 
0.322532

>  <r_epik_Charging_Adjusted_Penalty>  (132) 
0.322532

>  <i_epik_Tot_Q>  (132) 
0

>  <i_epik_Tot_abs_Q>  (132) 
0

>  <s_epik_Chemistry_Notes>  (132) 
This compound has an ester and may undergo hydrolysis at high or low pH.

>  <s_lp_Force_Field>  (132) 
OPLS3e

>  <r_lp_Energy>  (132) 
147.812

>  <b_lp_Chiralities_Consistent>  (132) 
1

>  <s_lp_Variant>  (132) 
40:0-1

>  <s_i_glide_gridfile>  (132) 
pfpi4k_grid

>  <i_i_glide_lignum>  (132) 
2

>  <i_i_glide_rotatable_bonds>  (132) 
3

>  <r_i_docking_score>  (132) 
-2.27533

>  <r_i_glide_ligand_efficiency>  (132) 
-0.0669215

>  <r_i_glide_ligand_efficiency_sa>  (132) 
-0.2168

>  <r_i_glide_ligand_efficiency_ln>  (132) 
-0.502685

>  <r_i_glide_gscore>  (132) 
-2.27533

>  <r_i_glide_lipo>  (132) 
-0.0697359

>  <r_i_glide_hbond>  (132) 
-0.16

>  <r_i_glide_metal>  (132) 
-0

>  <r_i_glide_rewards>  (132) 
-0.240801

>  <r_i_glide_evdw>  (132) 
-24.9905

>  <r_i_glide_ecoul>  (132) 
-4.12834

>  <r_i_glide_erotb>  (132) 
0.186739

>  <r_i_glide_esite>  (132) 
-0.122759

>  <r_i_glide_emodel>  (132) 
-30.6607

>  <r_i_glide_energy>  (132) 
-29.1188

>  <r_i_glide_einternal>  (132) 
4.56362

>  <r_i_glide_intrahb_reward>  (132) 
-0

>  <i_i_glide_confnum>  (132) 
2

>  <i_i_glide_posenum>  (132) 
23

>  <r_i_glide_eff_state_penalty>  (132) 
0

>  <ligand_id>  (132) 
40

>  <original_smiles>  (132) 
CC(=O)OCC12C3CC(C)C4CC=C5C4(C)CCC1C5(C)C(C)(C)CCC2(C)Cc1cn[nH]c13

>  <smiles>  (132) 
[H]C1=C2C3(C([H])([H])[H])C([H])([H])C([H])([H])C4([H])C2(C([H])([H])[H])C(C([H])([H])[H])(C([H])([H])[H])C([H])([H])C([H])([H])C2(C([H])([H])[H])C([H])([H])c5c([H])nn([H])c5C([H])(C([H])([H])C([H])(C([H])([H])[H])C3([H])C1([H])[H])C42C([H])([H])OC(=O)C([H])([H])[H]

$$$$
41:0:0
     RDKit          3D

 45 49  0  0  1  0  0  0  0  0999 V2000
    1.1618   -6.1049    0.2746 O   0  0  0  0  0  0  0  0  0  0  0  0
    2.2196   -5.8912    0.8640 C   0  0  0  0  0  0  0  0  0  0  0  0
    2.5583   -6.4625    2.0340 N   0  0  0  0  0  0  0  0  0  0  0  0
    1.8121   -7.4664    2.8049 C   0  0  2  0  0  0  0  0  0  0  0  0
    0.3252   -7.0400    2.9965 C   0  0  0  0  0  0  0  0  0  0  0  0
   -0.4259   -8.0980    3.8264 C   0  0  1  0  0  0  0  0  0  0  0  0
   -0.3574   -9.4512    3.0909 C   0  0  0  0  0  0  0  0  0  0  0  0
    1.1136   -9.8958    2.9624 C   0  0  2  0  0  0  0  0  0  0  0  0
    1.7607  -10.0035    4.3615 C   0  0  0  0  0  0  0  0  0  0  0  0
    1.6981   -8.6301    5.0605 C   0  0  2  0  0  0  0  0  0  0  0  0
    0.2235   -8.1992    5.2162 C   0  0  0  0  0  0  0  0  0  0  0  0
    2.4672   -7.5926    4.2059 C   0  0  0  0  0  0  0  0  0  0  0  0
    1.8814   -8.8553    2.1150 C   0  0  0  0  0  0  0  0  0  0  0  0
    3.1829   -4.8667    0.3454 C   0  0  0  0  0  0  0  0  0  0  0  0
    4.5788   -5.0252    0.4875 C   0  0  0  0  0  0  0  0  0  0  0  0
    5.4313   -4.0373   -0.0453 C   0  0  0  0  0  0  0  0  0  0  0  0
    4.8430   -2.9504   -0.7196 C   0  0  0  0  0  0  0  0  0  0  0  0
    3.4467   -2.8770   -0.8232 C   0  0  0  0  0  0  0  0  0  0  0  0
    2.6373   -3.8075   -0.2949 N   0  0  0  0  0  0  0  0  0  0  0  0
    5.7362   -1.8776   -1.2818 C   0  0  0  0  0  0  0  0  0  0  0  0
    7.0809   -2.3132   -1.3711 O   0  0  0  0  0  0  0  0  0  0  0  0
    7.5025   -2.9600   -0.2133 C   0  0  0  0  0  0  0  0  0  0  0  0
    6.7970   -4.1283    0.0761 O   0  0  0  0  0  0  0  0  0  0  0  0
    3.4122   -6.1273    2.4557 H   0  0  0  0  0  0  0  0  0  0  0  0
    0.2742   -6.0681    3.4873 H   0  0  0  0  0  0  0  0  0  0  0  0
   -0.2071   -6.9574    2.0532 H   0  0  0  0  0  0  0  0  0  0  0  0
   -1.4648   -7.7922    3.9252 H   0  0  0  0  0  0  0  0  0  0  0  0
   -0.9372  -10.2015    3.6266 H   0  0  0  0  0  0  0  0  0  0  0  0
   -0.8121   -9.3708    2.1019 H   0  0  0  0  0  0  0  0  0  0  0  0
    1.1515  -10.8729    2.4815 H   0  0  0  0  0  0  0  0  0  0  0  0
    1.2632  -10.7643    4.9655 H   0  0  0  0  0  0  0  0  0  0  0  0
    2.8002  -10.3225    4.2627 H   0  0  0  0  0  0  0  0  0  0  0  0
    2.1582   -8.7024    6.0464 H   0  0  0  0  0  0  0  0  0  0  0  0
    0.1677   -7.2335    5.7187 H   0  0  0  0  0  0  0  0  0  0  0  0
   -0.3266   -8.9083    5.8422 H   0  0  0  0  0  0  0  0  0  0  0  0
    3.5083   -7.9076    4.1110 H   0  0  0  0  0  0  0  0  0  0  0  0
    2.4878   -6.6288    4.7168 H   0  0  0  0  0  0  0  0  0  0  0  0
    1.4493   -8.7986    1.1176 H   0  0  0  0  0  0  0  0  0  0  0  0
    2.9151   -9.1797    1.9789 H   0  0  0  0  0  0  0  0  0  0  0  0
    4.9979   -5.8918    0.9847 H   0  0  0  0  0  0  0  0  0  0  0  0
    2.9767   -2.0479   -1.3243 H   0  0  0  0  0  0  0  0  0  0  0  0
    5.3941   -1.6157   -2.2813 H   0  0  0  0  0  0  0  0  0  0  0  0
    5.6554   -0.9928   -0.6446 H   0  0  0  0  0  0  0  0  0  0  0  0
    8.5444   -3.2355   -0.3756 H   0  0  0  0  0  0  0  0  0  0  0  0
    7.4675   -2.2837    0.6514 H   0  0  0  0  0  0  0  0  0  0  0  0
  1  2  2  0
  2  3  1  0
  2 14  1  0
  4  3  1  6
  3 24  1  0
  4 12  1  0
  4 13  1  0
  4  5  1  0
  5  6  1  0
  5 25  1  0
  5 26  1  0
  6 11  1  0
  6  7  1  0
  6 27  1  1
  7  8  1  0
  7 28  1  0
  7 29  1  0
  8  9  1  0
  8 13  1  0
  8 30  1  6
  9 10  1  0
  9 31  1  0
  9 32  1  0
 10 11  1  0
 10 12  1  0
 10 33  1  1
 11 34  1  0
 11 35  1  0
 12 36  1  0
 12 37  1  0
 13 38  1  0
 13 39  1  0
 14 19  1  0
 14 15  2  0
 15 16  1  0
 15 40  1  0
 16 23  1  0
 16 17  2  0
 17 18  1  0
 17 20  1  0
 18 19  2  0
 18 41  1  0
 20 21  1  0
 20 42  1  0
 20 43  1  0
 21 22  1  0
 22 23  1  0
 22 44  1  0
 22 45  1  0
M  END
>  <i_m_ct_stereo_status>  (133) 
1

>  <s_m_source_file>  (133) 
/var/tmp/pbs.5083856.sched01/tmpzwbhtbm6/55gsn014jk.sdf

>  <i_m_source_file_index>  (133) 
4

>  <i_lp_mmshare_version>  (133) 
48012

>  <i_f3d_flags>  (133) 
0

>  <s_epik_input>  (133) 
TzFbQ0gyXU9bQ0gyXWMoYzEyKVtjSF1uYyhbY0hdMilDKD1PKVtOSF1DMzRbQ0gyXVtDQEhdNVtDSDJdW0NAQEhdKFtDSDJdNClbQ0gyXVtDQEhdKFtDSDJdNSlbQ0gyXTM=

>  <s_epik_cmdline>  (133) 
J2VwaWtfcHl0aG9uJywgJy1waHQnLCAnMi4wJywgJy1waCcsICc3LjAnLCAnLXRuJywgJzgnLCAnLW1hJywgJzIwMCcsICctaW1hZScsICc8aW5maWxlLm1hZT4nLCAnLW9tYWUnLCAnPG91dGZpbGUubWFlPic=

>  <r_epik_Ionization_Penalty>  (133) 
0.044143

>  <r_epik_Ionization_Penalty_Charging>  (133) 
0

>  <r_epik_Ionization_Penalty_Neutral>  (133) 
0.044143

>  <r_epik_State_Penalty>  (133) 
0.0373937

>  <r_epik_Charging_Adjusted_Penalty>  (133) 
0.0373937

>  <i_epik_Tot_Q>  (133) 
0

>  <i_epik_Tot_abs_Q>  (133) 
0

>  <s_epik_Chemistry_Notes>  (133) 
This compound contains an acetal/aminal-like group ( X-CH(R)-Y where X, Y are N, S, or O) that may be acid/base labile, releasing an aldehyde.

>  <s_lp_Force_Field>  (133) 
OPLS3e

>  <r_lp_Energy>  (133) 
13.0445

>  <b_lp_Chiralities_Consistent>  (133) 
1

>  <s_lp_Variant>  (133) 
41:0-1

>  <s_i_glide_gridfile>  (133) 
pfpi4k_grid

>  <i_i_glide_lignum>  (133) 
4

>  <i_i_glide_rotatable_bonds>  (133) 
3

>  <r_i_docking_score>  (133) 
-3.56638

>  <r_i_glide_ligand_efficiency>  (133) 
-0.15506

>  <r_i_glide_ligand_efficiency_sa>  (133) 
-0.44097

>  <r_i_glide_ligand_efficiency_ln>  (133) 
-0.862383

>  <r_i_glide_gscore>  (133) 
-3.56638

>  <r_i_glide_lipo>  (133) 
-0.227159

>  <r_i_glide_hbond>  (133) 
-0.427735

>  <r_i_glide_metal>  (133) 
-0

>  <r_i_glide_rewards>  (133) 
-1.40217

>  <r_i_glide_evdw>  (133) 
-28.667

>  <r_i_glide_ecoul>  (133) 
-3.97941

>  <r_i_glide_erotb>  (133) 
0.564204

>  <r_i_glide_esite>  (133) 
-0.0432612

>  <r_i_glide_emodel>  (133) 
-40.1465

>  <r_i_glide_energy>  (133) 
-32.6464

>  <r_i_glide_einternal>  (133) 
0.451981

>  <r_i_glide_intrahb_reward>  (133) 
-0

>  <i_i_glide_confnum>  (133) 
6

>  <i_i_glide_posenum>  (133) 
6

>  <r_i_glide_eff_state_penalty>  (133) 
0

>  <ligand_id>  (133) 
41

>  <original_smiles>  (133) 
O=C(NC12CC3CC(CC(C3)C1)C2)c1cc2c(cn1)COCO2

>  <smiles>  (133) 
[H]c1nc(C(=O)N([H])C23C([H])([H])C4([H])C([H])([H])C([H])(C([H])([H])C([H])(C4([H])[H])C2([H])[H])C3([H])[H])c([H])c2c1C([H])([H])OC([H])([H])O2

$$$$
41:0:1
     RDKit          3D

 45 49  0  0  1  0  0  0  0  0999 V2000
    1.0568   -6.0857    0.2242 O   0  0  0  0  0  0  0  0  0  0  0  0
    2.0728   -5.9953    0.9167 C   0  0  0  0  0  0  0  0  0  0  0  0
    2.2579   -6.6070    2.1057 N   0  0  0  0  0  0  0  0  0  0  0  0
    1.3869   -7.5623    2.8142 C   0  0  2  0  0  0  0  0  0  0  0  0
   -0.1140   -7.1715    2.6653 C   0  0  0  0  0  0  0  0  0  0  0  0
   -1.0102   -8.1541    3.4075 C   0  0  1  0  0  0  0  0  0  0  0  0
   -0.7807   -9.5582    2.8231 C   0  0  0  0  0  0  0  0  0  0  0  0
    0.6846   -9.9893    3.0495 C   0  0  2  0  0  0  0  0  0  0  0  0
    1.0200   -9.9618    4.5585 C   0  0  0  0  0  0  0  0  0  0  0  0
    0.8123   -8.5306    5.0975 C   0  0  2  0  0  0  0  0  0  0  0  0
   -0.6595   -8.1204    4.8976 C   0  0  0  0  0  0  0  0  0  0  0  0
    1.7383   -7.5534    4.3299 C   0  0  0  0  0  0  0  0  0  0  0  0
    1.6187   -9.0083    2.2991 C   0  0  0  0  0  0  0  0  0  0  0  0
    3.1914   -5.1182    0.4685 C   0  0  0  0  0  0  0  0  0  0  0  0
    2.9251   -3.9079   -0.2144 C   0  0  0  0  0  0  0  0  0  0  0  0
    4.0088   -3.1634   -0.7100 C   0  0  0  0  0  0  0  0  0  0  0  0
    5.3083   -3.6604   -0.4966 C   0  0  0  0  0  0  0  0  0  0  0  0
    5.4729   -4.8774    0.1827 C   0  0  0  0  0  0  0  0  0  0  0  0
    4.4433   -5.5868    0.6610 N   0  0  0  0  0  0  0  0  0  0  0  0
    6.4801   -2.8801   -1.0151 C   0  0  0  0  0  0  0  0  0  0  0  0
    6.1120   -1.5432   -1.3212 O   0  0  0  0  0  0  0  0  0  0  0  0
    4.9313   -1.4910   -2.0666 C   0  0  0  0  0  0  0  0  0  0  0  0
    3.8144   -1.9758   -1.3785 O   0  0  0  0  0  0  0  0  0  0  0  0
    3.1214   -6.3776    2.5800 H   0  0  0  0  0  0  0  0  0  0  0  0
   -0.2594   -6.1589    3.0400 H   0  0  0  0  0  0  0  0  0  0  0  0
   -0.4622   -7.2134    1.6356 H   0  0  0  0  0  0  0  0  0  0  0  0
   -2.0517   -7.8711    3.2618 H   0  0  0  0  0  0  0  0  0  0  0  0
   -1.4652  -10.2529    3.2727 H   0  0  0  0  0  0  0  0  0  0  0  0
   -1.0207   -9.5757    1.7588 H   0  0  0  0  0  0  0  0  0  0  0  0
    0.8219  -11.0036    2.6702 H   0  0  0  0  0  0  0  0  0  0  0  0
    0.4037  -10.6749    5.1118 H   0  0  0  0  0  0  0  0  0  0  0  0
    2.0556  -10.2691    4.7128 H   0  0  0  0  0  0  0  0  0  0  0  0
    1.0491   -8.5076    6.1626 H   0  0  0  0  0  0  0  0  0  0  0  0
   -0.8258   -7.1169    5.2853 H   0  0  0  0  0  0  0  0  0  0  0  0
   -1.3264   -8.7870    5.4517 H   0  0  0  0  0  0  0  0  0  0  0  0
    2.7760   -7.8552    4.4837 H   0  0  0  0  0  0  0  0  0  0  0  0
    1.6485   -6.5497    4.7497 H   0  0  0  0  0  0  0  0  0  0  0  0
    1.4250   -9.0540    1.2326 H   0  0  0  0  0  0  0  0  0  0  0  0
    2.6569   -9.3238    2.4230 H   0  0  0  0  0  0  0  0  0  0  0  0
    1.9154   -3.5636   -0.3910 H   0  0  0  0  0  0  0  0  0  0  0  0
    6.4551   -5.2877    0.3453 H   0  0  0  0  0  0  0  0  0  0  0  0
    7.2488   -2.8421   -0.2447 H   0  0  0  0  0  0  0  0  0  0  0  0
    6.8806   -3.3924   -1.8944 H   0  0  0  0  0  0  0  0  0  0  0  0
    4.7514   -0.4413   -2.2662 H   0  0  0  0  0  0  0  0  0  0  0  0
    5.0375   -2.0200   -3.0194 H   0  0  0  0  0  0  0  0  0  0  0  0
  1  2  2  0
  2  3  1  0
  2 14  1  0
  4  3  1  6
  3 24  1  0
  4 12  1  0
  4 13  1  0
  4  5  1  0
  5  6  1  0
  5 25  1  0
  5 26  1  0
  6 11  1  0
  6  7  1  0
  6 27  1  1
  7  8  1  0
  7 28  1  0
  7 29  1  0
  8  9  1  0
  8 13  1  0
  8 30  1  6
  9 10  1  0
  9 31  1  0
  9 32  1  0
 10 11  1  0
 10 12  1  0
 10 33  1  1
 11 34  1  0
 11 35  1  0
 12 36  1  0
 12 37  1  0
 13 38  1  0
 13 39  1  0
 14 19  1  0
 14 15  2  0
 15 16  1  0
 15 40  1  0
 16 23  1  0
 16 17  2  0
 17 18  1  0
 17 20  1  0
 18 19  2  0
 18 41  1  0
 20 21  1  0
 20 42  1  0
 20 43  1  0
 21 22  1  0
 22 23  1  0
 22 44  1  0
 22 45  1  0
M  END
>  <i_m_ct_stereo_status>  (134) 
1

>  <s_m_source_file>  (134) 
/var/tmp/pbs.5083856.sched01/tmpzwbhtbm6/55gsn014jk.sdf

>  <i_m_source_file_index>  (134) 
4

>  <i_lp_mmshare_version>  (134) 
48012

>  <i_f3d_flags>  (134) 
0

>  <s_epik_input>  (134) 
TzFbQ0gyXU9bQ0gyXWMoYzEyKVtjSF1uYyhbY0hdMilDKD1PKVtOSF1DMzRbQ0gyXVtDQEhdNVtDSDJdW0NAQEhdKFtDSDJdNClbQ0gyXVtDQEhdKFtDSDJdNSlbQ0gyXTM=

>  <s_epik_cmdline>  (134) 
J2VwaWtfcHl0aG9uJywgJy1waHQnLCAnMi4wJywgJy1waCcsICc3LjAnLCAnLXRuJywgJzgnLCAnLW1hJywgJzIwMCcsICctaW1hZScsICc8aW5maWxlLm1hZT4nLCAnLW9tYWUnLCAnPG91dGZpbGUubWFlPic=

>  <r_epik_Ionization_Penalty>  (134) 
0.044143

>  <r_epik_Ionization_Penalty_Charging>  (134) 
0

>  <r_epik_Ionization_Penalty_Neutral>  (134) 
0.044143

>  <r_epik_State_Penalty>  (134) 
0.0373937

>  <r_epik_Charging_Adjusted_Penalty>  (134) 
0.0373937

>  <i_epik_Tot_Q>  (134) 
0

>  <i_epik_Tot_abs_Q>  (134) 
0

>  <s_epik_Chemistry_Notes>  (134) 
This compound contains an acetal/aminal-like group ( X-CH(R)-Y where X, Y are N, S, or O) that may be acid/base labile, releasing an aldehyde.

>  <s_lp_Force_Field>  (134) 
OPLS3e

>  <r_lp_Energy>  (134) 
13.0445

>  <b_lp_Chiralities_Consistent>  (134) 
1

>  <s_lp_Variant>  (134) 
41:0-1

>  <s_i_glide_gridfile>  (134) 
pfpi4k_grid

>  <i_i_glide_lignum>  (134) 
4

>  <i_i_glide_rotatable_bonds>  (134) 
3

>  <r_i_docking_score>  (134) 
-3.45275

>  <r_i_glide_ligand_efficiency>  (134) 
-0.15012

>  <r_i_glide_ligand_efficiency_sa>  (134) 
-0.426921

>  <r_i_glide_ligand_efficiency_ln>  (134) 
-0.834907

>  <r_i_glide_gscore>  (134) 
-3.45275

>  <r_i_glide_lipo>  (134) 
-0.215415

>  <r_i_glide_hbond>  (134) 
-0.436212

>  <r_i_glide_metal>  (134) 
-0

>  <r_i_glide_rewards>  (134) 
-1.2656

>  <r_i_glide_evdw>  (134) 
-29.194

>  <r_i_glide_ecoul>  (134) 
-3.66863

>  <r_i_glide_erotb>  (134) 
0.564204

>  <r_i_glide_esite>  (134) 
-0.0897403

>  <r_i_glide_emodel>  (134) 
-38.3443

>  <r_i_glide_energy>  (134) 
-32.8626

>  <r_i_glide_einternal>  (134) 
3.41487

>  <r_i_glide_intrahb_reward>  (134) 
-0

>  <i_i_glide_confnum>  (134) 
6

>  <i_i_glide_posenum>  (134) 
22

>  <r_i_glide_eff_state_penalty>  (134) 
0

>  <ligand_id>  (134) 
41

>  <original_smiles>  (134) 
O=C(NC12CC3CC(CC(C3)C1)C2)c1cc2c(cn1)COCO2

>  <smiles>  (134) 
[H]c1nc(C(=O)N([H])C23C([H])([H])C4([H])C([H])([H])C([H])(C([H])([H])C([H])(C4([H])[H])C2([H])[H])C3([H])[H])c([H])c2c1C([H])([H])OC([H])([H])O2

$$$$
41:0:2
     RDKit          3D

 45 49  0  0  1  0  0  0  0  0999 V2000
    4.0316    0.3213    3.6758 O   0  0  0  0  0  0  0  0  0  0  0  0
    3.4296   -0.0076    2.6487 C   0  0  0  0  0  0  0  0  0  0  0  0
    2.1267    0.2455    2.4500 N   0  0  0  0  0  0  0  0  0  0  0  0
    1.1970    0.9436    3.3431 C   0  0  2  0  0  0  0  0  0  0  0  0
   -0.1682    1.0805    2.6102 C   0  0  0  0  0  0  0  0  0  0  0  0
   -1.1781    1.8069    3.5108 C   0  0  1  0  0  0  0  0  0  0  0  0
   -1.3840    1.0080    4.8171 C   0  0  0  0  0  0  0  0  0  0  0  0
   -0.0370    0.8996    5.5598 C   0  0  2  0  0  0  0  0  0  0  0  0
    0.5070    2.3120    5.8781 C   0  0  0  0  0  0  0  0  0  0  0  0
    0.6970    3.1065    4.5657 C   0  0  2  0  0  0  0  0  0  0  0  0
   -0.6522    3.2223    3.8312 C   0  0  0  0  0  0  0  0  0  0  0  0
    1.7159    2.3706    3.6760 C   0  0  0  0  0  0  0  0  0  0  0  0
    0.9773    0.1509    4.6648 C   0  0  0  0  0  0  0  0  0  0  0  0
    4.1302   -0.7834    1.5709 C   0  0  0  0  0  0  0  0  0  0  0  0
    3.5747   -0.9427    0.2758 C   0  0  0  0  0  0  0  0  0  0  0  0
    4.2766   -1.7013   -0.6768 C   0  0  0  0  0  0  0  0  0  0  0  0
    5.5151   -2.2502   -0.3178 C   0  0  0  0  0  0  0  0  0  0  0  0
    5.9963   -2.0394    0.9829 C   0  0  0  0  0  0  0  0  0  0  0  0
    5.3243   -1.3266    1.8945 N   0  0  0  0  0  0  0  0  0  0  0  0
    6.2594   -3.0784   -1.3135 C   0  0  0  0  0  0  0  0  0  0  0  0
    5.7725   -2.8596   -2.6326 O   0  0  0  0  0  0  0  0  0  0  0  0
    4.3785   -2.9177   -2.6805 C   0  0  0  0  0  0  0  0  0  0  0  0
    3.7675   -1.8924   -1.9477 O   0  0  0  0  0  0  0  0  0  0  0  0
    1.7458   -0.0419    1.5616 H   0  0  0  0  0  0  0  0  0  0  0  0
   -0.0442    1.6303    1.6709 H   0  0  0  0  0  0  0  0  0  0  0  0
   -0.5624    0.1006    2.3307 H   0  0  0  0  0  0  0  0  0  0  0  0
   -2.1331    1.8922    2.9913 H   0  0  0  0  0  0  0  0  0  0  0  0
   -2.1415    1.4817    5.4490 H   0  0  0  0  0  0  0  0  0  0  0  0
   -1.7620    0.0139    4.5785 H   0  0  0  0  0  0  0  0  0  0  0  0
   -0.1766    0.3480    6.4891 H   0  0  0  0  0  0  0  0  0  0  0  0
   -0.1681    2.8461    6.5482 H   0  0  0  0  0  0  0  0  0  0  0  0
    1.4615    2.2290    6.4013 H   0  0  0  0  0  0  0  0  0  0  0  0
    1.0828    4.1012    4.7882 H   0  0  0  0  0  0  0  0  0  0  0  0
   -0.5233    3.7779    2.9032 H   0  0  0  0  0  0  0  0  0  0  0  0
   -1.3730    3.7846    4.4333 H   0  0  0  0  0  0  0  0  0  0  0  0
    2.6591    2.3265    4.2172 H   0  0  0  0  0  0  0  0  0  0  0  0
    1.9150    2.9308    2.7581 H   0  0  0  0  0  0  0  0  0  0  0  0
    0.6187   -0.8574    4.4512 H   0  0  0  0  0  0  0  0  0  0  0  0
    1.9129    0.0278    5.2118 H   0  0  0  0  0  0  0  0  0  0  0  0
    2.6231   -0.5129    0.0018 H   0  0  0  0  0  0  0  0  0  0  0  0
    6.9335   -2.4622    1.2963 H   0  0  0  0  0  0  0  0  0  0  0  0
    7.3074   -2.8018   -1.3009 H   0  0  0  0  0  0  0  0  0  0  0  0
    6.1675   -4.1271   -1.0321 H   0  0  0  0  0  0  0  0  0  0  0  0
    4.1099   -2.7682   -3.7101 H   0  0  0  0  0  0  0  0  0  0  0  0
    4.0013   -3.8835   -2.3581 H   0  0  0  0  0  0  0  0  0  0  0  0
  1  2  2  0
  2  3  1  0
  2 14  1  0
  4  3  1  6
  3 24  1  0
  4 12  1  0
  4 13  1  0
  4  5  1  0
  5  6  1  0
  5 25  1  0
  5 26  1  0
  6 11  1  0
  6  7  1  0
  6 27  1  6
  7  8  1  0
  7 28  1  0
  7 29  1  0
  8  9  1  0
  8 13  1  0
  8 30  1  1
  9 10  1  0
  9 31  1  0
  9 32  1  0
 10 11  1  0
 10 12  1  0
 10 33  1  1
 11 34  1  0
 11 35  1  0
 12 36  1  0
 12 37  1  0
 13 38  1  0
 13 39  1  0
 14 19  1  0
 14 15  2  0
 15 16  1  0
 15 40  1  0
 16 23  1  0
 16 17  2  0
 17 18  1  0
 17 20  1  0
 18 19  2  0
 18 41  1  0
 20 21  1  0
 20 42  1  0
 20 43  1  0
 21 22  1  0
 22 23  1  0
 22 44  1  0
 22 45  1  0
M  END
>  <i_m_ct_stereo_status>  (135) 
1

>  <s_m_source_file>  (135) 
/var/tmp/pbs.5083856.sched01/tmpzwbhtbm6/55gsn014jk.sdf

>  <i_m_source_file_index>  (135) 
4

>  <i_lp_mmshare_version>  (135) 
48012

>  <i_f3d_flags>  (135) 
0

>  <s_epik_input>  (135) 
TzFbQ0gyXU9bQ0gyXWMoYzEyKVtjSF1uYyhbY0hdMilDKD1PKVtOSF1DMzRbQ0gyXVtDQEhdNVtDSDJdW0NAQEhdKFtDSDJdNClbQ0gyXVtDQEhdKFtDSDJdNSlbQ0gyXTM=

>  <s_epik_cmdline>  (135) 
J2VwaWtfcHl0aG9uJywgJy1waHQnLCAnMi4wJywgJy1waCcsICc3LjAnLCAnLXRuJywgJzgnLCAnLW1hJywgJzIwMCcsICctaW1hZScsICc8aW5maWxlLm1hZT4nLCAnLW9tYWUnLCAnPG91dGZpbGUubWFlPic=

>  <r_epik_Ionization_Penalty>  (135) 
0.044143

>  <r_epik_Ionization_Penalty_Charging>  (135) 
0

>  <r_epik_Ionization_Penalty_Neutral>  (135) 
0.044143

>  <r_epik_State_Penalty>  (135) 
0.0373937

>  <r_epik_Charging_Adjusted_Penalty>  (135) 
0.0373937

>  <i_epik_Tot_Q>  (135) 
0

>  <i_epik_Tot_abs_Q>  (135) 
0

>  <s_epik_Chemistry_Notes>  (135) 
This compound contains an acetal/aminal-like group ( X-CH(R)-Y where X, Y are N, S, or O) that may be acid/base labile, releasing an aldehyde.

>  <s_lp_Force_Field>  (135) 
OPLS3e

>  <r_lp_Energy>  (135) 
13.0445

>  <b_lp_Chiralities_Consistent>  (135) 
1

>  <s_lp_Variant>  (135) 
41:0-1

>  <s_i_glide_gridfile>  (135) 
pfpi4k_grid

>  <i_i_glide_lignum>  (135) 
4

>  <i_i_glide_rotatable_bonds>  (135) 
3

>  <r_i_docking_score>  (135) 
-2.78704

>  <r_i_glide_ligand_efficiency>  (135) 
-0.121176

>  <r_i_glide_ligand_efficiency_sa>  (135) 
-0.344607

>  <r_i_glide_ligand_efficiency_ln>  (135) 
-0.673932

>  <r_i_glide_gscore>  (135) 
-2.78704

>  <r_i_glide_lipo>  (135) 
-0.231462

>  <r_i_glide_hbond>  (135) 
0

>  <r_i_glide_metal>  (135) 
-0

>  <r_i_glide_rewards>  (135) 
-1.34568

>  <r_i_glide_evdw>  (135) 
-28.4389

>  <r_i_glide_ecoul>  (135) 
-2.22362

>  <r_i_glide_erotb>  (135) 
0.564204

>  <r_i_glide_esite>  (135) 
-0.0186142

>  <r_i_glide_emodel>  (135) 
-36.3124

>  <r_i_glide_energy>  (135) 
-30.6625

>  <r_i_glide_einternal>  (135) 
0.895604

>  <r_i_glide_intrahb_reward>  (135) 
-0

>  <i_i_glide_confnum>  (135) 
3

>  <i_i_glide_posenum>  (135) 
27

>  <r_i_glide_eff_state_penalty>  (135) 
0

>  <ligand_id>  (135) 
41

>  <original_smiles>  (135) 
O=C(NC12CC3CC(CC(C3)C1)C2)c1cc2c(cn1)COCO2

>  <smiles>  (135) 
[H]c1nc(C(=O)N([H])C23C([H])([H])C4([H])C([H])([H])C([H])(C([H])([H])C([H])(C4([H])[H])C2([H])[H])C3([H])[H])c([H])c2c1C([H])([H])OC([H])([H])O2

$$$$
41:1:0
     RDKit          3D

 46 50  0  0  1  0  0  0  0  0999 V2000
    4.6082    0.1232    2.3088 O   0  0  0  0  0  0  0  0  0  0  0  0
    3.4673    0.0674    1.8690 C   0  0  0  0  0  0  0  0  0  0  0  0
    3.0639   -0.7614    0.8905 N   0  0  0  0  0  0  0  0  0  0  0  0
    3.9135   -1.7014    0.1397 C   0  0  2  0  0  0  0  0  0  0  0  0
    4.7222   -2.6157    1.0977 C   0  0  0  0  0  0  0  0  0  0  0  0
    5.6035   -3.5877    0.3093 C   0  0  1  0  0  0  0  0  0  0  0  0
    4.7111   -4.4786   -0.5601 C   0  0  0  0  0  0  0  0  0  0  0  0
    3.9427   -3.5888   -1.5508 C   0  0  2  0  0  0  0  0  0  0  0  0
    4.9107   -2.8066   -2.4551 C   0  0  0  0  0  0  0  0  0  0  0  0
    5.7835   -1.9192   -1.5596 C   0  0  2  0  0  0  0  0  0  0  0  0
    6.5841   -2.7862   -0.5686 C   0  0  0  0  0  0  0  0  0  0  0  0
    4.8827   -0.9278   -0.7932 C   0  0  0  0  0  0  0  0  0  0  0  0
    3.0458   -2.6138   -0.7744 C   0  0  0  0  0  0  0  0  0  0  0  0
    2.4650    1.0516    2.3666 C   0  0  0  0  0  0  0  0  0  0  0  0
    1.1048    0.7334    2.4614 C   0  0  0  0  0  0  0  0  0  0  0  0
    0.2145    1.7259    2.9245 C   0  0  0  0  0  0  0  0  0  0  0  0
    0.7424    2.9851    3.2896 C   0  0  0  0  0  0  0  0  0  0  0  0
    2.1128    3.2492    3.1782 C   0  0  0  0  0  0  0  0  0  0  0  0
    2.9094    2.2676    2.7214 N   0  0  0  0  0  0  0  0  0  0  0  0
   -0.2187    4.0592    3.7642 C   0  0  0  0  0  0  0  0  0  0  0  0
   -1.4658    3.5052    4.1643 O   0  0  0  0  0  0  0  0  0  0  0  0
   -1.9470    2.5987    3.1963 C   0  0  0  0  0  0  0  0  0  0  0  0
   -1.1209    1.4568    3.0369 O   0  0  0  0  0  0  0  0  0  0  0  0
    2.1160   -0.6704    0.5409 H   0  0  0  0  0  0  0  0  0  0  0  0
    5.3969   -2.0443    1.7227 H   0  0  0  0  0  0  0  0  0  0  0  0
    4.0414   -3.1406    1.7656 H   0  0  0  0  0  0  0  0  0  0  0  0
    6.1609   -4.1945    1.0158 H   0  0  0  0  0  0  0  0  0  0  0  0
    5.2991   -5.2257   -1.0883 H   0  0  0  0  0  0  0  0  0  0  0  0
    4.0049   -5.0208    0.0671 H   0  0  0  0  0  0  0  0  0  0  0  0
    3.3077   -4.2015   -2.1791 H   0  0  0  0  0  0  0  0  0  0  0  0
    5.5276   -3.4845   -3.0460 H   0  0  0  0  0  0  0  0  0  0  0  0
    4.3522   -2.1941   -3.1671 H   0  0  0  0  0  0  0  0  0  0  0  0
    6.4683   -1.3816   -2.2026 H   0  0  0  0  0  0  0  0  0  0  0  0
    7.2109   -2.1484    0.0539 H   0  0  0  0  0  0  0  0  0  0  0  0
    7.2591   -3.4527   -1.1047 H   0  0  0  0  0  0  0  0  0  0  0  0
    4.3280   -0.3067   -1.5056 H   0  0  0  0  0  0  0  0  0  0  0  0
    5.5086   -0.2455   -0.2218 H   0  0  0  0  0  0  0  0  0  0  0  0
    2.3001   -3.1574   -0.1917 H   0  0  0  0  0  0  0  0  0  0  0  0
    2.5024   -2.0391   -1.5262 H   0  0  0  0  0  0  0  0  0  0  0  0
    0.7200   -0.2322    2.1937 H   0  0  0  0  0  0  0  0  0  0  0  0
    2.5816    4.2022    3.3970 H   0  0  0  0  0  0  0  0  0  0  0  0
    0.2136    4.5507    4.6383 H   0  0  0  0  0  0  0  0  0  0  0  0
   -0.3449    4.7956    2.9573 H   0  0  0  0  0  0  0  0  0  0  0  0
   -2.9149    2.2465    3.5681 H   0  0  0  0  0  0  0  0  0  0  0  0
   -2.0992    3.0939    2.2146 H   0  0  0  0  0  0  0  0  0  0  0  0
    3.9119    2.4712    2.5859 H   0  0  0  0  0  0  0  0  0  0  0  0
  1  2  2  0
  2  3  1  0
  2 14  1  0
  4  3  1  1
  3 24  1  0
  4 12  1  0
  4 13  1  0
  4  5  1  0
  5  6  1  0
  5 25  1  0
  5 26  1  0
  6 11  1  0
  6  7  1  0
  6 27  1  1
  7  8  1  0
  7 28  1  0
  7 29  1  0
  8  9  1  0
  8 13  1  0
  8 30  1  6
  9 10  1  0
  9 31  1  0
  9 32  1  0
 10 11  1  0
 10 12  1  0
 10 33  1  6
 11 34  1  0
 11 35  1  0
 12 36  1  0
 12 37  1  0
 13 38  1  0
 13 39  1  0
 14 19  1  0
 14 15  2  0
 15 16  1  0
 15 40  1  0
 16 23  1  0
 16 17  2  0
 17 18  1  0
 17 20  1  0
 18 19  2  0
 18 41  1  0
 19 46  1  0
 20 21  1  0
 20 42  1  0
 20 43  1  0
 21 22  1  0
 22 23  1  0
 22 44  1  0
 22 45  1  0
M  CHG  1  19   1
M  END
>  <i_m_ct_stereo_status>  (136) 
1

>  <s_m_source_file>  (136) 
/var/tmp/pbs.5083856.sched01/tmpzwbhtbm6/55gsn014jk.sdf

>  <i_m_source_file_index>  (136) 
5

>  <i_lp_mmshare_version>  (136) 
48012

>  <i_f3d_flags>  (136) 
0

>  <s_epik_input>  (136) 
TzFbQ0gyXU9bQ0gyXWMoYzEyKVtjSF1uYyhbY0hdMilDKD1PKVtOSF1DMzRbQ0gyXVtDQEhdNVtDSDJdW0NAQEhdKFtDSDJdNClbQ0gyXVtDQEhdKFtDSDJdNSlbQ0gyXTM=

>  <s_epik_cmdline>  (136) 
J2VwaWtfcHl0aG9uJywgJy1waHQnLCAnMi4wJywgJy1waCcsICc3LjAnLCAnLXRuJywgJzgnLCAnLW1hJywgJzIwMCcsICctaW1hZScsICc8aW5maWxlLm1hZT4nLCAnLW9tYWUnLCAnPG91dGZpbGUubWFlPic=

>  <r_epik_Ionization_Penalty>  (136) 
1.56408

>  <r_epik_Ionization_Penalty_Charging>  (136) 
1.56056

>  <r_epik_Ionization_Penalty_Neutral>  (136) 
0.00351774

>  <r_epik_State_Penalty>  (136) 
1.65553

>  <r_epik_Charging_Adjusted_Penalty>  (136) 
3.21609

>  <i_epik_Tot_Q>  (136) 
1

>  <i_epik_Tot_abs_Q>  (136) 
1

>  <s_epik_Chemistry_Notes>  (136) 
This compound contains an acetal/aminal-like group ( X-CH(R)-Y where X, Y are N, S, or O) that may be acid/base labile, releasing an aldehyde.

>  <s_lp_Force_Field>  (136) 
OPLS3e

>  <r_lp_Energy>  (136) 
18.4652

>  <b_lp_Chiralities_Consistent>  (136) 
1

>  <s_lp_Variant>  (136) 
41:0-2

>  <s_i_glide_gridfile>  (136) 
pfpi4k_grid

>  <i_i_glide_lignum>  (136) 
5

>  <i_i_glide_rotatable_bonds>  (136) 
3

>  <r_i_docking_score>  (136) 
-4.18706

>  <r_i_glide_ligand_efficiency>  (136) 
-0.182046

>  <r_i_glide_ligand_efficiency_sa>  (136) 
-0.517715

>  <r_i_glide_ligand_efficiency_ln>  (136) 
-1.01247

>  <r_i_glide_gscore>  (136) 
-4.18706

>  <r_i_glide_lipo>  (136) 
-0.221194

>  <r_i_glide_hbond>  (136) 
-0.227298

>  <r_i_glide_metal>  (136) 
-0

>  <r_i_glide_rewards>  (136) 
-1.2928

>  <r_i_glide_evdw>  (136) 
-22.8415

>  <r_i_glide_ecoul>  (136) 
-11.5351

>  <r_i_glide_erotb>  (136) 
0.561036

>  <r_i_glide_esite>  (136) 
-0.134473

>  <r_i_glide_emodel>  (136) 
-45.0164

>  <r_i_glide_energy>  (136) 
-34.3765

>  <r_i_glide_einternal>  (136) 
1.51311

>  <r_i_glide_intrahb_reward>  (136) 
-0

>  <i_i_glide_confnum>  (136) 
2

>  <i_i_glide_posenum>  (136) 
17

>  <r_i_glide_eff_state_penalty>  (136) 
0

>  <ligand_id>  (136) 
41

>  <original_smiles>  (136) 
O=C(NC12CC3CC(CC(C3)C1)C2)c1cc2c(cn1)COCO2

>  <smiles>  (136) 
[H]c1c2c(c([H])[n+]([H])c1C(=O)N([H])C13C([H])([H])C4([H])C([H])([H])C([H])(C([H])([H])C([H])(C4([H])[H])C1([H])[H])C3([H])[H])C([H])([H])OC([H])([H])O2

$$$$
41:1:1
     RDKit          3D

 46 50  0  0  1  0  0  0  0  0999 V2000
    4.1070   -0.0283    2.8118 O   0  0  0  0  0  0  0  0  0  0  0  0
    3.1222   -0.0273    2.0688 C   0  0  0  0  0  0  0  0  0  0  0  0
    3.0158   -0.7720    0.9523 N   0  0  0  0  0  0  0  0  0  0  0  0
    3.9823   -1.7374    0.4280 C   0  0  2  0  0  0  0  0  0  0  0  0
    5.3902   -1.0998    0.2985 C   0  0  0  0  0  0  0  0  0  0  0  0
    6.3903   -2.1022   -0.2846 C   0  0  1  0  0  0  0  0  0  0  0  0
    6.4675   -3.3341    0.6370 C   0  0  0  0  0  0  0  0  0  0  0  0
    5.0796   -4.0034    0.7104 C   0  0  2  0  0  0  0  0  0  0  0  0
    4.6144   -4.4105   -0.7049 C   0  0  0  0  0  0  0  0  0  0  0  0
    4.5328   -3.1593   -1.6029 C   0  0  2  0  0  0  0  0  0  0  0  0
    5.9223   -2.4981   -1.6958 C   0  0  0  0  0  0  0  0  0  0  0  0
    3.5165   -2.1728   -0.9853 C   0  0  0  0  0  0  0  0  0  0  0  0
    4.0642   -3.0063    1.3185 C   0  0  0  0  0  0  0  0  0  0  0  0
    1.9509    0.8367    2.4113 C   0  0  0  0  0  0  0  0  0  0  0  0
    2.0009    1.7817    3.4734 C   0  0  0  0  0  0  0  0  0  0  0  0
    0.8423    2.5291    3.7923 C   0  0  0  0  0  0  0  0  0  0  0  0
   -0.3250    2.3108    3.0419 C   0  0  0  0  0  0  0  0  0  0  0  0
   -0.3226    1.3656    1.9972 C   0  0  0  0  0  0  0  0  0  0  0  0
    0.7952    0.6805    1.7257 N   0  0  0  0  0  0  0  0  0  0  0  0
   -1.5728    3.1003    3.3473 C   0  0  0  0  0  0  0  0  0  0  0  0
   -1.2833    4.2277    4.1723 O   0  0  0  0  0  0  0  0  0  0  0  0
   -0.4383    3.8978    5.2408 C   0  0  0  0  0  0  0  0  0  0  0  0
    0.8345    3.4502    4.8215 O   0  0  0  0  0  0  0  0  0  0  0  0
    2.1884   -0.6705    0.3668 H   0  0  0  0  0  0  0  0  0  0  0  0
    5.3350   -0.2185   -0.3352 H   0  0  0  0  0  0  0  0  0  0  0  0
    5.7824   -0.7724    1.2578 H   0  0  0  0  0  0  0  0  0  0  0  0
    7.3683   -1.6240   -0.3262 H   0  0  0  0  0  0  0  0  0  0  0  0
    7.2215   -4.0288    0.2731 H   0  0  0  0  0  0  0  0  0  0  0  0
    6.7849   -3.0303    1.6356 H   0  0  0  0  0  0  0  0  0  0  0  0
    5.1409   -4.8924    1.3408 H   0  0  0  0  0  0  0  0  0  0  0  0
    5.2878   -5.1494   -1.1361 H   0  0  0  0  0  0  0  0  0  0  0  0
    3.6342   -4.8881   -0.6495 H   0  0  0  0  0  0  0  0  0  0  0  0
    4.1962   -3.4465   -2.6019 H   0  0  0  0  0  0  0  0  0  0  0  0
    5.8614   -1.6128   -2.3238 H   0  0  0  0  0  0  0  0  0  0  0  0
    6.6428   -3.1691   -2.1596 H   0  0  0  0  0  0  0  0  0  0  0  0
    2.5347   -2.6510   -0.9416 H   0  0  0  0  0  0  0  0  0  0  0  0
    3.3905   -1.3066   -1.6379 H   0  0  0  0  0  0  0  0  0  0  0  0
    4.3659   -2.7469    2.3333 H   0  0  0  0  0  0  0  0  0  0  0  0
    3.0858   -3.4824    1.4068 H   0  0  0  0  0  0  0  0  0  0  0  0
    2.9031    1.9233    4.0433 H   0  0  0  0  0  0  0  0  0  0  0  0
   -1.1746    1.1595    1.3645 H   0  0  0  0  0  0  0  0  0  0  0  0
   -2.0145    3.4485    2.4058 H   0  0  0  0  0  0  0  0  0  0  0  0
   -2.2841    2.4191    3.8309 H   0  0  0  0  0  0  0  0  0  0  0  0
   -0.3047    4.8080    5.8368 H   0  0  0  0  0  0  0  0  0  0  0  0
   -0.9063    3.1449    5.8901 H   0  0  0  0  0  0  0  0  0  0  0  0
    0.7637    0.0041    0.9495 H   0  0  0  0  0  0  0  0  0  0  0  0
  1  2  2  0
  2  3  1  0
  2 14  1  0
  4  3  1  1
  3 24  1  0
  4 12  1  0
  4 13  1  0
  4  5  1  0
  5  6  1  0
  5 25  1  0
  5 26  1  0
  6 11  1  0
  6  7  1  0
  6 27  1  6
  7  8  1  0
  7 28  1  0
  7 29  1  0
  8  9  1  0
  8 13  1  0
  8 30  1  1
  9 10  1  0
  9 31  1  0
  9 32  1  0
 10 11  1  0
 10 12  1  0
 10 33  1  6
 11 34  1  0
 11 35  1  0
 12 36  1  0
 12 37  1  0
 13 38  1  0
 13 39  1  0
 14 19  1  0
 14 15  2  0
 15 16  1  0
 15 40  1  0
 16 23  1  0
 16 17  2  0
 17 18  1  0
 17 20  1  0
 18 19  2  0
 18 41  1  0
 19 46  1  0
 20 21  1  0
 20 42  1  0
 20 43  1  0
 21 22  1  0
 22 23  1  0
 22 44  1  0
 22 45  1  0
M  CHG  1  19   1
M  END
>  <i_m_ct_stereo_status>  (137) 
1

>  <s_m_source_file>  (137) 
/var/tmp/pbs.5083856.sched01/tmpzwbhtbm6/55gsn014jk.sdf

>  <i_m_source_file_index>  (137) 
5

>  <i_lp_mmshare_version>  (137) 
48012

>  <i_f3d_flags>  (137) 
0

>  <s_epik_input>  (137) 
TzFbQ0gyXU9bQ0gyXWMoYzEyKVtjSF1uYyhbY0hdMilDKD1PKVtOSF1DMzRbQ0gyXVtDQEhdNVtDSDJdW0NAQEhdKFtDSDJdNClbQ0gyXVtDQEhdKFtDSDJdNSlbQ0gyXTM=

>  <s_epik_cmdline>  (137) 
J2VwaWtfcHl0aG9uJywgJy1waHQnLCAnMi4wJywgJy1waCcsICc3LjAnLCAnLXRuJywgJzgnLCAnLW1hJywgJzIwMCcsICctaW1hZScsICc8aW5maWxlLm1hZT4nLCAnLW9tYWUnLCAnPG91dGZpbGUubWFlPic=

>  <r_epik_Ionization_Penalty>  (137) 
1.56408

>  <r_epik_Ionization_Penalty_Charging>  (137) 
1.56056

>  <r_epik_Ionization_Penalty_Neutral>  (137) 
0.00351774

>  <r_epik_State_Penalty>  (137) 
1.65553

>  <r_epik_Charging_Adjusted_Penalty>  (137) 
3.21609

>  <i_epik_Tot_Q>  (137) 
1

>  <i_epik_Tot_abs_Q>  (137) 
1

>  <s_epik_Chemistry_Notes>  (137) 
This compound contains an acetal/aminal-like group ( X-CH(R)-Y where X, Y are N, S, or O) that may be acid/base labile, releasing an aldehyde.

>  <s_lp_Force_Field>  (137) 
OPLS3e

>  <r_lp_Energy>  (137) 
18.4652

>  <b_lp_Chiralities_Consistent>  (137) 
1

>  <s_lp_Variant>  (137) 
41:0-2

>  <s_i_glide_gridfile>  (137) 
pfpi4k_grid

>  <i_i_glide_lignum>  (137) 
5

>  <i_i_glide_rotatable_bonds>  (137) 
3

>  <r_i_docking_score>  (137) 
-3.98081

>  <r_i_glide_ligand_efficiency>  (137) 
-0.173079

>  <r_i_glide_ligand_efficiency_sa>  (137) 
-0.492213

>  <r_i_glide_ligand_efficiency_ln>  (137) 
-0.962596

>  <r_i_glide_gscore>  (137) 
-3.98081

>  <r_i_glide_lipo>  (137) 
-0.213774

>  <r_i_glide_hbond>  (137) 
-0.365841

>  <r_i_glide_metal>  (137) 
-0

>  <r_i_glide_rewards>  (137) 
-1.26947

>  <r_i_glide_evdw>  (137) 
-26.8572

>  <r_i_glide_ecoul>  (137) 
-7.92669

>  <r_i_glide_erotb>  (137) 
0.561036

>  <r_i_glide_esite>  (137) 
-0.160899

>  <r_i_glide_emodel>  (137) 
-44.6753

>  <r_i_glide_energy>  (137) 
-34.7839

>  <r_i_glide_einternal>  (137) 
2.33267

>  <r_i_glide_intrahb_reward>  (137) 
-0

>  <i_i_glide_confnum>  (137) 
2

>  <i_i_glide_posenum>  (137) 
14

>  <r_i_glide_eff_state_penalty>  (137) 
0

>  <ligand_id>  (137) 
41

>  <original_smiles>  (137) 
O=C(NC12CC3CC(CC(C3)C1)C2)c1cc2c(cn1)COCO2

>  <smiles>  (137) 
[H]c1c2c(c([H])[n+]([H])c1C(=O)N([H])C13C([H])([H])C4([H])C([H])([H])C([H])(C([H])([H])C([H])(C4([H])[H])C1([H])[H])C3([H])[H])C([H])([H])OC([H])([H])O2

$$$$
41:1:2
     RDKit          3D

 46 50  0  0  1  0  0  0  0  0999 V2000
    5.1523   -6.6369    0.5231 O   0  0  0  0  0  0  0  0  0  0  0  0
    4.0749   -6.1618    0.8624 C   0  0  0  0  0  0  0  0  0  0  0  0
    3.7623   -4.8535    0.7847 N   0  0  0  0  0  0  0  0  0  0  0  0
    4.5821   -3.7749    0.2268 C   0  0  2  0  0  0  0  0  0  0  0  0
    4.8521   -4.0532   -1.2774 C   0  0  0  0  0  0  0  0  0  0  0  0
    5.7250   -2.9336   -1.8685 C   0  0  1  0  0  0  0  0  0  0  0  0
    4.9745   -1.5923   -1.7476 C   0  0  0  0  0  0  0  0  0  0  0  0
    4.7123   -1.2877   -0.2571 C   0  0  2  0  0  0  0  0  0  0  0  0
    6.0512   -1.2145    0.5124 C   0  0  0  0  0  0  0  0  0  0  0  0
    6.7915   -2.5593    0.3878 C   0  0  2  0  0  0  0  0  0  0  0  0
    7.0597   -2.8812   -1.0983 C   0  0  0  0  0  0  0  0  0  0  0  0
    5.9170   -3.6617    1.0085 C   0  0  0  0  0  0  0  0  0  0  0  0
    3.8332   -2.4133    0.3452 C   0  0  0  0  0  0  0  0  0  0  0  0
    3.0116   -7.0595    1.4029 C   0  0  0  0  0  0  0  0  0  0  0  0
    1.7106   -6.6189    1.7331 C   0  0  0  0  0  0  0  0  0  0  0  0
    0.7830   -7.5443    2.2400 C   0  0  0  0  0  0  0  0  0  0  0  0
    1.1656   -8.8930    2.3827 C   0  0  0  0  0  0  0  0  0  0  0  0
    2.4600   -9.3038    2.0258 C   0  0  0  0  0  0  0  0  0  0  0  0
    3.3156   -8.3728    1.5617 N   0  0  0  0  0  0  0  0  0  0  0  0
    0.1589   -9.8617    2.9137 C   0  0  0  0  0  0  0  0  0  0  0  0
   -1.1515   -9.3231    2.8318 O   0  0  0  0  0  0  0  0  0  0  0  0
   -1.2143   -8.0366    3.3419 C   0  0  0  0  0  0  0  0  0  0  0  0
   -0.4822   -7.1210    2.5846 O   0  0  0  0  0  0  0  0  0  0  0  0
    2.8543   -4.5723    1.1102 H   0  0  0  0  0  0  0  0  0  0  0  0
    5.3694   -5.0025   -1.4040 H   0  0  0  0  0  0  0  0  0  0  0  0
    3.9154   -4.1428   -1.8306 H   0  0  0  0  0  0  0  0  0  0  0  0
    5.9181   -3.1573   -2.9160 H   0  0  0  0  0  0  0  0  0  0  0  0
    5.5400   -0.7842   -2.2191 H   0  0  0  0  0  0  0  0  0  0  0  0
    4.0273   -1.6518   -2.2852 H   0  0  0  0  0  0  0  0  0  0  0  0
    4.1997   -0.3286   -0.1731 H   0  0  0  0  0  0  0  0  0  0  0  0
    6.6737   -0.4040    0.1379 H   0  0  0  0  0  0  0  0  0  0  0  0
    5.8620   -0.9969    1.5659 H   0  0  0  0  0  0  0  0  0  0  0  0
    7.7380   -2.5248    0.9226 H   0  0  0  0  0  0  0  0  0  0  0  0
    7.5778   -3.8356   -1.1824 H   0  0  0  0  0  0  0  0  0  0  0  0
    7.7344   -2.1471   -1.5437 H   0  0  0  0  0  0  0  0  0  0  0  0
    5.7103   -3.4489    2.0597 H   0  0  0  0  0  0  0  0  0  0  0  0
    6.4862   -4.5905    0.9967 H   0  0  0  0  0  0  0  0  0  0  0  0
    2.8722   -2.4401   -0.1730 H   0  0  0  0  0  0  0  0  0  0  0  0
    3.6024   -2.1762    1.3854 H   0  0  0  0  0  0  0  0  0  0  0  0
    1.4172   -5.5904    1.6301 H   0  0  0  0  0  0  0  0  0  0  0  0
    2.8347  -10.3133    2.0848 H   0  0  0  0  0  0  0  0  0  0  0  0
    0.1834  -10.7646    2.3110 H   0  0  0  0  0  0  0  0  0  0  0  0
    0.4334  -10.1121    3.9410 H   0  0  0  0  0  0  0  0  0  0  0  0
   -2.2589   -7.7536    3.2957 H   0  0  0  0  0  0  0  0  0  0  0  0
   -0.9015   -8.0027    4.3922 H   0  0  0  0  0  0  0  0  0  0  0  0
    4.2566   -8.6646    1.3007 H   0  0  0  0  0  0  0  0  0  0  0  0
  1  2  2  0
  2  3  1  0
  2 14  1  0
  4  3  1  1
  3 24  1  0
  4 12  1  0
  4 13  1  0
  4  5  1  0
  5  6  1  0
  5 25  1  0
  5 26  1  0
  6 11  1  0
  6  7  1  0
  6 27  1  6
  7  8  1  0
  7 28  1  0
  7 29  1  0
  8  9  1  0
  8 13  1  0
  8 30  1  6
  9 10  1  0
  9 31  1  0
  9 32  1  0
 10 11  1  0
 10 12  1  0
 10 33  1  1
 11 34  1  0
 11 35  1  0
 12 36  1  0
 12 37  1  0
 13 38  1  0
 13 39  1  0
 14 19  1  0
 14 15  2  0
 15 16  1  0
 15 40  1  0
 16 23  1  0
 16 17  2  0
 17 18  1  0
 17 20  1  0
 18 19  2  0
 18 41  1  0
 19 46  1  0
 20 21  1  0
 20 42  1  0
 20 43  1  0
 21 22  1  0
 22 23  1  0
 22 44  1  0
 22 45  1  0
M  CHG  1  19   1
M  END
>  <i_m_ct_stereo_status>  (138) 
1

>  <s_m_source_file>  (138) 
/var/tmp/pbs.5083856.sched01/tmpzwbhtbm6/55gsn014jk.sdf

>  <i_m_source_file_index>  (138) 
5

>  <i_lp_mmshare_version>  (138) 
48012

>  <i_f3d_flags>  (138) 
0

>  <s_epik_input>  (138) 
TzFbQ0gyXU9bQ0gyXWMoYzEyKVtjSF1uYyhbY0hdMilDKD1PKVtOSF1DMzRbQ0gyXVtDQEhdNVtDSDJdW0NAQEhdKFtDSDJdNClbQ0gyXVtDQEhdKFtDSDJdNSlbQ0gyXTM=

>  <s_epik_cmdline>  (138) 
J2VwaWtfcHl0aG9uJywgJy1waHQnLCAnMi4wJywgJy1waCcsICc3LjAnLCAnLXRuJywgJzgnLCAnLW1hJywgJzIwMCcsICctaW1hZScsICc8aW5maWxlLm1hZT4nLCAnLW9tYWUnLCAnPG91dGZpbGUubWFlPic=

>  <r_epik_Ionization_Penalty>  (138) 
1.56408

>  <r_epik_Ionization_Penalty_Charging>  (138) 
1.56056

>  <r_epik_Ionization_Penalty_Neutral>  (138) 
0.00351774

>  <r_epik_State_Penalty>  (138) 
1.65553

>  <r_epik_Charging_Adjusted_Penalty>  (138) 
3.21609

>  <i_epik_Tot_Q>  (138) 
1

>  <i_epik_Tot_abs_Q>  (138) 
1

>  <s_epik_Chemistry_Notes>  (138) 
This compound contains an acetal/aminal-like group ( X-CH(R)-Y where X, Y are N, S, or O) that may be acid/base labile, releasing an aldehyde.

>  <s_lp_Force_Field>  (138) 
OPLS3e

>  <r_lp_Energy>  (138) 
18.4652

>  <b_lp_Chiralities_Consistent>  (138) 
1

>  <s_lp_Variant>  (138) 
41:0-2

>  <s_i_glide_gridfile>  (138) 
pfpi4k_grid

>  <i_i_glide_lignum>  (138) 
5

>  <i_i_glide_rotatable_bonds>  (138) 
3

>  <r_i_docking_score>  (138) 
-3.55935

>  <r_i_glide_ligand_efficiency>  (138) 
-0.154754

>  <r_i_glide_ligand_efficiency_sa>  (138) 
-0.440101

>  <r_i_glide_ligand_efficiency_ln>  (138) 
-0.860683

>  <r_i_glide_gscore>  (138) 
-3.55935

>  <r_i_glide_lipo>  (138) 
-0.478659

>  <r_i_glide_hbond>  (138) 
-0.101681

>  <r_i_glide_metal>  (138) 
-0

>  <r_i_glide_rewards>  (138) 
-1.38164

>  <r_i_glide_evdw>  (138) 
-32.9407

>  <r_i_glide_ecoul>  (138) 
-2.85121

>  <r_i_glide_erotb>  (138) 
0.561036

>  <r_i_glide_esite>  (138) 
-0.0836867

>  <r_i_glide_emodel>  (138) 
-44.9159

>  <r_i_glide_energy>  (138) 
-35.7919

>  <r_i_glide_einternal>  (138) 
1.4964

>  <r_i_glide_intrahb_reward>  (138) 
-0

>  <i_i_glide_confnum>  (138) 
2

>  <i_i_glide_posenum>  (138) 
1

>  <r_i_glide_eff_state_penalty>  (138) 
0

>  <ligand_id>  (138) 
41

>  <original_smiles>  (138) 
O=C(NC12CC3CC(CC(C3)C1)C2)c1cc2c(cn1)COCO2

>  <smiles>  (138) 
[H]c1c2c(c([H])[n+]([H])c1C(=O)N([H])C13C([H])([H])C4([H])C([H])([H])C([H])(C([H])([H])C([H])(C4([H])[H])C1([H])[H])C3([H])[H])C([H])([H])OC([H])([H])O2

$$$$
42:0:0
     RDKit          3D

 29 32  0  0  1  0  0  0  0  0999 V2000
   -0.3207    3.4843    3.2796 O   0  0  0  0  0  0  0  0  0  0  0  0
    0.1126    2.1928    3.3080 C   0  0  0  0  0  0  0  0  0  0  0  0
    0.7988    1.4588    2.3774 C   0  0  0  0  0  0  0  0  0  0  0  0
    0.9727    0.1538    2.9296 C   0  0  0  0  0  0  0  0  0  0  0  0
    1.5618   -1.0551    2.5003 C   0  0  0  0  0  0  0  0  0  0  0  0
    1.5301   -2.1807    3.3478 C   0  0  0  0  0  0  0  0  0  0  0  0
    0.9038   -2.0740    4.6061 C   0  0  0  0  0  0  0  0  0  0  0  0
    0.3130   -0.9494    5.0666 N   0  0  0  0  0  0  0  0  0  0  0  0
    0.3750    0.1300    4.2226 C   0  0  0  0  0  0  0  0  0  0  0  0
   -0.1455    1.4057    4.4444 N   0  0  0  0  0  0  0  0  0  0  0  0
   -0.8415    1.8095    5.6167 C   0  0  0  0  0  0  0  0  0  0  0  0
   -2.0930    2.4668    5.4858 C   0  0  0  0  0  0  0  0  0  0  0  0
   -2.8231    2.8653    6.6253 C   0  0  0  0  0  0  0  0  0  0  0  0
   -2.2904    2.6018    7.8960 C   0  0  0  0  0  0  0  0  0  0  0  0
   -2.8746    2.9119    9.0774 N   0  0  0  0  0  0  0  0  0  0  0  0
   -1.9738    2.4643   10.0287 N   0  0  0  0  0  0  0  0  0  0  0  0
   -0.8858    1.8838    9.4004 C   0  0  0  0  0  0  0  0  0  0  0  0
    0.4112    1.1785   10.2723 Cl  0  0  0  0  0  0  0  0  0  0  0  0
   -1.0713    1.9604    8.0302 C   0  0  0  0  0  0  0  0  0  0  0  0
   -0.3177    1.5461    6.9109 C   0  0  0  0  0  0  0  0  0  0  0  0
   -2.1471    2.5202   11.0293 H   0  0  0  0  0  0  0  0  0  0  0  0
   -0.1836    3.7996    2.3725 H   0  0  0  0  0  0  0  0  0  0  0  0
    1.1311    1.7959    1.4072 H   0  0  0  0  0  0  0  0  0  0  0  0
    2.0237   -1.1122    1.5246 H   0  0  0  0  0  0  0  0  0  0  0  0
    1.9810   -3.1139    3.0379 H   0  0  0  0  0  0  0  0  0  0  0  0
    0.8778   -2.9282    5.2695 H   0  0  0  0  0  0  0  0  0  0  0  0
   -2.5075    2.6540    4.5033 H   0  0  0  0  0  0  0  0  0  0  0  0
   -3.7819    3.3411    6.5184 H   0  0  0  0  0  0  0  0  0  0  0  0
    0.6320    1.0463    7.0406 H   0  0  0  0  0  0  0  0  0  0  0  0
  1  2  1  0
  1 22  1  0
  2 10  1  0
  2  3  2  0
  3  4  1  0
  3 23  1  0
  4  9  2  0
  4  5  1  0
  5  6  2  0
  5 24  1  0
  6  7  1  0
  6 25  1  0
  7  8  2  0
  7 26  1  0
  8  9  1  0
  9 10  1  0
 10 11  1  0
 11 20  2  0
 11 12  1  0
 12 13  2  0
 12 27  1  0
 13 14  1  0
 13 28  1  0
 14 19  1  0
 14 15  2  0
 15 16  1  0
 16 21  1  0
 16 17  1  0
 17 18  1  0
 17 19  2  0
 19 20  1  0
 20 29  1  0
M  END
>  <i_m_ct_stereo_status>  (139) 
1

>  <s_m_source_file>  (139) 
/var/tmp/pbs.5083856.sched01/tmpbdv5b_9q/60mhvd3wad.sdf

>  <i_m_source_file_index>  (139) 
1

>  <i_lp_mmshare_version>  (139) 
48012

>  <i_f3d_flags>  (139) 
0

>  <s_epik_input>  (139) 
W2NIXTFbY0hdW2NIXW5jKGMxMiluKGMoW09IXSlbY0hdMiktYyhbY0hdW2NIXTMpW2NIXWMoYzM0KWMoQ2wpW25IXW40

>  <s_epik_cmdline>  (139) 
J2VwaWtfcHl0aG9uJywgJy1waHQnLCAnMi4wJywgJy1waCcsICc3LjAnLCAnLXRuJywgJzgnLCAnLW1hJywgJzIwMCcsICctaW1hZScsICc8aW5maWxlLm1hZT4nLCAnLW9tYWUnLCAnPG91dGZpbGUubWFlPic=

>  <r_epik_Ionization_Penalty>  (139) 
0.0917371

>  <r_epik_Ionization_Penalty_Charging>  (139) 
0

>  <r_epik_Ionization_Penalty_Neutral>  (139) 
0.0917371

>  <r_epik_State_Penalty>  (139) 
0.0779114

>  <r_epik_Charging_Adjusted_Penalty>  (139) 
0.0779114

>  <i_epik_Tot_Q>  (139) 
0

>  <i_epik_Tot_abs_Q>  (139) 
0

>  <s_lp_Force_Field>  (139) 
OPLS3e

>  <r_lp_Energy>  (139) 
25.5367

>  <b_lp_Chiralities_Consistent>  (139) 
1

>  <s_lp_Variant>  (139) 
42:0-1

>  <s_i_glide_gridfile>  (139) 
pfpi4k_grid

>  <i_i_glide_lignum>  (139) 
1

>  <i_i_glide_rotatable_bonds>  (139) 
2

>  <r_i_docking_score>  (139) 
-3.89892

>  <r_i_glide_ligand_efficiency>  (139) 
-0.194946

>  <r_i_glide_ligand_efficiency_sa>  (139) 
-0.529164

>  <r_i_glide_ligand_efficiency_ln>  (139) 
-0.97577

>  <r_i_glide_gscore>  (139) 
-3.89892

>  <r_i_glide_lipo>  (139) 
-0.296901

>  <r_i_glide_hbond>  (139) 
-0.17806

>  <r_i_glide_metal>  (139) 
-0

>  <r_i_glide_rewards>  (139) 
-1.46795

>  <r_i_glide_evdw>  (139) 
-19.7554

>  <r_i_glide_ecoul>  (139) 
-7.30703

>  <r_i_glide_erotb>  (139) 
0.223695

>  <r_i_glide_esite>  (139) 
-0.0958708

>  <r_i_glide_emodel>  (139) 
-35.1905

>  <r_i_glide_energy>  (139) 
-27.0624

>  <r_i_glide_einternal>  (139) 
0.149828

>  <r_i_glide_intrahb_reward>  (139) 
-0

>  <i_i_glide_confnum>  (139) 
1

>  <i_i_glide_posenum>  (139) 
36

>  <r_i_glide_eff_state_penalty>  (139) 
0

>  <ligand_id>  (139) 
42

>  <original_smiles>  (139) 
Oc1cc2cccnc2n1-c1ccc2n[nH]c(Cl)c2c1

>  <smiles>  (139) 
[H]Oc1c([H])c2c([H])c([H])c([H])nc2n1-c1c([H])c([H])c2nn([H])c(Cl)c2c1[H]

$$$$
42:0:1
     RDKit          3D

 29 32  0  0  1  0  0  0  0  0999 V2000
    1.6460    4.9221    6.5734 O   0  0  0  0  0  0  0  0  0  0  0  0
    1.4205    4.0488    5.5580 C   0  0  0  0  0  0  0  0  0  0  0  0
    2.1102    3.8265    4.3957 C   0  0  0  0  0  0  0  0  0  0  0  0
    1.3962    2.8074    3.6898 C   0  0  0  0  0  0  0  0  0  0  0  0
    1.5454    2.1321    2.4652 C   0  0  0  0  0  0  0  0  0  0  0  0
    0.6018    1.1595    2.0811 C   0  0  0  0  0  0  0  0  0  0  0  0
   -0.4744    0.8862    2.9430 C   0  0  0  0  0  0  0  0  0  0  0  0
   -0.6597    1.4792    4.1429 N   0  0  0  0  0  0  0  0  0  0  0  0
    0.2691    2.4294    4.4719 C   0  0  0  0  0  0  0  0  0  0  0  0
    0.3057    3.2044    5.6292 N   0  0  0  0  0  0  0  0  0  0  0  0
   -0.6406    3.1382    6.6869 C   0  0  0  0  0  0  0  0  0  0  0  0
   -2.0312    3.0759    6.3818 C   0  0  0  0  0  0  0  0  0  0  0  0
   -2.9902    2.9951    7.4113 C   0  0  0  0  0  0  0  0  0  0  0  0
   -2.5558    3.0070    8.7367 C   0  0  0  0  0  0  0  0  0  0  0  0
   -3.3540    2.9455    9.8211 N   0  0  0  0  0  0  0  0  0  0  0  0
   -2.4641    2.9694   10.8690 N   0  0  0  0  0  0  0  0  0  0  0  0
   -1.1679    3.0466   10.4158 C   0  0  0  0  0  0  0  0  0  0  0  0
    0.1898    3.0707   11.4672 Cl  0  0  0  0  0  0  0  0  0  0  0  0
   -1.2052    3.0646    9.0382 C   0  0  0  0  0  0  0  0  0  0  0  0
   -0.2167    3.1213    8.0449 C   0  0  0  0  0  0  0  0  0  0  0  0
   -2.7442    2.7937   11.8503 H   0  0  0  0  0  0  0  0  0  0  0  0
    2.4164    5.4201    6.3538 H   0  0  0  0  0  0  0  0  0  0  0  0
    3.0084    4.3144    4.0521 H   0  0  0  0  0  0  0  0  0  0  0  0
    2.3666    2.3781    1.8148 H   0  0  0  0  0  0  0  0  0  0  0  0
    0.6867    0.6473    1.1305 H   0  0  0  0  0  0  0  0  0  0  0  0
   -1.2200    0.1599    2.6625 H   0  0  0  0  0  0  0  0  0  0  0  0
   -2.3735    3.0865    5.3555 H   0  0  0  0  0  0  0  0  0  0  0  0
   -4.0425    2.9418    7.1918 H   0  0  0  0  0  0  0  0  0  0  0  0
    0.8288    3.1677    8.3163 H   0  0  0  0  0  0  0  0  0  0  0  0
  1  2  1  0
  1 22  1  0
  2 10  1  0
  2  3  2  0
  3  4  1  0
  3 23  1  0
  4  9  2  0
  4  5  1  0
  5  6  2  0
  5 24  1  0
  6  7  1  0
  6 25  1  0
  7  8  2  0
  7 26  1  0
  8  9  1  0
  9 10  1  0
 10 11  1  0
 11 20  2  0
 11 12  1  0
 12 13  2  0
 12 27  1  0
 13 14  1  0
 13 28  1  0
 14 19  1  0
 14 15  2  0
 15 16  1  0
 16 21  1  0
 16 17  1  0
 17 18  1  0
 17 19  2  0
 19 20  1  0
 20 29  1  0
M  END
>  <i_m_ct_stereo_status>  (140) 
1

>  <s_m_source_file>  (140) 
/var/tmp/pbs.5083856.sched01/tmpbdv5b_9q/60mhvd3wad.sdf

>  <i_m_source_file_index>  (140) 
1

>  <i_lp_mmshare_version>  (140) 
48012

>  <i_f3d_flags>  (140) 
0

>  <s_epik_input>  (140) 
W2NIXTFbY0hdW2NIXW5jKGMxMiluKGMoW09IXSlbY0hdMiktYyhbY0hdW2NIXTMpW2NIXWMoYzM0KWMoQ2wpW25IXW40

>  <s_epik_cmdline>  (140) 
J2VwaWtfcHl0aG9uJywgJy1waHQnLCAnMi4wJywgJy1waCcsICc3LjAnLCAnLXRuJywgJzgnLCAnLW1hJywgJzIwMCcsICctaW1hZScsICc8aW5maWxlLm1hZT4nLCAnLW9tYWUnLCAnPG91dGZpbGUubWFlPic=

>  <r_epik_Ionization_Penalty>  (140) 
0.0917371

>  <r_epik_Ionization_Penalty_Charging>  (140) 
0

>  <r_epik_Ionization_Penalty_Neutral>  (140) 
0.0917371

>  <r_epik_State_Penalty>  (140) 
0.0779114

>  <r_epik_Charging_Adjusted_Penalty>  (140) 
0.0779114

>  <i_epik_Tot_Q>  (140) 
0

>  <i_epik_Tot_abs_Q>  (140) 
0

>  <s_lp_Force_Field>  (140) 
OPLS3e

>  <r_lp_Energy>  (140) 
25.5367

>  <b_lp_Chiralities_Consistent>  (140) 
1

>  <s_lp_Variant>  (140) 
42:0-1

>  <s_i_glide_gridfile>  (140) 
pfpi4k_grid

>  <i_i_glide_lignum>  (140) 
1

>  <i_i_glide_rotatable_bonds>  (140) 
2

>  <r_i_docking_score>  (140) 
-3.72347

>  <r_i_glide_ligand_efficiency>  (140) 
-0.186173

>  <r_i_glide_ligand_efficiency_sa>  (140) 
-0.505353

>  <r_i_glide_ligand_efficiency_ln>  (140) 
-0.931862

>  <r_i_glide_gscore>  (140) 
-3.72347

>  <r_i_glide_lipo>  (140) 
-0.253421

>  <r_i_glide_hbond>  (140) 
-0.16

>  <r_i_glide_metal>  (140) 
-0

>  <r_i_glide_rewards>  (140) 
-1.46795

>  <r_i_glide_evdw>  (140) 
-19.3064

>  <r_i_glide_ecoul>  (140) 
-6.53345

>  <r_i_glide_erotb>  (140) 
0.223695

>  <r_i_glide_esite>  (140) 
-0.120454

>  <r_i_glide_emodel>  (140) 
-33.5541

>  <r_i_glide_energy>  (140) 
-25.8398

>  <r_i_glide_einternal>  (140) 
0.157118

>  <r_i_glide_intrahb_reward>  (140) 
-0

>  <i_i_glide_confnum>  (140) 
5

>  <i_i_glide_posenum>  (140) 
11

>  <r_i_glide_eff_state_penalty>  (140) 
0

>  <ligand_id>  (140) 
42

>  <original_smiles>  (140) 
Oc1cc2cccnc2n1-c1ccc2n[nH]c(Cl)c2c1

>  <smiles>  (140) 
[H]Oc1c([H])c2c([H])c([H])c([H])nc2n1-c1c([H])c([H])c2nn([H])c(Cl)c2c1[H]

$$$$
42:0:2
     RDKit          3D

 29 32  0  0  1  0  0  0  0  0999 V2000
    6.9246   -4.0142    0.1802 O   0  0  0  0  0  0  0  0  0  0  0  0
    6.0376   -3.5428   -0.7327 C   0  0  0  0  0  0  0  0  0  0  0  0
    6.2111   -2.7136   -1.8117 C   0  0  0  0  0  0  0  0  0  0  0  0
    4.9189   -2.5579   -2.4026 C   0  0  0  0  0  0  0  0  0  0  0  0
    4.3839   -1.8553   -3.5060 C   0  0  0  0  0  0  0  0  0  0  0  0
    3.0164   -1.9623   -3.8020 C   0  0  0  0  0  0  0  0  0  0  0  0
    2.2122   -2.7691   -2.9797 C   0  0  0  0  0  0  0  0  0  0  0  0
    2.6547   -3.4392   -1.8961 N   0  0  0  0  0  0  0  0  0  0  0  0
    3.9877   -3.3240   -1.6455 C   0  0  0  0  0  0  0  0  0  0  0  0
    4.7040   -3.9382   -0.6264 N   0  0  0  0  0  0  0  0  0  0  0  0
    4.1489   -4.8061    0.3499 C   0  0  0  0  0  0  0  0  0  0  0  0
    3.0722   -4.3497    1.1559 C   0  0  0  0  0  0  0  0  0  0  0  0
    2.4987   -5.1956    2.1335 C   0  0  0  0  0  0  0  0  0  0  0  0
    3.0076   -6.4933    2.2854 C   0  0  0  0  0  0  0  0  0  0  0  0
    2.5664   -7.4189    3.1733 N   0  0  0  0  0  0  0  0  0  0  0  0
    3.3764   -8.5127    2.9343 N   0  0  0  0  0  0  0  0  0  0  0  0
    4.2756   -8.2314    1.9250 C   0  0  0  0  0  0  0  0  0  0  0  0
    5.4453   -9.3613    1.3781 Cl  0  0  0  0  0  0  0  0  0  0  0  0
    4.0496   -6.9388    1.4943 C   0  0  0  0  0  0  0  0  0  0  0  0
    4.6489   -6.1249    0.5129 C   0  0  0  0  0  0  0  0  0  0  0  0
    3.2890   -9.3868    3.4420 H   0  0  0  0  0  0  0  0  0  0  0  0
    7.7702   -3.6602   -0.0444 H   0  0  0  0  0  0  0  0  0  0  0  0
    7.1282   -2.2703   -2.1742 H   0  0  0  0  0  0  0  0  0  0  0  0
    5.0086   -1.2291   -4.1118 H   0  0  0  0  0  0  0  0  0  0  0  0
    2.5863   -1.4184   -4.6288 H   0  0  0  0  0  0  0  0  0  0  0  0
    1.1599   -2.8572   -3.1943 H   0  0  0  0  0  0  0  0  0  0  0  0
    2.6876   -3.3461    1.0230 H   0  0  0  0  0  0  0  0  0  0  0  0
    1.6855   -4.8588    2.7576 H   0  0  0  0  0  0  0  0  0  0  0  0
    5.4626   -6.4993   -0.0878 H   0  0  0  0  0  0  0  0  0  0  0  0
  1  2  1  0
  1 22  1  0
  2 10  1  0
  2  3  2  0
  3  4  1  0
  3 23  1  0
  4  9  2  0
  4  5  1  0
  5  6  2  0
  5 24  1  0
  6  7  1  0
  6 25  1  0
  7  8  2  0
  7 26  1  0
  8  9  1  0
  9 10  1  0
 10 11  1  0
 11 20  2  0
 11 12  1  0
 12 13  2  0
 12 27  1  0
 13 14  1  0
 13 28  1  0
 14 19  1  0
 14 15  2  0
 15 16  1  0
 16 21  1  0
 16 17  1  0
 17 18  1  0
 17 19  2  0
 19 20  1  0
 20 29  1  0
M  END
>  <i_m_ct_stereo_status>  (141) 
1

>  <s_m_source_file>  (141) 
/var/tmp/pbs.5083856.sched01/tmpbdv5b_9q/60mhvd3wad.sdf

>  <i_m_source_file_index>  (141) 
1

>  <i_lp_mmshare_version>  (141) 
48012

>  <i_f3d_flags>  (141) 
0

>  <s_epik_input>  (141) 
W2NIXTFbY0hdW2NIXW5jKGMxMiluKGMoW09IXSlbY0hdMiktYyhbY0hdW2NIXTMpW2NIXWMoYzM0KWMoQ2wpW25IXW40

>  <s_epik_cmdline>  (141) 
J2VwaWtfcHl0aG9uJywgJy1waHQnLCAnMi4wJywgJy1waCcsICc3LjAnLCAnLXRuJywgJzgnLCAnLW1hJywgJzIwMCcsICctaW1hZScsICc8aW5maWxlLm1hZT4nLCAnLW9tYWUnLCAnPG91dGZpbGUubWFlPic=

>  <r_epik_Ionization_Penalty>  (141) 
0.0917371

>  <r_epik_Ionization_Penalty_Charging>  (141) 
0

>  <r_epik_Ionization_Penalty_Neutral>  (141) 
0.0917371

>  <r_epik_State_Penalty>  (141) 
0.0779114

>  <r_epik_Charging_Adjusted_Penalty>  (141) 
0.0779114

>  <i_epik_Tot_Q>  (141) 
0

>  <i_epik_Tot_abs_Q>  (141) 
0

>  <s_lp_Force_Field>  (141) 
OPLS3e

>  <r_lp_Energy>  (141) 
25.5367

>  <b_lp_Chiralities_Consistent>  (141) 
1

>  <s_lp_Variant>  (141) 
42:0-1

>  <s_i_glide_gridfile>  (141) 
pfpi4k_grid

>  <i_i_glide_lignum>  (141) 
1

>  <i_i_glide_rotatable_bonds>  (141) 
2

>  <r_i_docking_score>  (141) 
-3.23944

>  <r_i_glide_ligand_efficiency>  (141) 
-0.161972

>  <r_i_glide_ligand_efficiency_sa>  (141) 
-0.43966

>  <r_i_glide_ligand_efficiency_ln>  (141) 
-0.810726

>  <r_i_glide_gscore>  (141) 
-3.23944

>  <r_i_glide_lipo>  (141) 
-0.805214

>  <r_i_glide_hbond>  (141) 
0

>  <r_i_glide_metal>  (141) 
-0

>  <r_i_glide_rewards>  (141) 
-1.49657

>  <r_i_glide_evdw>  (141) 
-25.5762

>  <r_i_glide_ecoul>  (141) 
0.919638

>  <r_i_glide_erotb>  (141) 
0.223695

>  <r_i_glide_esite>  (141) 
-0.0204888

>  <r_i_glide_emodel>  (141) 
-31.5122

>  <r_i_glide_energy>  (141) 
-24.6566

>  <r_i_glide_einternal>  (141) 
0.076121

>  <r_i_glide_intrahb_reward>  (141) 
-0

>  <i_i_glide_confnum>  (141) 
5

>  <i_i_glide_posenum>  (141) 
15

>  <r_i_glide_eff_state_penalty>  (141) 
0

>  <ligand_id>  (141) 
42

>  <original_smiles>  (141) 
Oc1cc2cccnc2n1-c1ccc2n[nH]c(Cl)c2c1

>  <smiles>  (141) 
[H]Oc1c([H])c2c([H])c([H])c([H])nc2n1-c1c([H])c([H])c2nn([H])c(Cl)c2c1[H]

$$$$
42:1:0
     RDKit          3D

 28 31  0  0  1  0  0  0  0  0999 V2000
   -9.5362  -10.6378   -9.0974 O   0  0  0  0  0  0  0  0  0  0  0  0
   -8.3141  -10.9780   -8.6455 C   0  0  0  0  0  0  0  0  0  0  0  0
   -7.7375  -12.2166   -8.6071 C   0  0  0  0  0  0  0  0  0  0  0  0
   -6.4618  -12.0554   -7.9929 C   0  0  0  0  0  0  0  0  0  0  0  0
   -5.4012  -12.9161   -7.6356 C   0  0  0  0  0  0  0  0  0  0  0  0
   -4.2541  -12.3935   -7.0081 C   0  0  0  0  0  0  0  0  0  0  0  0
   -4.1983  -11.0088   -6.7539 C   0  0  0  0  0  0  0  0  0  0  0  0
   -5.1696  -10.1338   -7.1020 N   0  0  0  0  0  0  0  0  0  0  0  0
   -6.2841  -10.6752   -7.6913 C   0  0  0  0  0  0  0  0  0  0  0  0
   -7.4441  -10.0104   -8.1057 N   0  0  0  0  0  0  0  0  0  0  0  0
   -7.6883   -8.6027   -7.9722 C   0  0  0  0  0  0  0  0  0  0  0  0
   -8.4257   -7.8998   -8.9732 C   0  0  0  0  0  0  0  0  0  0  0  0
   -8.7287   -6.5305   -8.8428 C   0  0  0  0  0  0  0  0  0  0  0  0
   -8.2543   -5.8443   -7.7181 C   0  0  0  0  0  0  0  0  0  0  0  0
   -8.4476   -4.5314   -7.4529 N   0  0  0  0  0  0  0  0  0  0  0  0
   -7.7817   -4.3441   -6.2560 N   0  0  0  0  0  0  0  0  0  0  0  0
   -7.2089   -5.5267   -5.8319 C   0  0  0  0  0  0  0  0  0  0  0  0
   -6.2763   -5.6378   -4.3925 Cl  0  0  0  0  0  0  0  0  0  0  0  0
   -7.5095   -6.5056   -6.7565 C   0  0  0  0  0  0  0  0  0  0  0  0
   -7.2119   -7.8773   -6.8408 C   0  0  0  0  0  0  0  0  0  0  0  0
   -7.7280   -3.4509   -5.7906 H   0  0  0  0  0  0  0  0  0  0  0  0
   -8.1722  -13.1409   -8.9530 H   0  0  0  0  0  0  0  0  0  0  0  0
   -5.4863  -13.9707   -7.8353 H   0  0  0  0  0  0  0  0  0  0  0  0
   -3.4325  -13.0343   -6.7122 H   0  0  0  0  0  0  0  0  0  0  0  0
   -3.3296  -10.5807   -6.2693 H   0  0  0  0  0  0  0  0  0  0  0  0
   -8.7878   -8.4128   -9.8504 H   0  0  0  0  0  0  0  0  0  0  0  0
   -9.3195   -6.0289   -9.5868 H   0  0  0  0  0  0  0  0  0  0  0  0
   -6.6445   -8.3457   -6.0533 H   0  0  0  0  0  0  0  0  0  0  0  0
  1  2  1  0
  2 10  1  0
  2  3  2  0
  3  4  1  0
  3 22  1  0
  4  9  2  0
  4  5  1  0
  5  6  2  0
  5 23  1  0
  6  7  1  0
  6 24  1  0
  7  8  2  0
  7 25  1  0
  8  9  1  0
  9 10  1  0
 10 11  1  0
 11 20  2  0
 11 12  1  0
 12 13  2  0
 12 26  1  0
 13 14  1  0
 13 27  1  0
 14 19  1  0
 14 15  2  0
 15 16  1  0
 16 21  1  0
 16 17  1  0
 17 18  1  0
 17 19  2  0
 19 20  1  0
 20 28  1  0
M  CHG  1   1  -1
M  END
>  <i_m_ct_stereo_status>  (142) 
1

>  <s_m_source_file>  (142) 
/var/tmp/pbs.5083856.sched01/tmpbdv5b_9q/60mhvd3wad.sdf

>  <i_m_source_file_index>  (142) 
2

>  <i_lp_mmshare_version>  (142) 
48012

>  <i_f3d_flags>  (142) 
0

>  <s_epik_input>  (142) 
W2NIXTFbY0hdW2NIXW5jKGMxMiluKGMoW09IXSlbY0hdMiktYyhbY0hdW2NIXTMpW2NIXWMoYzM0KWMoQ2wpW25IXW40

>  <s_epik_cmdline>  (142) 
J2VwaWtfcHl0aG9uJywgJy1waHQnLCAnMi4wJywgJy1waCcsICc3LjAnLCAnLXRuJywgJzgnLCAnLW1hJywgJzIwMCcsICctaW1hZScsICc8aW5maWxlLm1hZT4nLCAnLW9tYWUnLCAnPG91dGZpbGUubWFlPic=

>  <r_epik_Ionization_Penalty>  (142) 
1.1615

>  <r_epik_Ionization_Penalty_Charging>  (142) 
1.15796

>  <r_epik_Ionization_Penalty_Neutral>  (142) 
0.00354334

>  <r_epik_State_Penalty>  (142) 
1.24874

>  <r_epik_Charging_Adjusted_Penalty>  (142) 
2.4067

>  <i_epik_Tot_Q>  (142) 
-1

>  <i_epik_Tot_abs_Q>  (142) 
1

>  <s_lp_Force_Field>  (142) 
OPLS3e

>  <r_lp_Energy>  (142) 
25.5973

>  <b_lp_Chiralities_Consistent>  (142) 
1

>  <s_lp_Variant>  (142) 
42:0-2

>  <s_i_glide_gridfile>  (142) 
pfpi4k_grid

>  <i_i_glide_lignum>  (142) 
2

>  <i_i_glide_rotatable_bonds>  (142) 
1

>  <r_i_docking_score>  (142) 
-5.00815

>  <r_i_glide_ligand_efficiency>  (142) 
-0.250407

>  <r_i_glide_ligand_efficiency_sa>  (142) 
-0.67971

>  <r_i_glide_ligand_efficiency_ln>  (142) 
-1.25337

>  <r_i_glide_gscore>  (142) 
-5.00815

>  <r_i_glide_lipo>  (142) 
-1.61679

>  <r_i_glide_hbond>  (142) 
0

>  <r_i_glide_metal>  (142) 
-0

>  <r_i_glide_rewards>  (142) 
-2.07579

>  <r_i_glide_evdw>  (142) 
-27.8756

>  <r_i_glide_ecoul>  (142) 
-0.97906

>  <r_i_glide_erotb>  (142) 
0.225079

>  <r_i_glide_esite>  (142) 
0

>  <r_i_glide_emodel>  (142) 
-38.2993

>  <r_i_glide_energy>  (142) 
-28.8547

>  <r_i_glide_einternal>  (142) 
1.29723

>  <r_i_glide_intrahb_reward>  (142) 
-0

>  <i_i_glide_confnum>  (142) 
2

>  <i_i_glide_posenum>  (142) 
30

>  <r_i_glide_eff_state_penalty>  (142) 
0

>  <ligand_id>  (142) 
42

>  <original_smiles>  (142) 
Oc1cc2cccnc2n1-c1ccc2n[nH]c(Cl)c2c1

>  <smiles>  (142) 
[H]c1nc2c(c([H])c1[H])c([H])c([O-])n2-c1c([H])c([H])c2nn([H])c(Cl)c2c1[H]

$$$$
42:1:1
     RDKit          3D

 28 31  0  0  1  0  0  0  0  0999 V2000
    2.0857    0.9976    7.7311 O   0  0  0  0  0  0  0  0  0  0  0  0
    0.8982    1.4342    8.2002 C   0  0  0  0  0  0  0  0  0  0  0  0
    0.4879    1.6478    9.4903 C   0  0  0  0  0  0  0  0  0  0  0  0
   -0.8479    2.1469    9.4193 C   0  0  0  0  0  0  0  0  0  0  0  0
   -1.8209    2.5524   10.3562 C   0  0  0  0  0  0  0  0  0  0  0  0
   -3.0810    2.9915    9.9028 C   0  0  0  0  0  0  0  0  0  0  0  0
   -3.3361    3.0170    8.5191 C   0  0  0  0  0  0  0  0  0  0  0  0
   -2.4490    2.6309    7.5747 N   0  0  0  0  0  0  0  0  0  0  0  0
   -1.2300    2.2194    8.0497 C   0  0  0  0  0  0  0  0  0  0  0  0
   -0.1352    1.7712    7.3082 N   0  0  0  0  0  0  0  0  0  0  0  0
   -0.0776    1.6913    5.8880 C   0  0  0  0  0  0  0  0  0  0  0  0
   -0.5574    2.7686    5.0913 C   0  0  0  0  0  0  0  0  0  0  0  0
   -0.4943    2.7085    3.6790 C   0  0  0  0  0  0  0  0  0  0  0  0
    0.0620    1.5665    3.0900 C   0  0  0  0  0  0  0  0  0  0  0  0
    0.2033    1.3548    1.7654 N   0  0  0  0  0  0  0  0  0  0  0  0
    0.8238    0.1299    1.6803 N   0  0  0  0  0  0  0  0  0  0  0  0
    1.0157   -0.3918    2.9400 C   0  0  0  0  0  0  0  0  0  0  0  0
    1.7175   -1.9402    3.1940 Cl  0  0  0  0  0  0  0  0  0  0  0  0
    0.5340    0.5210    3.8581 C   0  0  0  0  0  0  0  0  0  0  0  0
    0.4675    0.5419    5.2582 C   0  0  0  0  0  0  0  0  0  0  0  0
    1.0093   -0.3137    0.7666 H   0  0  0  0  0  0  0  0  0  0  0  0
    1.0593    1.4856   10.3908 H   0  0  0  0  0  0  0  0  0  0  0  0
   -1.6111    2.5082   11.4174 H   0  0  0  0  0  0  0  0  0  0  0  0
   -3.8371    3.2868   10.6202 H   0  0  0  0  0  0  0  0  0  0  0  0
   -4.3013    3.3425    8.1592 H   0  0  0  0  0  0  0  0  0  0  0  0
   -0.9741    3.6515    5.5567 H   0  0  0  0  0  0  0  0  0  0  0  0
   -0.8494    3.5254    3.0626 H   0  0  0  0  0  0  0  0  0  0  0  0
    0.8516   -0.2863    5.8374 H   0  0  0  0  0  0  0  0  0  0  0  0
  1  2  1  0
  2 10  1  0
  2  3  2  0
  3  4  1  0
  3 22  1  0
  4  9  2  0
  4  5  1  0
  5  6  2  0
  5 23  1  0
  6  7  1  0
  6 24  1  0
  7  8  2  0
  7 25  1  0
  8  9  1  0
  9 10  1  0
 10 11  1  0
 11 20  2  0
 11 12  1  0
 12 13  2  0
 12 26  1  0
 13 14  1  0
 13 27  1  0
 14 19  1  0
 14 15  2  0
 15 16  1  0
 16 21  1  0
 16 17  1  0
 17 18  1  0
 17 19  2  0
 19 20  1  0
 20 28  1  0
M  CHG  1   1  -1
M  END
>  <i_m_ct_stereo_status>  (143) 
1

>  <s_m_source_file>  (143) 
/var/tmp/pbs.5083856.sched01/tmpbdv5b_9q/60mhvd3wad.sdf

>  <i_m_source_file_index>  (143) 
2

>  <i_lp_mmshare_version>  (143) 
48012

>  <i_f3d_flags>  (143) 
0

>  <s_epik_input>  (143) 
W2NIXTFbY0hdW2NIXW5jKGMxMiluKGMoW09IXSlbY0hdMiktYyhbY0hdW2NIXTMpW2NIXWMoYzM0KWMoQ2wpW25IXW40

>  <s_epik_cmdline>  (143) 
J2VwaWtfcHl0aG9uJywgJy1waHQnLCAnMi4wJywgJy1waCcsICc3LjAnLCAnLXRuJywgJzgnLCAnLW1hJywgJzIwMCcsICctaW1hZScsICc8aW5maWxlLm1hZT4nLCAnLW9tYWUnLCAnPG91dGZpbGUubWFlPic=

>  <r_epik_Ionization_Penalty>  (143) 
1.1615

>  <r_epik_Ionization_Penalty_Charging>  (143) 
1.15796

>  <r_epik_Ionization_Penalty_Neutral>  (143) 
0.00354334

>  <r_epik_State_Penalty>  (143) 
1.24874

>  <r_epik_Charging_Adjusted_Penalty>  (143) 
2.4067

>  <i_epik_Tot_Q>  (143) 
-1

>  <i_epik_Tot_abs_Q>  (143) 
1

>  <s_lp_Force_Field>  (143) 
OPLS3e

>  <r_lp_Energy>  (143) 
25.5973

>  <b_lp_Chiralities_Consistent>  (143) 
1

>  <s_lp_Variant>  (143) 
42:0-2

>  <s_i_glide_gridfile>  (143) 
pfpi4k_grid

>  <i_i_glide_lignum>  (143) 
2

>  <i_i_glide_rotatable_bonds>  (143) 
1

>  <r_i_docking_score>  (143) 
-3.22446

>  <r_i_glide_ligand_efficiency>  (143) 
-0.161223

>  <r_i_glide_ligand_efficiency_sa>  (143) 
-0.437627

>  <r_i_glide_ligand_efficiency_ln>  (143) 
-0.806976

>  <r_i_glide_gscore>  (143) 
-3.22446

>  <r_i_glide_lipo>  (143) 
-0.0192045

>  <r_i_glide_hbond>  (143) 
-0.16

>  <r_i_glide_metal>  (143) 
-0

>  <r_i_glide_rewards>  (143) 
-1.47483

>  <r_i_glide_evdw>  (143) 
-18.5142

>  <r_i_glide_ecoul>  (143) 
-4.98697

>  <r_i_glide_erotb>  (143) 
0.225079

>  <r_i_glide_esite>  (143) 
-0.121758

>  <r_i_glide_emodel>  (143) 
-30.0262

>  <r_i_glide_energy>  (143) 
-23.5011

>  <r_i_glide_einternal>  (143) 
0.238552

>  <r_i_glide_intrahb_reward>  (143) 
-0

>  <i_i_glide_confnum>  (143) 
2

>  <i_i_glide_posenum>  (143) 
16

>  <r_i_glide_eff_state_penalty>  (143) 
0

>  <ligand_id>  (143) 
42

>  <original_smiles>  (143) 
Oc1cc2cccnc2n1-c1ccc2n[nH]c(Cl)c2c1

>  <smiles>  (143) 
[H]c1nc2c(c([H])c1[H])c([H])c([O-])n2-c1c([H])c([H])c2nn([H])c(Cl)c2c1[H]

$$$$
42:1:2
     RDKit          3D

 28 31  0  0  1  0  0  0  0  0999 V2000
    6.6484   -3.9962    1.3290 O   0  0  0  0  0  0  0  0  0  0  0  0
    5.9069   -3.4362    0.3564 C   0  0  0  0  0  0  0  0  0  0  0  0
    6.1341   -2.3092   -0.3886 C   0  0  0  0  0  0  0  0  0  0  0  0
    5.0134   -2.1654   -1.2649 C   0  0  0  0  0  0  0  0  0  0  0  0
    4.6181   -1.2509   -2.2658 C   0  0  0  0  0  0  0  0  0  0  0  0
    3.4086   -1.4521   -2.9586 C   0  0  0  0  0  0  0  0  0  0  0  0
    2.6110   -2.5598   -2.6092 C   0  0  0  0  0  0  0  0  0  0  0  0
    2.9165   -3.4478   -1.6403 N   0  0  0  0  0  0  0  0  0  0  0  0
    4.1113   -3.2371   -1.0077 C   0  0  0  0  0  0  0  0  0  0  0  0
    4.6846   -4.0174   -0.0028 N   0  0  0  0  0  0  0  0  0  0  0  0
    4.1053   -5.1975    0.5494 C   0  0  0  0  0  0  0  0  0  0  0  0
    2.7435   -5.1855    0.9596 C   0  0  0  0  0  0  0  0  0  0  0  0
    2.1364   -6.3411    1.5012 C   0  0  0  0  0  0  0  0  0  0  0  0
    2.9114   -7.5017    1.6379 C   0  0  0  0  0  0  0  0  0  0  0  0
    2.4787   -8.6864    2.1259 N   0  0  0  0  0  0  0  0  0  0  0  0
    3.5916   -9.5029    2.0418 N   0  0  0  0  0  0  0  0  0  0  0  0
    4.6580   -8.8047    1.5103 C   0  0  0  0  0  0  0  0  0  0  0  0
    6.2038   -9.5227    1.2795 Cl  0  0  0  0  0  0  0  0  0  0  0  0
    4.2359   -7.5184    1.2390 C   0  0  0  0  0  0  0  0  0  0  0  0
    4.8676   -6.3861    0.6907 C   0  0  0  0  0  0  0  0  0  0  0  0
    3.5842  -10.4803    2.3112 H   0  0  0  0  0  0  0  0  0  0  0  0
    6.9871   -1.6580   -0.3158 H   0  0  0  0  0  0  0  0  0  0  0  0
    5.2367   -0.3994   -2.4929 H   0  0  0  0  0  0  0  0  0  0  0  0
    3.0746   -0.7495   -3.7117 H   0  0  0  0  0  0  0  0  0  0  0  0
    1.6588   -2.7133   -3.1046 H   0  0  0  0  0  0  0  0  0  0  0  0
    2.1669   -4.2780    0.8516 H   0  0  0  0  0  0  0  0  0  0  0  0
    1.1030   -6.3410    1.8016 H   0  0  0  0  0  0  0  0  0  0  0  0
    5.9040   -6.4142    0.3901 H   0  0  0  0  0  0  0  0  0  0  0  0
  1  2  1  0
  2 10  1  0
  2  3  2  0
  3  4  1  0
  3 22  1  0
  4  9  2  0
  4  5  1  0
  5  6  2  0
  5 23  1  0
  6  7  1  0
  6 24  1  0
  7  8  2  0
  7 25  1  0
  8  9  1  0
  9 10  1  0
 10 11  1  0
 11 20  2  0
 11 12  1  0
 12 13  2  0
 12 26  1  0
 13 14  1  0
 13 27  1  0
 14 19  1  0
 14 15  2  0
 15 16  1  0
 16 21  1  0
 16 17  1  0
 17 18  1  0
 17 19  2  0
 19 20  1  0
 20 28  1  0
M  CHG  1   1  -1
M  END
>  <i_m_ct_stereo_status>  (144) 
1

>  <s_m_source_file>  (144) 
/var/tmp/pbs.5083856.sched01/tmpbdv5b_9q/60mhvd3wad.sdf

>  <i_m_source_file_index>  (144) 
2

>  <i_lp_mmshare_version>  (144) 
48012

>  <i_f3d_flags>  (144) 
0

>  <s_epik_input>  (144) 
W2NIXTFbY0hdW2NIXW5jKGMxMiluKGMoW09IXSlbY0hdMiktYyhbY0hdW2NIXTMpW2NIXWMoYzM0KWMoQ2wpW25IXW40

>  <s_epik_cmdline>  (144) 
J2VwaWtfcHl0aG9uJywgJy1waHQnLCAnMi4wJywgJy1waCcsICc3LjAnLCAnLXRuJywgJzgnLCAnLW1hJywgJzIwMCcsICctaW1hZScsICc8aW5maWxlLm1hZT4nLCAnLW9tYWUnLCAnPG91dGZpbGUubWFlPic=

>  <r_epik_Ionization_Penalty>  (144) 
1.1615

>  <r_epik_Ionization_Penalty_Charging>  (144) 
1.15796

>  <r_epik_Ionization_Penalty_Neutral>  (144) 
0.00354334

>  <r_epik_State_Penalty>  (144) 
1.24874

>  <r_epik_Charging_Adjusted_Penalty>  (144) 
2.4067

>  <i_epik_Tot_Q>  (144) 
-1

>  <i_epik_Tot_abs_Q>  (144) 
1

>  <s_lp_Force_Field>  (144) 
OPLS3e

>  <r_lp_Energy>  (144) 
25.5973

>  <b_lp_Chiralities_Consistent>  (144) 
1

>  <s_lp_Variant>  (144) 
42:0-2

>  <s_i_glide_gridfile>  (144) 
pfpi4k_grid

>  <i_i_glide_lignum>  (144) 
2

>  <i_i_glide_rotatable_bonds>  (144) 
1

>  <r_i_docking_score>  (144) 
-2.61773

>  <r_i_glide_ligand_efficiency>  (144) 
-0.130886

>  <r_i_glide_ligand_efficiency_sa>  (144) 
-0.35528

>  <r_i_glide_ligand_efficiency_ln>  (144) 
-0.65513

>  <r_i_glide_gscore>  (144) 
-2.61773

>  <r_i_glide_lipo>  (144) 
-0.361085

>  <r_i_glide_hbond>  (144) 
0

>  <r_i_glide_metal>  (144) 
-0

>  <r_i_glide_rewards>  (144) 
-1.51428

>  <r_i_glide_evdw>  (144) 
-27.8354

>  <r_i_glide_ecoul>  (144) 
3.17507

>  <r_i_glide_erotb>  (144) 
0.225079

>  <r_i_glide_esite>  (144) 
-0.0519332

>  <r_i_glide_emodel>  (144) 
-30.0785

>  <r_i_glide_energy>  (144) 
-24.6603

>  <r_i_glide_einternal>  (144) 
0.0178024

>  <r_i_glide_intrahb_reward>  (144) 
-0

>  <i_i_glide_confnum>  (144) 
1

>  <i_i_glide_posenum>  (144) 
8

>  <r_i_glide_eff_state_penalty>  (144) 
0

>  <ligand_id>  (144) 
42

>  <original_smiles>  (144) 
Oc1cc2cccnc2n1-c1ccc2n[nH]c(Cl)c2c1

>  <smiles>  (144) 
[H]c1nc2c(c([H])c1[H])c([H])c([O-])n2-c1c([H])c([H])c2nn([H])c(Cl)c2c1[H]

$$$$
43:0:0
     RDKit          3D

 41 46  0  0  1  0  0  0  0  0999 V2000
   -9.1929   -5.9368  -10.0280 C   0  0  0  0  0  0  0  0  0  0  0  0
   -9.2748   -7.3959   -9.8507 N   0  0  0  0  0  0  0  0  0  0  0  0
  -10.3853   -7.9777   -9.3191 C   0  0  0  0  0  0  0  0  0  0  0  0
  -11.3492   -7.3350   -8.9328 O   0  0  0  0  0  0  0  0  0  0  0  0
  -10.3084   -9.4439   -9.2309 C   0  0  0  0  0  0  0  0  0  0  0  0
   -9.5070  -10.0847  -10.0894 C   0  0  0  0  0  0  0  0  0  0  0  0
   -8.0820   -9.6844   -9.9748 C   0  0  1  0  0  0  0  0  0  0  0  0
   -7.3161  -10.9092   -9.4290 C   0  0  0  0  0  0  0  0  0  0  0  0
   -7.6994  -11.2062   -7.9149 C   0  0  1  0  0  0  0  0  0  0  0  0
   -8.2053  -12.6507   -7.6864 C   0  0  0  0  0  0  0  0  0  0  0  0
   -7.2901  -13.6289   -8.1461 O   0  0  0  0  0  0  0  0  0  0  0  0
   -6.5192  -10.7896   -7.0441 C   0  0  0  0  0  0  0  0  0  0  0  0
   -5.5040  -11.5705   -6.4583 C   0  0  0  0  0  0  0  0  0  0  0  0
   -4.5608  -10.9193   -5.6270 C   0  0  0  0  0  0  0  0  0  0  0  0
   -4.6444   -9.5181   -5.3823 C   0  0  0  0  0  0  0  0  0  0  0  0
   -5.6752   -8.7483   -5.9669 C   0  0  0  0  0  0  0  0  0  0  0  0
   -6.5965   -9.4110   -6.7941 C   0  0  0  0  0  0  0  0  0  0  0  0
   -7.8129   -8.8515   -7.4878 C   0  0  2  0  0  0  0  0  0  0  0  0
   -8.7148  -10.1150   -7.3648 C   0  0  1  0  0  0  0  0  0  0  0  0
  -10.2065  -10.0013   -7.8382 C   0  0  0  0  0  0  0  0  0  0  0  0
   -7.4028   -8.6771   -8.9592 C   0  0  2  0  0  0  0  0  0  0  0  0
   -8.0593   -8.1235  -10.0886 C   0  0  2  0  0  0  0  0  0  0  0  0
  -10.1169   -5.4320   -9.7510 H   0  0  0  0  0  0  0  0  0  0  0  0
   -8.9901   -5.6749  -11.0689 H   0  0  0  0  0  0  0  0  0  0  0  0
   -8.4066   -5.5177   -9.3987 H   0  0  0  0  0  0  0  0  0  0  0  0
   -9.5761  -11.1675  -10.0164 H   0  0  0  0  0  0  0  0  0  0  0  0
   -7.5401  -11.7717  -10.0668 H   0  0  0  0  0  0  0  0  0  0  0  0
   -6.2431  -10.7751   -9.5242 H   0  0  0  0  0  0  0  0  0  0  0  0
   -8.4273  -12.8280   -6.6371 H   0  0  0  0  0  0  0  0  0  0  0  0
   -9.1338  -12.8059   -8.2373 H   0  0  0  0  0  0  0  0  0  0  0  0
   -7.1689  -13.5179   -9.0728 H   0  0  0  0  0  0  0  0  0  0  0  0
   -5.4486  -12.6424   -6.6074 H   0  0  0  0  0  0  0  0  0  0  0  0
   -3.7805  -11.4857   -5.1482 H   0  0  0  0  0  0  0  0  0  0  0  0
   -3.9302   -9.0569   -4.7212 H   0  0  0  0  0  0  0  0  0  0  0  0
   -5.7760   -7.6897   -5.7585 H   0  0  0  0  0  0  0  0  0  0  0  0
   -8.2003   -7.9327   -7.0389 H   0  0  0  0  0  0  0  0  0  0  0  0
   -8.8315  -10.3168   -6.2953 H   0  0  0  0  0  0  0  0  0  0  0  0
  -10.7579   -9.3498   -7.1609 H   0  0  0  0  0  0  0  0  0  0  0  0
  -10.7059  -10.9691   -7.7862 H   0  0  0  0  0  0  0  0  0  0  0  0
   -6.3300   -8.5320   -9.0683 H   0  0  0  0  0  0  0  0  0  0  0  0
   -7.4407   -7.7581  -10.8983 H   0  0  0  0  0  0  0  0  0  0  0  0
  1  2  1  0
  1 23  1  0
  1 24  1  0
  1 25  1  0
  2 22  1  0
  2  3  1  0
  3  4  2  0
  3  5  1  0
  5 20  1  0
  5  6  2  0
  6  7  1  0
  6 26  1  0
  7 21  1  0
  7 22  1  0
  7  8  1  6
  8  9  1  0
  8 27  1  0
  8 28  1  0
  9 19  1  0
  9 10  1  6
  9 12  1  0
 10 11  1  0
 10 29  1  0
 10 30  1  0
 11 31  1  0
 12 17  2  0
 12 13  1  0
 13 14  2  0
 13 32  1  0
 14 15  1  0
 14 33  1  0
 15 16  2  0
 15 34  1  0
 16 17  1  0
 16 35  1  0
 17 18  1  0
 18 19  1  0
 18 21  1  0
 18 36  1  1
 19 20  1  0
 19 37  1  1
 20 38  1  0
 20 39  1  0
 21 22  1  0
 21 40  1  1
 22 41  1  6
M  END
>  <i_m_ct_stereo_status>  (145) 
1

>  <s_m_source_file>  (145) 
/var/tmp/pbs.5083856.sched01/tmpbdv5b_9q/60mhvd3wad.sdf

>  <i_m_source_file_index>  (145) 
3

>  <i_lp_mmshare_version>  (145) 
48012

>  <i_f3d_flags>  (145) 
1

>  <s_epik_input>  (145) 
W0NIM11OKFtDQEhdMTIpQyg9TylDKD1bQ0hdMylbQ0gyXVtDQEhdNFtDQF0oW0NIMl01KShbQ0gyXVtPSF0pYyhjNltDQEhdNFtDQEhdMltDQF0xMzUpW2NIXVtjSF1bY0hdW2NIXTY=

>  <s_epik_cmdline>  (145) 
J2VwaWtfcHl0aG9uJywgJy1waHQnLCAnMi4wJywgJy1waCcsICc3LjAnLCAnLXRuJywgJzgnLCAnLW1hJywgJzIwMCcsICctaW1hZScsICc8aW5maWxlLm1hZT4nLCAnLW9tYWUnLCAnPG91dGZpbGUubWFlPic=

>  <r_lp_tautomer_probability>  (145) 
1

>  <r_epik_Ionization_Penalty>  (145) 
1.65338e-05

>  <r_epik_Ionization_Penalty_Charging>  (145) 
0

>  <r_epik_Ionization_Penalty_Neutral>  (145) 
1.65338e-05

>  <r_epik_State_Penalty>  (145) 
-0

>  <r_epik_Charging_Adjusted_Penalty>  (145) 
0

>  <i_epik_Tot_Q>  (145) 
0

>  <i_epik_Tot_abs_Q>  (145) 
0

>  <s_lp_Force_Field>  (145) 
OPLS3e

>  <r_lp_Energy>  (145) 
208.267

>  <b_lp_Chiralities_Consistent>  (145) 
1

>  <s_lp_Variant>  (145) 
43:0-1

>  <s_i_glide_gridfile>  (145) 
pfpi4k_grid

>  <i_i_glide_lignum>  (145) 
3

>  <i_i_glide_rotatable_bonds>  (145) 
2

>  <r_i_docking_score>  (145) 
-4.35165

>  <r_i_glide_ligand_efficiency>  (145) 
-0.197802

>  <r_i_glide_ligand_efficiency_sa>  (145) 
-0.55425

>  <r_i_glide_ligand_efficiency_ln>  (145) 
-1.0637

>  <r_i_glide_gscore>  (145) 
-4.35165

>  <r_i_glide_lipo>  (145) 
-1.59086

>  <r_i_glide_hbond>  (145) 
0

>  <r_i_glide_metal>  (145) 
-0

>  <r_i_glide_rewards>  (145) 
-1.78237

>  <r_i_glide_evdw>  (145) 
-24.2967

>  <r_i_glide_ecoul>  (145) 
0.187177

>  <r_i_glide_erotb>  (145) 
0.212313

>  <r_i_glide_esite>  (145) 
-0.00398387

>  <r_i_glide_emodel>  (145) 
-31.3952

>  <r_i_glide_energy>  (145) 
-24.1095

>  <r_i_glide_einternal>  (145) 
0.0102612

>  <r_i_glide_intrahb_reward>  (145) 
-0

>  <i_i_glide_confnum>  (145) 
4

>  <i_i_glide_posenum>  (145) 
12

>  <r_i_glide_eff_state_penalty>  (145) 
0

>  <ligand_id>  (145) 
43

>  <original_smiles>  (145) 
CN1C(=O)C2=CC34CC5(CO)c6ccccc6C(C5C2)C3C14

>  <smiles>  (145) 
[H]OC([H])([H])C12c3c([H])c([H])c([H])c([H])c3C3([H])C4([H])C5([H])N(C([H])([H])[H])C(=O)C(=C([H])C54C1([H])[H])C([H])([H])C32[H]

$$$$
43:0:1
     RDKit          3D

 41 46  0  0  1  0  0  0  0  0999 V2000
  -10.4196   -7.5198   -9.9693 C   0  0  0  0  0  0  0  0  0  0  0  0
  -10.0121   -8.8742   -9.5718 N   0  0  0  0  0  0  0  0  0  0  0  0
  -10.8225   -9.6664   -8.8179 C   0  0  0  0  0  0  0  0  0  0  0  0
  -11.9151   -9.2957   -8.4012 O   0  0  0  0  0  0  0  0  0  0  0  0
  -10.2681  -10.9958   -8.5350 C   0  0  0  0  0  0  0  0  0  0  0  0
   -9.3774  -11.5098   -9.3830 C   0  0  0  0  0  0  0  0  0  0  0  0
   -8.1520  -10.6747   -9.5314 C   0  0  1  0  0  0  0  0  0  0  0  0
   -6.9872  -11.4911   -8.9189 C   0  0  0  0  0  0  0  0  0  0  0  0
   -7.1335  -11.6153   -7.3397 C   0  0  1  0  0  0  0  0  0  0  0  0
   -7.1236  -13.0794   -6.8333 C   0  0  0  0  0  0  0  0  0  0  0  0
   -5.9916  -13.8024   -7.2700 O   0  0  0  0  0  0  0  0  0  0  0  0
   -6.0864  -10.7025   -6.6959 C   0  0  0  0  0  0  0  0  0  0  0  0
   -4.8325  -11.0243   -6.1358 C   0  0  0  0  0  0  0  0  0  0  0  0
   -4.1058   -9.9787   -5.5213 C   0  0  0  0  0  0  0  0  0  0  0  0
   -4.6087   -8.6606   -5.4815 C   0  0  0  0  0  0  0  0  0  0  0  0
   -5.8660   -8.3489   -6.0367 C   0  0  0  0  0  0  0  0  0  0  0  0
   -6.5819   -9.4032   -6.6398 C   0  0  0  0  0  0  0  0  0  0  0  0
   -7.9678   -9.3712   -7.2467 C   0  0  2  0  0  0  0  0  0  0  0  0
   -8.3959  -10.8046   -6.8153 C   0  0  1  0  0  0  0  0  0  0  0  0
   -9.8794  -11.2362   -7.0992 C   0  0  0  0  0  0  0  0  0  0  0  0
   -7.7486   -9.3492   -8.7670 C   0  0  2  0  0  0  0  0  0  0  0  0
   -8.6440   -9.2323   -9.8734 C   0  0  2  0  0  0  0  0  0  0  0  0
  -11.4355   -7.2620   -9.6543 H   0  0  0  0  0  0  0  0  0  0  0  0
  -10.3931   -7.4032  -11.0550 H   0  0  0  0  0  0  0  0  0  0  0  0
   -9.7597   -6.7747   -9.5200 H   0  0  0  0  0  0  0  0  0  0  0  0
   -9.0873  -12.5224   -9.1467 H   0  0  0  0  0  0  0  0  0  0  0  0
   -6.9771  -12.4761   -9.3838 H   0  0  0  0  0  0  0  0  0  0  0  0
   -6.0261  -11.0558   -9.1871 H   0  0  0  0  0  0  0  0  0  0  0  0
   -7.1897  -13.1316   -5.7448 H   0  0  0  0  0  0  0  0  0  0  0  0
   -7.9955  -13.6037   -7.2258 H   0  0  0  0  0  0  0  0  0  0  0  0
   -5.9596  -13.7661   -8.2188 H   0  0  0  0  0  0  0  0  0  0  0  0
   -4.4480  -12.0352   -6.1347 H   0  0  0  0  0  0  0  0  0  0  0  0
   -3.1307  -10.1889   -5.0961 H   0  0  0  0  0  0  0  0  0  0  0  0
   -4.0223   -7.8832   -5.0040 H   0  0  0  0  0  0  0  0  0  0  0  0
   -6.2833   -7.3527   -5.9829 H   0  0  0  0  0  0  0  0  0  0  0  0
   -8.5907   -8.5503   -6.8882 H   0  0  0  0  0  0  0  0  0  0  0  0
   -8.3619  -10.8302   -5.7248 H   0  0  0  0  0  0  0  0  0  0  0  0
  -10.5459  -10.6570   -6.4590 H   0  0  0  0  0  0  0  0  0  0  0  0
  -10.0354  -12.2849   -6.8428 H   0  0  0  0  0  0  0  0  0  0  0  0
   -6.7944   -8.9072   -9.0364 H   0  0  0  0  0  0  0  0  0  0  0  0
   -8.2465   -8.8504  -10.8034 H   0  0  0  0  0  0  0  0  0  0  0  0
  1  2  1  0
  1 23  1  0
  1 24  1  0
  1 25  1  0
  2 22  1  0
  2  3  1  0
  3  4  2  0
  3  5  1  0
  5 20  1  0
  5  6  2  0
  6  7  1  0
  6 26  1  0
  7 21  1  0
  7 22  1  0
  7  8  1  6
  8  9  1  0
  8 27  1  0
  8 28  1  0
  9 19  1  0
  9 10  1  1
  9 12  1  0
 10 11  1  0
 10 29  1  0
 10 30  1  0
 11 31  1  0
 12 17  2  0
 12 13  1  0
 13 14  2  0
 13 32  1  0
 14 15  1  0
 14 33  1  0
 15 16  2  0
 15 34  1  0
 16 17  1  0
 16 35  1  0
 17 18  1  0
 18 19  1  0
 18 21  1  0
 18 36  1  1
 19 20  1  0
 19 37  1  1
 20 38  1  0
 20 39  1  0
 21 22  1  0
 21 40  1  1
 22 41  1  6
M  END
>  <i_m_ct_stereo_status>  (146) 
1

>  <s_m_source_file>  (146) 
/var/tmp/pbs.5083856.sched01/tmpbdv5b_9q/60mhvd3wad.sdf

>  <i_m_source_file_index>  (146) 
3

>  <i_lp_mmshare_version>  (146) 
48012

>  <i_f3d_flags>  (146) 
1

>  <s_epik_input>  (146) 
W0NIM11OKFtDQEhdMTIpQyg9TylDKD1bQ0hdMylbQ0gyXVtDQEhdNFtDQF0oW0NIMl01KShbQ0gyXVtPSF0pYyhjNltDQEhdNFtDQEhdMltDQF0xMzUpW2NIXVtjSF1bY0hdW2NIXTY=

>  <s_epik_cmdline>  (146) 
J2VwaWtfcHl0aG9uJywgJy1waHQnLCAnMi4wJywgJy1waCcsICc3LjAnLCAnLXRuJywgJzgnLCAnLW1hJywgJzIwMCcsICctaW1hZScsICc8aW5maWxlLm1hZT4nLCAnLW9tYWUnLCAnPG91dGZpbGUubWFlPic=

>  <r_lp_tautomer_probability>  (146) 
1

>  <r_epik_Ionization_Penalty>  (146) 
1.65338e-05

>  <r_epik_Ionization_Penalty_Charging>  (146) 
0

>  <r_epik_Ionization_Penalty_Neutral>  (146) 
1.65338e-05

>  <r_epik_State_Penalty>  (146) 
-0

>  <r_epik_Charging_Adjusted_Penalty>  (146) 
0

>  <i_epik_Tot_Q>  (146) 
0

>  <i_epik_Tot_abs_Q>  (146) 
0

>  <s_lp_Force_Field>  (146) 
OPLS3e

>  <r_lp_Energy>  (146) 
208.267

>  <b_lp_Chiralities_Consistent>  (146) 
1

>  <s_lp_Variant>  (146) 
43:0-1

>  <s_i_glide_gridfile>  (146) 
pfpi4k_grid

>  <i_i_glide_lignum>  (146) 
3

>  <i_i_glide_rotatable_bonds>  (146) 
2

>  <r_i_docking_score>  (146) 
-4.2938

>  <r_i_glide_ligand_efficiency>  (146) 
-0.195173

>  <r_i_glide_ligand_efficiency_sa>  (146) 
-0.546881

>  <r_i_glide_ligand_efficiency_ln>  (146) 
-1.04956

>  <r_i_glide_gscore>  (146) 
-4.2938

>  <r_i_glide_lipo>  (146) 
-1.72292

>  <r_i_glide_hbond>  (146) 
0

>  <r_i_glide_metal>  (146) 
-0

>  <r_i_glide_rewards>  (146) 
-1.68391

>  <r_i_glide_evdw>  (146) 
-25.5303

>  <r_i_glide_ecoul>  (146) 
1.20127

>  <r_i_glide_erotb>  (146) 
0.212313

>  <r_i_glide_esite>  (146) 
-0.00295391

>  <r_i_glide_emodel>  (146) 
-31.5244

>  <r_i_glide_energy>  (146) 
-24.3291

>  <r_i_glide_einternal>  (146) 
0.00111125

>  <r_i_glide_intrahb_reward>  (146) 
-0

>  <i_i_glide_confnum>  (146) 
1

>  <i_i_glide_posenum>  (146) 
6

>  <r_i_glide_eff_state_penalty>  (146) 
0

>  <ligand_id>  (146) 
43

>  <original_smiles>  (146) 
CN1C(=O)C2=CC34CC5(CO)c6ccccc6C(C5C2)C3C14

>  <smiles>  (146) 
[H]OC([H])([H])C12c3c([H])c([H])c([H])c([H])c3C3([H])C4([H])C5([H])N(C([H])([H])[H])C(=O)C(=C([H])C54C1([H])[H])C([H])([H])C32[H]

$$$$
43:0:2
     RDKit          3D

 41 46  0  0  1  0  0  0  0  0999 V2000
    1.9415   -7.2258    1.5008 C   0  0  0  0  0  0  0  0  0  0  0  0
    2.7652   -6.0370    1.7636 N   0  0  0  0  0  0  0  0  0  0  0  0
    2.3827   -5.1042    2.6730 C   0  0  0  0  0  0  0  0  0  0  0  0
    1.3211   -5.1736    3.2910 O   0  0  0  0  0  0  0  0  0  0  0  0
    3.3230   -3.9904    2.8342 C   0  0  0  0  0  0  0  0  0  0  0  0
    4.6093   -4.1989    2.5372 C   0  0  0  0  0  0  0  0  0  0  0  0
    4.8433   -4.6198    1.1310 C   0  0  1  0  0  0  0  0  0  0  0  0
    5.5988   -3.4555    0.4413 C   0  0  0  0  0  0  0  0  0  0  0  0
    4.6739   -2.1628    0.2830 C   0  0  1  0  0  0  0  0  0  0  0  0
    5.2791   -0.8806    0.9094 C   0  0  0  0  0  0  0  0  0  0  0  0
    6.6115   -0.6594    0.4771 O   0  0  0  0  0  0  0  0  0  0  0  0
    4.2961   -2.0373   -1.1909 C   0  0  0  0  0  0  0  0  0  0  0  0
    4.8155   -1.1974   -2.1952 C   0  0  0  0  0  0  0  0  0  0  0  0
    4.2143   -1.2357   -3.4736 C   0  0  0  0  0  0  0  0  0  0  0  0
    3.1084   -2.0830   -3.7324 C   0  0  0  0  0  0  0  0  0  0  0  0
    2.5930   -2.9169   -2.7216 C   0  0  0  0  0  0  0  0  0  0  0  0
    3.2108   -2.8707   -1.4603 C   0  0  0  0  0  0  0  0  0  0  0  0
    2.8185   -3.5809   -0.1895 C   0  0  2  0  0  0  0  0  0  0  0  0
    3.2032   -2.4528    0.8053 C   0  0  1  0  0  0  0  0  0  0  0  0
    2.8385   -2.6604    2.3169 C   0  0  0  0  0  0  0  0  0  0  0  0
    3.8104   -4.7454   -0.0501 C   0  0  2  0  0  0  0  0  0  0  0  0
    3.8963   -5.8366    0.8808 C   0  0  2  0  0  0  0  0  0  0  0  0
    1.0701   -7.3050    2.1529 H   0  0  0  0  0  0  0  0  0  0  0  0
    2.5191   -8.1410    1.6446 H   0  0  0  0  0  0  0  0  0  0  0  0
    1.5515   -7.1967    0.4831 H   0  0  0  0  0  0  0  0  0  0  0  0
    5.2532   -3.3576    2.7644 H   0  0  0  0  0  0  0  0  0  0  0  0
    6.4853   -3.2157    1.0347 H   0  0  0  0  0  0  0  0  0  0  0  0
    6.0075   -3.7646   -0.5214 H   0  0  0  0  0  0  0  0  0  0  0  0
    4.6638    0.0002    0.7091 H   0  0  0  0  0  0  0  0  0  0  0  0
    5.3195   -0.9988    1.9922 H   0  0  0  0  0  0  0  0  0  0  0  0
    7.0226    0.0003    1.0294 H   0  0  0  0  0  0  0  0  0  0  0  0
    5.6424   -0.5306   -1.9915 H   0  0  0  0  0  0  0  0  0  0  0  0
    4.5942   -0.6134   -4.2674 H   0  0  0  0  0  0  0  0  0  0  0  0
    2.6477   -2.0839   -4.7040 H   0  0  0  0  0  0  0  0  0  0  0  0
    1.7274   -3.5397   -2.8968 H   0  0  0  0  0  0  0  0  0  0  0  0
    1.7875   -3.9168   -0.1738 H   0  0  0  0  0  0  0  0  0  0  0  0
    2.6104   -1.5745    0.5474 H   0  0  0  0  0  0  0  0  0  0  0  0
    1.7560   -2.6018    2.4370 H   0  0  0  0  0  0  0  0  0  0  0  0
    3.2470   -1.8561    2.9281 H   0  0  0  0  0  0  0  0  0  0  0  0
    4.2046   -5.0599   -1.0162 H   0  0  0  0  0  0  0  0  0  0  0  0
    4.4133   -6.7340    0.5604 H   0  0  0  0  0  0  0  0  0  0  0  0
  1  2  1  0
  1 23  1  0
  1 24  1  0
  1 25  1  0
  2 22  1  0
  2  3  1  0
  3  4  2  0
  3  5  1  0
  5 20  1  0
  5  6  2  0
  6  7  1  0
  6 26  1  0
  7 21  1  0
  7 22  1  0
  7  8  1  6
  8  9  1  0
  8 27  1  0
  8 28  1  0
  9 19  1  0
  9 10  1  1
  9 12  1  0
 10 11  1  0
 10 29  1  0
 10 30  1  0
 11 31  1  0
 12 17  2  0
 12 13  1  0
 13 14  2  0
 13 32  1  0
 14 15  1  0
 14 33  1  0
 15 16  2  0
 15 34  1  0
 16 17  1  0
 16 35  1  0
 17 18  1  0
 18 19  1  0
 18 21  1  0
 18 36  1  6
 19 20  1  0
 19 37  1  6
 20 38  1  0
 20 39  1  0
 21 22  1  0
 21 40  1  6
 22 41  1  6
M  END
>  <i_m_ct_stereo_status>  (147) 
1

>  <s_m_source_file>  (147) 
/var/tmp/pbs.5083856.sched01/tmpbdv5b_9q/60mhvd3wad.sdf

>  <i_m_source_file_index>  (147) 
3

>  <i_lp_mmshare_version>  (147) 
48012

>  <i_f3d_flags>  (147) 
1

>  <s_epik_input>  (147) 
W0NIM11OKFtDQEhdMTIpQyg9TylDKD1bQ0hdMylbQ0gyXVtDQEhdNFtDQF0oW0NIMl01KShbQ0gyXVtPSF0pYyhjNltDQEhdNFtDQEhdMltDQF0xMzUpW2NIXVtjSF1bY0hdW2NIXTY=

>  <s_epik_cmdline>  (147) 
J2VwaWtfcHl0aG9uJywgJy1waHQnLCAnMi4wJywgJy1waCcsICc3LjAnLCAnLXRuJywgJzgnLCAnLW1hJywgJzIwMCcsICctaW1hZScsICc8aW5maWxlLm1hZT4nLCAnLW9tYWUnLCAnPG91dGZpbGUubWFlPic=

>  <r_lp_tautomer_probability>  (147) 
1

>  <r_epik_Ionization_Penalty>  (147) 
1.65338e-05

>  <r_epik_Ionization_Penalty_Charging>  (147) 
0

>  <r_epik_Ionization_Penalty_Neutral>  (147) 
1.65338e-05

>  <r_epik_State_Penalty>  (147) 
-0

>  <r_epik_Charging_Adjusted_Penalty>  (147) 
0

>  <i_epik_Tot_Q>  (147) 
0

>  <i_epik_Tot_abs_Q>  (147) 
0

>  <s_lp_Force_Field>  (147) 
OPLS3e

>  <r_lp_Energy>  (147) 
208.267

>  <b_lp_Chiralities_Consistent>  (147) 
1

>  <s_lp_Variant>  (147) 
43:0-1

>  <s_i_glide_gridfile>  (147) 
pfpi4k_grid

>  <i_i_glide_lignum>  (147) 
3

>  <i_i_glide_rotatable_bonds>  (147) 
2

>  <r_i_docking_score>  (147) 
-3.89701

>  <r_i_glide_ligand_efficiency>  (147) 
-0.177137

>  <r_i_glide_ligand_efficiency_sa>  (147) 
-0.496345

>  <r_i_glide_ligand_efficiency_ln>  (147) 
-0.952573

>  <r_i_glide_gscore>  (147) 
-3.89701

>  <r_i_glide_lipo>  (147) 
-0.6482

>  <r_i_glide_hbond>  (147) 
-0.320894

>  <r_i_glide_metal>  (147) 
-0

>  <r_i_glide_rewards>  (147) 
-1.40891

>  <r_i_glide_evdw>  (147) 
-22.4572

>  <r_i_glide_ecoul>  (147) 
-3.9804

>  <r_i_glide_erotb>  (147) 
0.212313

>  <r_i_glide_esite>  (147) 
-0.0114051

>  <r_i_glide_emodel>  (147) 
-32.6808

>  <r_i_glide_energy>  (147) 
-26.4376

>  <r_i_glide_einternal>  (147) 
0.473146

>  <r_i_glide_intrahb_reward>  (147) 
-0

>  <i_i_glide_confnum>  (147) 
4

>  <i_i_glide_posenum>  (147) 
4

>  <r_i_glide_eff_state_penalty>  (147) 
0

>  <ligand_id>  (147) 
43

>  <original_smiles>  (147) 
CN1C(=O)C2=CC34CC5(CO)c6ccccc6C(C5C2)C3C14

>  <smiles>  (147) 
[H]OC([H])([H])C12c3c([H])c([H])c([H])c([H])c3C3([H])C4([H])C5([H])N(C([H])([H])[H])C(=O)C(=C([H])C54C1([H])[H])C([H])([H])C32[H]

$$$$
44:0:0
     RDKit          3D

 41 46  0  0  1  0  0  0  0  0999 V2000
    3.5362    0.3388   -4.8507 C   0  0  0  0  0  0  0  0  0  0  0  0
    3.8250   -1.0402   -4.7176 O   0  0  0  0  0  0  0  0  0  0  0  0
    3.5921   -1.5610   -3.4706 C   0  0  0  0  0  0  0  0  0  0  0  0
    4.1263   -1.0536   -2.3638 N   0  0  0  0  0  0  0  0  0  0  0  0
    3.7732   -1.8788   -1.3373 N   0  0  0  0  0  0  0  0  0  0  0  0
    3.9948   -1.8906    0.0298 C   0  0  0  0  0  0  0  0  0  0  0  0
    3.3416   -3.0106    0.4875 C   0  0  0  0  0  0  0  0  0  0  0  0
    3.2309   -3.5149    1.8487 C   0  0  0  0  0  0  0  0  0  0  0  0
    3.9025   -3.1908    3.0013 C   0  0  0  0  0  0  0  0  0  0  0  0
    3.3585   -4.0358    4.0292 C   0  0  0  0  0  0  0  0  0  0  0  0
    3.5640   -4.2320    5.4114 C   0  0  0  0  0  0  0  0  0  0  0  0
    4.7685   -3.2977    6.2188 Cl  0  0  0  0  0  0  0  0  0  0  0  0
    2.8073   -5.1815    6.1309 C   0  0  0  0  0  0  0  0  0  0  0  0
    1.8164   -5.9555    5.4861 C   0  0  0  0  0  0  0  0  0  0  0  0
    1.5773   -5.7914    4.0999 C   0  0  0  0  0  0  0  0  0  0  0  0
    0.5860   -6.5435    3.4327 N   0  0  0  0  0  0  0  0  0  0  0  0
    0.7005   -6.9498    2.0332 C   0  0  0  0  0  0  0  0  0  0  0  0
   -0.4530   -7.8866    1.7899 C   0  0  1  0  0  0  0  0  0  0  0  0
   -0.5827   -9.2176    2.4907 C   0  0  0  0  0  0  0  0  0  0  0  0
   -1.2472   -7.9846    3.0595 C   0  0  1  0  0  0  0  0  0  0  0  0
   -0.5796   -7.1183    4.1010 C   0  0  0  0  0  0  0  0  0  0  0  0
    2.3640   -4.8365    3.4095 C   0  0  0  0  0  0  0  0  0  0  0  0
    2.2971   -4.4933    2.0740 O   0  0  0  0  0  0  0  0  0  0  0  0
    2.7196   -3.6988   -0.5616 N   0  0  0  0  0  0  0  0  0  0  0  0
    3.0008   -2.9932   -1.6232 C   0  0  0  0  0  0  0  0  0  0  0  0
    2.6635   -3.0521   -3.3526 S   0  0  0  0  0  0  0  0  0  0  0  0
    3.6525    0.6163   -5.8992 H   0  0  0  0  0  0  0  0  0  0  0  0
    4.2112    0.9556   -4.2562 H   0  0  0  0  0  0  0  0  0  0  0  0
    2.5060    0.5627   -4.5637 H   0  0  0  0  0  0  0  0  0  0  0  0
    4.5545   -1.1209    0.5405 H   0  0  0  0  0  0  0  0  0  0  0  0
    4.6835   -2.4551    3.1129 H   0  0  0  0  0  0  0  0  0  0  0  0
    3.0020   -5.3159    7.1853 H   0  0  0  0  0  0  0  0  0  0  0  0
    1.2662   -6.6801    6.0656 H   0  0  0  0  0  0  0  0  0  0  0  0
    0.5949   -6.0965    1.3685 H   0  0  0  0  0  0  0  0  0  0  0  0
    1.6493   -7.4434    1.8185 H   0  0  0  0  0  0  0  0  0  0  0  0
   -0.9787   -7.7827    0.8438 H   0  0  0  0  0  0  0  0  0  0  0  0
   -1.2231   -9.9655    2.0244 H   0  0  0  0  0  0  0  0  0  0  0  0
    0.2945   -9.6118    3.0026 H   0  0  0  0  0  0  0  0  0  0  0  0
   -2.3329   -7.9372    3.0019 H   0  0  0  0  0  0  0  0  0  0  0  0
   -0.3321   -7.7153    4.9767 H   0  0  0  0  0  0  0  0  0  0  0  0
   -1.2518   -6.3164    4.3997 H   0  0  0  0  0  0  0  0  0  0  0  0
  1  2  1  0
  1 27  1  0
  1 28  1  0
  1 29  1  0
  2  3  1  0
  3 26  1  0
  3  4  2  0
  4  5  1  0
  5 25  1  0
  5  6  1  0
  6  7  2  0
  6 30  1  0
  7  8  1  0
  7 24  1  0
  8 23  1  0
  8  9  2  0
  9 10  1  0
  9 31  1  0
 10 22  2  0
 10 11  1  0
 11 12  1  0
 11 13  2  0
 13 14  1  0
 13 32  1  0
 14 15  2  0
 14 33  1  0
 15 16  1  0
 15 22  1  0
 16 21  1  0
 16 17  1  0
 17 18  1  0
 17 34  1  0
 17 35  1  0
 18 20  1  0
 18 19  1  0
 18 36  1  6
 19 20  1  0
 19 37  1  0
 19 38  1  0
 20 21  1  0
 20 39  1  6
 21 40  1  0
 21 41  1  0
 22 23  1  0
 24 25  2  0
 25 26  1  0
M  END
>  <i_m_ct_stereo_status>  (148) 
1

>  <s_m_source_file>  (148) 
/var/tmp/pbs.5083856.sched01/tmpbdv5b_9q/60mhvd3wad.sdf

>  <i_m_source_file_index>  (148) 
4

>  <i_lp_mmshare_version>  (148) 
48012

>  <i_f3d_flags>  (148) 
0

>  <s_epik_input>  (148) 
W0NIM11PYyhuMSlzYyhuMTIpbmMoW2NIXTIpLWMoW2NIXTMpb2MoYzM0KWMoW2NIXVtjSF1jNENsKU4oW0NIMl01KVtDSDJdW0NAQEhdKFtDQEhdNTYpW0NIMl02

>  <s_epik_cmdline>  (148) 
J2VwaWtfcHl0aG9uJywgJy1waHQnLCAnMi4wJywgJy1waCcsICc3LjAnLCAnLXRuJywgJzgnLCAnLW1hJywgJzIwMCcsICctaW1hZScsICc8aW5maWxlLm1hZT4nLCAnLW9tYWUnLCAnPG91dGZpbGUubWFlPic=

>  <r_lp_tautomer_probability>  (148) 
1

>  <r_epik_Ionization_Penalty>  (148) 
0.00202555

>  <r_epik_Ionization_Penalty_Charging>  (148) 
0.00153498

>  <r_epik_Ionization_Penalty_Neutral>  (148) 
0.000490567

>  <r_epik_State_Penalty>  (148) 
-0

>  <r_epik_Charging_Adjusted_Penalty>  (148) 
0.00153498

>  <i_epik_Tot_Q>  (148) 
0

>  <i_epik_Tot_abs_Q>  (148) 
0

>  <s_lp_Force_Field>  (148) 
OPLS3e

>  <r_lp_Energy>  (148) 
14.2913

>  <b_lp_Chiralities_Consistent>  (148) 
1

>  <s_lp_Variant>  (148) 
44:0-1

>  <s_i_glide_gridfile>  (148) 
pfpi4k_grid

>  <i_i_glide_lignum>  (148) 
4

>  <i_i_glide_rotatable_bonds>  (148) 
3

>  <r_i_docking_score>  (148) 
-3.29918

>  <r_i_glide_ligand_efficiency>  (148) 
-0.126892

>  <r_i_glide_ligand_efficiency_sa>  (148) 
-0.375916

>  <r_i_glide_ligand_efficiency_ln>  (148) 
-0.774803

>  <r_i_glide_gscore>  (148) 
-3.29918

>  <r_i_glide_lipo>  (148) 
-0.541067

>  <r_i_glide_hbond>  (148) 
-0.32

>  <r_i_glide_metal>  (148) 
-0

>  <r_i_glide_rewards>  (148) 
-0.771436

>  <r_i_glide_evdw>  (148) 
-35.1339

>  <r_i_glide_ecoul>  (148) 
-0.4674

>  <r_i_glide_erotb>  (148) 
0.260163

>  <r_i_glide_esite>  (148) 
-0.100042

>  <r_i_glide_emodel>  (148) 
-40.7075

>  <r_i_glide_energy>  (148) 
-35.6013

>  <r_i_glide_einternal>  (148) 
4.63597

>  <r_i_glide_intrahb_reward>  (148) 
-0

>  <i_i_glide_confnum>  (148) 
2

>  <i_i_glide_posenum>  (148) 
15

>  <r_i_glide_eff_state_penalty>  (148) 
0

>  <ligand_id>  (148) 
44

>  <original_smiles>  (148) 
COc1nn2cc(-c3cc4c(Cl)ccc(N5CC6CC6C5)c4o3)nc2s1

>  <smiles>  (148) 
[H]c1c([H])c(Cl)c2c([H])c(-c3nc4sc(OC([H])([H])[H])nn4c3[H])oc2c1N1C([H])([H])C2([H])C([H])([H])C2([H])C1([H])[H]

$$$$
44:0:1
     RDKit          3D

 41 46  0  0  1  0  0  0  0  0999 V2000
   -2.9626    3.5983    2.5414 C   0  0  0  0  0  0  0  0  0  0  0  0
   -2.5562    2.9541    3.7347 O   0  0  0  0  0  0  0  0  0  0  0  0
   -1.5978    1.9748    3.6229 C   0  0  0  0  0  0  0  0  0  0  0  0
   -0.8909    1.7314    2.5208 N   0  0  0  0  0  0  0  0  0  0  0  0
   -0.0386    0.7098    2.8053 N   0  0  0  0  0  0  0  0  0  0  0  0
    0.9341    0.0243    2.0993 C   0  0  0  0  0  0  0  0  0  0  0  0
    1.4190   -0.9130    2.9832 C   0  0  0  0  0  0  0  0  0  0  0  0
    2.4415   -1.9237    2.7620 C   0  0  0  0  0  0  0  0  0  0  0  0
    3.1462   -2.7344    3.6189 C   0  0  0  0  0  0  0  0  0  0  0  0
    4.0396   -3.5041    2.7870 C   0  0  0  0  0  0  0  0  0  0  0  0
    5.0303   -4.4947    2.9758 C   0  0  0  0  0  0  0  0  0  0  0  0
    5.3953   -5.0249    4.5748 Cl  0  0  0  0  0  0  0  0  0  0  0  0
    5.7317   -5.0396    1.8799 C   0  0  0  0  0  0  0  0  0  0  0  0
    5.4580   -4.6117    0.5656 C   0  0  0  0  0  0  0  0  0  0  0  0
    4.4780   -3.6177    0.3271 C   0  0  0  0  0  0  0  0  0  0  0  0
    4.2056   -3.1766   -0.9850 N   0  0  0  0  0  0  0  0  0  0  0  0
    4.9009   -3.6892   -2.1623 C   0  0  0  0  0  0  0  0  0  0  0  0
    4.2389   -3.0227   -3.3423 C   0  0  1  0  0  0  0  0  0  0  0  0
    2.7819   -3.2291   -3.6962 C   0  0  0  0  0  0  0  0  0  0  0  0
    3.2063   -2.0669   -2.8266 C   0  0  1  0  0  0  0  0  0  0  0  0
    3.2180   -2.1546   -1.3240 C   0  0  0  0  0  0  0  0  0  0  0  0
    3.7951   -3.0873    1.4520 C   0  0  0  0  0  0  0  0  0  0  0  0
    2.8173   -2.1142    1.4679 O   0  0  0  0  0  0  0  0  0  0  0  0
    0.7795   -0.8210    4.2255 N   0  0  0  0  0  0  0  0  0  0  0  0
   -0.0730    0.1549    4.0750 C   0  0  0  0  0  0  0  0  0  0  0  0
   -1.2902    0.9752    5.0414 S   0  0  0  0  0  0  0  0  0  0  0  0
   -3.7406    4.3157    2.7914 H   0  0  0  0  0  0  0  0  0  0  0  0
   -3.3919    2.8923    1.8279 H   0  0  0  0  0  0  0  0  0  0  0  0
   -2.1414    4.1496    2.0791 H   0  0  0  0  0  0  0  0  0  0  0  0
    1.1717    0.2472    1.0680 H   0  0  0  0  0  0  0  0  0  0  0  0
    3.0605   -2.7685    4.6943 H   0  0  0  0  0  0  0  0  0  0  0  0
    6.4820   -5.7946    2.0580 H   0  0  0  0  0  0  0  0  0  0  0  0
    6.0056   -5.0625   -0.2495 H   0  0  0  0  0  0  0  0  0  0  0  0
    5.9511   -3.4091   -2.1179 H   0  0  0  0  0  0  0  0  0  0  0  0
    4.8204   -4.7692   -2.2446 H   0  0  0  0  0  0  0  0  0  0  0  0
    4.8991   -2.6810   -4.1305 H   0  0  0  0  0  0  0  0  0  0  0  0
    2.4868   -3.0201   -4.7218 H   0  0  0  0  0  0  0  0  0  0  0  0
    2.2265   -4.0336   -3.2161 H   0  0  0  0  0  0  0  0  0  0  0  0
    3.1284   -1.0711   -3.2602 H   0  0  0  0  0  0  0  0  0  0  0  0
    2.2257   -2.4330   -0.9748 H   0  0  0  0  0  0  0  0  0  0  0  0
    3.4956   -1.1883   -0.9032 H   0  0  0  0  0  0  0  0  0  0  0  0
  1  2  1  0
  1 27  1  0
  1 28  1  0
  1 29  1  0
  2  3  1  0
  3 26  1  0
  3  4  2  0
  4  5  1  0
  5 25  1  0
  5  6  1  0
  6  7  2  0
  6 30  1  0
  7  8  1  0
  7 24  1  0
  8 23  1  0
  8  9  2  0
  9 10  1  0
  9 31  1  0
 10 22  2  0
 10 11  1  0
 11 12  1  0
 11 13  2  0
 13 14  1  0
 13 32  1  0
 14 15  2  0
 14 33  1  0
 15 16  1  0
 15 22  1  0
 16 21  1  0
 16 17  1  0
 17 18  1  0
 17 34  1  0
 17 35  1  0
 18 20  1  0
 18 19  1  0
 18 36  1  6
 19 20  1  0
 19 37  1  0
 19 38  1  0
 20 21  1  0
 20 39  1  1
 21 40  1  0
 21 41  1  0
 22 23  1  0
 24 25  2  0
 25 26  1  0
M  END
>  <i_m_ct_stereo_status>  (149) 
1

>  <s_m_source_file>  (149) 
/var/tmp/pbs.5083856.sched01/tmpbdv5b_9q/60mhvd3wad.sdf

>  <i_m_source_file_index>  (149) 
4

>  <i_lp_mmshare_version>  (149) 
48012

>  <i_f3d_flags>  (149) 
0

>  <s_epik_input>  (149) 
W0NIM11PYyhuMSlzYyhuMTIpbmMoW2NIXTIpLWMoW2NIXTMpb2MoYzM0KWMoW2NIXVtjSF1jNENsKU4oW0NIMl01KVtDSDJdW0NAQEhdKFtDQEhdNTYpW0NIMl02

>  <s_epik_cmdline>  (149) 
J2VwaWtfcHl0aG9uJywgJy1waHQnLCAnMi4wJywgJy1waCcsICc3LjAnLCAnLXRuJywgJzgnLCAnLW1hJywgJzIwMCcsICctaW1hZScsICc8aW5maWxlLm1hZT4nLCAnLW9tYWUnLCAnPG91dGZpbGUubWFlPic=

>  <r_lp_tautomer_probability>  (149) 
1

>  <r_epik_Ionization_Penalty>  (149) 
0.00202555

>  <r_epik_Ionization_Penalty_Charging>  (149) 
0.00153498

>  <r_epik_Ionization_Penalty_Neutral>  (149) 
0.000490567

>  <r_epik_State_Penalty>  (149) 
-0

>  <r_epik_Charging_Adjusted_Penalty>  (149) 
0.00153498

>  <i_epik_Tot_Q>  (149) 
0

>  <i_epik_Tot_abs_Q>  (149) 
0

>  <s_lp_Force_Field>  (149) 
OPLS3e

>  <r_lp_Energy>  (149) 
14.2913

>  <b_lp_Chiralities_Consistent>  (149) 
1

>  <s_lp_Variant>  (149) 
44:0-1

>  <s_i_glide_gridfile>  (149) 
pfpi4k_grid

>  <i_i_glide_lignum>  (149) 
4

>  <i_i_glide_rotatable_bonds>  (149) 
3

>  <r_i_docking_score>  (149) 
-2.63068

>  <r_i_glide_ligand_efficiency>  (149) 
-0.10118

>  <r_i_glide_ligand_efficiency_sa>  (149) 
-0.299746

>  <r_i_glide_ligand_efficiency_ln>  (149) 
-0.617807

>  <r_i_glide_gscore>  (149) 
-2.63068

>  <r_i_glide_lipo>  (149) 
-0.527489

>  <r_i_glide_hbond>  (149) 
0

>  <r_i_glide_metal>  (149) 
-0

>  <r_i_glide_rewards>  (149) 
-0.771436

>  <r_i_glide_evdw>  (149) 
-29.6038

>  <r_i_glide_ecoul>  (149) 
-0.345316

>  <r_i_glide_erotb>  (149) 
0.260163

>  <r_i_glide_esite>  (149) 
-0.0599349

>  <r_i_glide_emodel>  (149) 
-35.6648

>  <r_i_glide_energy>  (149) 
-29.9491

>  <r_i_glide_einternal>  (149) 
0.475804

>  <r_i_glide_intrahb_reward>  (149) 
-0

>  <i_i_glide_confnum>  (149) 
5

>  <i_i_glide_posenum>  (149) 
1

>  <r_i_glide_eff_state_penalty>  (149) 
0

>  <ligand_id>  (149) 
44

>  <original_smiles>  (149) 
COc1nn2cc(-c3cc4c(Cl)ccc(N5CC6CC6C5)c4o3)nc2s1

>  <smiles>  (149) 
[H]c1c([H])c(Cl)c2c([H])c(-c3nc4sc(OC([H])([H])[H])nn4c3[H])oc2c1N1C([H])([H])C2([H])C([H])([H])C2([H])C1([H])[H]

$$$$
44:0:2
     RDKit          3D

 41 46  0  0  1  0  0  0  0  0999 V2000
   -2.9840    3.4710    2.5863 C   0  0  0  0  0  0  0  0  0  0  0  0
   -2.5493    2.8322    3.7727 O   0  0  0  0  0  0  0  0  0  0  0  0
   -1.5762    1.8665    3.6469 C   0  0  0  0  0  0  0  0  0  0  0  0
   -0.8771    1.6349    2.5373 N   0  0  0  0  0  0  0  0  0  0  0  0
   -0.0052    0.6271    2.8133 N   0  0  0  0  0  0  0  0  0  0  0  0
    0.9707   -0.0456    2.0922 C   0  0  0  0  0  0  0  0  0  0  0  0
    1.4738   -0.9742    2.9791 C   0  0  0  0  0  0  0  0  0  0  0  0
    2.5057   -1.9729    2.7501 C   0  0  0  0  0  0  0  0  0  0  0  0
    3.2309   -2.7735    3.5966 C   0  0  0  0  0  0  0  0  0  0  0  0
    4.1266   -3.5284    2.7552 C   0  0  0  0  0  0  0  0  0  0  0  0
    5.1351   -4.5044    2.9291 C   0  0  0  0  0  0  0  0  0  0  0  0
    5.5139   -5.0468    4.5233 Cl  0  0  0  0  0  0  0  0  0  0  0  0
    5.8364   -5.0314    1.8244 C   0  0  0  0  0  0  0  0  0  0  0  0
    5.5455   -4.5992    0.5117 C   0  0  0  0  0  0  0  0  0  0  0  0
    4.5473   -3.6180    0.2895 C   0  0  0  0  0  0  0  0  0  0  0  0
    4.2638   -3.1563   -1.0175 N   0  0  0  0  0  0  0  0  0  0  0  0
    3.1854   -2.2234   -1.3397 C   0  0  0  0  0  0  0  0  0  0  0  0
    3.3082   -1.9443   -2.8098 C   0  0  1  0  0  0  0  0  0  0  0  0
    4.5314   -1.2799   -3.3917 C   0  0  0  0  0  0  0  0  0  0  0  0
    4.4236   -2.7893   -3.3473 C   0  0  1  0  0  0  0  0  0  0  0  0
    4.9838   -3.6061   -2.2062 C   0  0  0  0  0  0  0  0  0  0  0  0
    3.8634   -3.1136    1.4231 C   0  0  0  0  0  0  0  0  0  0  0  0
    2.8663   -2.1597    1.4515 O   0  0  0  0  0  0  0  0  0  0  0  0
    0.8420   -0.8948    4.2260 N   0  0  0  0  0  0  0  0  0  0  0  0
   -0.0224    0.0661    4.0812 C   0  0  0  0  0  0  0  0  0  0  0  0
   -1.2463    0.8690    5.0610 S   0  0  0  0  0  0  0  0  0  0  0  0
   -3.7716    4.1733    2.8520 H   0  0  0  0  0  0  0  0  0  0  0  0
   -3.4099    2.7605    1.8762 H   0  0  0  0  0  0  0  0  0  0  0  0
   -2.1769    4.0354    2.1169 H   0  0  0  0  0  0  0  0  0  0  0  0
    1.1978    0.1822    1.0637 H   0  0  0  0  0  0  0  0  0  0  0  0
    3.1589   -2.8131    4.6764 H   0  0  0  0  0  0  0  0  0  0  0  0
    6.6014   -5.7753    1.9915 H   0  0  0  0  0  0  0  0  0  0  0  0
    6.0918   -5.0336   -0.3120 H   0  0  0  0  0  0  0  0  0  0  0  0
    2.2162   -2.6738   -1.1315 H   0  0  0  0  0  0  0  0  0  0  0  0
    3.2712   -1.2832   -0.7938 H   0  0  0  0  0  0  0  0  0  0  0  0
    2.3803   -1.8630   -3.3733 H   0  0  0  0  0  0  0  0  0  0  0  0
    4.4222   -0.7902   -4.3582 H   0  0  0  0  0  0  0  0  0  0  0  0
    5.2127   -0.7921   -2.6957 H   0  0  0  0  0  0  0  0  0  0  0  0
    4.2642   -3.3102   -4.2882 H   0  0  0  0  0  0  0  0  0  0  0  0
    6.0534   -3.4369   -2.1072 H   0  0  0  0  0  0  0  0  0  0  0  0
    4.8014   -4.6618   -2.3885 H   0  0  0  0  0  0  0  0  0  0  0  0
  1  2  1  0
  1 27  1  0
  1 28  1  0
  1 29  1  0
  2  3  1  0
  3 26  1  0
  3  4  2  0
  4  5  1  0
  5 25  1  0
  5  6  1  0
  6  7  2  0
  6 30  1  0
  7  8  1  0
  7 24  1  0
  8 23  1  0
  8  9  2  0
  9 10  1  0
  9 31  1  0
 10 22  2  0
 10 11  1  0
 11 12  1  0
 11 13  2  0
 13 14  1  0
 13 32  1  0
 14 15  2  0
 14 33  1  0
 15 16  1  0
 15 22  1  0
 16 21  1  0
 16 17  1  0
 17 18  1  0
 17 34  1  0
 17 35  1  0
 18 20  1  0
 18 19  1  0
 18 36  1  6
 19 20  1  0
 19 37  1  0
 19 38  1  0
 20 21  1  0
 20 39  1  6
 21 40  1  0
 21 41  1  0
 22 23  1  0
 24 25  2  0
 25 26  1  0
M  END
>  <i_m_ct_stereo_status>  (150) 
1

>  <s_m_source_file>  (150) 
/var/tmp/pbs.5083856.sched01/tmpbdv5b_9q/60mhvd3wad.sdf

>  <i_m_source_file_index>  (150) 
4

>  <i_lp_mmshare_version>  (150) 
48012

>  <i_f3d_flags>  (150) 
0

>  <s_epik_input>  (150) 
W0NIM11PYyhuMSlzYyhuMTIpbmMoW2NIXTIpLWMoW2NIXTMpb2MoYzM0KWMoW2NIXVtjSF1jNENsKU4oW0NIMl01KVtDSDJdW0NAQEhdKFtDQEhdNTYpW0NIMl02

>  <s_epik_cmdline>  (150) 
J2VwaWtfcHl0aG9uJywgJy1waHQnLCAnMi4wJywgJy1waCcsICc3LjAnLCAnLXRuJywgJzgnLCAnLW1hJywgJzIwMCcsICctaW1hZScsICc8aW5maWxlLm1hZT4nLCAnLW9tYWUnLCAnPG91dGZpbGUubWFlPic=

>  <r_lp_tautomer_probability>  (150) 
1

>  <r_epik_Ionization_Penalty>  (150) 
0.00202555

>  <r_epik_Ionization_Penalty_Charging>  (150) 
0.00153498

>  <r_epik_Ionization_Penalty_Neutral>  (150) 
0.000490567

>  <r_epik_State_Penalty>  (150) 
-0

>  <r_epik_Charging_Adjusted_Penalty>  (150) 
0.00153498

>  <i_epik_Tot_Q>  (150) 
0

>  <i_epik_Tot_abs_Q>  (150) 
0

>  <s_lp_Force_Field>  (150) 
OPLS3e

>  <r_lp_Energy>  (150) 
14.2913

>  <b_lp_Chiralities_Consistent>  (150) 
1

>  <s_lp_Variant>  (150) 
44:0-1

>  <s_i_glide_gridfile>  (150) 
pfpi4k_grid

>  <i_i_glide_lignum>  (150) 
4

>  <i_i_glide_rotatable_bonds>  (150) 
3

>  <r_i_docking_score>  (150) 
-2.57975

>  <r_i_glide_ligand_efficiency>  (150) 
-0.0992212

>  <r_i_glide_ligand_efficiency_sa>  (150) 
-0.293942

>  <r_i_glide_ligand_efficiency_ln>  (150) 
-0.605846

>  <r_i_glide_gscore>  (150) 
-2.57975

>  <r_i_glide_lipo>  (150) 
-0.456876

>  <r_i_glide_hbond>  (150) 
0

>  <r_i_glide_metal>  (150) 
-0

>  <r_i_glide_rewards>  (150) 
-0.771436

>  <r_i_glide_evdw>  (150) 
-30.8916

>  <r_i_glide_ecoul>  (150) 
-0.0579675

>  <r_i_glide_erotb>  (150) 
0.260163

>  <r_i_glide_esite>  (150) 
-0.0583295

>  <r_i_glide_emodel>  (150) 
-36.382

>  <r_i_glide_energy>  (150) 
-30.9495

>  <r_i_glide_einternal>  (150) 
0.696193

>  <r_i_glide_intrahb_reward>  (150) 
-0

>  <i_i_glide_confnum>  (150) 
5

>  <i_i_glide_posenum>  (150) 
17

>  <r_i_glide_eff_state_penalty>  (150) 
0

>  <ligand_id>  (150) 
44

>  <original_smiles>  (150) 
COc1nn2cc(-c3cc4c(Cl)ccc(N5CC6CC6C5)c4o3)nc2s1

>  <smiles>  (150) 
[H]c1c([H])c(Cl)c2c([H])c(-c3nc4sc(OC([H])([H])[H])nn4c3[H])oc2c1N1C([H])([H])C2([H])C([H])([H])C2([H])C1([H])[H]

$$$$
45:0:0
     RDKit          3D

 36 39  0  0  1  0  0  0  0  0999 V2000
    3.1872   -1.6000   -3.9063 C   0  0  0  0  0  0  0  0  0  0  0  0
    3.6678   -1.0506   -2.5597 C   0  0  0  0  0  0  0  0  0  0  0  0
    4.4141   -2.0540   -1.8317 N   0  0  0  0  0  0  0  0  0  0  0  0
    5.6312   -2.4693   -2.2809 N   0  0  0  0  0  0  0  0  0  0  0  0
    6.0638   -3.4028   -1.4806 N   0  0  0  0  0  0  0  0  0  0  0  0
    5.1136   -3.5936   -0.4884 C   0  0  0  0  0  0  0  0  0  0  0  0
    4.0749   -2.7452   -0.6898 C   0  0  0  0  0  0  0  0  0  0  0  0
    2.8506   -2.6820    0.1741 C   0  0  0  0  0  0  0  0  0  0  0  0
    2.8972   -3.8467    1.2239 C   0  0  2  0  0  0  0  0  0  0  0  0
    4.3356   -3.9178    1.8024 C   0  0  0  0  0  0  0  0  0  0  0  0
    5.0897   -4.5962    0.6307 C   0  0  1  0  0  0  0  0  0  0  0  0
    4.1684   -5.7738    0.2428 C   0  0  0  0  0  0  0  0  0  0  0  0
    2.7394   -5.2407    0.5350 C   0  0  1  0  0  0  0  0  0  0  0  0
    1.8552   -6.2115    1.2832 C   0  0  0  0  0  0  0  0  0  0  0  0
    0.6473   -6.5701    0.8702 N   0  0  0  0  0  0  0  0  0  0  0  0
    0.1911   -7.4216    1.8531 N   0  0  0  0  0  0  0  0  0  0  0  0
    1.0635   -7.5410    2.8191 N   0  0  0  0  0  0  0  0  0  0  0  0
    2.1357   -6.7770    2.4768 N   0  0  0  0  0  0  0  0  0  0  0  0
    3.2666   -6.6659    3.3935 C   0  0  0  0  0  0  0  0  0  0  0  0
    2.6124   -0.8481   -4.4445 H   0  0  0  0  0  0  0  0  0  0  0  0
    2.5491   -2.4736   -3.7591 H   0  0  0  0  0  0  0  0  0  0  0  0
    4.0288   -1.8964   -4.5331 H   0  0  0  0  0  0  0  0  0  0  0  0
    4.3112   -0.1802   -2.6938 H   0  0  0  0  0  0  0  0  0  0  0  0
    2.8164   -0.7383   -1.9531 H   0  0  0  0  0  0  0  0  0  0  0  0
    2.8365   -1.7268    0.7067 H   0  0  0  0  0  0  0  0  0  0  0  0
    1.9489   -2.7341   -0.4383 H   0  0  0  0  0  0  0  0  0  0  0  0
    2.1308   -3.6912    1.9908 H   0  0  0  0  0  0  0  0  0  0  0  0
    4.7313   -2.9168    2.0313 H   0  0  0  0  0  0  0  0  0  0  0  0
    4.4014   -4.5068    2.7145 H   0  0  0  0  0  0  0  0  0  0  0  0
    6.0930   -4.9165    0.9035 H   0  0  0  0  0  0  0  0  0  0  0  0
    4.3029   -6.0734   -0.8095 H   0  0  0  0  0  0  0  0  0  0  0  0
    4.3981   -6.6480    0.8393 H   0  0  0  0  0  0  0  0  0  0  0  0
    2.2406   -5.0862   -0.4309 H   0  0  0  0  0  0  0  0  0  0  0  0
    4.2109   -6.6150    2.8553 H   0  0  0  0  0  0  0  0  0  0  0  0
    3.2845   -7.5354    4.0542 H   0  0  0  0  0  0  0  0  0  0  0  0
    3.1223   -5.7674    4.0138 H   0  0  0  0  0  0  0  0  0  0  0  0
  1  2  1  0
  1 20  1  0
  1 21  1  0
  1 22  1  0
  2  3  1  0
  2 23  1  0
  2 24  1  0
  3  7  1  0
  3  4  1  0
  4  5  2  0
  5  6  1  0
  6 11  1  0
  6  7  2  0
  7  8  1  0
  8  9  1  0
  8 25  1  0
  8 26  1  0
  9 13  1  0
  9 10  1  0
  9 27  1  1
 10 11  1  0
 10 28  1  0
 10 29  1  0
 11 12  1  0
 11 30  1  1
 12 13  1  0
 12 31  1  0
 12 32  1  0
 13 14  1  0
 13 33  1  6
 14 18  1  0
 14 15  2  0
 15 16  1  0
 16 17  2  0
 17 18  1  0
 18 19  1  0
 19 34  1  0
 19 35  1  0
 19 36  1  0
M  END
>  <i_m_ct_stereo_status>  (151) 
1

>  <s_m_source_file>  (151) 
/var/tmp/pbs.5083856.sched01/tmpbdv5b_9q/60mhvd3wad.sdf

>  <i_m_source_file_index>  (151) 
5

>  <i_lp_mmshare_version>  (151) 
48012

>  <i_f3d_flags>  (151) 
0

>  <s_epik_input>  (151) 
W0NIM11bQ0gyXW4obm4xKWMoYzEyKVtDSDJdW0NAQEhdM1tDSDJdW0NASF0yW0NIMl1bQ0BIXTNjNG5ubm40W0NIM10=

>  <s_epik_cmdline>  (151) 
J2VwaWtfcHl0aG9uJywgJy1waHQnLCAnMi4wJywgJy1waCcsICc3LjAnLCAnLXRuJywgJzgnLCAnLW1hJywgJzIwMCcsICctaW1hZScsICc8aW5maWxlLm1hZT4nLCAnLW9tYWUnLCAnPG91dGZpbGUubWFlPic=

>  <r_lp_tautomer_probability>  (151) 
1

>  <r_epik_Ionization_Penalty>  (151) 
3.42042e-05

>  <r_epik_Ionization_Penalty_Charging>  (151) 
0

>  <r_epik_Ionization_Penalty_Neutral>  (151) 
3.42042e-05

>  <r_epik_State_Penalty>  (151) 
-0

>  <r_epik_Charging_Adjusted_Penalty>  (151) 
0

>  <i_epik_Tot_Q>  (151) 
0

>  <i_epik_Tot_abs_Q>  (151) 
0

>  <s_lp_Force_Field>  (151) 
OPLS3e

>  <r_lp_Energy>  (151) 
24.5402

>  <b_lp_Chiralities_Consistent>  (151) 
1

>  <s_lp_Variant>  (151) 
45:0-1

>  <s_i_glide_gridfile>  (151) 
pfpi4k_grid

>  <i_i_glide_lignum>  (151) 
5

>  <i_i_glide_rotatable_bonds>  (151) 
2

>  <r_i_docking_score>  (151) 
-3.60212

>  <r_i_glide_ligand_efficiency>  (151) 
-0.189585

>  <r_i_glide_ligand_efficiency_sa>  (151) 
-0.50589

>  <r_i_glide_ligand_efficiency_ln>  (151) 
-0.913215

>  <r_i_glide_gscore>  (151) 
-3.60212

>  <r_i_glide_lipo>  (151) 
-0.289179

>  <r_i_glide_hbond>  (151) 
0

>  <r_i_glide_metal>  (151) 
-0

>  <r_i_glide_rewards>  (151) 
-1.64107

>  <r_i_glide_evdw>  (151) 
-23.5944

>  <r_i_glide_ecoul>  (151) 
-3.19197

>  <r_i_glide_erotb>  (151) 
0.262952

>  <r_i_glide_esite>  (151) 
-0.276315

>  <r_i_glide_emodel>  (151) 
-31.7606

>  <r_i_glide_energy>  (151) 
-26.7863

>  <r_i_glide_einternal>  (151) 
2.01478

>  <r_i_glide_intrahb_reward>  (151) 
-0

>  <i_i_glide_confnum>  (151) 
1

>  <i_i_glide_posenum>  (151) 
33

>  <r_i_glide_eff_state_penalty>  (151) 
0

>  <ligand_id>  (151) 
45

>  <original_smiles>  (151) 
CCn1nnc2c1CC1CC2CC1c1nnnn1C

>  <smiles>  (151) 
[H]C([H])([H])n1nnnc1C1([H])C([H])([H])C2([H])c3nnn(C([H])([H])C([H])([H])[H])c3C([H])([H])C1([H])C2([H])[H]

$$$$
45:0:1
     RDKit          3D

 36 39  0  0  1  0  0  0  0  0999 V2000
    2.7060   -0.9651   -4.1951 C   0  0  0  0  0  0  0  0  0  0  0  0
    2.3810   -2.3339   -3.5716 C   0  0  0  0  0  0  0  0  0  0  0  0
    3.5102   -2.8824   -2.8568 N   0  0  0  0  0  0  0  0  0  0  0  0
    4.6139   -3.2826   -3.5379 N   0  0  0  0  0  0  0  0  0  0  0  0
    5.4543   -3.7751   -2.6793 N   0  0  0  0  0  0  0  0  0  0  0  0
    4.8837   -3.7115   -1.4161 C   0  0  0  0  0  0  0  0  0  0  0  0
    3.6582   -3.1485   -1.5105 C   0  0  0  0  0  0  0  0  0  0  0  0
    2.7353   -2.9470   -0.3561 C   0  0  0  0  0  0  0  0  0  0  0  0
    3.3259   -3.6418    0.9160 C   0  0  2  0  0  0  0  0  0  0  0  0
    4.8401   -3.3340    1.0048 C   0  0  0  0  0  0  0  0  0  0  0  0
    5.4125   -4.2303   -0.1099 C   0  0  1  0  0  0  0  0  0  0  0  0
    4.7448   -5.5685    0.2378 C   0  0  0  0  0  0  0  0  0  0  0  0
    3.3321   -5.1905    0.7539 C   0  0  1  0  0  0  0  0  0  0  0  0
    2.9285   -5.9560    1.9889 C   0  0  0  0  0  0  0  0  0  0  0  0
    3.5714   -5.9296    3.1489 N   0  0  0  0  0  0  0  0  0  0  0  0
    2.8613   -6.8054    3.9480 N   0  0  0  0  0  0  0  0  0  0  0  0
    1.8461   -7.3075    3.3055 N   0  0  0  0  0  0  0  0  0  0  0  0
    1.8704   -6.7775    2.0601 N   0  0  0  0  0  0  0  0  0  0  0  0
    0.8649   -7.1619    1.0897 C   0  0  0  0  0  0  0  0  0  0  0  0
    1.8394   -0.5661   -4.7231 H   0  0  0  0  0  0  0  0  0  0  0  0
    3.5213   -1.0252   -4.9181 H   0  0  0  0  0  0  0  0  0  0  0  0
    2.9807   -0.2414   -3.4255 H   0  0  0  0  0  0  0  0  0  0  0  0
    1.5474   -2.2536   -2.8739 H   0  0  0  0  0  0  0  0  0  0  0  0
    2.0851   -3.0510   -4.3398 H   0  0  0  0  0  0  0  0  0  0  0  0
    2.6392   -1.8771   -0.1718 H   0  0  0  0  0  0  0  0  0  0  0  0
    1.7488   -3.3287   -0.6070 H   0  0  0  0  0  0  0  0  0  0  0  0
    2.7775   -3.3211    1.8049 H   0  0  0  0  0  0  0  0  0  0  0  0
    5.0663   -2.2788    0.8414 H   0  0  0  0  0  0  0  0  0  0  0  0
    5.2437   -3.6155    1.9805 H   0  0  0  0  0  0  0  0  0  0  0  0
    6.5007   -4.2880   -0.0994 H   0  0  0  0  0  0  0  0  0  0  0  0
    4.7125   -6.2697   -0.5980 H   0  0  0  0  0  0  0  0  0  0  0  0
    5.3188   -6.0421    1.0352 H   0  0  0  0  0  0  0  0  0  0  0  0
    2.6327   -5.4520   -0.0361 H   0  0  0  0  0  0  0  0  0  0  0  0
    0.6060   -6.3172    0.4522 H   0  0  0  0  0  0  0  0  0  0  0  0
   -0.0337   -7.5155    1.5955 H   0  0  0  0  0  0  0  0  0  0  0  0
    1.2547   -7.9722    0.4782 H   0  0  0  0  0  0  0  0  0  0  0  0
  1  2  1  0
  1 20  1  0
  1 21  1  0
  1 22  1  0
  2  3  1  0
  2 23  1  0
  2 24  1  0
  3  7  1  0
  3  4  1  0
  4  5  2  0
  5  6  1  0
  6 11  1  0
  6  7  2  0
  7  8  1  0
  8  9  1  0
  8 25  1  0
  8 26  1  0
  9 13  1  0
  9 10  1  0
  9 27  1  1
 10 11  1  0
 10 28  1  0
 10 29  1  0
 11 12  1  0
 11 30  1  6
 12 13  1  0
 12 31  1  0
 12 32  1  0
 13 14  1  0
 13 33  1  6
 14 18  1  0
 14 15  2  0
 15 16  1  0
 16 17  2  0
 17 18  1  0
 18 19  1  0
 19 34  1  0
 19 35  1  0
 19 36  1  0
M  END
>  <i_m_ct_stereo_status>  (152) 
1

>  <s_m_source_file>  (152) 
/var/tmp/pbs.5083856.sched01/tmpbdv5b_9q/60mhvd3wad.sdf

>  <i_m_source_file_index>  (152) 
5

>  <i_lp_mmshare_version>  (152) 
48012

>  <i_f3d_flags>  (152) 
0

>  <s_epik_input>  (152) 
W0NIM11bQ0gyXW4obm4xKWMoYzEyKVtDSDJdW0NAQEhdM1tDSDJdW0NASF0yW0NIMl1bQ0BIXTNjNG5ubm40W0NIM10=

>  <s_epik_cmdline>  (152) 
J2VwaWtfcHl0aG9uJywgJy1waHQnLCAnMi4wJywgJy1waCcsICc3LjAnLCAnLXRuJywgJzgnLCAnLW1hJywgJzIwMCcsICctaW1hZScsICc8aW5maWxlLm1hZT4nLCAnLW9tYWUnLCAnPG91dGZpbGUubWFlPic=

>  <r_lp_tautomer_probability>  (152) 
1

>  <r_epik_Ionization_Penalty>  (152) 
3.42042e-05

>  <r_epik_Ionization_Penalty_Charging>  (152) 
0

>  <r_epik_Ionization_Penalty_Neutral>  (152) 
3.42042e-05

>  <r_epik_State_Penalty>  (152) 
-0

>  <r_epik_Charging_Adjusted_Penalty>  (152) 
0

>  <i_epik_Tot_Q>  (152) 
0

>  <i_epik_Tot_abs_Q>  (152) 
0

>  <s_lp_Force_Field>  (152) 
OPLS3e

>  <r_lp_Energy>  (152) 
24.5402

>  <b_lp_Chiralities_Consistent>  (152) 
1

>  <s_lp_Variant>  (152) 
45:0-1

>  <s_i_glide_gridfile>  (152) 
pfpi4k_grid

>  <i_i_glide_lignum>  (152) 
5

>  <i_i_glide_rotatable_bonds>  (152) 
2

>  <r_i_docking_score>  (152) 
-3.01437

>  <r_i_glide_ligand_efficiency>  (152) 
-0.158651

>  <r_i_glide_ligand_efficiency_sa>  (152) 
-0.423344

>  <r_i_glide_ligand_efficiency_ln>  (152) 
-0.764207

>  <r_i_glide_gscore>  (152) 
-3.01437

>  <r_i_glide_lipo>  (152) 
-0.492134

>  <r_i_glide_hbond>  (152) 
0

>  <r_i_glide_metal>  (152) 
-0

>  <r_i_glide_rewards>  (152) 
-1.64107

>  <r_i_glide_evdw>  (152) 
-22.7342

>  <r_i_glide_ecoul>  (152) 
0.192566

>  <r_i_glide_erotb>  (152) 
0.262952

>  <r_i_glide_esite>  (152) 
-0.0362953

>  <r_i_glide_emodel>  (152) 
-27.6569

>  <r_i_glide_energy>  (152) 
-22.5416

>  <r_i_glide_einternal>  (152) 
0.168788

>  <r_i_glide_intrahb_reward>  (152) 
-0

>  <i_i_glide_confnum>  (152) 
1

>  <i_i_glide_posenum>  (152) 
1

>  <r_i_glide_eff_state_penalty>  (152) 
0

>  <ligand_id>  (152) 
45

>  <original_smiles>  (152) 
CCn1nnc2c1CC1CC2CC1c1nnnn1C

>  <smiles>  (152) 
[H]C([H])([H])n1nnnc1C1([H])C([H])([H])C2([H])c3nnn(C([H])([H])C([H])([H])[H])c3C([H])([H])C1([H])C2([H])[H]

$$$$
45:0:2
     RDKit          3D

 36 39  0  0  1  0  0  0  0  0999 V2000
    2.2200   -3.3818    4.5778 C   0  0  0  0  0  0  0  0  0  0  0  0
    0.8015   -2.8404    4.4282 C   0  0  0  0  0  0  0  0  0  0  0  0
    0.5520   -1.6967    5.2854 N   0  0  0  0  0  0  0  0  0  0  0  0
    0.3945   -1.8696    6.6260 N   0  0  0  0  0  0  0  0  0  0  0  0
    0.1132   -0.7038    7.1516 N   0  0  0  0  0  0  0  0  0  0  0  0
    0.1266    0.2308    6.1315 C   0  0  0  0  0  0  0  0  0  0  0  0
    0.3945   -0.3813    4.9423 C   0  0  0  0  0  0  0  0  0  0  0  0
    0.4747    0.3209    3.6211 C   0  0  0  0  0  0  0  0  0  0  0  0
    0.0673    1.8271    3.8186 C   0  0  2  0  0  0  0  0  0  0  0  0
    0.7818    2.3287    5.1097 C   0  0  0  0  0  0  0  0  0  0  0  0
   -0.1230    1.7182    6.1813 C   0  0  1  0  0  0  0  0  0  0  0  0
   -1.5524    2.0196    5.6806 C   0  0  0  0  0  0  0  0  0  0  0  0
   -1.4569    1.9429    4.1348 C   0  0  1  0  0  0  0  0  0  0  0  0
   -2.1827    3.0398    3.3811 C   0  0  0  0  0  0  0  0  0  0  0  0
   -3.4286    2.9408    2.9270 N   0  0  0  0  0  0  0  0  0  0  0  0
   -3.7227    4.1520    2.3755 N   0  0  0  0  0  0  0  0  0  0  0  0
   -2.6939    4.9610    2.5041 N   0  0  0  0  0  0  0  0  0  0  0  0
   -1.7252    4.2991    3.1566 N   0  0  0  0  0  0  0  0  0  0  0  0
   -0.5034    4.9887    3.5718 C   0  0  0  0  0  0  0  0  0  0  0  0
    2.3725   -4.2369    3.9216 H   0  0  0  0  0  0  0  0  0  0  0  0
    2.4185   -3.7098    5.5984 H   0  0  0  0  0  0  0  0  0  0  0  0
    2.9623   -2.6274    4.3159 H   0  0  0  0  0  0  0  0  0  0  0  0
    0.6162   -2.5387    3.4032 H   0  0  0  0  0  0  0  0  0  0  0  0
    0.0672   -3.5951    4.6769 H   0  0  0  0  0  0  0  0  0  0  0  0
    1.5087    0.3066    3.2511 H   0  0  0  0  0  0  0  0  0  0  0  0
   -0.1321   -0.1987    2.8621 H   0  0  0  0  0  0  0  0  0  0  0  0
    0.3053    2.3582    2.8917 H   0  0  0  0  0  0  0  0  0  0  0  0
    1.8169    1.9823    5.1436 H   0  0  0  0  0  0  0  0  0  0  0  0
    0.8388    3.3804    5.2977 H   0  0  0  0  0  0  0  0  0  0  0  0
    0.0686    2.1288    7.1705 H   0  0  0  0  0  0  0  0  0  0  0  0
   -2.3103    1.3543    6.1083 H   0  0  0  0  0  0  0  0  0  0  0  0
   -1.8333    3.0250    5.9766 H   0  0  0  0  0  0  0  0  0  0  0  0
   -1.9711    1.0190    3.8349 H   0  0  0  0  0  0  0  0  0  0  0  0
   -0.3955    4.8229    4.6256 H   0  0  0  0  0  0  0  0  0  0  0  0
   -0.6002    6.0643    3.4804 H   0  0  0  0  0  0  0  0  0  0  0  0
    0.3066    4.6246    2.9475 H   0  0  0  0  0  0  0  0  0  0  0  0
  1  2  1  0
  1 20  1  0
  1 21  1  0
  1 22  1  0
  2  3  1  0
  2 23  1  0
  2 24  1  0
  3  7  1  0
  3  4  1  0
  4  5  2  0
  5  6  1  0
  6 11  1  0
  6  7  2  0
  7  8  1  0
  8  9  1  0
  8 25  1  0
  8 26  1  0
  9 13  1  0
  9 10  1  0
  9 27  1  6
 10 11  1  0
 10 28  1  0
 10 29  1  0
 11 12  1  0
 11 30  1  1
 12 13  1  0
 12 31  1  0
 12 32  1  0
 13 14  1  0
 13 33  1  6
 14 18  1  0
 14 15  2  0
 15 16  1  0
 16 17  2  0
 17 18  1  0
 18 19  1  0
 19 34  1  0
 19 35  1  0
 19 36  1  0
M  END
>  <i_m_ct_stereo_status>  (153) 
1

>  <s_m_source_file>  (153) 
/var/tmp/pbs.5083856.sched01/tmpbdv5b_9q/60mhvd3wad.sdf

>  <i_m_source_file_index>  (153) 
5

>  <i_lp_mmshare_version>  (153) 
48012

>  <i_f3d_flags>  (153) 
0

>  <s_epik_input>  (153) 
W0NIM11bQ0gyXW4obm4xKWMoYzEyKVtDSDJdW0NAQEhdM1tDSDJdW0NASF0yW0NIMl1bQ0BIXTNjNG5ubm40W0NIM10=

>  <s_epik_cmdline>  (153) 
J2VwaWtfcHl0aG9uJywgJy1waHQnLCAnMi4wJywgJy1waCcsICc3LjAnLCAnLXRuJywgJzgnLCAnLW1hJywgJzIwMCcsICctaW1hZScsICc8aW5maWxlLm1hZT4nLCAnLW9tYWUnLCAnPG91dGZpbGUubWFlPic=

>  <r_lp_tautomer_probability>  (153) 
1

>  <r_epik_Ionization_Penalty>  (153) 
3.42042e-05

>  <r_epik_Ionization_Penalty_Charging>  (153) 
0

>  <r_epik_Ionization_Penalty_Neutral>  (153) 
3.42042e-05

>  <r_epik_State_Penalty>  (153) 
-0

>  <r_epik_Charging_Adjusted_Penalty>  (153) 
0

>  <i_epik_Tot_Q>  (153) 
0

>  <i_epik_Tot_abs_Q>  (153) 
0

>  <s_lp_Force_Field>  (153) 
OPLS3e

>  <r_lp_Energy>  (153) 
24.5402

>  <b_lp_Chiralities_Consistent>  (153) 
1

>  <s_lp_Variant>  (153) 
45:0-1

>  <s_i_glide_gridfile>  (153) 
pfpi4k_grid

>  <i_i_glide_lignum>  (153) 
5

>  <i_i_glide_rotatable_bonds>  (153) 
2

>  <r_i_docking_score>  (153) 
-2.97442

>  <r_i_glide_ligand_efficiency>  (153) 
-0.156548

>  <r_i_glide_ligand_efficiency_sa>  (153) 
-0.417734

>  <r_i_glide_ligand_efficiency_ln>  (153) 
-0.754078

>  <r_i_glide_gscore>  (153) 
-2.97442

>  <r_i_glide_lipo>  (153) 
-0.0244492

>  <r_i_glide_hbond>  (153) 
0

>  <r_i_glide_metal>  (153) 
-0

>  <r_i_glide_rewards>  (153) 
-1.64107

>  <r_i_glide_evdw>  (153) 
-12.8583

>  <r_i_glide_ecoul>  (153) 
-3.86928

>  <r_i_glide_erotb>  (153) 
0.262952

>  <r_i_glide_esite>  (153) 
-0.348544

>  <r_i_glide_emodel>  (153) 
-19.7009

>  <r_i_glide_energy>  (153) 
-16.7276

>  <r_i_glide_einternal>  (153) 
2.12109

>  <r_i_glide_intrahb_reward>  (153) 
-0

>  <i_i_glide_confnum>  (153) 
1

>  <i_i_glide_posenum>  (153) 
27

>  <r_i_glide_eff_state_penalty>  (153) 
0

>  <ligand_id>  (153) 
45

>  <original_smiles>  (153) 
CCn1nnc2c1CC1CC2CC1c1nnnn1C

>  <smiles>  (153) 
[H]C([H])([H])n1nnnc1C1([H])C([H])([H])C2([H])c3nnn(C([H])([H])C([H])([H])[H])c3C([H])([H])C1([H])C2([H])[H]

$$$$
46:0:0
     RDKit          3D

 79 83  0  0  1  0  0  0  0  0999 V2000
    4.5730   -0.7737   -1.3101 C   0  0  0  0  0  0  0  0  0  0  0  0
    5.4096   -1.8069   -1.3536 C   0  0  0  0  0  0  0  0  0  0  0  0
    6.5050   -1.9510   -0.2729 C   0  0  0  0  0  0  0  0  0  0  0  0
    6.4583   -3.2349    0.6016 C   0  0  0  0  0  0  0  0  0  0  0  0
    5.0356   -3.5727    1.1854 C   0  0  2  0  0  0  0  0  0  0  0  0
    4.6014   -2.4587    2.1585 C   0  0  0  0  0  0  0  0  0  0  0  0
    5.0102   -5.0114    1.8167 C   0  0  2  0  0  0  0  0  0  0  0  0
    5.3857   -6.1651    0.8221 C   0  0  0  0  0  0  0  0  0  0  0  0
    4.5745   -7.4174    1.2412 C   0  0  0  0  0  0  0  0  0  0  0  0
    4.0208   -7.0811    2.6383 C   0  0  2  0  0  0  0  0  0  0  0  0
    5.2532   -7.3624    3.5664 C   0  0  0  0  0  0  0  0  0  0  0  0
    2.7988   -7.9339    3.2062 C   0  0  2  0  0  0  0  0  0  0  0  0
    2.1204   -8.8728    2.1772 C   0  0  0  0  0  0  0  0  0  0  0  0
    1.1815   -9.9813    2.7133 C   0  0  0  0  0  0  0  0  0  0  0  0
    0.2695   -9.7365    3.9453 C   0  0  2  0  0  0  0  0  0  0  0  0
   -0.9731   -8.8493    3.6917 C   0  0  0  0  0  0  0  0  0  0  0  0
   -0.7708   -7.3594    3.5148 C   0  0  2  0  0  0  0  0  0  0  0  0
   -0.0101   -7.0412    2.3635 O   0  0  0  0  0  0  0  0  0  0  0  0
    0.5310   -6.5643    3.6103 C   0  0  2  0  0  0  0  0  0  0  0  0
    1.8425   -7.1483    4.2029 C   0  0  2  0  0  0  0  0  0  0  0  0
    2.6233   -5.9383    4.8053 C   0  0  0  0  0  0  0  0  0  0  0  0
    3.2801   -4.9484    3.8132 C   0  0  0  0  0  0  0  0  0  0  0  0
    3.6837   -5.5588    2.4397 C   0  0  1  0  0  0  0  0  0  0  0  0
    2.5451   -5.3128    1.3944 C   0  0  0  0  0  0  0  0  0  0  0  0
    1.4841   -8.0045    5.4563 C   0  0  0  0  0  0  0  0  0  0  0  0
    0.9976   -9.4588    5.2867 C   0  0  1  0  0  0  0  0  0  0  0  0
    0.1372   -9.8540    6.5100 C   0  0  0  0  0  0  0  0  0  0  0  0
    2.1155  -10.3241    5.4094 O   0  0  0  0  0  0  0  0  0  0  0  0
    5.3901   -2.8550   -2.4945 C   0  0  0  0  0  0  0  0  0  0  0  0
    4.4696   -2.4923   -3.6743 C   0  0  0  0  0  0  0  0  0  0  0  0
    5.0550   -4.2729   -2.0444 C   0  0  0  0  0  0  0  0  0  0  0  0
    4.6095   -0.0243   -0.5133 H   0  0  0  0  0  0  0  0  0  0  0  0
    3.7849   -0.5955   -2.0518 H   0  0  0  0  0  0  0  0  0  0  0  0
    7.4758   -1.8812   -0.7565 H   0  0  0  0  0  0  0  0  0  0  0  0
    6.4661   -1.0716    0.3729 H   0  0  0  0  0  0  0  0  0  0  0  0
    6.8537   -4.0532    0.0411 H   0  0  0  0  0  0  0  0  0  0  0  0
    7.1544   -3.0937    1.4462 H   0  0  0  0  0  0  0  0  0  0  0  0
    4.3063   -3.5239    0.3840 H   0  0  0  0  0  0  0  0  0  0  0  0
    5.2078   -2.4419    3.0652 H   0  0  0  0  0  0  0  0  0  0  0  0
    3.5543   -2.5570    2.4285 H   0  0  0  0  0  0  0  0  0  0  0  0
    4.6754   -1.4757    1.6918 H   0  0  0  0  0  0  0  0  0  0  0  0
    5.7424   -4.9672    2.6172 H   0  0  0  0  0  0  0  0  0  0  0  0
    5.1131   -5.9618   -0.1933 H   0  0  0  0  0  0  0  0  0  0  0  0
    6.4539   -6.3670    0.8853 H   0  0  0  0  0  0  0  0  0  0  0  0
    3.7670   -7.5327    0.5214 H   0  0  0  0  0  0  0  0  0  0  0  0
    5.1571   -8.3405    1.2086 H   0  0  0  0  0  0  0  0  0  0  0  0
    5.1659   -6.9663    4.5734 H   0  0  0  0  0  0  0  0  0  0  0  0
    6.1971   -6.9798    3.1796 H   0  0  0  0  0  0  0  0  0  0  0  0
    5.4282   -8.4350    3.6544 H   0  0  0  0  0  0  0  0  0  0  0  0
    3.2856   -8.6578    3.8538 H   0  0  0  0  0  0  0  0  0  0  0  0
    1.6333   -8.3232    1.3751 H   0  0  0  0  0  0  0  0  0  0  0  0
    2.9089   -9.4195    1.6578 H   0  0  0  0  0  0  0  0  0  0  0  0
    0.5469  -10.2928    1.8878 H   0  0  0  0  0  0  0  0  0  0  0  0
    1.7906  -10.8644    2.9168 H   0  0  0  0  0  0  0  0  0  0  0  0
   -0.1747  -10.7212    4.0804 H   0  0  0  0  0  0  0  0  0  0  0  0
   -1.5126   -9.2234    2.8189 H   0  0  0  0  0  0  0  0  0  0  0  0
   -1.6681   -8.9702    4.5194 H   0  0  0  0  0  0  0  0  0  0  0  0
   -1.6957   -6.7880    3.5736 H   0  0  0  0  0  0  0  0  0  0  0  0
    0.4160   -5.4900    3.7396 H   0  0  0  0  0  0  0  0  0  0  0  0
    1.9814   -5.3780    5.4871 H   0  0  0  0  0  0  0  0  0  0  0  0
    3.4131   -6.3134    5.4474 H   0  0  0  0  0  0  0  0  0  0  0  0
    2.5901   -4.1172    3.6670 H   0  0  0  0  0  0  0  0  0  0  0  0
    4.1609   -4.5098    4.2913 H   0  0  0  0  0  0  0  0  0  0  0  0
    1.9971   -4.3870    1.5688 H   0  0  0  0  0  0  0  0  0  0  0  0
    1.8268   -6.1154    1.3479 H   0  0  0  0  0  0  0  0  0  0  0  0
    2.9095   -5.2528    0.3720 H   0  0  0  0  0  0  0  0  0  0  0  0
    2.3321   -8.0399    6.1386 H   0  0  0  0  0  0  0  0  0  0  0  0
    0.7234   -7.4520    6.0093 H   0  0  0  0  0  0  0  0  0  0  0  0
   -0.7659   -9.2511    6.5914 H   0  0  0  0  0  0  0  0  0  0  0  0
    0.6931   -9.7379    7.4428 H   0  0  0  0  0  0  0  0  0  0  0  0
   -0.1849  -10.8983    6.4591 H   0  0  0  0  0  0  0  0  0  0  0  0
    1.8328  -11.1224    5.8397 H   0  0  0  0  0  0  0  0  0  0  0  0
    6.4028   -2.8975   -2.8777 H   0  0  0  0  0  0  0  0  0  0  0  0
    4.7121   -1.5311   -4.1328 H   0  0  0  0  0  0  0  0  0  0  0  0
    3.4210   -2.4826   -3.3666 H   0  0  0  0  0  0  0  0  0  0  0  0
    4.5580   -3.2705   -4.4399 H   0  0  0  0  0  0  0  0  0  0  0  0
    5.7833   -4.6419   -1.4289 H   0  0  0  0  0  0  0  0  0  0  0  0
    4.9459   -4.9485   -2.9063 H   0  0  0  0  0  0  0  0  0  0  0  0
    4.0564   -4.2755   -1.5461 H   0  0  0  0  0  0  0  0  0  0  0  0
  1  2  2  0
  1 32  1  0
  1 33  1  0
  2  3  1  0
  2 29  1  0
  3  4  1  0
  3 34  1  0
  3 35  1  0
  4  5  1  0
  4 36  1  0
  4 37  1  0
  5  6  1  0
  5  7  1  0
  5 38  1  6
  6 39  1  0
  6 40  1  0
  6 41  1  0
  7 23  1  0
  7  8  1  0
  7 42  1  1
  8  9  1  0
  8 43  1  0
  8 44  1  0
  9 10  1  0
  9 45  1  0
  9 46  1  0
 10 23  1  0
 10 11  1  1
 10 12  1  0
 11 47  1  0
 11 48  1  0
 11 49  1  0
 12 20  1  0
 12 13  1  0
 12 50  1  1
 13 14  1  0
 13 51  1  0
 13 52  1  0
 14 15  1  0
 14 53  1  0
 14 54  1  0
 15 26  1  0
 15 16  1  0
 15 55  1  1
 16 17  1  0
 16 56  1  0
 16 57  1  0
 17 19  1  0
 17 18  1  0
 17 58  1  6
 18 19  1  0
 19 20  1  0
 19 59  1  6
 20 21  1  1
 20 25  1  0
 21 22  1  0
 21 60  1  0
 21 61  1  0
 22 23  1  0
 22 62  1  0
 22 63  1  0
 23 24  1  6
 24 64  1  0
 24 65  1  0
 24 66  1  0
 25 26  1  0
 25 67  1  0
 25 68  1  0
 26 27  1  0
 26 28  1  6
 27 69  1  0
 27 70  1  0
 27 71  1  0
 28 72  1  0
 29 30  1  0
 29 31  1  0
 29 73  1  0
 30 74  1  0
 30 75  1  0
 30 76  1  0
 31 77  1  0
 31 78  1  0
 31 79  1  0
M  END
>  <i_m_ct_stereo_status>  (154) 
1

>  <s_m_source_file>  (154) 
/var/tmp/pbs.5083856.sched01/tmpslpr2z8r/659jhsiqke.sdf

>  <i_m_source_file_index>  (154) 
1

>  <i_lp_mmshare_version>  (154) 
48012

>  <i_f3d_flags>  (154) 
0

>  <s_epik_input>  (154) 
W0NIM11bQ0hdKFtDSDNdKUMoPVtDSDJdKVtDSDJdW0NIMl1bQ0BIXShbQ0gzXSlbQ0BIXShbQ0gyXVtDSDJdMSlbQ0BdKFtDSDNdKShbQ0gyXVtDSDJdMilbQ0BAXTEoW0NIM10pW0NAQEhdKFtDQEBdMjM0KVtDSDJdW0NIMl1bQ0BASF0oW0NAQF0oW0NIMl00KShbQ0gzXSlbT0hdKVtDSDJdW0NASF01W0NAQEhdM081

>  <s_epik_cmdline>  (154) 
J2VwaWtfcHl0aG9uJywgJy1waHQnLCAnMi4wJywgJy1waCcsICc3LjAnLCAnLXRuJywgJzgnLCAnLW1hJywgJzIwMCcsICctaW1hZScsICc8aW5maWxlLm1hZT4nLCAnLW9tYWUnLCAnPG91dGZpbGUubWFlPic=

>  <r_lp_tautomer_probability>  (154) 
1

>  <r_epik_Ionization_Penalty>  (154) 
8.74711e-07

>  <r_epik_Ionization_Penalty_Charging>  (154) 
0

>  <r_epik_Ionization_Penalty_Neutral>  (154) 
8.74711e-07

>  <r_epik_State_Penalty>  (154) 
0

>  <r_epik_Charging_Adjusted_Penalty>  (154) 
0

>  <i_epik_Tot_Q>  (154) 
0

>  <i_epik_Tot_abs_Q>  (154) 
0

>  <s_lp_Force_Field>  (154) 
OPLS3e

>  <r_lp_Energy>  (154) 
91.139

>  <b_lp_Chiralities_Consistent>  (154) 
1

>  <s_lp_Variant>  (154) 
46:0-1

>  <s_i_glide_gridfile>  (154) 
pfpi4k_grid

>  <i_i_glide_lignum>  (154) 
1

>  <i_i_glide_rotatable_bonds>  (154) 
6

>  <r_i_docking_score>  (154) 
-2.60575

>  <r_i_glide_ligand_efficiency>  (154) 
-0.0840564

>  <r_i_glide_ligand_efficiency_sa>  (154) 
-0.264053

>  <r_i_glide_ligand_efficiency_ln>  (154) 
-0.587676

>  <r_i_glide_gscore>  (154) 
-2.60575

>  <r_i_glide_lipo>  (154) 
-0.770604

>  <r_i_glide_hbond>  (154) 
-0.108985

>  <r_i_glide_metal>  (154) 
-0

>  <r_i_glide_rewards>  (154) 
-0.486203

>  <r_i_glide_evdw>  (154) 
-27.8131

>  <r_i_glide_ecoul>  (154) 
-2.59866

>  <r_i_glide_erotb>  (154) 
0.540494

>  <r_i_glide_esite>  (154) 
0

>  <r_i_glide_emodel>  (154) 
-32.8474

>  <r_i_glide_energy>  (154) 
-30.4117

>  <r_i_glide_einternal>  (154) 
2.03925

>  <r_i_glide_intrahb_reward>  (154) 
-0

>  <i_i_glide_confnum>  (154) 
2

>  <i_i_glide_posenum>  (154) 
7

>  <r_i_glide_eff_state_penalty>  (154) 
0

>  <ligand_id>  (154) 
46

>  <original_smiles>  (154) 
C=C(CCC(C)C1CCC2(C)C3CCC4CC5OC5C3(CCC12C)CC4(C)O)C(C)C

>  <smiles>  (154) 
[H]OC1(C([H])([H])[H])C([H])([H])C23C([H])([H])C([H])([H])C4(C([H])([H])[H])C([H])(C([H])(C([H])([H])[H])C([H])([H])C([H])([H])C(=C([H])[H])C([H])(C([H])([H])[H])C([H])([H])[H])C([H])([H])C([H])([H])C4(C([H])([H])[H])C2([H])C([H])([H])C([H])([H])C1([H])C([H])([H])C1([H])OC13[H]

$$$$
46:0:1
     RDKit          3D

 79 83  0  0  1  0  0  0  0  0999 V2000
    4.0177   -2.9102   -3.3922 C   0  0  0  0  0  0  0  0  0  0  0  0
    4.0401   -1.6322   -2.9086 C   0  0  0  0  0  0  0  0  0  0  0  0
    4.8869   -1.2556   -1.7025 C   0  0  0  0  0  0  0  0  0  0  0  0
    5.1848   -2.4005   -0.6966 C   0  0  0  0  0  0  0  0  0  0  0  0
    3.9249   -3.0167   -0.0111 C   0  0  2  0  0  0  0  0  0  0  0  0
    3.1705   -1.9310    0.7891 C   0  0  0  0  0  0  0  0  0  0  0  0
    4.3250   -4.2552    0.8684 C   0  0  2  0  0  0  0  0  0  0  0  0
    5.0698   -5.3745    0.0825 C   0  0  0  0  0  0  0  0  0  0  0  0
    4.6519   -6.7344    0.7096 C   0  0  0  0  0  0  0  0  0  0  0  0
    3.9963   -6.3644    2.0566 C   0  0  2  0  0  0  0  0  0  0  0  0
    5.2133   -6.0964    2.9990 C   0  0  0  0  0  0  0  0  0  0  0  0
    3.0574   -7.4274    2.7790 C   0  0  2  0  0  0  0  0  0  0  0  0
    2.7125   -8.6840    1.9421 C   0  0  0  0  0  0  0  0  0  0  0  0
    2.1297   -9.9116    2.6805 C   0  0  0  0  0  0  0  0  0  0  0  0
    1.1381   -9.7503    3.8588 C   0  0  2  0  0  0  0  0  0  0  0  0
   -0.3018   -9.3219    3.4793 C   0  0  0  0  0  0  0  0  0  0  0  0
   -0.5466   -7.9111    3.0455 C   0  0  2  0  0  0  0  0  0  0  0  0
    0.1351   -7.5638    1.8476 O   0  0  0  0  0  0  0  0  0  0  0  0
    0.4737   -6.7465    3.0018 C   0  0  2  0  0  0  0  0  0  0  0  0
    1.8723   -6.8135    3.6453 C   0  0  2  0  0  0  0  0  0  0  0  0
    2.2246   -5.3424    4.0213 C   0  0  0  0  0  0  0  0  0  0  0  0
    2.6064   -4.3982    2.8566 C   0  0  0  0  0  0  0  0  0  0  0  0
    3.2306   -5.0816    1.6133 C   0  0  1  0  0  0  0  0  0  0  0  0
    2.1384   -5.3781    0.5498 C   0  0  0  0  0  0  0  0  0  0  0  0
    1.7319   -7.5138    5.0383 C   0  0  0  0  0  0  0  0  0  0  0  0
    1.7048   -9.0523    5.1163 C   0  0  1  0  0  0  0  0  0  0  0  0
    0.9472   -9.4861    6.3905 C   0  0  0  0  0  0  0  0  0  0  0  0
    3.0200   -9.5221    5.3618 O   0  0  0  0  0  0  0  0  0  0  0  0
    3.2392   -0.4783   -3.5213 C   0  0  0  0  0  0  0  0  0  0  0  0
    2.4562   -0.9069   -4.7282 C   0  0  0  0  0  0  0  0  0  0  0  0
    4.1297    0.6396   -4.0598 C   0  0  0  0  0  0  0  0  0  0  0  0
    4.5665   -3.7130   -2.9326 H   0  0  0  0  0  0  0  0  0  0  0  0
    3.4451   -3.1965   -4.2546 H   0  0  0  0  0  0  0  0  0  0  0  0
    5.8238   -0.8366   -2.0665 H   0  0  0  0  0  0  0  0  0  0  0  0
    4.4092   -0.4212   -1.1964 H   0  0  0  0  0  0  0  0  0  0  0  0
    5.7498   -3.1744   -1.2209 H   0  0  0  0  0  0  0  0  0  0  0  0
    5.8690   -2.0359    0.0726 H   0  0  0  0  0  0  0  0  0  0  0  0
    3.2469   -3.3372   -0.7996 H   0  0  0  0  0  0  0  0  0  0  0  0
    3.7402   -1.5948    1.6543 H   0  0  0  0  0  0  0  0  0  0  0  0
    2.1974   -2.2807    1.1248 H   0  0  0  0  0  0  0  0  0  0  0  0
    2.9481   -1.0505    0.1886 H   0  0  0  0  0  0  0  0  0  0  0  0
    4.9994   -3.8482    1.6201 H   0  0  0  0  0  0  0  0  0  0  0  0
    4.8052   -5.3665   -0.9807 H   0  0  0  0  0  0  0  0  0  0  0  0
    6.1479   -5.2229    0.1529 H   0  0  0  0  0  0  0  0  0  0  0  0
    3.9386   -7.2134    0.0442 H   0  0  0  0  0  0  0  0  0  0  0  0
    5.4937   -7.4190    0.8146 H   0  0  0  0  0  0  0  0  0  0  0  0
    4.9635   -5.5854    3.9265 H   0  0  0  0  0  0  0  0  0  0  0  0
    6.0089   -5.5095    2.5369 H   0  0  0  0  0  0  0  0  0  0  0  0
    5.6965   -7.0416    3.2731 H   0  0  0  0  0  0  0  0  0  0  0  0
    3.7036   -7.8586    3.5379 H   0  0  0  0  0  0  0  0  0  0  0  0
    2.1057   -8.4546    1.0725 H   0  0  0  0  0  0  0  0  0  0  0  0
    3.6425   -9.0438    1.5003 H   0  0  0  0  0  0  0  0  0  0  0  0
    1.6254  -10.5131    1.9340 H   0  0  0  0  0  0  0  0  0  0  0  0
    2.9632  -10.5315    3.0043 H   0  0  0  0  0  0  0  0  0  0  0  0
    1.0007  -10.7901    4.1682 H   0  0  0  0  0  0  0  0  0  0  0  0
   -0.6835   -9.9905    2.7060 H   0  0  0  0  0  0  0  0  0  0  0  0
   -0.9556   -9.4448    4.3392 H   0  0  0  0  0  0  0  0  0  0  0  0
   -1.5923   -7.6355    3.0157 H   0  0  0  0  0  0  0  0  0  0  0  0
    0.0306   -5.7650    2.9529 H   0  0  0  0  0  0  0  0  0  0  0  0
    1.4210   -4.8958    4.6105 H   0  0  0  0  0  0  0  0  0  0  0  0
    3.0661   -5.3484    4.7176 H   0  0  0  0  0  0  0  0  0  0  0  0
    1.7020   -3.8446    2.5864 H   0  0  0  0  0  0  0  0  0  0  0  0
    3.2686   -3.6340    3.2488 H   0  0  0  0  0  0  0  0  0  0  0  0
    1.4435   -4.6337    0.5666 H   0  0  0  0  0  0  0  0  0  0  0  0
    1.6655   -6.3486    0.6597 H   0  0  0  0  0  0  0  0  0  0  0  0
    2.5298   -5.4227   -0.4742 H   0  0  0  0  0  0  0  0  0  0  0  0
    2.5299   -7.1828    5.7074 H   0  0  0  0  0  0  0  0  0  0  0  0
    0.8215   -7.1351    5.5005 H   0  0  0  0  0  0  0  0  0  0  0  0
   -0.0920   -9.1606    6.3962 H   0  0  0  0  0  0  0  0  0  0  0  0
    1.4192   -9.0851    7.2913 H   0  0  0  0  0  0  0  0  0  0  0  0
    0.9394  -10.5745    6.4637 H   0  0  0  0  0  0  0  0  0  0  0  0
    2.9759  -10.4459    5.5348 H   0  0  0  0  0  0  0  0  0  0  0  0
    2.5990   -0.0583   -2.7351 H   0  0  0  0  0  0  0  0  0  0  0  0
    1.7955   -1.7193   -4.4133 H   0  0  0  0  0  0  0  0  0  0  0  0
    3.1490   -1.2410   -5.5119 H   0  0  0  0  0  0  0  0  0  0  0  0
    1.8705   -0.0751   -5.1079 H   0  0  0  0  0  0  0  0  0  0  0  0
    4.6541    1.1203   -3.2341 H   0  0  0  0  0  0  0  0  0  0  0  0
    3.5902    1.4320   -4.5835 H   0  0  0  0  0  0  0  0  0  0  0  0
    4.7811    0.1851   -4.8193 H   0  0  0  0  0  0  0  0  0  0  0  0
  1  2  2  0
  1 32  1  0
  1 33  1  0
  2  3  1  0
  2 29  1  0
  3  4  1  0
  3 34  1  0
  3 35  1  0
  4  5  1  0
  4 36  1  0
  4 37  1  0
  5  6  1  0
  5  7  1  0
  5 38  1  6
  6 39  1  0
  6 40  1  0
  6 41  1  0
  7 23  1  0
  7  8  1  0
  7 42  1  1
  8  9  1  0
  8 43  1  0
  8 44  1  0
  9 10  1  0
  9 45  1  0
  9 46  1  0
 10 23  1  0
 10 11  1  1
 10 12  1  0
 11 47  1  0
 11 48  1  0
 11 49  1  0
 12 20  1  0
 12 13  1  0
 12 50  1  1
 13 14  1  0
 13 51  1  0
 13 52  1  0
 14 15  1  0
 14 53  1  0
 14 54  1  0
 15 26  1  0
 15 16  1  0
 15 55  1  1
 16 17  1  0
 16 56  1  0
 16 57  1  0
 17 19  1  0
 17 18  1  0
 17 58  1  6
 18 19  1  0
 19 20  1  0
 19 59  1  6
 20 21  1  1
 20 25  1  0
 21 22  1  0
 21 60  1  0
 21 61  1  0
 22 23  1  0
 22 62  1  0
 22 63  1  0
 23 24  1  6
 24 64  1  0
 24 65  1  0
 24 66  1  0
 25 26  1  0
 25 67  1  0
 25 68  1  0
 26 27  1  0
 26 28  1  1
 27 69  1  0
 27 70  1  0
 27 71  1  0
 28 72  1  0
 29 30  1  0
 29 31  1  0
 29 73  1  0
 30 74  1  0
 30 75  1  0
 30 76  1  0
 31 77  1  0
 31 78  1  0
 31 79  1  0
M  END
>  <i_m_ct_stereo_status>  (155) 
1

>  <s_m_source_file>  (155) 
/var/tmp/pbs.5083856.sched01/tmpslpr2z8r/659jhsiqke.sdf

>  <i_m_source_file_index>  (155) 
1

>  <i_lp_mmshare_version>  (155) 
48012

>  <i_f3d_flags>  (155) 
0

>  <s_epik_input>  (155) 
W0NIM11bQ0hdKFtDSDNdKUMoPVtDSDJdKVtDSDJdW0NIMl1bQ0BIXShbQ0gzXSlbQ0BIXShbQ0gyXVtDSDJdMSlbQ0BdKFtDSDNdKShbQ0gyXVtDSDJdMilbQ0BAXTEoW0NIM10pW0NAQEhdKFtDQEBdMjM0KVtDSDJdW0NIMl1bQ0BASF0oW0NAQF0oW0NIMl00KShbQ0gzXSlbT0hdKVtDSDJdW0NASF01W0NAQEhdM081

>  <s_epik_cmdline>  (155) 
J2VwaWtfcHl0aG9uJywgJy1waHQnLCAnMi4wJywgJy1waCcsICc3LjAnLCAnLXRuJywgJzgnLCAnLW1hJywgJzIwMCcsICctaW1hZScsICc8aW5maWxlLm1hZT4nLCAnLW9tYWUnLCAnPG91dGZpbGUubWFlPic=

>  <r_lp_tautomer_probability>  (155) 
1

>  <r_epik_Ionization_Penalty>  (155) 
8.74711e-07

>  <r_epik_Ionization_Penalty_Charging>  (155) 
0

>  <r_epik_Ionization_Penalty_Neutral>  (155) 
8.74711e-07

>  <r_epik_State_Penalty>  (155) 
0

>  <r_epik_Charging_Adjusted_Penalty>  (155) 
0

>  <i_epik_Tot_Q>  (155) 
0

>  <i_epik_Tot_abs_Q>  (155) 
0

>  <s_lp_Force_Field>  (155) 
OPLS3e

>  <r_lp_Energy>  (155) 
91.139

>  <b_lp_Chiralities_Consistent>  (155) 
1

>  <s_lp_Variant>  (155) 
46:0-1

>  <s_i_glide_gridfile>  (155) 
pfpi4k_grid

>  <i_i_glide_lignum>  (155) 
1

>  <i_i_glide_rotatable_bonds>  (155) 
6

>  <r_i_docking_score>  (155) 
-1.59299

>  <r_i_glide_ligand_efficiency>  (155) 
-0.0513867

>  <r_i_glide_ligand_efficiency_sa>  (155) 
-0.161425

>  <r_i_glide_ligand_efficiency_ln>  (155) 
-0.359268

>  <r_i_glide_gscore>  (155) 
-1.59299

>  <r_i_glide_lipo>  (155) 
-0.64318

>  <r_i_glide_hbond>  (155) 
0

>  <r_i_glide_metal>  (155) 
-0

>  <r_i_glide_rewards>  (155) 
-0.486203

>  <r_i_glide_evdw>  (155) 
-18.0043

>  <r_i_glide_ecoul>  (155) 
-0.692571

>  <r_i_glide_erotb>  (155) 
0.540494

>  <r_i_glide_esite>  (155) 
0

>  <r_i_glide_emodel>  (155) 
-20.5441

>  <r_i_glide_energy>  (155) 
-18.6969

>  <r_i_glide_einternal>  (155) 
1.71783

>  <r_i_glide_intrahb_reward>  (155) 
-0

>  <i_i_glide_confnum>  (155) 
2

>  <i_i_glide_posenum>  (155) 
1

>  <r_i_glide_eff_state_penalty>  (155) 
0

>  <ligand_id>  (155) 
46

>  <original_smiles>  (155) 
C=C(CCC(C)C1CCC2(C)C3CCC4CC5OC5C3(CCC12C)CC4(C)O)C(C)C

>  <smiles>  (155) 
[H]OC1(C([H])([H])[H])C([H])([H])C23C([H])([H])C([H])([H])C4(C([H])([H])[H])C([H])(C([H])(C([H])([H])[H])C([H])([H])C([H])([H])C(=C([H])[H])C([H])(C([H])([H])[H])C([H])([H])[H])C([H])([H])C([H])([H])C4(C([H])([H])[H])C2([H])C([H])([H])C([H])([H])C1([H])C([H])([H])C1([H])OC13[H]

$$$$
46:0:2
     RDKit          3D

 79 83  0  0  1  0  0  0  0  0999 V2000
    2.8140   -3.3533   -2.6897 C   0  0  0  0  0  0  0  0  0  0  0  0
    3.3364   -2.1667   -2.2896 C   0  0  0  0  0  0  0  0  0  0  0  0
    4.2796   -2.0509   -1.0975 C   0  0  0  0  0  0  0  0  0  0  0  0
    4.5400   -3.3009   -0.2307 C   0  0  0  0  0  0  0  0  0  0  0  0
    3.4052   -3.7234    0.7464 C   0  0  2  0  0  0  0  0  0  0  0  0
    3.1019   -2.5880    1.7456 C   0  0  0  0  0  0  0  0  0  0  0  0
    3.7843   -5.0736    1.4505 C   0  0  2  0  0  0  0  0  0  0  0  0
    3.6800   -6.3272    0.5282 C   0  0  0  0  0  0  0  0  0  0  0  0
    3.2430   -7.5177    1.4265 C   0  0  0  0  0  0  0  0  0  0  0  0
    3.4910   -7.0338    2.8660 C   0  0  2  0  0  0  0  0  0  0  0  0
    5.0381   -7.2232    3.0553 C   0  0  0  0  0  0  0  0  0  0  0  0
    2.7906   -7.7920    4.0758 C   0  0  2  0  0  0  0  0  0  0  0  0
    1.7083   -8.8372    3.6635 C   0  0  0  0  0  0  0  0  0  0  0  0
    1.2292   -9.8432    4.7329 C   0  0  0  0  0  0  0  0  0  0  0  0
    1.0729   -9.4326    6.2229 C   0  0  2  0  0  0  0  0  0  0  0  0
   -0.1467   -8.5546    6.5593 C   0  0  0  0  0  0  0  0  0  0  0  0
   -0.1165   -7.1006    6.1277 C   0  0  2  0  0  0  0  0  0  0  0  0
   -0.0673   -6.9712    4.7268 O   0  0  0  0  0  0  0  0  0  0  0  0
    1.0236   -6.3425    5.4233 C   0  0  2  0  0  0  0  0  0  0  0  0
    2.4568   -6.8863    5.3309 C   0  0  2  0  0  0  0  0  0  0  0  0
    3.3854   -5.6229    5.3168 C   0  0  0  0  0  0  0  0  0  0  0  0
    3.3817   -4.7762    4.0236 C   0  0  0  0  0  0  0  0  0  0  0  0
    3.0292   -5.5419    2.7269 C   0  0  1  0  0  0  0  0  0  0  0  0
    1.4997   -5.4316    2.4144 C   0  0  0  0  0  0  0  0  0  0  0  0
    2.8306   -7.5764    6.6856 C   0  0  0  0  0  0  0  0  0  0  0  0
    2.3766   -9.0247    6.9553 C   0  0  1  0  0  0  0  0  0  0  0  0
    2.2851   -9.2603    8.4769 C   0  0  0  0  0  0  0  0  0  0  0  0
    3.4082   -9.9168    6.5700 O   0  0  0  0  0  0  0  0  0  0  0  0
    3.0018   -0.8683   -3.0051 C   0  0  0  0  0  0  0  0  0  0  0  0
    2.4917   -1.0513   -4.4334 C   0  0  0  0  0  0  0  0  0  0  0  0
    4.1543    0.1100   -3.0935 C   0  0  0  0  0  0  0  0  0  0  0  0
    3.0297   -4.2408   -2.1508 H   0  0  0  0  0  0  0  0  0  0  0  0
    2.1666   -3.4751   -3.5480 H   0  0  0  0  0  0  0  0  0  0  0  0
    5.2413   -1.7215   -1.4814 H   0  0  0  0  0  0  0  0  0  0  0  0
    3.9133   -1.2215   -0.5058 H   0  0  0  0  0  0  0  0  0  0  0  0
    4.8395   -4.1364   -0.8716 H   0  0  0  0  0  0  0  0  0  0  0  0
    5.4267   -3.0940    0.3733 H   0  0  0  0  0  0  0  0  0  0  0  0
    2.4993   -3.8828    0.1685 H   0  0  0  0  0  0  0  0  0  0  0  0
    3.9493   -2.4074    2.4015 H   0  0  0  0  0  0  0  0  0  0  0  0
    2.2510   -2.8129    2.3796 H   0  0  0  0  0  0  0  0  0  0  0  0
    2.8466   -1.6464    1.2611 H   0  0  0  0  0  0  0  0  0  0  0  0
    4.8259   -4.9600    1.7482 H   0  0  0  0  0  0  0  0  0  0  0  0
    2.9472   -6.1843   -0.2694 H   0  0  0  0  0  0  0  0  0  0  0  0
    4.6403   -6.5338    0.0446 H   0  0  0  0  0  0  0  0  0  0  0  0
    2.1829   -7.7164    1.2597 H   0  0  0  0  0  0  0  0  0  0  0  0
    3.7745   -8.4401    1.1898 H   0  0  0  0  0  0  0  0  0  0  0  0
    5.4537   -6.7147    3.9171 H   0  0  0  0  0  0  0  0  0  0  0  0
    5.6264   -6.8998    2.2008 H   0  0  0  0  0  0  0  0  0  0  0  0
    5.2780   -8.2806    3.1621 H   0  0  0  0  0  0  0  0  0  0  0  0
    3.5630   -8.4500    4.4559 H   0  0  0  0  0  0  0  0  0  0  0  0
    0.8529   -8.3851    3.1658 H   0  0  0  0  0  0  0  0  0  0  0  0
    2.1377   -9.4498    2.8731 H   0  0  0  0  0  0  0  0  0  0  0  0
    0.2742  -10.2494    4.3990 H   0  0  0  0  0  0  0  0  0  0  0  0
    1.9011  -10.6989    4.6949 H   0  0  0  0  0  0  0  0  0  0  0  0
    0.7921  -10.3814    6.6741 H   0  0  0  0  0  0  0  0  0  0  0  0
   -1.0158   -9.0408    6.1209 H   0  0  0  0  0  0  0  0  0  0  0  0
   -0.3172   -8.5900    7.6379 H   0  0  0  0  0  0  0  0  0  0  0  0
   -0.8098   -6.4214    6.5981 H   0  0  0  0  0  0  0  0  0  0  0  0
    0.9264   -5.2716    5.5090 H   0  0  0  0  0  0  0  0  0  0  0  0
    3.1280   -4.9680    6.1548 H   0  0  0  0  0  0  0  0  0  0  0  0
    4.4060   -5.9332    5.5281 H   0  0  0  0  0  0  0  0  0  0  0  0
    2.6769   -3.9699    4.1706 H   0  0  0  0  0  0  0  0  0  0  0  0
    4.3579   -4.2940    3.9225 H   0  0  0  0  0  0  0  0  0  0  0  0
    1.0401   -4.5208    2.7799 H   0  0  0  0  0  0  0  0  0  0  0  0
    0.9185   -6.2464    2.8054 H   0  0  0  0  0  0  0  0  0  0  0  0
    1.3047   -5.4810    1.3473 H   0  0  0  0  0  0  0  0  0  0  0  0
    3.9115   -7.5521    6.8383 H   0  0  0  0  0  0  0  0  0  0  0  0
    2.4283   -6.9474    7.4830 H   0  0  0  0  0  0  0  0  0  0  0  0
    1.5378   -8.6198    8.9496 H   0  0  0  0  0  0  0  0  0  0  0  0
    3.2438   -9.0509    8.9578 H   0  0  0  0  0  0  0  0  0  0  0  0
    2.0274  -10.2931    8.7108 H   0  0  0  0  0  0  0  0  0  0  0  0
    3.1034  -10.7921    6.7428 H   0  0  0  0  0  0  0  0  0  0  0  0
    2.2537   -0.3648   -2.3988 H   0  0  0  0  0  0  0  0  0  0  0  0
    1.6700   -1.7536   -4.4760 H   0  0  0  0  0  0  0  0  0  0  0  0
    3.2878   -1.4297   -5.0685 H   0  0  0  0  0  0  0  0  0  0  0  0
    2.1219   -0.1209   -4.8655 H   0  0  0  0  0  0  0  0  0  0  0  0
    4.4375    0.4273   -2.1041 H   0  0  0  0  0  0  0  0  0  0  0  0
    3.8970    1.0136   -3.6433 H   0  0  0  0  0  0  0  0  0  0  0  0
    5.0080   -0.3635   -3.5544 H   0  0  0  0  0  0  0  0  0  0  0  0
  1  2  2  0
  1 32  1  0
  1 33  1  0
  2  3  1  0
  2 29  1  0
  3  4  1  0
  3 34  1  0
  3 35  1  0
  4  5  1  0
  4 36  1  0
  4 37  1  0
  5  6  1  0
  5  7  1  0
  5 38  1  6
  6 39  1  0
  6 40  1  0
  6 41  1  0
  7 23  1  0
  7  8  1  0
  7 42  1  1
  8  9  1  0
  8 43  1  0
  8 44  1  0
  9 10  1  0
  9 45  1  0
  9 46  1  0
 10 23  1  0
 10 11  1  1
 10 12  1  0
 11 47  1  0
 11 48  1  0
 11 49  1  0
 12 20  1  0
 12 13  1  0
 12 50  1  1
 13 14  1  0
 13 51  1  0
 13 52  1  0
 14 15  1  0
 14 53  1  0
 14 54  1  0
 15 26  1  0
 15 16  1  0
 15 55  1  1
 16 17  1  0
 16 56  1  0
 16 57  1  0
 17 19  1  0
 17 18  1  0
 17 58  1  1
 18 19  1  0
 19 20  1  0
 19 59  1  1
 20 21  1  6
 20 25  1  0
 21 22  1  0
 21 60  1  0
 21 61  1  0
 22 23  1  0
 22 62  1  0
 22 63  1  0
 23 24  1  6
 24 64  1  0
 24 65  1  0
 24 66  1  0
 25 26  1  0
 25 67  1  0
 25 68  1  0
 26 27  1  0
 26 28  1  6
 27 69  1  0
 27 70  1  0
 27 71  1  0
 28 72  1  0
 29 30  1  0
 29 31  1  0
 29 73  1  0
 30 74  1  0
 30 75  1  0
 30 76  1  0
 31 77  1  0
 31 78  1  0
 31 79  1  0
M  END
>  <i_m_ct_stereo_status>  (156) 
1

>  <s_m_source_file>  (156) 
/var/tmp/pbs.5083856.sched01/tmpslpr2z8r/659jhsiqke.sdf

>  <i_m_source_file_index>  (156) 
1

>  <i_lp_mmshare_version>  (156) 
48012

>  <i_f3d_flags>  (156) 
0

>  <s_epik_input>  (156) 
W0NIM11bQ0hdKFtDSDNdKUMoPVtDSDJdKVtDSDJdW0NIMl1bQ0BIXShbQ0gzXSlbQ0BIXShbQ0gyXVtDSDJdMSlbQ0BdKFtDSDNdKShbQ0gyXVtDSDJdMilbQ0BAXTEoW0NIM10pW0NAQEhdKFtDQEBdMjM0KVtDSDJdW0NIMl1bQ0BASF0oW0NAQF0oW0NIMl00KShbQ0gzXSlbT0hdKVtDSDJdW0NASF01W0NAQEhdM081

>  <s_epik_cmdline>  (156) 
J2VwaWtfcHl0aG9uJywgJy1waHQnLCAnMi4wJywgJy1waCcsICc3LjAnLCAnLXRuJywgJzgnLCAnLW1hJywgJzIwMCcsICctaW1hZScsICc8aW5maWxlLm1hZT4nLCAnLW9tYWUnLCAnPG91dGZpbGUubWFlPic=

>  <r_lp_tautomer_probability>  (156) 
1

>  <r_epik_Ionization_Penalty>  (156) 
8.74711e-07

>  <r_epik_Ionization_Penalty_Charging>  (156) 
0

>  <r_epik_Ionization_Penalty_Neutral>  (156) 
8.74711e-07

>  <r_epik_State_Penalty>  (156) 
0

>  <r_epik_Charging_Adjusted_Penalty>  (156) 
0

>  <i_epik_Tot_Q>  (156) 
0

>  <i_epik_Tot_abs_Q>  (156) 
0

>  <s_lp_Force_Field>  (156) 
OPLS3e

>  <r_lp_Energy>  (156) 
91.139

>  <b_lp_Chiralities_Consistent>  (156) 
1

>  <s_lp_Variant>  (156) 
46:0-1

>  <s_i_glide_gridfile>  (156) 
pfpi4k_grid

>  <i_i_glide_lignum>  (156) 
1

>  <i_i_glide_rotatable_bonds>  (156) 
6

>  <r_i_docking_score>  (156) 
-1.19144

>  <r_i_glide_ligand_efficiency>  (156) 
-0.0384336

>  <r_i_glide_ligand_efficiency_sa>  (156) 
-0.120735

>  <r_i_glide_ligand_efficiency_ln>  (156) 
-0.268707

>  <r_i_glide_gscore>  (156) 
-1.19144

>  <r_i_glide_lipo>  (156) 
-0.238077

>  <r_i_glide_hbond>  (156) 
0

>  <r_i_glide_metal>  (156) 
-0

>  <r_i_glide_rewards>  (156) 
-0.486203

>  <r_i_glide_evdw>  (156) 
-12.8492

>  <r_i_glide_ecoul>  (156) 
-2.43464

>  <r_i_glide_erotb>  (156) 
0.540494

>  <r_i_glide_esite>  (156) 
0

>  <r_i_glide_emodel>  (156) 
-15.3153

>  <r_i_glide_energy>  (156) 
-15.2839

>  <r_i_glide_einternal>  (156) 
3.64294

>  <r_i_glide_intrahb_reward>  (156) 
-0

>  <i_i_glide_confnum>  (156) 
2

>  <i_i_glide_posenum>  (156) 
16

>  <r_i_glide_eff_state_penalty>  (156) 
0

>  <ligand_id>  (156) 
46

>  <original_smiles>  (156) 
C=C(CCC(C)C1CCC2(C)C3CCC4CC5OC5C3(CCC12C)CC4(C)O)C(C)C

>  <smiles>  (156) 
[H]OC1(C([H])([H])[H])C([H])([H])C23C([H])([H])C([H])([H])C4(C([H])([H])[H])C([H])(C([H])(C([H])([H])[H])C([H])([H])C([H])([H])C(=C([H])[H])C([H])(C([H])([H])[H])C([H])([H])[H])C([H])([H])C([H])([H])C4(C([H])([H])[H])C2([H])C([H])([H])C([H])([H])C1([H])C([H])([H])C1([H])OC13[H]

$$$$
47:0:0
     RDKit          3D

 67 74  0  0  1  0  0  0  0  0999 V2000
    3.7924   -6.9505    4.2733 C   0  0  0  0  0  0  0  0  0  0  0  0
    2.8081   -6.4997    3.4714 C   0  0  0  0  0  0  0  0  0  0  0  0
    1.7299   -7.3938    3.0989 C   0  0  0  0  0  0  0  0  0  0  0  0
    1.4545   -8.7002    3.4011 C   0  0  0  0  0  0  0  0  0  0  0  0
    0.2379   -9.0330    2.7403 C   0  0  0  0  0  0  0  0  0  0  0  0
   -0.1458   -7.9083    2.0793 C   0  0  0  0  0  0  0  0  0  0  0  0
    0.7680   -6.9211    2.2500 O   0  0  0  0  0  0  0  0  0  0  0  0
    2.7698   -5.0385    2.9196 C   0  0  2  0  0  0  0  0  0  0  0  0
    3.1835   -5.0702    1.4176 C   0  0  0  0  0  0  0  0  0  0  0  0
    4.6621   -5.5225    1.2463 C   0  0  1  0  0  0  0  0  0  0  0  0
    5.2746   -5.1414   -0.1157 C   0  0  0  0  0  0  0  0  0  0  0  0
    5.2272   -3.7350   -0.3139 O   0  0  0  0  0  0  0  0  0  0  0  0
    5.7073   -3.3189   -1.5797 C   0  0  0  0  0  0  0  0  0  0  0  0
    5.5515   -5.0785    2.4215 C   0  0  0  0  0  0  0  0  0  0  0  0
    6.6001   -5.6562    2.6802 O   0  0  0  0  0  0  0  0  0  0  0  0
    5.0850   -3.8779    3.2503 C   0  0  1  0  0  0  0  0  0  0  0  0
    5.3745   -2.7516    2.3802 O   0  0  0  0  0  0  0  0  0  0  0  0
    4.2548   -1.9908    2.2241 C   0  0  0  0  0  0  0  0  0  0  0  0
    4.0544   -0.7818    1.5152 C   0  0  0  0  0  0  0  0  0  0  0  0
    5.0504   -0.2925    0.7102 O   0  0  0  0  0  0  0  0  0  0  0  0
    2.8314   -0.0723    1.6531 C   0  0  0  0  0  0  0  0  0  0  0  0
    1.7940   -0.4922    2.5410 C   0  0  0  0  0  0  0  0  0  0  0  0
    1.9169   -1.7186    3.2398 C   0  0  0  0  0  0  0  0  0  0  0  0
    3.1812   -2.4270    2.9567 C   0  0  0  0  0  0  0  0  0  0  0  0
    3.5410   -3.9078    3.6604 C   0  0  1  0  0  0  0  0  0  0  0  0
    2.9659   -4.1316    5.2930 C   0  0  2  0  0  0  0  0  0  0  0  0
    3.8968   -3.5274    6.2191 O   0  0  0  0  0  0  0  0  0  0  0  0
    4.8885   -4.4125    6.7222 C   0  0  0  0  0  0  0  0  0  0  0  0
    1.6001   -4.6241    6.0965 C   0  0  0  0  0  0  0  0  0  0  0  0
    1.7118   -5.7515    6.9413 C   0  0  0  0  0  0  0  0  0  0  0  0
    0.6471   -6.1655    7.7763 C   0  0  0  0  0  0  0  0  0  0  0  0
   -0.5780   -5.4685    7.7870 C   0  0  0  0  0  0  0  0  0  0  0  0
   -0.7944   -4.3798    6.9290 C   0  0  0  0  0  0  0  0  0  0  0  0
   -2.0214   -3.7795    6.9084 O   0  0  0  0  0  0  0  0  0  0  0  0
    0.2581   -3.9386    6.0837 C   0  0  0  0  0  0  0  0  0  0  0  0
    0.0647   -2.8987    5.0867 O   0  0  0  0  0  0  0  0  0  0  0  0
    1.2792   -2.1702    4.6624 C   0  0  1  0  0  0  0  0  0  0  0  0
    1.9311   -3.4612    4.6239 C   0  0  2  0  0  0  0  0  0  0  0  0
    1.4908   -4.3462    3.3304 C   0  0  0  0  0  0  0  0  0  0  0  0
    3.8099   -7.9669    4.6393 H   0  0  0  0  0  0  0  0  0  0  0  0
    4.6178   -6.3310    4.5817 H   0  0  0  0  0  0  0  0  0  0  0  0
    2.0531   -9.3590    4.0200 H   0  0  0  0  0  0  0  0  0  0  0  0
   -0.2951   -9.9779    2.7289 H   0  0  0  0  0  0  0  0  0  0  0  0
   -0.9805   -7.6683    1.4375 H   0  0  0  0  0  0  0  0  0  0  0  0
    2.5505   -5.7623    0.8637 H   0  0  0  0  0  0  0  0  0  0  0  0
    3.0170   -4.1053    0.9360 H   0  0  0  0  0  0  0  0  0  0  0  0
    4.6805   -6.6123    1.2984 H   0  0  0  0  0  0  0  0  0  0  0  0
    6.3116   -5.4752   -0.1702 H   0  0  0  0  0  0  0  0  0  0  0  0
    4.7417   -5.6559   -0.9169 H   0  0  0  0  0  0  0  0  0  0  0  0
    5.6283   -2.2346   -1.6475 H   0  0  0  0  0  0  0  0  0  0  0  0
    5.1163   -3.7521   -2.3866 H   0  0  0  0  0  0  0  0  0  0  0  0
    6.7541   -3.5855   -1.7220 H   0  0  0  0  0  0  0  0  0  0  0  0
    5.7303   -3.7425    4.1156 H   0  0  0  0  0  0  0  0  0  0  0  0
    4.8255    0.5003    0.2394 H   0  0  0  0  0  0  0  0  0  0  0  0
    2.7010    0.8631    1.1227 H   0  0  0  0  0  0  0  0  0  0  0  0
    0.9533    0.1582    2.7176 H   0  0  0  0  0  0  0  0  0  0  0  0
    5.5166   -3.8836    7.4415 H   0  0  0  0  0  0  0  0  0  0  0  0
    5.5455   -4.7911    5.9401 H   0  0  0  0  0  0  0  0  0  0  0  0
    4.4662   -5.2702    7.2429 H   0  0  0  0  0  0  0  0  0  0  0  0
    2.6292   -6.3188    6.9744 H   0  0  0  0  0  0  0  0  0  0  0  0
    0.7739   -7.0333    8.4122 H   0  0  0  0  0  0  0  0  0  0  0  0
   -1.3725   -5.8147    8.4419 H   0  0  0  0  0  0  0  0  0  0  0  0
   -2.6836   -4.2700    7.3841 H   0  0  0  0  0  0  0  0  0  0  0  0
    1.4407   -1.4084    5.4403 H   0  0  0  0  0  0  0  0  0  0  0  0
    2.6024   -2.6804    5.0179 H   0  0  0  0  0  0  0  0  0  0  0  0
    1.0337   -3.8212    2.4907 H   0  0  0  0  0  0  0  0  0  0  0  0
    0.7070   -5.0246    3.6432 H   0  0  0  0  0  0  0  0  0  0  0  0
  1  2  2  0
  1 40  1  0
  1 41  1  0
  2  3  1  0
  8  2  1  1
  3  7  1  0
  3  4  2  0
  4  5  1  0
  4 42  1  0
  5  6  2  0
  5 43  1  0
  6  7  1  0
  6 44  1  0
  8 25  1  0
  8 39  1  0
  8  9  1  0
  9 10  1  0
  9 45  1  0
  9 46  1  0
 10 11  1  0
 10 14  1  0
 10 47  1  6
 11 12  1  0
 11 48  1  0
 11 49  1  0
 12 13  1  0
 13 50  1  0
 13 51  1  0
 13 52  1  0
 14 15  2  0
 14 16  1  0
 16 25  1  0
 16 17  1  0
 16 53  1  1
 17 18  1  0
 18 24  2  0
 18 19  1  0
 19 20  1  0
 19 21  2  0
 20 54  1  0
 21 22  1  0
 21 55  1  0
 22 23  2  0
 22 56  1  0
 23 37  1  0
 23 24  1  0
 25 24  1  6
 25 26  1  0
 26 38  1  0
 26 27  1  1
 26 29  1  0
 27 28  1  0
 28 57  1  0
 28 58  1  0
 28 59  1  0
 29 35  2  0
 29 30  1  0
 30 31  2  0
 30 60  1  0
 31 32  1  0
 31 61  1  0
 32 33  2  0
 32 62  1  0
 33 34  1  0
 33 35  1  0
 34 63  1  0
 35 36  1  0
 36 37  1  0
 37 38  1  0
 37 64  1  1
 38 39  1  0
 38 65  1  1
 39 66  1  0
 39 67  1  0
M  END
>  <i_m_ct_stereo_status>  (157) 
1

>  <s_m_source_file>  (157) 
/var/tmp/pbs.5083856.sched01/tmpslpr2z8r/659jhsiqke.sdf

>  <i_m_source_file_index>  (157) 
2

>  <i_lp_mmshare_version>  (157) 
48012

>  <i_f3d_flags>  (157) 
0

>  <s_epik_input>  (157) 
bzFbY0hdW2NIXVtjSF1jMUMoPVtDSDJdKVtDQEBdMihbQ0BAXTM0NSlbQ0gyXVtDQEBIXShbQ0gyXU9bQ0gzXSlDKD1PKVtDQEhdM09jNmM0YyhbY0hdW2NIXWM2W09IXSlbQ0hdN1tDQEhdKFtDSDJdMilDNShPW0NIM10pYzhjKE83KWMoW09IXSlbY0hdW2NIXVtjSF04

>  <s_epik_cmdline>  (157) 
J2VwaWtfcHl0aG9uJywgJy1waHQnLCAnMi4wJywgJy1waCcsICc3LjAnLCAnLXRuJywgJzgnLCAnLW1hJywgJzIwMCcsICctaW1hZScsICc8aW5maWxlLm1hZT4nLCAnLW9tYWUnLCAnPG91dGZpbGUubWFlPic=

>  <r_lp_tautomer_probability>  (157) 
1

>  <r_epik_Ionization_Penalty>  (157) 
0.00572026

>  <r_epik_Ionization_Penalty_Charging>  (157) 
0

>  <r_epik_Ionization_Penalty_Neutral>  (157) 
0.00572026

>  <r_epik_State_Penalty>  (157) 
0

>  <r_epik_Charging_Adjusted_Penalty>  (157) 
0

>  <i_epik_Tot_Q>  (157) 
0

>  <i_epik_Tot_abs_Q>  (157) 
0

>  <s_lp_Force_Field>  (157) 
OPLS3e

>  <r_lp_Energy>  (157) 
434.114

>  <b_lp_Chiralities_Consistent>  (157) 
1

>  <s_lp_Variant>  (157) 
47:0-1

>  <s_i_glide_gridfile>  (157) 
pfpi4k_grid

>  <i_i_glide_lignum>  (157) 
2

>  <i_i_glide_rotatable_bonds>  (157) 
7

>  <r_i_docking_score>  (157) 
-2.04839

>  <r_i_glide_ligand_efficiency>  (157) 
-0.0525229

>  <r_i_glide_ligand_efficiency_sa>  (157) 
-0.178116

>  <r_i_glide_ligand_efficiency_ln>  (157) 
-0.439234

>  <r_i_glide_gscore>  (157) 
-2.04839

>  <r_i_glide_lipo>  (157) 
-0.356425

>  <r_i_glide_hbond>  (157) 
0

>  <r_i_glide_metal>  (157) 
-0

>  <r_i_glide_rewards>  (157) 
-0.0231973

>  <r_i_glide_evdw>  (157) 
-28.5053

>  <r_i_glide_ecoul>  (157) 
-3.09828

>  <r_i_glide_erotb>  (157) 
0.221239

>  <r_i_glide_esite>  (157) 
0

>  <r_i_glide_emodel>  (157) 
-35.3131

>  <r_i_glide_energy>  (157) 
-31.6036

>  <r_i_glide_einternal>  (157) 
0.571663

>  <r_i_glide_intrahb_reward>  (157) 
-0

>  <i_i_glide_confnum>  (157) 
2

>  <i_i_glide_posenum>  (157) 
30

>  <r_i_glide_eff_state_penalty>  (157) 
0

>  <ligand_id>  (157) 
47

>  <original_smiles>  (157) 
C=C(c1ccco1)C12CC(COC)C(=O)C3Oc4c(O)ccc5c4C31C1(OC)c3cccc(O)c3OC5C1C2

>  <smiles>  (157) 
[H]Oc1c([H])c([H])c([H])c2c1OC1([H])c3c([H])c([H])c(O[H])c4c3C35C([H])(O4)C(=O)C([H])(C([H])([H])OC([H])([H])[H])C([H])([H])C3(C(=C([H])[H])c3oc([H])c([H])c3[H])C([H])([H])C1([H])C25OC([H])([H])[H]

$$$$
47:0:1
     RDKit          3D

 67 74  0  0  1  0  0  0  0  0999 V2000
    3.7477   -6.9755    4.1827 C   0  0  0  0  0  0  0  0  0  0  0  0
    2.7706   -6.5054    3.3821 C   0  0  0  0  0  0  0  0  0  0  0  0
    1.6617   -7.3551    2.9953 C   0  0  0  0  0  0  0  0  0  0  0  0
    0.6731   -7.2456    2.0543 C   0  0  0  0  0  0  0  0  0  0  0  0
   -0.1262   -8.4200    2.1515 C   0  0  0  0  0  0  0  0  0  0  0  0
    0.4318   -9.1743    3.1325 C   0  0  0  0  0  0  0  0  0  0  0  0
    1.5251   -8.5444    3.6570 O   0  0  0  0  0  0  0  0  0  0  0  0
    2.7413   -5.0379    2.8385 C   0  0  2  0  0  0  0  0  0  0  0  0
    3.1394   -5.0500    1.3307 C   0  0  0  0  0  0  0  0  0  0  0  0
    4.6008   -5.5397    1.1256 C   0  0  1  0  0  0  0  0  0  0  0  0
    5.1999   -5.1317   -0.2302 C   0  0  0  0  0  0  0  0  0  0  0  0
    5.1999   -3.7184   -0.3730 O   0  0  0  0  0  0  0  0  0  0  0  0
    5.6844   -3.2802   -1.6302 C   0  0  0  0  0  0  0  0  0  0  0  0
    5.5237   -5.1529    2.2876 C   0  0  0  0  0  0  0  0  0  0  0  0
    6.5682   -5.7614    2.5051 O   0  0  0  0  0  0  0  0  0  0  0  0
    5.0971   -3.9641    3.1497 C   0  0  1  0  0  0  0  0  0  0  0  0
    5.3847   -2.7946    2.3195 O   0  0  0  0  0  0  0  0  0  0  0  0
    4.2778   -2.0102    2.1982 C   0  0  0  0  0  0  0  0  0  0  0  0
    4.0991   -0.7681    1.5193 C   0  0  0  0  0  0  0  0  0  0  0  0
    5.0925   -0.2862    0.7262 O   0  0  0  0  0  0  0  0  0  0  0  0
    2.8866   -0.0476    1.6930 C   0  0  0  0  0  0  0  0  0  0  0  0
    1.8601   -0.4684    2.5769 C   0  0  0  0  0  0  0  0  0  0  0  0
    1.9760   -1.7132    3.2507 C   0  0  0  0  0  0  0  0  0  0  0  0
    3.2203   -2.4463    2.9271 C   0  0  0  0  0  0  0  0  0  0  0  0
    3.5539   -3.9430    3.5855 C   0  0  1  0  0  0  0  0  0  0  0  0
    2.9935   -4.1406    5.2257 C   0  0  2  0  0  0  0  0  0  0  0  0
    3.9510   -3.5789    6.1975 O   0  0  0  0  0  0  0  0  0  0  0  0
    4.6546   -2.3353    5.9657 C   0  0  0  0  0  0  0  0  0  0  0  0
    1.6395   -4.6533    6.0574 C   0  0  0  0  0  0  0  0  0  0  0  0
    1.7517   -5.7956    6.8845 C   0  0  0  0  0  0  0  0  0  0  0  0
    0.6971   -6.2130    7.7260 C   0  0  0  0  0  0  0  0  0  0  0  0
   -0.5216   -5.5011    7.7750 C   0  0  0  0  0  0  0  0  0  0  0  0
   -0.7382   -4.3904    6.9539 C   0  0  0  0  0  0  0  0  0  0  0  0
   -1.9567   -3.7758    6.9572 O   0  0  0  0  0  0  0  0  0  0  0  0
    0.2983   -3.9501    6.1138 C   0  0  0  0  0  0  0  0  0  0  0  0
    0.0811   -2.9058    5.1273 O   0  0  0  0  0  0  0  0  0  0  0  0
    1.3037   -2.1832    4.6501 C   0  0  1  0  0  0  0  0  0  0  0  0
    1.9102   -3.5016    4.5715 C   0  0  2  0  0  0  0  0  0  0  0  0
    1.4610   -4.3667    3.2740 C   0  0  0  0  0  0  0  0  0  0  0  0
    3.7421   -8.0037    4.5312 H   0  0  0  0  0  0  0  0  0  0  0  0
    4.5770   -6.3692    4.5113 H   0  0  0  0  0  0  0  0  0  0  0  0
    0.5320   -6.4262    1.3728 H   0  0  0  0  0  0  0  0  0  0  0  0
   -0.9918   -8.6907    1.5606 H   0  0  0  0  0  0  0  0  0  0  0  0
    0.1978  -10.1411    3.5618 H   0  0  0  0  0  0  0  0  0  0  0  0
    2.4899   -5.7106    0.7646 H   0  0  0  0  0  0  0  0  0  0  0  0
    2.9956   -4.0615    0.8885 H   0  0  0  0  0  0  0  0  0  0  0  0
    4.5894   -6.6304    1.1605 H   0  0  0  0  0  0  0  0  0  0  0  0
    6.2225   -5.5011   -0.3099 H   0  0  0  0  0  0  0  0  0  0  0  0
    4.6268   -5.5960   -1.0331 H   0  0  0  0  0  0  0  0  0  0  0  0
    5.6489   -2.1915   -1.6678 H   0  0  0  0  0  0  0  0  0  0  0  0
    5.0676   -3.6660   -2.4428 H   0  0  0  0  0  0  0  0  0  0  0  0
    6.7182   -3.5840   -1.7962 H   0  0  0  0  0  0  0  0  0  0  0  0
    5.7758   -3.9636    4.0059 H   0  0  0  0  0  0  0  0  0  0  0  0
    4.8682    0.5007    0.2520 H   0  0  0  0  0  0  0  0  0  0  0  0
    2.7837    0.9011    1.1947 H   0  0  0  0  0  0  0  0  0  0  0  0
    1.0456    0.1990    2.7950 H   0  0  0  0  0  0  0  0  0  0  0  0
    5.3586   -2.1638    6.7778 H   0  0  0  0  0  0  0  0  0  0  0  0
    3.9680   -1.4891    5.9430 H   0  0  0  0  0  0  0  0  0  0  0  0
    5.2400   -2.3152    5.0403 H   0  0  0  0  0  0  0  0  0  0  0  0
    2.6693   -6.3497    6.8942 H   0  0  0  0  0  0  0  0  0  0  0  0
    0.8156   -7.0883    8.3406 H   0  0  0  0  0  0  0  0  0  0  0  0
   -1.3026   -5.8383    8.4348 H   0  0  0  0  0  0  0  0  0  0  0  0
   -2.6199   -4.2707    7.4147 H   0  0  0  0  0  0  0  0  0  0  0  0
    1.5126   -1.4467    5.4441 H   0  0  0  0  0  0  0  0  0  0  0  0
    2.5957   -2.7726    4.9801 H   0  0  0  0  0  0  0  0  0  0  0  0
    1.0236   -3.7826    2.4776 H   0  0  0  0  0  0  0  0  0  0  0  0
    0.6752   -5.0612    3.5534 H   0  0  0  0  0  0  0  0  0  0  0  0
  1  2  2  0
  1 40  1  0
  1 41  1  0
  2  3  1  0
  8  2  1  1
  3  7  1  0
  3  4  2  0
  4  5  1  0
  4 42  1  0
  5  6  2  0
  5 43  1  0
  6  7  1  0
  6 44  1  0
  8 25  1  0
  8 39  1  0
  8  9  1  0
  9 10  1  0
  9 45  1  0
  9 46  1  0
 10 11  1  0
 10 14  1  0
 10 47  1  6
 11 12  1  0
 11 48  1  0
 11 49  1  0
 12 13  1  0
 13 50  1  0
 13 51  1  0
 13 52  1  0
 14 15  2  0
 14 16  1  0
 16 25  1  0
 16 17  1  0
 16 53  1  1
 17 18  1  0
 18 24  2  0
 18 19  1  0
 19 20  1  0
 19 21  2  0
 20 54  1  0
 21 22  1  0
 21 55  1  0
 22 23  2  0
 22 56  1  0
 23 37  1  0
 23 24  1  0
 25 24  1  6
 25 26  1  0
 26 38  1  0
 26 27  1  1
 26 29  1  0
 27 28  1  0
 28 57  1  0
 28 58  1  0
 28 59  1  0
 29 35  2  0
 29 30  1  0
 30 31  2  0
 30 60  1  0
 31 32  1  0
 31 61  1  0
 32 33  2  0
 32 62  1  0
 33 34  1  0
 33 35  1  0
 34 63  1  0
 35 36  1  0
 36 37  1  0
 37 38  1  0
 37 64  1  1
 38 39  1  0
 38 65  1  1
 39 66  1  0
 39 67  1  0
M  END
>  <i_m_ct_stereo_status>  (158) 
1

>  <s_m_source_file>  (158) 
/var/tmp/pbs.5083856.sched01/tmpslpr2z8r/659jhsiqke.sdf

>  <i_m_source_file_index>  (158) 
2

>  <i_lp_mmshare_version>  (158) 
48012

>  <i_f3d_flags>  (158) 
0

>  <s_epik_input>  (158) 
bzFbY0hdW2NIXVtjSF1jMUMoPVtDSDJdKVtDQEBdMihbQ0BAXTM0NSlbQ0gyXVtDQEBIXShbQ0gyXU9bQ0gzXSlDKD1PKVtDQEhdM09jNmM0YyhbY0hdW2NIXWM2W09IXSlbQ0hdN1tDQEhdKFtDSDJdMilDNShPW0NIM10pYzhjKE83KWMoW09IXSlbY0hdW2NIXVtjSF04

>  <s_epik_cmdline>  (158) 
J2VwaWtfcHl0aG9uJywgJy1waHQnLCAnMi4wJywgJy1waCcsICc3LjAnLCAnLXRuJywgJzgnLCAnLW1hJywgJzIwMCcsICctaW1hZScsICc8aW5maWxlLm1hZT4nLCAnLW9tYWUnLCAnPG91dGZpbGUubWFlPic=

>  <r_lp_tautomer_probability>  (158) 
1

>  <r_epik_Ionization_Penalty>  (158) 
0.00572026

>  <r_epik_Ionization_Penalty_Charging>  (158) 
0

>  <r_epik_Ionization_Penalty_Neutral>  (158) 
0.00572026

>  <r_epik_State_Penalty>  (158) 
0

>  <r_epik_Charging_Adjusted_Penalty>  (158) 
0

>  <i_epik_Tot_Q>  (158) 
0

>  <i_epik_Tot_abs_Q>  (158) 
0

>  <s_lp_Force_Field>  (158) 
OPLS3e

>  <r_lp_Energy>  (158) 
434.114

>  <b_lp_Chiralities_Consistent>  (158) 
1

>  <s_lp_Variant>  (158) 
47:0-1

>  <s_i_glide_gridfile>  (158) 
pfpi4k_grid

>  <i_i_glide_lignum>  (158) 
2

>  <i_i_glide_rotatable_bonds>  (158) 
7

>  <r_i_docking_score>  (158) 
-1.97163

>  <r_i_glide_ligand_efficiency>  (158) 
-0.0505546

>  <r_i_glide_ligand_efficiency_sa>  (158) 
-0.171441

>  <r_i_glide_ligand_efficiency_ln>  (158) 
-0.422774

>  <r_i_glide_gscore>  (158) 
-1.97163

>  <r_i_glide_lipo>  (158) 
-0.336188

>  <r_i_glide_hbond>  (158) 
0

>  <r_i_glide_metal>  (158) 
-0

>  <r_i_glide_rewards>  (158) 
-0.0273171

>  <r_i_glide_evdw>  (158) 
-28.6842

>  <r_i_glide_ecoul>  (158) 
-2.63438

>  <r_i_glide_erotb>  (158) 
0.221239

>  <r_i_glide_esite>  (158) 
0

>  <r_i_glide_emodel>  (158) 
-29.5192

>  <r_i_glide_energy>  (158) 
-31.3185

>  <r_i_glide_einternal>  (158) 
10.3771

>  <r_i_glide_intrahb_reward>  (158) 
-0

>  <i_i_glide_confnum>  (158) 
2

>  <i_i_glide_posenum>  (158) 
1

>  <r_i_glide_eff_state_penalty>  (158) 
0

>  <ligand_id>  (158) 
47

>  <original_smiles>  (158) 
C=C(c1ccco1)C12CC(COC)C(=O)C3Oc4c(O)ccc5c4C31C1(OC)c3cccc(O)c3OC5C1C2

>  <smiles>  (158) 
[H]Oc1c([H])c([H])c([H])c2c1OC1([H])c3c([H])c([H])c(O[H])c4c3C35C([H])(O4)C(=O)C([H])(C([H])([H])OC([H])([H])[H])C([H])([H])C3(C(=C([H])[H])c3oc([H])c([H])c3[H])C([H])([H])C1([H])C25OC([H])([H])[H]

$$$$
47:0:2
     RDKit          3D

 67 74  0  0  1  0  0  0  0  0999 V2000
    3.9186   -2.9843    5.3903 C   0  0  0  0  0  0  0  0  0  0  0  0
    2.6697   -2.9437    4.8791 C   0  0  0  0  0  0  0  0  0  0  0  0
    2.0508   -1.6732    4.5542 C   0  0  0  0  0  0  0  0  0  0  0  0
    0.8310   -1.3110    4.0381 C   0  0  0  0  0  0  0  0  0  0  0  0
    0.8205    0.1065    3.9304 C   0  0  0  0  0  0  0  0  0  0  0  0
    2.0233    0.5238    4.4141 C   0  0  0  0  0  0  0  0  0  0  0  0
    2.7793   -0.5403    4.7957 O   0  0  0  0  0  0  0  0  0  0  0  0
    1.8204   -4.2310    4.6126 C   0  0  2  0  0  0  0  0  0  0  0  0
    0.7238   -4.3549    5.7077 C   0  0  0  0  0  0  0  0  0  0  0  0
    1.3727   -4.5543    7.1010 C   0  0  1  0  0  0  0  0  0  0  0  0
    0.3937   -5.0980    8.1711 C   0  0  0  0  0  0  0  0  0  0  0  0
    0.9022   -4.9430    9.4927 O   0  0  0  0  0  0  0  0  0  0  0  0
    0.9971   -3.5976    9.9442 C   0  0  0  0  0  0  0  0  0  0  0  0
    2.6840   -5.3663    7.0480 C   0  0  0  0  0  0  0  0  0  0  0  0
    3.5204   -5.2965    7.9446 O   0  0  0  0  0  0  0  0  0  0  0  0
    2.8960   -6.2751    5.8379 C   0  0  1  0  0  0  0  0  0  0  0  0
    1.9834   -7.3828    6.1119 O   0  0  0  0  0  0  0  0  0  0  0  0
    1.1538   -7.5917    5.0556 C   0  0  0  0  0  0  0  0  0  0  0  0
    0.1742   -8.5900    4.8318 C   0  0  0  0  0  0  0  0  0  0  0  0
   -0.1784   -9.4416    5.8376 O   0  0  0  0  0  0  0  0  0  0  0  0
   -0.4315   -8.7018    3.5492 C   0  0  0  0  0  0  0  0  0  0  0  0
   -0.0420   -7.9054    2.4394 C   0  0  0  0  0  0  0  0  0  0  0  0
    0.9130   -6.8798    2.6159 C   0  0  0  0  0  0  0  0  0  0  0  0
    1.4023   -6.7588    4.0107 C   0  0  0  0  0  0  0  0  0  0  0  0
    2.5337   -5.5963    4.4395 C   0  0  1  0  0  0  0  0  0  0  0  0
    3.7189   -5.1978    3.2070 C   0  0  2  0  0  0  0  0  0  0  0  0
    4.8242   -6.1488    3.2837 O   0  0  0  0  0  0  0  0  0  0  0  0
    5.3946   -6.6172    2.0555 C   0  0  0  0  0  0  0  0  0  0  0  0
    3.9063   -4.1515    1.9383 C   0  0  0  0  0  0  0  0  0  0  0  0
    4.9601   -3.2133    2.0022 C   0  0  0  0  0  0  0  0  0  0  0  0
    5.3011   -2.4080    0.8932 C   0  0  0  0  0  0  0  0  0  0  0  0
    4.5923   -2.5081   -0.3207 C   0  0  0  0  0  0  0  0  0  0  0  0
    3.4983   -3.3822   -0.4431 C   0  0  0  0  0  0  0  0  0  0  0  0
    2.7902   -3.4445   -1.6073 O   0  0  0  0  0  0  0  0  0  0  0  0
    3.1470   -4.2034    0.6439 C   0  0  0  0  0  0  0  0  0  0  0  0
    1.9611   -5.0508    0.6141 O   0  0  0  0  0  0  0  0  0  0  0  0
    1.9358   -6.2332    1.5228 C   0  0  1  0  0  0  0  0  0  0  0  0
    2.5050   -5.3466    2.5126 C   0  0  2  0  0  0  0  0  0  0  0  0
    1.4240   -4.3080    3.1601 C   0  0  0  0  0  0  0  0  0  0  0  0
    4.4822   -2.0788    5.5834 H   0  0  0  0  0  0  0  0  0  0  0  0
    4.4157   -3.9083    5.6382 H   0  0  0  0  0  0  0  0  0  0  0  0
    0.0425   -1.9881    3.7470 H   0  0  0  0  0  0  0  0  0  0  0  0
    0.0370    0.7471    3.5482 H   0  0  0  0  0  0  0  0  0  0  0  0
    2.4797    1.4982    4.5410 H   0  0  0  0  0  0  0  0  0  0  0  0
    0.1395   -3.4398    5.7429 H   0  0  0  0  0  0  0  0  0  0  0  0
    0.0035   -5.1467    5.4916 H   0  0  0  0  0  0  0  0  0  0  0  0
    1.6986   -3.5564    7.3779 H   0  0  0  0  0  0  0  0  0  0  0  0
   -0.5772   -4.6029    8.1076 H   0  0  0  0  0  0  0  0  0  0  0  0
    0.1914   -6.1602    8.0025 H   0  0  0  0  0  0  0  0  0  0  0  0
    1.4283   -3.5743   10.9457 H   0  0  0  0  0  0  0  0  0  0  0  0
    0.0084   -3.1375    9.9746 H   0  0  0  0  0  0  0  0  0  0  0  0
    1.6451   -2.9763    9.3272 H   0  0  0  0  0  0  0  0  0  0  0  0
    3.9100   -6.6831    5.8453 H   0  0  0  0  0  0  0  0  0  0  0  0
   -0.8375  -10.0871    5.5876 H   0  0  0  0  0  0  0  0  0  0  0  0
   -1.1524   -9.4893    3.3976 H   0  0  0  0  0  0  0  0  0  0  0  0
   -0.3986   -8.1549    1.4497 H   0  0  0  0  0  0  0  0  0  0  0  0
    6.1977   -7.3274    2.2638 H   0  0  0  0  0  0  0  0  0  0  0  0
    5.8251   -5.8117    1.4565 H   0  0  0  0  0  0  0  0  0  0  0  0
    4.6680   -7.1442    1.4355 H   0  0  0  0  0  0  0  0  0  0  0  0
    5.5512   -3.1432    2.8980 H   0  0  0  0  0  0  0  0  0  0  0  0
    6.1305   -1.7169    0.9633 H   0  0  0  0  0  0  0  0  0  0  0  0
    4.8868   -1.8934   -1.1568 H   0  0  0  0  0  0  0  0  0  0  0  0
    2.9624   -2.7172   -2.1848 H   0  0  0  0  0  0  0  0  0  0  0  0
    2.5046   -7.0243    1.0051 H   0  0  0  0  0  0  0  0  0  0  0  0
    2.9692   -6.3453    2.5756 H   0  0  0  0  0  0  0  0  0  0  0  0
    0.3702   -4.5674    3.0707 H   0  0  0  0  0  0  0  0  0  0  0  0
    1.5026   -3.3583    2.6415 H   0  0  0  0  0  0  0  0  0  0  0  0
  1  2  2  0
  1 40  1  0
  1 41  1  0
  2  3  1  0
  8  2  1  6
  3  7  1  0
  3  4  2  0
  4  5  1  0
  4 42  1  0
  5  6  2  0
  5 43  1  0
  6  7  1  0
  6 44  1  0
  8 25  1  0
  8 39  1  0
  8  9  1  0
  9 10  1  0
  9 45  1  0
  9 46  1  0
 10 11  1  0
 10 14  1  0
 10 47  1  1
 11 12  1  0
 11 48  1  0
 11 49  1  0
 12 13  1  0
 13 50  1  0
 13 51  1  0
 13 52  1  0
 14 15  2  0
 14 16  1  0
 16 25  1  0
 16 17  1  0
 16 53  1  6
 17 18  1  0
 18 24  2  0
 18 19  1  0
 19 20  1  0
 19 21  2  0
 20 54  1  0
 21 22  1  0
 21 55  1  0
 22 23  2  0
 22 56  1  0
 23 37  1  0
 23 24  1  0
 25 24  1  6
 25 26  1  0
 26 38  1  0
 26 27  1  6
 26 29  1  0
 27 28  1  0
 28 57  1  0
 28 58  1  0
 28 59  1  0
 29 35  2  0
 29 30  1  0
 30 31  2  0
 30 60  1  0
 31 32  1  0
 31 61  1  0
 32 33  2  0
 32 62  1  0
 33 34  1  0
 33 35  1  0
 34 63  1  0
 35 36  1  0
 36 37  1  0
 37 38  1  0
 37 64  1  6
 38 39  1  0
 38 65  1  6
 39 66  1  0
 39 67  1  0
M  END
>  <i_m_ct_stereo_status>  (159) 
1

>  <s_m_source_file>  (159) 
/var/tmp/pbs.5083856.sched01/tmpslpr2z8r/659jhsiqke.sdf

>  <i_m_source_file_index>  (159) 
2

>  <i_lp_mmshare_version>  (159) 
48012

>  <i_f3d_flags>  (159) 
0

>  <s_epik_input>  (159) 
bzFbY0hdW2NIXVtjSF1jMUMoPVtDSDJdKVtDQEBdMihbQ0BAXTM0NSlbQ0gyXVtDQEBIXShbQ0gyXU9bQ0gzXSlDKD1PKVtDQEhdM09jNmM0YyhbY0hdW2NIXWM2W09IXSlbQ0hdN1tDQEhdKFtDSDJdMilDNShPW0NIM10pYzhjKE83KWMoW09IXSlbY0hdW2NIXVtjSF04

>  <s_epik_cmdline>  (159) 
J2VwaWtfcHl0aG9uJywgJy1waHQnLCAnMi4wJywgJy1waCcsICc3LjAnLCAnLXRuJywgJzgnLCAnLW1hJywgJzIwMCcsICctaW1hZScsICc8aW5maWxlLm1hZT4nLCAnLW9tYWUnLCAnPG91dGZpbGUubWFlPic=

>  <r_lp_tautomer_probability>  (159) 
1

>  <r_epik_Ionization_Penalty>  (159) 
0.00572026

>  <r_epik_Ionization_Penalty_Charging>  (159) 
0

>  <r_epik_Ionization_Penalty_Neutral>  (159) 
0.00572026

>  <r_epik_State_Penalty>  (159) 
0

>  <r_epik_Charging_Adjusted_Penalty>  (159) 
0

>  <i_epik_Tot_Q>  (159) 
0

>  <i_epik_Tot_abs_Q>  (159) 
0

>  <s_lp_Force_Field>  (159) 
OPLS3e

>  <r_lp_Energy>  (159) 
434.114

>  <b_lp_Chiralities_Consistent>  (159) 
1

>  <s_lp_Variant>  (159) 
47:0-1

>  <s_i_glide_gridfile>  (159) 
pfpi4k_grid

>  <i_i_glide_lignum>  (159) 
2

>  <i_i_glide_rotatable_bonds>  (159) 
7

>  <r_i_docking_score>  (159) 
-1.8499

>  <r_i_glide_ligand_efficiency>  (159) 
-0.0474334

>  <r_i_glide_ligand_efficiency_sa>  (159) 
-0.160857

>  <r_i_glide_ligand_efficiency_ln>  (159) 
-0.396672

>  <r_i_glide_gscore>  (159) 
-1.8499

>  <r_i_glide_lipo>  (159) 
-0.173277

>  <r_i_glide_hbond>  (159) 
-0.0653475

>  <r_i_glide_metal>  (159) 
-0

>  <r_i_glide_rewards>  (159) 
0

>  <r_i_glide_evdw>  (159) 
-23.6476

>  <r_i_glide_ecoul>  (159) 
-4.33424

>  <r_i_glide_erotb>  (159) 
0.221239

>  <r_i_glide_esite>  (159) 
0

>  <r_i_glide_emodel>  (159) 
-28.3169

>  <r_i_glide_energy>  (159) 
-27.9819

>  <r_i_glide_einternal>  (159) 
5.30103

>  <r_i_glide_intrahb_reward>  (159) 
-0

>  <i_i_glide_confnum>  (159) 
3

>  <i_i_glide_posenum>  (159) 
3

>  <r_i_glide_eff_state_penalty>  (159) 
0

>  <ligand_id>  (159) 
47

>  <original_smiles>  (159) 
C=C(c1ccco1)C12CC(COC)C(=O)C3Oc4c(O)ccc5c4C31C1(OC)c3cccc(O)c3OC5C1C2

>  <smiles>  (159) 
[H]Oc1c([H])c([H])c([H])c2c1OC1([H])c3c([H])c([H])c(O[H])c4c3C35C([H])(O4)C(=O)C([H])(C([H])([H])OC([H])([H])[H])C([H])([H])C3(C(=C([H])[H])c3oc([H])c([H])c3[H])C([H])([H])C1([H])C25OC([H])([H])[H]

$$$$
48:0:0
     RDKit          3D

 44 48  0  0  1  0  0  0  0  0999 V2000
   -0.5679   -2.3589    5.1072 C   0  0  0  0  0  0  0  0  0  0  0  0
   -0.4432   -1.0912    4.4899 O   0  0  0  0  0  0  0  0  0  0  0  0
    0.8301   -0.6159    4.2040 C   0  0  0  0  0  0  0  0  0  0  0  0
    2.0022   -1.3666    4.3972 C   0  0  0  0  0  0  0  0  0  0  0  0
    3.2613   -0.8201    4.0911 C   0  0  0  0  0  0  0  0  0  0  0  0
    3.3578    0.4904    3.5945 C   0  0  0  0  0  0  0  0  0  0  0  0
    2.2071    1.2439    3.3908 C   0  0  0  0  0  0  0  0  0  0  0  0
    0.9312    0.6924    3.6859 C   0  0  0  0  0  0  0  0  0  0  0  0
   -0.2850    1.5438    3.4295 C   0  0  0  0  0  0  0  0  0  0  0  0
   -0.4322    2.6562    4.4622 C   0  0  2  0  0  0  0  0  0  0  0  0
   -1.3078    2.2844    5.6844 C   0  0  1  0  0  0  0  0  0  0  0  0
   -0.7376    2.3976    6.9914 O   0  0  0  0  0  0  0  0  0  0  0  0
   -0.6560    3.5742    7.6693 C   0  0  0  0  0  0  0  0  0  0  0  0
    0.1004    3.4217    8.9792 C   0  0  0  0  0  0  0  0  0  0  0  0
   -1.0988    4.6665    7.3242 O   0  0  0  0  0  0  0  0  0  0  0  0
   -2.2970    3.2852    5.3728 O   0  0  0  0  0  0  0  0  0  0  0  0
   -1.5777    3.6321    4.1716 C   0  0  2  0  0  0  0  0  0  0  0  0
   -2.5106    3.5034    2.9922 C   0  0  0  0  0  0  0  0  0  0  0  0
   -0.9858    4.9158    4.1854 O   0  0  0  0  0  0  0  0  0  0  0  0
    0.2888    4.8001    4.9755 O   0  0  0  0  0  0  0  0  0  0  0  0
    0.8313    3.5180    4.7105 C   0  0  1  0  0  0  0  0  0  0  0  0
    1.7072    3.0496    5.7534 O   0  0  0  0  0  0  0  0  0  0  0  0
    2.8983    3.5284    4.9571 O   0  0  0  0  0  0  0  0  0  0  0  0
    2.0621    3.6003    3.7852 C   0  0  2  0  0  0  0  0  0  0  0  0
    2.3245    4.8983    3.0353 C   0  0  0  0  0  0  0  0  0  0  0  0
    2.2890    2.5182    2.8813 O   0  0  0  0  0  0  0  0  0  0  0  0
   -1.6226   -2.5617    5.2944 H   0  0  0  0  0  0  0  0  0  0  0  0
   -0.0580   -2.3792    6.0681 H   0  0  0  0  0  0  0  0  0  0  0  0
   -0.1856   -3.1578    4.4742 H   0  0  0  0  0  0  0  0  0  0  0  0
    1.9680   -2.3805    4.7701 H   0  0  0  0  0  0  0  0  0  0  0  0
    4.1514   -1.4116    4.2337 H   0  0  0  0  0  0  0  0  0  0  0  0
    4.3291    0.9129    3.3551 H   0  0  0  0  0  0  0  0  0  0  0  0
   -0.1690    1.9923    2.4423 H   0  0  0  0  0  0  0  0  0  0  0  0
   -1.1856    0.9274    3.3573 H   0  0  0  0  0  0  0  0  0  0  0  0
   -1.7113    1.2733    5.5615 H   0  0  0  0  0  0  0  0  0  0  0  0
   -0.4070    2.7334    9.6544 H   0  0  0  0  0  0  0  0  0  0  0  0
    0.1523    4.3930    9.4591 H   0  0  0  0  0  0  0  0  0  0  0  0
    1.1207    3.0748    8.8186 H   0  0  0  0  0  0  0  0  0  0  0  0
   -3.2923    4.2520    3.0378 H   0  0  0  0  0  0  0  0  0  0  0  0
   -2.9875    2.5306    2.9411 H   0  0  0  0  0  0  0  0  0  0  0  0
   -1.9520    3.6688    2.0823 H   0  0  0  0  0  0  0  0  0  0  0  0
    3.2927    4.8796    2.5298 H   0  0  0  0  0  0  0  0  0  0  0  0
    2.3073    5.7692    3.6913 H   0  0  0  0  0  0  0  0  0  0  0  0
    1.5536    5.0598    2.2824 H   0  0  0  0  0  0  0  0  0  0  0  0
  1  2  1  0
  1 27  1  0
  1 28  1  0
  1 29  1  0
  2  3  1  0
  3  8  2  0
  3  4  1  0
  4  5  2  0
  4 30  1  0
  5  6  1  0
  5 31  1  0
  6  7  2  0
  6 32  1  0
  7 26  1  0
  7  8  1  0
  8  9  1  0
 10  9  1  6
  9 33  1  0
  9 34  1  0
 10 17  1  0
 10 21  1  0
 10 11  1  0
 11 12  1  0
 11 16  1  0
 11 35  1  6
 12 13  1  0
 13 14  1  0
 13 15  2  0
 14 36  1  0
 14 37  1  0
 14 38  1  0
 16 17  1  0
 17 18  1  6
 17 19  1  0
 18 39  1  0
 18 40  1  0
 18 41  1  0
 19 20  1  0
 21 20  1  1
 21 24  1  0
 21 22  1  0
 22 23  1  0
 23 24  1  0
 24 25  1  6
 24 26  1  0
 25 42  1  0
 25 43  1  0
 25 44  1  0
M  END
>  <i_m_ct_stereo_status>  (160) 
1

>  <s_m_source_file>  (160) 
/var/tmp/pbs.5083856.sched01/tmpslpr2z8r/659jhsiqke.sdf

>  <i_m_source_file_index>  (160) 
3

>  <i_lp_mmshare_version>  (160) 
48012

>  <i_f3d_flags>  (160) 
0

>  <s_epik_input>  (160) 
W2NIXTFbY0hdW2NIXWMoT1tDSDNdKWMoW0NIMl0yKWMxT1tDQEBdKE9PMykoW0NIM10pW0NAXTMoW0NAQF0yNDUpT09bQ0BdNShbQ0gzXSlPW0NAQEhdNE9DKD1PKVtDSDNd

>  <s_epik_cmdline>  (160) 
J2VwaWtfcHl0aG9uJywgJy1waHQnLCAnMi4wJywgJy1waCcsICc3LjAnLCAnLXRuJywgJzgnLCAnLW1hJywgJzIwMCcsICctaW1hZScsICc8aW5maWxlLm1hZT4nLCAnLW9tYWUnLCAnPG91dGZpbGUubWFlPic=

>  <r_lp_tautomer_probability>  (160) 
1

>  <r_epik_Ionization_Penalty>  (160) 
0

>  <r_epik_Ionization_Penalty_Charging>  (160) 
0

>  <r_epik_Ionization_Penalty_Neutral>  (160) 
0

>  <r_epik_State_Penalty>  (160) 
0

>  <r_epik_Charging_Adjusted_Penalty>  (160) 
0

>  <i_epik_Tot_Q>  (160) 
0

>  <i_epik_Tot_abs_Q>  (160) 
0

>  <s_epik_Chemistry_Notes>  (160) 
This compound has an ester and may undergo hydrolysis at high or low pH. This compound contains an acetal/aminal-like group ( X-CH(R)-Y where X, Y are N, S, or O) that may be acid/base labile, releasing an aldehyde.

>  <s_lp_Force_Field>  (160) 
OPLS3e

>  <r_lp_Energy>  (160) 
30.8332

>  <b_lp_Chiralities_Consistent>  (160) 
1

>  <s_lp_Variant>  (160) 
48:0-1

>  <s_i_glide_gridfile>  (160) 
pfpi4k_grid

>  <i_i_glide_lignum>  (160) 
3

>  <i_i_glide_rotatable_bonds>  (160) 
3

>  <r_i_docking_score>  (160) 
-2.43089

>  <r_i_glide_ligand_efficiency>  (160) 
-0.0934956

>  <r_i_glide_ligand_efficiency_sa>  (160) 
-0.27698

>  <r_i_glide_ligand_efficiency_ln>  (160) 
-0.570886

>  <r_i_glide_gscore>  (160) 
-2.43089

>  <r_i_glide_lipo>  (160) 
-0.000679142

>  <r_i_glide_hbond>  (160) 
-0.102765

>  <r_i_glide_metal>  (160) 
-0

>  <r_i_glide_rewards>  (160) 
-0.911458

>  <r_i_glide_evdw>  (160) 
-19.8323

>  <r_i_glide_ecoul>  (160) 
-3.10312

>  <r_i_glide_erotb>  (160) 
0.143424

>  <r_i_glide_esite>  (160) 
-0.102328

>  <r_i_glide_emodel>  (160) 
-22.926

>  <r_i_glide_energy>  (160) 
-22.9354

>  <r_i_glide_einternal>  (160) 
6.60344

>  <r_i_glide_intrahb_reward>  (160) 
-0

>  <i_i_glide_confnum>  (160) 
2

>  <i_i_glide_posenum>  (160) 
1

>  <r_i_glide_eff_state_penalty>  (160) 
0

>  <ligand_id>  (160) 
48

>  <original_smiles>  (160) 
COc1cccc2c1CC13C(OC(C)=O)OC1(C)OOC31OOC1(C)O2

>  <smiles>  (160) 
[H]c1c([H])c(OC([H])([H])[H])c2c(c1[H])OC1(C([H])([H])[H])OOC13OOC1(C([H])([H])[H])OC([H])(OC(=O)C([H])([H])[H])C13C2([H])[H]

$$$$
48:0:1
     RDKit          3D

 44 48  0  0  1  0  0  0  0  0999 V2000
    3.2536    0.9009    2.0109 C   0  0  0  0  0  0  0  0  0  0  0  0
    1.9351    1.3582    2.2783 O   0  0  0  0  0  0  0  0  0  0  0  0
    1.7671    2.5685    2.9340 C   0  0  0  0  0  0  0  0  0  0  0  0
    2.6104    3.6759    2.7760 C   0  0  0  0  0  0  0  0  0  0  0  0
    2.3357    4.8813    3.4442 C   0  0  0  0  0  0  0  0  0  0  0  0
    1.2300    5.0023    4.2881 C   0  0  0  0  0  0  0  0  0  0  0  0
    0.3699    3.9043    4.4401 C   0  0  0  0  0  0  0  0  0  0  0  0
    0.6338    2.6957    3.7475 C   0  0  0  0  0  0  0  0  0  0  0  0
   -0.3130    1.5366    3.9115 C   0  0  0  0  0  0  0  0  0  0  0  0
   -0.1461    0.8951    5.2737 C   0  0  2  0  0  0  0  0  0  0  0  0
    0.8282   -0.3127    5.3275 C   0  0  1  0  0  0  0  0  0  0  0  0
    1.9144   -0.2831    6.2573 O   0  0  0  0  0  0  0  0  0  0  0  0
    1.8155   -0.6254    7.5767 C   0  0  0  0  0  0  0  0  0  0  0  0
    3.1380   -0.3718    8.3020 C   0  0  0  0  0  0  0  0  0  0  0  0
    0.8200   -1.0867    8.1669 O   0  0  0  0  0  0  0  0  0  0  0  0
   -0.2221   -1.2183    5.7044 O   0  0  0  0  0  0  0  0  0  0  0  0
   -1.1955   -0.1679    5.5764 C   0  0  2  0  0  0  0  0  0  0  0  0
   -2.2722   -0.6108    4.6355 C   0  0  0  0  0  0  0  0  0  0  0  0
   -1.7988    0.2530    6.7722 O   0  0  0  0  0  0  0  0  0  0  0  0
   -0.7908    1.1019    7.4746 O   0  0  0  0  0  0  0  0  0  0  0  0
   -0.1401    1.8642    6.4757 C   0  0  1  0  0  0  0  0  0  0  0  0
    1.1476    2.3567    6.8893 O   0  0  0  0  0  0  0  0  0  0  0  0
    0.5003    3.6667    7.2762 O   0  0  0  0  0  0  0  0  0  0  0  0
   -0.6592    3.3114    6.4900 C   0  0  2  0  0  0  0  0  0  0  0  0
   -1.9292    3.6255    7.2681 C   0  0  0  0  0  0  0  0  0  0  0  0
   -0.7335    4.0102    5.2384 O   0  0  0  0  0  0  0  0  0  0  0  0
    3.2381   -0.0870    1.5357 H   0  0  0  0  0  0  0  0  0  0  0  0
    3.8513    0.8602    2.9205 H   0  0  0  0  0  0  0  0  0  0  0  0
    3.7899    1.5188    1.3121 H   0  0  0  0  0  0  0  0  0  0  0  0
    3.4099    3.6497    2.0863 H   0  0  0  0  0  0  0  0  0  0  0  0
    2.9810    5.7229    3.2637 H   0  0  0  0  0  0  0  0  0  0  0  0
    1.0198    5.9404    4.7948 H   0  0  0  0  0  0  0  0  0  0  0  0
   -1.3248    1.9338    3.8427 H   0  0  0  0  0  0  0  0  0  0  0  0
   -0.2249    0.8152    3.0931 H   0  0  0  0  0  0  0  0  0  0  0  0
    1.2106   -0.5086    4.3154 H   0  0  0  0  0  0  0  0  0  0  0  0
    3.9436   -1.0078    7.9084 H   0  0  0  0  0  0  0  0  0  0  0  0
    2.9885   -0.6177    9.3497 H   0  0  0  0  0  0  0  0  0  0  0  0
    3.4513    0.6838    8.2431 H   0  0  0  0  0  0  0  0  0  0  0  0
   -2.7918   -1.4504    5.0780 H   0  0  0  0  0  0  0  0  0  0  0  0
   -1.8401   -0.9164    3.6786 H   0  0  0  0  0  0  0  0  0  0  0  0
   -2.9587    0.1955    4.4683 H   0  0  0  0  0  0  0  0  0  0  0  0
   -2.0595    4.7030    7.3440 H   0  0  0  0  0  0  0  0  0  0  0  0
   -1.9005    3.2421    8.2937 H   0  0  0  0  0  0  0  0  0  0  0  0
   -2.7947    3.1883    6.7625 H   0  0  0  0  0  0  0  0  0  0  0  0
  1  2  1  0
  1 27  1  0
  1 28  1  0
  1 29  1  0
  2  3  1  0
  3  8  2  0
  3  4  1  0
  4  5  2  0
  4 30  1  0
  5  6  1  0
  5 31  1  0
  6  7  2  0
  6 32  1  0
  7 26  1  0
  7  8  1  0
  8  9  1  0
 10  9  1  6
  9 33  1  0
  9 34  1  0
 10 17  1  0
 10 21  1  0
 10 11  1  0
 11 12  1  0
 11 16  1  0
 11 35  1  6
 12 13  1  0
 13 14  1  0
 13 15  2  0
 14 36  1  0
 14 37  1  0
 14 38  1  0
 16 17  1  0
 17 18  1  6
 17 19  1  0
 18 39  1  0
 18 40  1  0
 18 41  1  0
 19 20  1  0
 21 20  1  1
 21 24  1  0
 21 22  1  0
 22 23  1  0
 23 24  1  0
 24 25  1  1
 24 26  1  0
 25 42  1  0
 25 43  1  0
 25 44  1  0
M  END
>  <i_m_ct_stereo_status>  (161) 
1

>  <s_m_source_file>  (161) 
/var/tmp/pbs.5083856.sched01/tmpslpr2z8r/659jhsiqke.sdf

>  <i_m_source_file_index>  (161) 
3

>  <i_lp_mmshare_version>  (161) 
48012

>  <i_f3d_flags>  (161) 
0

>  <s_epik_input>  (161) 
W2NIXTFbY0hdW2NIXWMoT1tDSDNdKWMoW0NIMl0yKWMxT1tDQEBdKE9PMykoW0NIM10pW0NAXTMoW0NAQF0yNDUpT09bQ0BdNShbQ0gzXSlPW0NAQEhdNE9DKD1PKVtDSDNd

>  <s_epik_cmdline>  (161) 
J2VwaWtfcHl0aG9uJywgJy1waHQnLCAnMi4wJywgJy1waCcsICc3LjAnLCAnLXRuJywgJzgnLCAnLW1hJywgJzIwMCcsICctaW1hZScsICc8aW5maWxlLm1hZT4nLCAnLW9tYWUnLCAnPG91dGZpbGUubWFlPic=

>  <r_lp_tautomer_probability>  (161) 
1

>  <r_epik_Ionization_Penalty>  (161) 
0

>  <r_epik_Ionization_Penalty_Charging>  (161) 
0

>  <r_epik_Ionization_Penalty_Neutral>  (161) 
0

>  <r_epik_State_Penalty>  (161) 
0

>  <r_epik_Charging_Adjusted_Penalty>  (161) 
0

>  <i_epik_Tot_Q>  (161) 
0

>  <i_epik_Tot_abs_Q>  (161) 
0

>  <s_epik_Chemistry_Notes>  (161) 
This compound has an ester and may undergo hydrolysis at high or low pH. This compound contains an acetal/aminal-like group ( X-CH(R)-Y where X, Y are N, S, or O) that may be acid/base labile, releasing an aldehyde.

>  <s_lp_Force_Field>  (161) 
OPLS3e

>  <r_lp_Energy>  (161) 
30.8332

>  <b_lp_Chiralities_Consistent>  (161) 
1

>  <s_lp_Variant>  (161) 
48:0-1

>  <s_i_glide_gridfile>  (161) 
pfpi4k_grid

>  <i_i_glide_lignum>  (161) 
3

>  <i_i_glide_rotatable_bonds>  (161) 
3

>  <r_i_docking_score>  (161) 
-2.38915

>  <r_i_glide_ligand_efficiency>  (161) 
-0.0918902

>  <r_i_glide_ligand_efficiency_sa>  (161) 
-0.272224

>  <r_i_glide_ligand_efficiency_ln>  (161) 
-0.561083

>  <r_i_glide_gscore>  (161) 
-2.38915

>  <r_i_glide_lipo>  (161) 
-0.135252

>  <r_i_glide_hbond>  (161) 
-0.16

>  <r_i_glide_metal>  (161) 
-0

>  <r_i_glide_rewards>  (161) 
-0.911458

>  <r_i_glide_evdw>  (161) 
-10.4822

>  <r_i_glide_ecoul>  (161) 
-4.96419

>  <r_i_glide_erotb>  (161) 
0.143424

>  <r_i_glide_esite>  (161) 
-0.0571208

>  <r_i_glide_emodel>  (161) 
-14.3916

>  <r_i_glide_energy>  (161) 
-15.4464

>  <r_i_glide_einternal>  (161) 
8.08248

>  <r_i_glide_intrahb_reward>  (161) 
-0

>  <i_i_glide_confnum>  (161) 
4

>  <i_i_glide_posenum>  (161) 
13

>  <r_i_glide_eff_state_penalty>  (161) 
0

>  <ligand_id>  (161) 
48

>  <original_smiles>  (161) 
COc1cccc2c1CC13C(OC(C)=O)OC1(C)OOC31OOC1(C)O2

>  <smiles>  (161) 
[H]c1c([H])c(OC([H])([H])[H])c2c(c1[H])OC1(C([H])([H])[H])OOC13OOC1(C([H])([H])[H])OC([H])(OC(=O)C([H])([H])[H])C13C2([H])[H]

$$$$
48:0:2
     RDKit          3D

 44 48  0  0  1  0  0  0  0  0999 V2000
    2.9975   -5.9036    0.7712 C   0  0  0  0  0  0  0  0  0  0  0  0
    2.6231   -4.6613    1.3520 O   0  0  0  0  0  0  0  0  0  0  0  0
    3.3203   -3.5265    0.9916 C   0  0  0  0  0  0  0  0  0  0  0  0
    4.3888   -3.5204    0.0637 C   0  0  0  0  0  0  0  0  0  0  0  0
    5.0466   -2.3195   -0.2599 C   0  0  0  0  0  0  0  0  0  0  0  0
    4.6578   -1.1076    0.3393 C   0  0  0  0  0  0  0  0  0  0  0  0
    3.6073   -1.0996    1.2741 C   0  0  0  0  0  0  0  0  0  0  0  0
    2.9399   -2.3021    1.5858 C   0  0  0  0  0  0  0  0  0  0  0  0
    1.7926   -2.2307    2.5623 C   0  0  0  0  0  0  0  0  0  0  0  0
    2.2684   -2.0322    3.9942 C   0  0  2  0  0  0  0  0  0  0  0  0
    2.4582   -3.3499    4.7750 C   0  0  1  0  0  0  0  0  0  0  0  0
    3.7560   -3.5914    5.2964 O   0  0  0  0  0  0  0  0  0  0  0  0
    3.9749   -4.7293    5.9815 C   0  0  0  0  0  0  0  0  0  0  0  0
    5.4118   -4.8812    6.4556 C   0  0  0  0  0  0  0  0  0  0  0  0
    3.1318   -5.5963    6.2242 O   0  0  0  0  0  0  0  0  0  0  0  0
    1.4952   -2.9696    5.7772 O   0  0  0  0  0  0  0  0  0  0  0  0
    1.1473   -1.7975    5.0093 C   0  0  2  0  0  0  0  0  0  0  0  0
   -0.3271   -1.8290    4.6456 C   0  0  0  0  0  0  0  0  0  0  0  0
    1.4798   -0.5724    5.6321 O   0  0  0  0  0  0  0  0  0  0  0  0
    2.9635   -0.4338    5.5077 O   0  0  0  0  0  0  0  0  0  0  0  0
    3.2922   -0.8964    4.2118 C   0  0  1  0  0  0  0  0  0  0  0  0
    4.6865   -1.2421    4.0829 O   0  0  0  0  0  0  0  0  0  0  0  0
    4.9486    0.1278    3.4881 O   0  0  0  0  0  0  0  0  0  0  0  0
    3.5339    0.2703    3.2382 C   0  0  2  0  0  0  0  0  0  0  0  0
    3.0501    1.6756    3.5881 C   0  0  0  0  0  0  0  0  0  0  0  0
    3.1983    0.0710    1.8582 O   0  0  0  0  0  0  0  0  0  0  0  0
    2.3775   -6.7005    1.1827 H   0  0  0  0  0  0  0  0  0  0  0  0
    4.0352   -6.1558    0.9884 H   0  0  0  0  0  0  0  0  0  0  0  0
    2.8450   -5.8924   -0.3077 H   0  0  0  0  0  0  0  0  0  0  0  0
    4.7128   -4.4306   -0.4184 H   0  0  0  0  0  0  0  0  0  0  0  0
    5.8559   -2.3398   -0.9740 H   0  0  0  0  0  0  0  0  0  0  0  0
    5.1595   -0.1834    0.0823 H   0  0  0  0  0  0  0  0  0  0  0  0
    1.1638   -1.3890    2.2702 H   0  0  0  0  0  0  0  0  0  0  0  0
    1.1472   -3.1039    2.4763 H   0  0  0  0  0  0  0  0  0  0  0  0
    2.1067   -4.2009    4.1845 H   0  0  0  0  0  0  0  0  0  0  0  0
    6.0991   -4.8452    5.6108 H   0  0  0  0  0  0  0  0  0  0  0  0
    5.5447   -5.8378    6.9648 H   0  0  0  0  0  0  0  0  0  0  0  0
    5.6620   -4.0812    7.1520 H   0  0  0  0  0  0  0  0  0  0  0  0
   -0.9472   -1.7553    5.5365 H   0  0  0  0  0  0  0  0  0  0  0  0
   -0.5835   -2.7541    4.1342 H   0  0  0  0  0  0  0  0  0  0  0  0
   -0.5792   -0.9949    3.9936 H   0  0  0  0  0  0  0  0  0  0  0  0
    3.4108    2.4118    2.8700 H   0  0  0  0  0  0  0  0  0  0  0  0
    3.3880    1.9890    4.5780 H   0  0  0  0  0  0  0  0  0  0  0  0
    1.9607    1.7275    3.5677 H   0  0  0  0  0  0  0  0  0  0  0  0
  1  2  1  0
  1 27  1  0
  1 28  1  0
  1 29  1  0
  2  3  1  0
  3  8  2  0
  3  4  1  0
  4  5  2  0
  4 30  1  0
  5  6  1  0
  5 31  1  0
  6  7  2  0
  6 32  1  0
  7 26  1  0
  7  8  1  0
  8  9  1  0
 10  9  1  6
  9 33  1  0
  9 34  1  0
 10 17  1  0
 10 21  1  0
 10 11  1  0
 11 12  1  0
 11 16  1  0
 11 35  1  6
 12 13  1  0
 13 14  1  0
 13 15  2  0
 14 36  1  0
 14 37  1  0
 14 38  1  0
 16 17  1  0
 17 18  1  6
 17 19  1  0
 18 39  1  0
 18 40  1  0
 18 41  1  0
 19 20  1  0
 21 20  1  1
 21 24  1  0
 21 22  1  0
 22 23  1  0
 23 24  1  0
 24 25  1  1
 24 26  1  0
 25 42  1  0
 25 43  1  0
 25 44  1  0
M  END
>  <i_m_ct_stereo_status>  (162) 
1

>  <s_m_source_file>  (162) 
/var/tmp/pbs.5083856.sched01/tmpslpr2z8r/659jhsiqke.sdf

>  <i_m_source_file_index>  (162) 
3

>  <i_lp_mmshare_version>  (162) 
48012

>  <i_f3d_flags>  (162) 
0

>  <s_epik_input>  (162) 
W2NIXTFbY0hdW2NIXWMoT1tDSDNdKWMoW0NIMl0yKWMxT1tDQEBdKE9PMykoW0NIM10pW0NAXTMoW0NAQF0yNDUpT09bQ0BdNShbQ0gzXSlPW0NAQEhdNE9DKD1PKVtDSDNd

>  <s_epik_cmdline>  (162) 
J2VwaWtfcHl0aG9uJywgJy1waHQnLCAnMi4wJywgJy1waCcsICc3LjAnLCAnLXRuJywgJzgnLCAnLW1hJywgJzIwMCcsICctaW1hZScsICc8aW5maWxlLm1hZT4nLCAnLW9tYWUnLCAnPG91dGZpbGUubWFlPic=

>  <r_lp_tautomer_probability>  (162) 
1

>  <r_epik_Ionization_Penalty>  (162) 
0

>  <r_epik_Ionization_Penalty_Charging>  (162) 
0

>  <r_epik_Ionization_Penalty_Neutral>  (162) 
0

>  <r_epik_State_Penalty>  (162) 
0

>  <r_epik_Charging_Adjusted_Penalty>  (162) 
0

>  <i_epik_Tot_Q>  (162) 
0

>  <i_epik_Tot_abs_Q>  (162) 
0

>  <s_epik_Chemistry_Notes>  (162) 
This compound has an ester and may undergo hydrolysis at high or low pH. This compound contains an acetal/aminal-like group ( X-CH(R)-Y where X, Y are N, S, or O) that may be acid/base labile, releasing an aldehyde.

>  <s_lp_Force_Field>  (162) 
OPLS3e

>  <r_lp_Energy>  (162) 
30.8332

>  <b_lp_Chiralities_Consistent>  (162) 
1

>  <s_lp_Variant>  (162) 
48:0-1

>  <s_i_glide_gridfile>  (162) 
pfpi4k_grid

>  <i_i_glide_lignum>  (162) 
3

>  <i_i_glide_rotatable_bonds>  (162) 
3

>  <r_i_docking_score>  (162) 
-2.1527

>  <r_i_glide_ligand_efficiency>  (162) 
-0.0827962

>  <r_i_glide_ligand_efficiency_sa>  (162) 
-0.245283

>  <r_i_glide_ligand_efficiency_ln>  (162) 
-0.505555

>  <r_i_glide_gscore>  (162) 
-2.1527

>  <r_i_glide_lipo>  (162) 
-0.0607515

>  <r_i_glide_hbond>  (162) 
0

>  <r_i_glide_metal>  (162) 
-0

>  <r_i_glide_rewards>  (162) 
-0.912022

>  <r_i_glide_evdw>  (162) 
-17.2373

>  <r_i_glide_ecoul>  (162) 
-3.06921

>  <r_i_glide_erotb>  (162) 
0.143424

>  <r_i_glide_esite>  (162) 
-0.00110358

>  <r_i_glide_emodel>  (162) 
-23.3953

>  <r_i_glide_energy>  (162) 
-20.3065

>  <r_i_glide_einternal>  (162) 
0.0161913

>  <r_i_glide_intrahb_reward>  (162) 
-0

>  <i_i_glide_confnum>  (162) 
3

>  <i_i_glide_posenum>  (162) 
2

>  <r_i_glide_eff_state_penalty>  (162) 
0

>  <ligand_id>  (162) 
48

>  <original_smiles>  (162) 
COc1cccc2c1CC13C(OC(C)=O)OC1(C)OOC31OOC1(C)O2

>  <smiles>  (162) 
[H]c1c([H])c(OC([H])([H])[H])c2c(c1[H])OC1(C([H])([H])[H])OOC13OOC1(C([H])([H])[H])OC([H])(OC(=O)C([H])([H])[H])C13C2([H])[H]

$$$$
49:0:0
     RDKit          3D

 35 38  0  0  1  0  0  0  0  0999 V2000
    4.0993   -0.9087    4.1943 C   0  0  0  0  0  0  0  0  0  0  0  0
    4.0065   -0.7415    2.8606 C   0  0  0  0  0  0  0  0  0  0  0  0
    2.9297    0.0040    2.1969 C   0  0  0  0  0  0  0  0  0  0  0  0
    2.1372    0.7999    2.7239 O   0  0  0  0  0  0  0  0  0  0  0  0
    3.0139   -0.2780    0.8934 O   0  0  0  0  0  0  0  0  0  0  0  0
    3.8156   -1.4133    0.6206 C   0  0  2  0  0  0  0  0  0  0  0  0
    4.8402   -1.3106    1.7517 C   0  0  2  0  0  0  0  0  0  0  0  0
    5.6993   -2.5617    1.9828 C   0  0  1  0  0  0  0  0  0  0  0  0
    5.1448   -3.6681    2.7301 O   0  0  0  0  0  0  0  0  0  0  0  0
    5.7676   -4.8897    2.2766 C   0  0  0  0  0  0  0  0  0  0  0  0
    5.9149   -4.6379    0.8124 C   0  0  0  0  0  0  0  0  0  0  0  0
    5.2583   -5.2407   -0.1840 C   0  0  0  0  0  0  0  0  0  0  0  0
    4.8283   -4.2048   -1.0893 C   0  0  0  0  0  0  0  0  0  0  0  0
    5.1711   -3.0209   -0.5603 C   0  0  0  0  0  0  0  0  0  0  0  0
    4.4511   -1.6860   -0.7596 C   0  0  1  0  0  0  0  0  0  0  0  0
    3.4366   -1.6752   -1.9040 C   0  0  0  0  0  0  0  0  0  0  0  0
    5.4107   -0.7049   -1.0504 O   0  0  0  0  0  0  0  0  0  0  0  0
    6.1084   -3.1728    0.6241 C   0  0  1  0  0  0  0  0  0  0  0  0
    7.5585   -2.9312    0.1906 C   0  0  0  0  0  0  0  0  0  0  0  0
    4.8872   -1.4937    4.6312 H   0  0  0  0  0  0  0  0  0  0  0  0
    3.3847   -0.4395    4.8655 H   0  0  0  0  0  0  0  0  0  0  0  0
    3.1698   -2.2675    0.8404 H   0  0  0  0  0  0  0  0  0  0  0  0
    5.5281   -0.5042    1.5191 H   0  0  0  0  0  0  0  0  0  0  0  0
    6.6056   -2.2550    2.4894 H   0  0  0  0  0  0  0  0  0  0  0  0
    6.7936   -4.9539    2.6803 H   0  0  0  0  0  0  0  0  0  0  0  0
    5.2307   -5.8089    2.5341 H   0  0  0  0  0  0  0  0  0  0  0  0
    4.7472   -6.1966   -0.0625 H   0  0  0  0  0  0  0  0  0  0  0  0
    4.0631   -4.3159   -1.8335 H   0  0  0  0  0  0  0  0  0  0  0  0
    2.6249   -2.3721   -1.7470 H   0  0  0  0  0  0  0  0  0  0  0  0
    3.8983   -1.9387   -2.8545 H   0  0  0  0  0  0  0  0  0  0  0  0
    2.9978   -0.6880   -2.0239 H   0  0  0  0  0  0  0  0  0  0  0  0
    5.0443    0.1802   -0.9316 H   0  0  0  0  0  0  0  0  0  0  0  0
    7.7646   -3.4914   -0.7211 H   0  0  0  0  0  0  0  0  0  0  0  0
    8.2607   -3.2772    0.9519 H   0  0  0  0  0  0  0  0  0  0  0  0
    7.7460   -1.8744   -0.0134 H   0  0  0  0  0  0  0  0  0  0  0  0
  1  2  2  0
  1 20  1  0
  1 21  1  0
  2  7  1  0
  2  3  1  0
  3  4  2  0
  3  5  1  0
  5  6  1  0
  6 15  1  0
  6  7  1  0
  6 22  1  1
  7  8  1  0
  7 23  1  6
  8 18  1  0
  8  9  1  0
  8 24  1  1
  9 10  1  0
 10 11  1  0
 10 25  1  0
 10 26  1  0
 11 18  1  0
 11 12  2  0
 12 13  1  0
 12 27  1  0
 13 14  2  0
 13 28  1  0
 14 15  1  0
 14 18  1  0
 15 16  1  0
 15 17  1  6
 16 29  1  0
 16 30  1  0
 16 31  1  0
 17 32  1  0
 18 19  1  6
 19 33  1  0
 19 34  1  0
 19 35  1  0
M  END
>  <i_m_ct_stereo_status>  (163) 
1

>  <s_m_source_file>  (163) 
/var/tmp/pbs.5083856.sched01/tmpslpr2z8r/659jhsiqke.sdf

>  <i_m_source_file_index>  (163) 
4

>  <i_lp_mmshare_version>  (163) 
48012

>  <i_f3d_flags>  (163) 
0

>  <s_epik_input>  (163) 
W0NIMl09QzFDKD1PKU9bQ0BIXShbQ0BASF0xW0NAQEhdMltDQEBdMzRbQ0gzXSlbQ0BAXShbQ0gzXSkoW09IXSlDND1bQ0hdW0NIXT1DM1tDSDJdTzI=

>  <s_epik_cmdline>  (163) 
J2VwaWtfcHl0aG9uJywgJy1waHQnLCAnMi4wJywgJy1waCcsICc3LjAnLCAnLXRuJywgJzgnLCAnLW1hJywgJzIwMCcsICctaW1hZScsICc8aW5maWxlLm1hZT4nLCAnLW9tYWUnLCAnPG91dGZpbGUubWFlPic=

>  <r_lp_tautomer_probability>  (163) 
1

>  <r_epik_Ionization_Penalty>  (163) 
1.29017e-05

>  <r_epik_Ionization_Penalty_Charging>  (163) 
0

>  <r_epik_Ionization_Penalty_Neutral>  (163) 
1.29017e-05

>  <r_epik_State_Penalty>  (163) 
0

>  <r_epik_Charging_Adjusted_Penalty>  (163) 
0

>  <i_epik_Tot_Q>  (163) 
0

>  <i_epik_Tot_abs_Q>  (163) 
0

>  <s_epik_Chemistry_Notes>  (163) 
This compound has an ester and may undergo hydrolysis at high or low pH.

>  <s_lp_Force_Field>  (163) 
OPLS3e

>  <r_lp_Energy>  (163) 
27.2777

>  <b_lp_Chiralities_Consistent>  (163) 
1

>  <s_lp_Variant>  (163) 
49:0-1

>  <s_i_glide_gridfile>  (163) 
pfpi4k_grid

>  <i_i_glide_lignum>  (163) 
4

>  <i_i_glide_rotatable_bonds>  (163) 
1

>  <r_i_docking_score>  (163) 
-3.64764

>  <r_i_glide_ligand_efficiency>  (163) 
-0.191981

>  <r_i_glide_ligand_efficiency_sa>  (163) 
-0.512282

>  <r_i_glide_ligand_efficiency_ln>  (163) 
-0.924754

>  <r_i_glide_gscore>  (163) 
-3.64764

>  <r_i_glide_lipo>  (163) 
-0.521161

>  <r_i_glide_hbond>  (163) 
0

>  <r_i_glide_metal>  (163) 
-0

>  <r_i_glide_rewards>  (163) 
-1.63442

>  <r_i_glide_evdw>  (163) 
-19.0359

>  <r_i_glide_ecoul>  (163) 
-3.58814

>  <r_i_glide_erotb>  (163) 
0

>  <r_i_glide_esite>  (163) 
-0.00203938

>  <r_i_glide_emodel>  (163) 
-27.321

>  <r_i_glide_energy>  (163) 
-22.624

>  <r_i_glide_einternal>  (163) 
0.155737

>  <r_i_glide_intrahb_reward>  (163) 
-0

>  <i_i_glide_confnum>  (163) 
1

>  <i_i_glide_posenum>  (163) 
2

>  <r_i_glide_eff_state_penalty>  (163) 
0

>  <ligand_id>  (163) 
49

>  <original_smiles>  (163) 
C=C1C(=O)OC2C1C1OCC3=CC=C(C2(C)O)C31C

>  <smiles>  (163) 
[H]OC1(C([H])([H])[H])C2=C([H])C([H])=C3C([H])([H])OC([H])(C4([H])C(=C([H])[H])C(=O)OC41[H])C32C([H])([H])[H]

$$$$
49:0:1
     RDKit          3D

 35 38  0  0  1  0  0  0  0  0999 V2000
    3.3323   -1.2636    4.2297 C   0  0  0  0  0  0  0  0  0  0  0  0
    3.7005   -0.9961    2.9656 C   0  0  0  0  0  0  0  0  0  0  0  0
    3.1005    0.0793    2.1461 C   0  0  0  0  0  0  0  0  0  0  0  0
    2.4263    1.0375    2.5452 O   0  0  0  0  0  0  0  0  0  0  0  0
    3.5005   -0.1324    0.8876 O   0  0  0  0  0  0  0  0  0  0  0  0
    4.0524   -1.4186    0.6930 C   0  0  2  0  0  0  0  0  0  0  0  0
    4.6650   -1.6969    2.0646 C   0  0  2  0  0  0  0  0  0  0  0  0
    5.0630   -3.1593    2.3258 C   0  0  1  0  0  0  0  0  0  0  0  0
    4.0425   -4.1023    2.6963 O   0  0  0  0  0  0  0  0  0  0  0  0
    4.4527   -5.4168    2.2728 C   0  0  0  0  0  0  0  0  0  0  0  0
    5.1009   -5.1160    0.9623 C   0  0  0  0  0  0  0  0  0  0  0  0
    4.6674   -5.4487   -0.2619 C   0  0  0  0  0  0  0  0  0  0  0  0
    4.7800   -4.2613   -1.0846 C   0  0  0  0  0  0  0  0  0  0  0  0
    5.2261   -3.2662   -0.3029 C   0  0  0  0  0  0  0  0  0  0  0  0
    4.9931   -1.7740   -0.4801 C   0  0  1  0  0  0  0  0  0  0  0  0
    4.4207   -1.3768   -1.8473 C   0  0  0  0  0  0  0  0  0  0  0  0
    6.2313   -1.1346   -0.3160 O   0  0  0  0  0  0  0  0  0  0  0  0
    5.7003   -3.7634    1.0459 C   0  0  1  0  0  0  0  0  0  0  0  0
    7.2232   -3.9379    1.0683 C   0  0  0  0  0  0  0  0  0  0  0  0
    3.7742   -2.0740    4.7701 H   0  0  0  0  0  0  0  0  0  0  0  0
    2.5899   -0.6453    4.7348 H   0  0  0  0  0  0  0  0  0  0  0  0
    3.1716   -2.0677    0.5767 H   0  0  0  0  0  0  0  0  0  0  0  0
    5.5736   -1.1107    2.1647 H   0  0  0  0  0  0  0  0  0  0  0  0
    5.8082   -3.1869    3.1207 H   0  0  0  0  0  0  0  0  0  0  0  0
    5.2439   -5.7849    2.9489 H   0  0  0  0  0  0  0  0  0  0  0  0
    3.6481   -6.1555    2.2340 H   0  0  0  0  0  0  0  0  0  0  0  0
    3.9382   -6.2342   -0.4353 H   0  0  0  0  0  0  0  0  0  0  0  0
    4.2642   -4.1386   -2.0213 H   0  0  0  0  0  0  0  0  0  0  0  0
    3.4353   -1.7919   -2.0253 H   0  0  0  0  0  0  0  0  0  0  0  0
    5.0701   -1.6970   -2.6677 H   0  0  0  0  0  0  0  0  0  0  0  0
    4.3266   -0.2924   -1.9215 H   0  0  0  0  0  0  0  0  0  0  0  0
    6.4469   -1.1192    0.6105 H   0  0  0  0  0  0  0  0  0  0  0  0
    7.5406   -4.4789    0.1808 H   0  0  0  0  0  0  0  0  0  0  0  0
    7.5353   -4.5231    1.9388 H   0  0  0  0  0  0  0  0  0  0  0  0
    7.7363   -2.9763    1.0824 H   0  0  0  0  0  0  0  0  0  0  0  0
  1  2  2  0
  1 20  1  0
  1 21  1  0
  2  7  1  0
  2  3  1  0
  3  4  2  0
  3  5  1  0
  5  6  1  0
  6 15  1  0
  6  7  1  0
  6 22  1  6
  7  8  1  0
  7 23  1  6
  8 18  1  0
  8  9  1  0
  8 24  1  1
  9 10  1  0
 10 11  1  0
 10 25  1  0
 10 26  1  0
 11 18  1  0
 11 12  2  0
 12 13  1  0
 12 27  1  0
 13 14  2  0
 13 28  1  0
 14 15  1  0
 14 18  1  0
 15 16  1  0
 15 17  1  1
 16 29  1  0
 16 30  1  0
 16 31  1  0
 17 32  1  0
 18 19  1  1
 19 33  1  0
 19 34  1  0
 19 35  1  0
M  END
>  <i_m_ct_stereo_status>  (164) 
1

>  <s_m_source_file>  (164) 
/var/tmp/pbs.5083856.sched01/tmpslpr2z8r/659jhsiqke.sdf

>  <i_m_source_file_index>  (164) 
4

>  <i_lp_mmshare_version>  (164) 
48012

>  <i_f3d_flags>  (164) 
0

>  <s_epik_input>  (164) 
W0NIMl09QzFDKD1PKU9bQ0BIXShbQ0BASF0xW0NAQEhdMltDQEBdMzRbQ0gzXSlbQ0BAXShbQ0gzXSkoW09IXSlDND1bQ0hdW0NIXT1DM1tDSDJdTzI=

>  <s_epik_cmdline>  (164) 
J2VwaWtfcHl0aG9uJywgJy1waHQnLCAnMi4wJywgJy1waCcsICc3LjAnLCAnLXRuJywgJzgnLCAnLW1hJywgJzIwMCcsICctaW1hZScsICc8aW5maWxlLm1hZT4nLCAnLW9tYWUnLCAnPG91dGZpbGUubWFlPic=

>  <r_lp_tautomer_probability>  (164) 
1

>  <r_epik_Ionization_Penalty>  (164) 
1.29017e-05

>  <r_epik_Ionization_Penalty_Charging>  (164) 
0

>  <r_epik_Ionization_Penalty_Neutral>  (164) 
1.29017e-05

>  <r_epik_State_Penalty>  (164) 
0

>  <r_epik_Charging_Adjusted_Penalty>  (164) 
0

>  <i_epik_Tot_Q>  (164) 
0

>  <i_epik_Tot_abs_Q>  (164) 
0

>  <s_epik_Chemistry_Notes>  (164) 
This compound has an ester and may undergo hydrolysis at high or low pH.

>  <s_lp_Force_Field>  (164) 
OPLS3e

>  <r_lp_Energy>  (164) 
27.2777

>  <b_lp_Chiralities_Consistent>  (164) 
1

>  <s_lp_Variant>  (164) 
49:0-1

>  <s_i_glide_gridfile>  (164) 
pfpi4k_grid

>  <i_i_glide_lignum>  (164) 
4

>  <i_i_glide_rotatable_bonds>  (164) 
1

>  <r_i_docking_score>  (164) 
-3.31865

>  <r_i_glide_ligand_efficiency>  (164) 
-0.174666

>  <r_i_glide_ligand_efficiency_sa>  (164) 
-0.466078

>  <r_i_glide_ligand_efficiency_ln>  (164) 
-0.841349

>  <r_i_glide_gscore>  (164) 
-3.31865

>  <r_i_glide_lipo>  (164) 
-0.375752

>  <r_i_glide_hbond>  (164) 
0

>  <r_i_glide_metal>  (164) 
-0

>  <r_i_glide_rewards>  (164) 
-1.67052

>  <r_i_glide_evdw>  (164) 
-19.4146

>  <r_i_glide_ecoul>  (164) 
-2.011

>  <r_i_glide_erotb>  (164) 
0

>  <r_i_glide_esite>  (164) 
0

>  <r_i_glide_emodel>  (164) 
-25.6078

>  <r_i_glide_energy>  (164) 
-21.4256

>  <r_i_glide_einternal>  (164) 
0.132415

>  <r_i_glide_intrahb_reward>  (164) 
-0

>  <i_i_glide_confnum>  (164) 
2

>  <i_i_glide_posenum>  (164) 
8

>  <r_i_glide_eff_state_penalty>  (164) 
0

>  <ligand_id>  (164) 
49

>  <original_smiles>  (164) 
C=C1C(=O)OC2C1C1OCC3=CC=C(C2(C)O)C31C

>  <smiles>  (164) 
[H]OC1(C([H])([H])[H])C2=C([H])C([H])=C3C([H])([H])OC([H])(C4([H])C(=C([H])[H])C(=O)OC41[H])C32C([H])([H])[H]

$$$$
49:0:2
     RDKit          3D

 35 38  0  0  1  0  0  0  0  0999 V2000
   -2.1021    2.1048    6.6501 C   0  0  0  0  0  0  0  0  0  0  0  0
   -1.2218    2.2382    5.6345 C   0  0  0  0  0  0  0  0  0  0  0  0
   -1.4075    3.1650    4.4994 C   0  0  0  0  0  0  0  0  0  0  0  0
   -2.1631    4.1445    4.4573 O   0  0  0  0  0  0  0  0  0  0  0  0
   -0.5312    2.8130    3.5582 O   0  0  0  0  0  0  0  0  0  0  0  0
    0.0733    1.5518    3.8044 C   0  0  2  0  0  0  0  0  0  0  0  0
    0.0315    1.4775    5.3325 C   0  0  2  0  0  0  0  0  0  0  0  0
    0.2709    0.0812    5.9274 C   0  0  1  0  0  0  0  0  0  0  0  0
   -0.8165   -0.8698    5.9802 O   0  0  0  0  0  0  0  0  0  0  0  0
   -0.2702   -2.2035    5.9071 C   0  0  0  0  0  0  0  0  0  0  0  0
    0.8837   -2.0244    4.9738 C   0  0  0  0  0  0  0  0  0  0  0  0
    0.9983   -2.5199    3.7330 C   0  0  0  0  0  0  0  0  0  0  0  0
    1.4673   -1.4442    2.8942 C   0  0  0  0  0  0  0  0  0  0  0  0
    1.5480   -0.3424    3.6638 C   0  0  0  0  0  0  0  0  0  0  0  0
    1.4361    1.1129    3.2145 C   0  0  1  0  0  0  0  0  0  0  0  0
    1.4810    1.3231    1.7007 C   0  0  0  0  0  0  0  0  0  0  0  0
    2.5007    1.8338    3.8063 O   0  0  0  0  0  0  0  0  0  0  0  0
    1.3845   -0.6405    5.1387 C   0  0  1  0  0  0  0  0  0  0  0  0
    2.7482   -0.7193    5.8403 C   0  0  0  0  0  0  0  0  0  0  0  0
   -1.9324    1.3975    7.4383 H   0  0  0  0  0  0  0  0  0  0  0  0
   -2.9888    2.7320    6.7119 H   0  0  0  0  0  0  0  0  0  0  0  0
   -0.6710    0.8399    3.4211 H   0  0  0  0  0  0  0  0  0  0  0  0
    0.8166    2.1161    5.7270 H   0  0  0  0  0  0  0  0  0  0  0  0
    0.6167    0.1915    6.9570 H   0  0  0  0  0  0  0  0  0  0  0  0
    0.1601   -2.4528    6.8952 H   0  0  0  0  0  0  0  0  0  0  0  0
   -0.9826   -2.9829    5.6263 H   0  0  0  0  0  0  0  0  0  0  0  0
    0.4139   -3.3616    3.3685 H   0  0  0  0  0  0  0  0  0  0  0  0
    1.4039   -1.4416    1.8186 H   0  0  0  0  0  0  0  0  0  0  0  0
    0.6695    0.8383    1.1681 H   0  0  0  0  0  0  0  0  0  0  0  0
    2.4123    0.9468    1.2647 H   0  0  0  0  0  0  0  0  0  0  0  0
    1.4232    2.3825    1.4543 H   0  0  0  0  0  0  0  0  0  0  0  0
    3.1410    2.0338    3.1312 H   0  0  0  0  0  0  0  0  0  0  0  0
    3.4243   -1.3435    5.2555 H   0  0  0  0  0  0  0  0  0  0  0  0
    2.6574   -1.1690    6.8297 H   0  0  0  0  0  0  0  0  0  0  0  0
    3.2020    0.2667    5.9402 H   0  0  0  0  0  0  0  0  0  0  0  0
  1  2  2  0
  1 20  1  0
  1 21  1  0
  2  7  1  0
  2  3  1  0
  3  4  2  0
  3  5  1  0
  5  6  1  0
  6 15  1  0
  6  7  1  0
  6 22  1  6
  7  8  1  0
  7 23  1  1
  8 18  1  0
  8  9  1  0
  8 24  1  1
  9 10  1  0
 10 11  1  0
 10 25  1  0
 10 26  1  0
 11 18  1  0
 11 12  2  0
 12 13  1  0
 12 27  1  0
 13 14  2  0
 13 28  1  0
 14 15  1  0
 14 18  1  0
 15 16  1  0
 15 17  1  1
 16 29  1  0
 16 30  1  0
 16 31  1  0
 17 32  1  0
 18 19  1  1
 19 33  1  0
 19 34  1  0
 19 35  1  0
M  END
>  <i_m_ct_stereo_status>  (165) 
1

>  <s_m_source_file>  (165) 
/var/tmp/pbs.5083856.sched01/tmpslpr2z8r/659jhsiqke.sdf

>  <i_m_source_file_index>  (165) 
4

>  <i_lp_mmshare_version>  (165) 
48012

>  <i_f3d_flags>  (165) 
0

>  <s_epik_input>  (165) 
W0NIMl09QzFDKD1PKU9bQ0BIXShbQ0BASF0xW0NAQEhdMltDQEBdMzRbQ0gzXSlbQ0BAXShbQ0gzXSkoW09IXSlDND1bQ0hdW0NIXT1DM1tDSDJdTzI=

>  <s_epik_cmdline>  (165) 
J2VwaWtfcHl0aG9uJywgJy1waHQnLCAnMi4wJywgJy1waCcsICc3LjAnLCAnLXRuJywgJzgnLCAnLW1hJywgJzIwMCcsICctaW1hZScsICc8aW5maWxlLm1hZT4nLCAnLW9tYWUnLCAnPG91dGZpbGUubWFlPic=

>  <r_lp_tautomer_probability>  (165) 
1

>  <r_epik_Ionization_Penalty>  (165) 
1.29017e-05

>  <r_epik_Ionization_Penalty_Charging>  (165) 
0

>  <r_epik_Ionization_Penalty_Neutral>  (165) 
1.29017e-05

>  <r_epik_State_Penalty>  (165) 
0

>  <r_epik_Charging_Adjusted_Penalty>  (165) 
0

>  <i_epik_Tot_Q>  (165) 
0

>  <i_epik_Tot_abs_Q>  (165) 
0

>  <s_epik_Chemistry_Notes>  (165) 
This compound has an ester and may undergo hydrolysis at high or low pH.

>  <s_lp_Force_Field>  (165) 
OPLS3e

>  <r_lp_Energy>  (165) 
27.2777

>  <b_lp_Chiralities_Consistent>  (165) 
1

>  <s_lp_Variant>  (165) 
49:0-1

>  <s_i_glide_gridfile>  (165) 
pfpi4k_grid

>  <i_i_glide_lignum>  (165) 
4

>  <i_i_glide_rotatable_bonds>  (165) 
1

>  <r_i_docking_score>  (165) 
-3.3012

>  <r_i_glide_ligand_efficiency>  (165) 
-0.173747

>  <r_i_glide_ligand_efficiency_sa>  (165) 
-0.463628

>  <r_i_glide_ligand_efficiency_ln>  (165) 
-0.836925

>  <r_i_glide_gscore>  (165) 
-3.3012

>  <r_i_glide_lipo>  (165) 
-0.0454267

>  <r_i_glide_hbond>  (165) 
-0.0430187

>  <r_i_glide_metal>  (165) 
-0

>  <r_i_glide_rewards>  (165) 
-1.63442

>  <r_i_glide_evdw>  (165) 
-18.0356

>  <r_i_glide_ecoul>  (165) 
-4.31307

>  <r_i_glide_erotb>  (165) 
0

>  <r_i_glide_esite>  (165) 
-0.0295924

>  <r_i_glide_emodel>  (165) 
-26.3284

>  <r_i_glide_energy>  (165) 
-22.3487

>  <r_i_glide_einternal>  (165) 
0.445842

>  <r_i_glide_intrahb_reward>  (165) 
-0

>  <i_i_glide_confnum>  (165) 
1

>  <i_i_glide_posenum>  (165) 
5

>  <r_i_glide_eff_state_penalty>  (165) 
0

>  <ligand_id>  (165) 
49

>  <original_smiles>  (165) 
C=C1C(=O)OC2C1C1OCC3=CC=C(C2(C)O)C31C

>  <smiles>  (165) 
[H]OC1(C([H])([H])[H])C2=C([H])C([H])=C3C([H])([H])OC([H])(C4([H])C(=C([H])[H])C(=O)OC41[H])C32C([H])([H])[H]

$$$$
50:0:0
     RDKit          3D

 55 58  0  0  1  0  0  0  0  0999 V2000
    3.8744   -3.5327    4.6541 C   0  0  0  0  0  0  0  0  0  0  0  0
    3.7993   -2.7989    3.2986 C   0  0  0  0  0  0  0  0  0  0  0  0
    2.3298   -2.9221    2.8277 C   0  0  0  0  0  0  0  0  0  0  0  0
    4.1111   -1.3097    3.6431 C   0  0  0  0  0  0  0  0  0  0  0  0
    4.6586   -0.4682    2.5006 C   0  0  0  0  0  0  0  0  0  0  0  0
    5.8629   -1.1669    1.8937 C   0  0  0  0  0  0  0  0  0  0  0  0
    5.5213   -2.5230    1.2402 C   0  0  1  0  0  0  0  0  0  0  0  0
    6.8784   -3.1485    0.8332 C   0  0  0  0  0  0  0  0  0  0  0  0
    4.8663   -3.4470    2.3141 C   0  0  2  0  0  0  0  0  0  0  0  0
    4.4393   -4.7964    1.6776 C   0  0  0  0  0  0  0  0  0  0  0  0
    3.6063   -4.6765    0.3837 C   0  0  0  0  0  0  0  0  0  0  0  0
    4.1069   -3.6543   -0.6643 C   0  0  2  0  0  0  0  0  0  0  0  0
    5.1166   -4.1897   -1.7289 C   0  0  0  0  0  0  0  0  0  0  0  0
    4.8727   -3.4068   -3.0307 C   0  0  1  0  0  0  0  0  0  0  0  0
    4.6206   -4.2756   -4.1086 O   0  0  0  0  0  0  0  0  0  0  0  0
    3.6527   -2.5605   -2.7254 C   0  0  2  0  0  0  0  0  0  0  0  0
    2.7217   -2.3964   -3.9184 C   0  0  0  0  0  0  0  0  0  0  0  0
    4.0817   -1.1841   -2.2219 C   0  0  0  0  0  0  0  0  0  0  0  0
    5.0229   -1.2799   -1.0072 C   0  0  0  0  0  0  0  0  0  0  0  0
    4.5600   -2.3371    0.0263 C   0  0  2  0  0  0  0  0  0  0  0  0
    2.9464   -3.2807   -1.5768 C   0  0  0  0  0  0  0  0  0  0  0  0
    3.1708   -3.1100    5.3771 H   0  0  0  0  0  0  0  0  0  0  0  0
    4.8689   -3.4299    5.0949 H   0  0  0  0  0  0  0  0  0  0  0  0
    3.6648   -4.6000    4.5703 H   0  0  0  0  0  0  0  0  0  0  0  0
    2.1470   -2.4416    1.8735 H   0  0  0  0  0  0  0  0  0  0  0  0
    1.6413   -2.4735    3.5460 H   0  0  0  0  0  0  0  0  0  0  0  0
    2.0308   -3.9669    2.7483 H   0  0  0  0  0  0  0  0  0  0  0  0
    3.2055   -0.8237    3.9719 H   0  0  0  0  0  0  0  0  0  0  0  0
    4.8016   -1.2417    4.4973 H   0  0  0  0  0  0  0  0  0  0  0  0
    3.8926   -0.2403    1.7587 H   0  0  0  0  0  0  0  0  0  0  0  0
    4.9677    0.4909    2.9007 H   0  0  0  0  0  0  0  0  0  0  0  0
    6.4000   -0.5197    1.2011 H   0  0  0  0  0  0  0  0  0  0  0  0
    6.5484   -1.3391    2.7123 H   0  0  0  0  0  0  0  0  0  0  0  0
    6.8153   -4.1814    0.5078 H   0  0  0  0  0  0  0  0  0  0  0  0
    7.5524   -3.1870    1.6686 H   0  0  0  0  0  0  0  0  0  0  0  0
    7.3784   -2.5814    0.0510 H   0  0  0  0  0  0  0  0  0  0  0  0
    5.6772   -3.7132    2.9900 H   0  0  0  0  0  0  0  0  0  0  0  0
    5.3260   -5.4017    1.4633 H   0  0  0  0  0  0  0  0  0  0  0  0
    3.8827   -5.3988    2.3961 H   0  0  0  0  0  0  0  0  0  0  0  0
    3.5691   -5.6614   -0.0680 H   0  0  0  0  0  0  0  0  0  0  0  0
    2.5625   -4.4483    0.6333 H   0  0  0  0  0  0  0  0  0  0  0  0
    6.1545   -4.0834   -1.4401 H   0  0  0  0  0  0  0  0  0  0  0  0
    4.9948   -5.2601   -1.8865 H   0  0  0  0  0  0  0  0  0  0  0  0
    5.7367   -2.8011   -3.3032 H   0  0  0  0  0  0  0  0  0  0  0  0
    4.0381   -4.9542   -3.7812 H   0  0  0  0  0  0  0  0  0  0  0  0
    1.8680   -1.8007   -3.6489 H   0  0  0  0  0  0  0  0  0  0  0  0
    2.3033   -3.3323   -4.2736 H   0  0  0  0  0  0  0  0  0  0  0  0
    3.2416   -1.8984   -4.7151 H   0  0  0  0  0  0  0  0  0  0  0  0
    4.5553   -0.5999   -3.0061 H   0  0  0  0  0  0  0  0  0  0  0  0
    3.1717   -0.6584   -1.9293 H   0  0  0  0  0  0  0  0  0  0  0  0
    6.0449   -1.4838   -1.3377 H   0  0  0  0  0  0  0  0  0  0  0  0
    5.0343   -0.2933   -0.5444 H   0  0  0  0  0  0  0  0  0  0  0  0
    3.6494   -1.9049    0.4418 H   0  0  0  0  0  0  0  0  0  0  0  0
    2.4219   -4.1612   -1.9321 H   0  0  0  0  0  0  0  0  0  0  0  0
    2.2140   -2.6477   -1.0920 H   0  0  0  0  0  0  0  0  0  0  0  0
  1  2  1  0
  1 22  1  0
  1 23  1  0
  1 24  1  0
  2  9  1  0
  2  3  1  0
  2  4  1  0
  3 25  1  0
  3 26  1  0
  3 27  1  0
  4  5  1  0
  4 28  1  0
  4 29  1  0
  5  6  1  0
  5 30  1  0
  5 31  1  0
  6  7  1  0
  6 32  1  0
  6 33  1  0
  7 20  1  0
  7  8  1  6
  7  9  1  0
  8 34  1  0
  8 35  1  0
  8 36  1  0
  9 10  1  0
  9 37  1  1
 10 11  1  0
 10 38  1  0
 10 39  1  0
 12 11  1  1
 11 40  1  0
 11 41  1  0
 12 20  1  0
 12 21  1  0
 12 13  1  0
 13 14  1  0
 13 42  1  0
 13 43  1  0
 14 15  1  0
 14 16  1  0
 14 44  1  6
 15 45  1  0
 16 17  1  6
 16 18  1  0
 16 21  1  0
 17 46  1  0
 17 47  1  0
 17 48  1  0
 18 19  1  0
 18 49  1  0
 18 50  1  0
 19 20  1  0
 19 51  1  0
 19 52  1  0
 20 53  1  1
 21 54  1  0
 21 55  1  0
M  END
>  <i_m_ct_stereo_status>  (166) 
1

>  <s_m_source_file>  (166) 
/var/tmp/pbs.5083856.sched01/tmpslpr2z8r/659jhsiqke.sdf

>  <i_m_source_file_index>  (166) 
5

>  <i_lp_mmshare_version>  (166) 
48012

>  <i_f3d_flags>  (166) 
0

>  <s_epik_input>  (166) 
W0NIMl0xW0NIMl1bQ0gyXUMoW0NIM10pKFtDSDNdKVtDQEBIXShbQ0gyXVtDSDJdMilbQ0BAXTEoW0NIM10pW0NASF0oW0NAXTIzNClbQ0gyXVtDSDJdW0NAXShbQ0gzXSkoW0NIMl00KVtDQEBIXShbQ0gyXTMpW09IXQ==

>  <s_epik_cmdline>  (166) 
J2VwaWtfcHl0aG9uJywgJy1waHQnLCAnMi4wJywgJy1waCcsICc3LjAnLCAnLXRuJywgJzgnLCAnLW1hJywgJzIwMCcsICctaW1hZScsICc8aW5maWxlLm1hZT4nLCAnLW9tYWUnLCAnPG91dGZpbGUubWFlPic=

>  <r_lp_tautomer_probability>  (166) 
1

>  <r_epik_Ionization_Penalty>  (166) 
2.41464e-06

>  <r_epik_Ionization_Penalty_Charging>  (166) 
0

>  <r_epik_Ionization_Penalty_Neutral>  (166) 
2.41464e-06

>  <r_epik_State_Penalty>  (166) 
0

>  <r_epik_Charging_Adjusted_Penalty>  (166) 
0

>  <i_epik_Tot_Q>  (166) 
0

>  <i_epik_Tot_abs_Q>  (166) 
0

>  <s_lp_Force_Field>  (166) 
OPLS3e

>  <r_lp_Energy>  (166) 
69.961

>  <b_lp_Chiralities_Consistent>  (166) 
1

>  <s_lp_Variant>  (166) 
50:0-1

>  <s_i_glide_gridfile>  (166) 
pfpi4k_grid

>  <i_i_glide_lignum>  (166) 
5

>  <i_i_glide_rotatable_bonds>  (166) 
1

>  <r_i_docking_score>  (166) 
-4.48056

>  <r_i_glide_ligand_efficiency>  (166) 
-0.21336

>  <r_i_glide_ligand_efficiency_sa>  (166) 
-0.588645

>  <r_i_glide_ligand_efficiency_ln>  (166) 
-1.10781

>  <r_i_glide_gscore>  (166) 
-4.48056

>  <r_i_glide_lipo>  (166) 
-0.872554

>  <r_i_glide_hbond>  (166) 
-0.32

>  <r_i_glide_metal>  (166) 
-0

>  <r_i_glide_rewards>  (166) 
-1.42852

>  <r_i_glide_evdw>  (166) 
-24.0931

>  <r_i_glide_ecoul>  (166) 
-4.36554

>  <r_i_glide_erotb>  (166) 
0

>  <r_i_glide_esite>  (166) 
0

>  <r_i_glide_emodel>  (166) 
-34.7618

>  <r_i_glide_energy>  (166) 
-28.4587

>  <r_i_glide_einternal>  (166) 
0.125942

>  <r_i_glide_intrahb_reward>  (166) 
-0

>  <i_i_glide_confnum>  (166) 
2

>  <i_i_glide_posenum>  (166) 
3

>  <r_i_glide_eff_state_penalty>  (166) 
0

>  <ligand_id>  (166) 
50

>  <original_smiles>  (166) 
CC1(C)CCCC2(C)C1CCC13CC(O)C(C)(CCC12)C3

>  <smiles>  (166) 
[H]OC1([H])C([H])([H])C23C([H])([H])C([H])([H])C4([H])C(C([H])([H])[H])(C([H])([H])[H])C([H])([H])C([H])([H])C([H])([H])C4(C([H])([H])[H])C2([H])C([H])([H])C([H])([H])C1(C([H])([H])[H])C3([H])[H]

$$$$
50:0:1
     RDKit          3D

 55 58  0  0  1  0  0  0  0  0999 V2000
    1.8632   -7.8275    3.2042 C   0  0  0  0  0  0  0  0  0  0  0  0
    2.0193   -6.3854    2.6659 C   0  0  0  0  0  0  0  0  0  0  0  0
    1.3407   -6.3716    1.2742 C   0  0  0  0  0  0  0  0  0  0  0  0
    1.1862   -5.5024    3.6421 C   0  0  0  0  0  0  0  0  0  0  0  0
    1.6016   -4.0356    3.7372 C   0  0  0  0  0  0  0  0  0  0  0  0
    3.0923   -3.9488    4.0200 C   0  0  0  0  0  0  0  0  0  0  0  0
    3.9577   -4.5183    2.8736 C   0  0  1  0  0  0  0  0  0  0  0  0
    5.4105   -4.4797    3.4171 C   0  0  0  0  0  0  0  0  0  0  0  0
    3.5604   -6.0165    2.6485 C   0  0  2  0  0  0  0  0  0  0  0  0
    4.3712   -6.6114    1.4568 C   0  0  0  0  0  0  0  0  0  0  0  0
    4.3713   -5.7694    0.1657 C   0  0  0  0  0  0  0  0  0  0  0  0
    4.5916   -4.2389    0.3136 C   0  0  2  0  0  0  0  0  0  0  0  0
    6.0689   -3.7566    0.2426 C   0  0  0  0  0  0  0  0  0  0  0  0
    6.0558   -2.3420   -0.3883 C   0  0  1  0  0  0  0  0  0  0  0  0
    6.9768   -2.2692   -1.4651 O   0  0  0  0  0  0  0  0  0  0  0  0
    4.5861   -2.1032   -0.8070 C   0  0  2  0  0  0  0  0  0  0  0  0
    4.4070   -1.2891   -2.1033 C   0  0  0  0  0  0  0  0  0  0  0  0
    3.8300   -1.4135    0.3505 C   0  0  0  0  0  0  0  0  0  0  0  0
    3.9446   -2.1617    1.6941 C   0  0  0  0  0  0  0  0  0  0  0  0
    3.7894   -3.6968    1.5440 C   0  0  2  0  0  0  0  0  0  0  0  0
    4.0369   -3.5266   -0.9352 C   0  0  0  0  0  0  0  0  0  0  0  0
    0.8144   -8.1227    3.2486 H   0  0  0  0  0  0  0  0  0  0  0  0
    2.2588   -7.9072    4.2182 H   0  0  0  0  0  0  0  0  0  0  0  0
    2.3869   -8.5602    2.5908 H   0  0  0  0  0  0  0  0  0  0  0  0
    1.4116   -5.4107    0.7728 H   0  0  0  0  0  0  0  0  0  0  0  0
    0.2872   -6.6416    1.3357 H   0  0  0  0  0  0  0  0  0  0  0  0
    1.7868   -7.1159    0.6203 H   0  0  0  0  0  0  0  0  0  0  0  0
    0.1346   -5.5380    3.3718 H   0  0  0  0  0  0  0  0  0  0  0  0
    1.2293   -5.9153    4.6496 H   0  0  0  0  0  0  0  0  0  0  0  0
    1.3173   -3.4923    2.8398 H   0  0  0  0  0  0  0  0  0  0  0  0
    1.0534   -3.5586    4.5521 H   0  0  0  0  0  0  0  0  0  0  0  0
    3.3837   -2.9272    4.2620 H   0  0  0  0  0  0  0  0  0  0  0  0
    3.2802   -4.5291    4.9256 H   0  0  0  0  0  0  0  0  0  0  0  0
    6.1232   -5.0180    2.7986 H   0  0  0  0  0  0  0  0  0  0  0  0
    5.4725   -4.9471    4.3987 H   0  0  0  0  0  0  0  0  0  0  0  0
    5.7698   -3.4607    3.5309 H   0  0  0  0  0  0  0  0  0  0  0  0
    3.9520   -6.5385    3.5235 H   0  0  0  0  0  0  0  0  0  0  0  0
    5.4042   -6.7617    1.7570 H   0  0  0  0  0  0  0  0  0  0  0  0
    4.0220   -7.6178    1.2229 H   0  0  0  0  0  0  0  0  0  0  0  0
    5.0989   -6.1837   -0.5288 H   0  0  0  0  0  0  0  0  0  0  0  0
    3.4137   -5.9227   -0.3135 H   0  0  0  0  0  0  0  0  0  0  0  0
    6.5826   -3.7366    1.1964 H   0  0  0  0  0  0  0  0  0  0  0  0
    6.6392   -4.4435   -0.3822 H   0  0  0  0  0  0  0  0  0  0  0  0
    6.3749   -1.5972    0.3405 H   0  0  0  0  0  0  0  0  0  0  0  0
    6.8127   -3.0001   -2.0471 H   0  0  0  0  0  0  0  0  0  0  0  0
    3.3482   -1.1483   -2.3266 H   0  0  0  0  0  0  0  0  0  0  0  0
    4.8528   -1.7885   -2.9633 H   0  0  0  0  0  0  0  0  0  0  0  0
    4.8584   -0.2996   -2.0160 H   0  0  0  0  0  0  0  0  0  0  0  0
    4.1812   -0.3873    0.4785 H   0  0  0  0  0  0  0  0  0  0  0  0
    2.7758   -1.3383    0.0862 H   0  0  0  0  0  0  0  0  0  0  0  0
    4.8942   -1.9239    2.1675 H   0  0  0  0  0  0  0  0  0  0  0  0
    3.1657   -1.7736    2.3513 H   0  0  0  0  0  0  0  0  0  0  0  0
    2.7498   -3.8156    1.2617 H   0  0  0  0  0  0  0  0  0  0  0  0
    4.4164   -4.0025   -1.8421 H   0  0  0  0  0  0  0  0  0  0  0  0
    2.9477   -3.5471   -1.0004 H   0  0  0  0  0  0  0  0  0  0  0  0
  1  2  1  0
  1 22  1  0
  1 23  1  0
  1 24  1  0
  2  9  1  0
  2  3  1  0
  2  4  1  0
  3 25  1  0
  3 26  1  0
  3 27  1  0
  4  5  1  0
  4 28  1  0
  4 29  1  0
  5  6  1  0
  5 30  1  0
  5 31  1  0
  6  7  1  0
  6 32  1  0
  6 33  1  0
  7 20  1  0
  7  8  1  1
  7  9  1  0
  8 34  1  0
  8 35  1  0
  8 36  1  0
  9 10  1  0
  9 37  1  1
 10 11  1  0
 10 38  1  0
 10 39  1  0
 12 11  1  6
 11 40  1  0
 11 41  1  0
 12 20  1  0
 12 21  1  0
 12 13  1  0
 13 14  1  0
 13 42  1  0
 13 43  1  0
 14 15  1  0
 14 16  1  0
 14 44  1  1
 15 45  1  0
 16 17  1  6
 16 18  1  0
 16 21  1  0
 17 46  1  0
 17 47  1  0
 17 48  1  0
 18 19  1  0
 18 49  1  0
 18 50  1  0
 19 20  1  0
 19 51  1  0
 19 52  1  0
 20 53  1  6
 21 54  1  0
 21 55  1  0
M  END
>  <i_m_ct_stereo_status>  (167) 
1

>  <s_m_source_file>  (167) 
/var/tmp/pbs.5083856.sched01/tmpslpr2z8r/659jhsiqke.sdf

>  <i_m_source_file_index>  (167) 
5

>  <i_lp_mmshare_version>  (167) 
48012

>  <i_f3d_flags>  (167) 
0

>  <s_epik_input>  (167) 
W0NIMl0xW0NIMl1bQ0gyXUMoW0NIM10pKFtDSDNdKVtDQEBIXShbQ0gyXVtDSDJdMilbQ0BAXTEoW0NIM10pW0NASF0oW0NAXTIzNClbQ0gyXVtDSDJdW0NAXShbQ0gzXSkoW0NIMl00KVtDQEBIXShbQ0gyXTMpW09IXQ==

>  <s_epik_cmdline>  (167) 
J2VwaWtfcHl0aG9uJywgJy1waHQnLCAnMi4wJywgJy1waCcsICc3LjAnLCAnLXRuJywgJzgnLCAnLW1hJywgJzIwMCcsICctaW1hZScsICc8aW5maWxlLm1hZT4nLCAnLW9tYWUnLCAnPG91dGZpbGUubWFlPic=

>  <r_lp_tautomer_probability>  (167) 
1

>  <r_epik_Ionization_Penalty>  (167) 
2.41464e-06

>  <r_epik_Ionization_Penalty_Charging>  (167) 
0

>  <r_epik_Ionization_Penalty_Neutral>  (167) 
2.41464e-06

>  <r_epik_State_Penalty>  (167) 
0

>  <r_epik_Charging_Adjusted_Penalty>  (167) 
0

>  <i_epik_Tot_Q>  (167) 
0

>  <i_epik_Tot_abs_Q>  (167) 
0

>  <s_lp_Force_Field>  (167) 
OPLS3e

>  <r_lp_Energy>  (167) 
69.961

>  <b_lp_Chiralities_Consistent>  (167) 
1

>  <s_lp_Variant>  (167) 
50:0-1

>  <s_i_glide_gridfile>  (167) 
pfpi4k_grid

>  <i_i_glide_lignum>  (167) 
5

>  <i_i_glide_rotatable_bonds>  (167) 
1

>  <r_i_docking_score>  (167) 
-3.50217

>  <r_i_glide_ligand_efficiency>  (167) 
-0.16677

>  <r_i_glide_ligand_efficiency_sa>  (167) 
-0.460105

>  <r_i_glide_ligand_efficiency_ln>  (167) 
-0.865903

>  <r_i_glide_gscore>  (167) 
-3.50217

>  <r_i_glide_lipo>  (167) 
-0.238388

>  <r_i_glide_hbond>  (167) 
-0.16

>  <r_i_glide_metal>  (167) 
-0

>  <r_i_glide_rewards>  (167) 
-1.42852

>  <r_i_glide_evdw>  (167) 
-22.5776

>  <r_i_glide_ecoul>  (167) 
-3.64249

>  <r_i_glide_erotb>  (167) 
0

>  <r_i_glide_esite>  (167) 
0

>  <r_i_glide_emodel>  (167) 
-31.5346

>  <r_i_glide_energy>  (167) 
-26.2201

>  <r_i_glide_einternal>  (167) 
0.068499

>  <r_i_glide_intrahb_reward>  (167) 
-0

>  <i_i_glide_confnum>  (167) 
2

>  <i_i_glide_posenum>  (167) 
7

>  <r_i_glide_eff_state_penalty>  (167) 
0

>  <ligand_id>  (167) 
50

>  <original_smiles>  (167) 
CC1(C)CCCC2(C)C1CCC13CC(O)C(C)(CCC12)C3

>  <smiles>  (167) 
[H]OC1([H])C([H])([H])C23C([H])([H])C([H])([H])C4([H])C(C([H])([H])[H])(C([H])([H])[H])C([H])([H])C([H])([H])C([H])([H])C4(C([H])([H])[H])C2([H])C([H])([H])C([H])([H])C1(C([H])([H])[H])C3([H])[H]

$$$$
50:0:2
     RDKit          3D

 55 58  0  0  1  0  0  0  0  0999 V2000
    7.0320   -5.8643    3.2218 C   0  0  0  0  0  0  0  0  0  0  0  0
    5.9154   -5.5469    2.2035 C   0  0  0  0  0  0  0  0  0  0  0  0
    6.3151   -6.2585    0.8906 C   0  0  0  0  0  0  0  0  0  0  0  0
    4.6402   -6.2259    2.7918 C   0  0  0  0  0  0  0  0  0  0  0  0
    3.3060   -5.6248    2.3621 C   0  0  0  0  0  0  0  0  0  0  0  0
    3.3213   -4.1262    2.6141 C   0  0  0  0  0  0  0  0  0  0  0  0
    4.3707   -3.3794    1.7573 C   0  0  1  0  0  0  0  0  0  0  0  0
    4.3278   -1.9121    2.2697 C   0  0  0  0  0  0  0  0  0  0  0  0
    5.7775   -3.9748    2.0658 C   0  0  2  0  0  0  0  0  0  0  0  0
    6.8480   -3.2870    1.1730 C   0  0  0  0  0  0  0  0  0  0  0  0
    6.5453   -3.2335   -0.3341 C   0  0  0  0  0  0  0  0  0  0  0  0
    5.1127   -2.8183   -0.7306 C   0  0  2  0  0  0  0  0  0  0  0  0
    4.8839   -1.2893   -0.9488 C   0  0  0  0  0  0  0  0  0  0  0  0
    3.7956   -1.1565   -2.0297 C   0  0  1  0  0  0  0  0  0  0  0  0
    4.2037   -0.2905   -3.0673 O   0  0  0  0  0  0  0  0  0  0  0  0
    3.5307   -2.5938   -2.5179 C   0  0  2  0  0  0  0  0  0  0  0  0
    3.2046   -2.7130   -4.0113 C   0  0  0  0  0  0  0  0  0  0  0  0
    2.3857   -3.2193   -1.6984 C   0  0  0  0  0  0  0  0  0  0  0  0
    2.6232   -3.1635   -0.1764 C   0  0  0  0  0  0  0  0  0  0  0  0
    4.0754   -3.4992    0.2221 C   0  0  2  0  0  0  0  0  0  0  0  0
    4.8250   -3.3169   -2.1533 C   0  0  0  0  0  0  0  0  0  0  0  0
    7.1550   -6.9417    3.3610 H   0  0  0  0  0  0  0  0  0  0  0  0
    6.7927   -5.4508    4.2030 H   0  0  0  0  0  0  0  0  0  0  0  0
    8.0022   -5.4595    2.9238 H   0  0  0  0  0  0  0  0  0  0  0  0
    5.6015   -6.1127    0.0892 H   0  0  0  0  0  0  0  0  0  0  0  0
    6.4074   -7.3308    1.0435 H   0  0  0  0  0  0  0  0  0  0  0  0
    7.2963   -5.9299    0.5424 H   0  0  0  0  0  0  0  0  0  0  0  0
    4.6270   -7.2743    2.5141 H   0  0  0  0  0  0  0  0  0  0  0  0
    4.6752   -6.2235    3.8875 H   0  0  0  0  0  0  0  0  0  0  0  0
    3.0753   -5.8662    1.3247 H   0  0  0  0  0  0  0  0  0  0  0  0
    2.5107   -6.0793    2.9499 H   0  0  0  0  0  0  0  0  0  0  0  0
    2.3281   -3.6931    2.4929 H   0  0  0  0  0  0  0  0  0  0  0  0
    3.5700   -3.9877    3.6672 H   0  0  0  0  0  0  0  0  0  0  0  0
    5.1357   -1.2924    1.8932 H   0  0  0  0  0  0  0  0  0  0  0  0
    4.4201   -1.8694    3.3542 H   0  0  0  0  0  0  0  0  0  0  0  0
    3.3946   -1.4157    2.0156 H   0  0  0  0  0  0  0  0  0  0  0  0
    5.9861   -3.6315    3.0754 H   0  0  0  0  0  0  0  0  0  0  0  0
    6.9955   -2.2633    1.5200 H   0  0  0  0  0  0  0  0  0  0  0  0
    7.8163   -3.7570    1.3147 H   0  0  0  0  0  0  0  0  0  0  0  0
    7.2645   -2.5675   -0.8020 H   0  0  0  0  0  0  0  0  0  0  0  0
    6.7537   -4.2153   -0.7622 H   0  0  0  0  0  0  0  0  0  0  0  0
    4.5894   -0.7374   -0.0642 H   0  0  0  0  0  0  0  0  0  0  0  0
    5.8026   -0.8191   -1.3034 H   0  0  0  0  0  0  0  0  0  0  0  0
    2.8885   -0.7174   -1.6132 H   0  0  0  0  0  0  0  0  0  0  0  0
    3.4951    0.2846   -3.2549 H   0  0  0  0  0  0  0  0  0  0  0  0
    3.0133   -3.7495   -4.2907 H   0  0  0  0  0  0  0  0  0  0  0  0
    4.0289   -2.3570   -4.6242 H   0  0  0  0  0  0  0  0  0  0  0  0
    2.3205   -2.1319   -4.2727 H   0  0  0  0  0  0  0  0  0  0  0  0
    1.4436   -2.7261   -1.9465 H   0  0  0  0  0  0  0  0  0  0  0  0
    2.2362   -4.2466   -1.9925 H   0  0  0  0  0  0  0  0  0  0  0  0
    2.3561   -2.1794    0.2072 H   0  0  0  0  0  0  0  0  0  0  0  0
    1.9506   -3.8790    0.2815 H   0  0  0  0  0  0  0  0  0  0  0  0
    4.1569   -4.5598   -0.0067 H   0  0  0  0  0  0  0  0  0  0  0  0
    5.6272   -3.0229   -2.8318 H   0  0  0  0  0  0  0  0  0  0  0  0
    4.7239   -4.4025   -2.2138 H   0  0  0  0  0  0  0  0  0  0  0  0
  1  2  1  0
  1 22  1  0
  1 23  1  0
  1 24  1  0
  2  9  1  0
  2  3  1  0
  2  4  1  0
  3 25  1  0
  3 26  1  0
  3 27  1  0
  4  5  1  0
  4 28  1  0
  4 29  1  0
  5  6  1  0
  5 30  1  0
  5 31  1  0
  6  7  1  0
  6 32  1  0
  6 33  1  0
  7 20  1  0
  7  8  1  1
  7  9  1  0
  8 34  1  0
  8 35  1  0
  8 36  1  0
  9 10  1  0
  9 37  1  1
 10 11  1  0
 10 38  1  0
 10 39  1  0
 12 11  1  1
 11 40  1  0
 11 41  1  0
 12 20  1  0
 12 21  1  0
 12 13  1  0
 13 14  1  0
 13 42  1  0
 13 43  1  0
 14 15  1  0
 14 16  1  0
 14 44  1  1
 15 45  1  0
 16 17  1  6
 16 18  1  0
 16 21  1  0
 17 46  1  0
 17 47  1  0
 17 48  1  0
 18 19  1  0
 18 49  1  0
 18 50  1  0
 19 20  1  0
 19 51  1  0
 19 52  1  0
 20 53  1  6
 21 54  1  0
 21 55  1  0
M  END
>  <i_m_ct_stereo_status>  (168) 
1

>  <s_m_source_file>  (168) 
/var/tmp/pbs.5083856.sched01/tmpslpr2z8r/659jhsiqke.sdf

>  <i_m_source_file_index>  (168) 
5

>  <i_lp_mmshare_version>  (168) 
48012

>  <i_f3d_flags>  (168) 
0

>  <s_epik_input>  (168) 
W0NIMl0xW0NIMl1bQ0gyXUMoW0NIM10pKFtDSDNdKVtDQEBIXShbQ0gyXVtDSDJdMilbQ0BAXTEoW0NIM10pW0NASF0oW0NAXTIzNClbQ0gyXVtDSDJdW0NAXShbQ0gzXSkoW0NIMl00KVtDQEBIXShbQ0gyXTMpW09IXQ==

>  <s_epik_cmdline>  (168) 
J2VwaWtfcHl0aG9uJywgJy1waHQnLCAnMi4wJywgJy1waCcsICc3LjAnLCAnLXRuJywgJzgnLCAnLW1hJywgJzIwMCcsICctaW1hZScsICc8aW5maWxlLm1hZT4nLCAnLW9tYWUnLCAnPG91dGZpbGUubWFlPic=

>  <r_lp_tautomer_probability>  (168) 
1

>  <r_epik_Ionization_Penalty>  (168) 
2.41464e-06

>  <r_epik_Ionization_Penalty_Charging>  (168) 
0

>  <r_epik_Ionization_Penalty_Neutral>  (168) 
2.41464e-06

>  <r_epik_State_Penalty>  (168) 
0

>  <r_epik_Charging_Adjusted_Penalty>  (168) 
0

>  <i_epik_Tot_Q>  (168) 
0

>  <i_epik_Tot_abs_Q>  (168) 
0

>  <s_lp_Force_Field>  (168) 
OPLS3e

>  <r_lp_Energy>  (168) 
69.961

>  <b_lp_Chiralities_Consistent>  (168) 
1

>  <s_lp_Variant>  (168) 
50:0-1

>  <s_i_glide_gridfile>  (168) 
pfpi4k_grid

>  <i_i_glide_lignum>  (168) 
5

>  <i_i_glide_rotatable_bonds>  (168) 
1

>  <r_i_docking_score>  (168) 
-3.46006

>  <r_i_glide_ligand_efficiency>  (168) 
-0.164765

>  <r_i_glide_ligand_efficiency_sa>  (168) 
-0.454573

>  <r_i_glide_ligand_efficiency_ln>  (168) 
-0.855492

>  <r_i_glide_gscore>  (168) 
-3.46006

>  <r_i_glide_lipo>  (168) 
-0.574205

>  <r_i_glide_hbond>  (168) 
0

>  <r_i_glide_metal>  (168) 
-0

>  <r_i_glide_rewards>  (168) 
-1.42852

>  <r_i_glide_evdw>  (168) 
-22.6066

>  <r_i_glide_ecoul>  (168) 
-2.17998

>  <r_i_glide_erotb>  (168) 
0

>  <r_i_glide_esite>  (168) 
0

>  <r_i_glide_emodel>  (168) 
-28.8883

>  <r_i_glide_energy>  (168) 
-24.7866

>  <r_i_glide_einternal>  (168) 
1.23238

>  <r_i_glide_intrahb_reward>  (168) 
-0

>  <i_i_glide_confnum>  (168) 
1

>  <i_i_glide_posenum>  (168) 
8

>  <r_i_glide_eff_state_penalty>  (168) 
0

>  <ligand_id>  (168) 
50

>  <original_smiles>  (168) 
CC1(C)CCCC2(C)C1CCC13CC(O)C(C)(CCC12)C3

>  <smiles>  (168) 
[H]OC1([H])C([H])([H])C23C([H])([H])C([H])([H])C4([H])C(C([H])([H])[H])(C([H])([H])[H])C([H])([H])C([H])([H])C([H])([H])C4(C([H])([H])[H])C2([H])C([H])([H])C([H])([H])C1(C([H])([H])[H])C3([H])[H]

$$$$
51:0:0
     RDKit          3D

 35 38  0  0  1  0  0  0  0  0999 V2000
    5.8175   -3.5322    2.5059 C   0  0  0  0  0  0  0  0  0  0  0  0
    4.8236   -3.6903    1.3827 C   0  0  0  0  0  0  0  0  0  0  0  0
    3.8705   -4.6677    1.3492 C   0  0  0  0  0  0  0  0  0  0  0  0
    2.8882   -4.7095    0.2605 C   0  0  0  0  0  0  0  0  0  0  0  0
    1.8465   -5.4838    0.1365 N   0  0  0  0  0  0  0  0  0  0  0  0
    1.4937   -6.4560    1.1031 C   0  0  0  0  0  0  0  0  0  0  0  0
    2.3519   -7.4523    1.6631 C   0  0  0  0  0  0  0  0  0  0  0  0
    1.5362   -8.1664    2.4955 C   0  0  0  0  0  0  0  0  0  0  0  0
    1.8485   -9.3464    3.3617 C   0  0  0  0  0  0  0  0  0  0  0  0
    0.2656   -7.6080    2.3965 N   0  0  0  0  0  0  0  0  0  0  0  0
   -0.9780   -8.0328    3.0425 C   0  0  0  0  0  0  0  0  0  0  0  0
   -1.5841   -7.0202    3.9907 C   0  0  0  0  0  0  0  0  0  0  0  0
   -0.9010   -8.2434    4.5451 C   0  0  0  0  0  0  0  0  0  0  0  0
    0.2372   -6.5812    1.5090 N   0  0  0  0  0  0  0  0  0  0  0  0
    3.1678   -3.7149   -0.6852 N   0  0  0  0  0  0  0  0  0  0  0  0
    2.4678   -3.4569   -1.8417 N   0  0  0  0  0  0  0  0  0  0  0  0
    3.0431   -2.3325   -2.3912 C   0  0  0  0  0  0  0  0  0  0  0  0
    4.0495   -1.8542   -1.7086 N   0  0  0  0  0  0  0  0  0  0  0  0
    4.1285   -2.7210   -0.6211 C   0  0  0  0  0  0  0  0  0  0  0  0
    4.9363   -2.7022    0.3867 N   0  0  0  0  0  0  0  0  0  0  0  0
    5.7154   -4.2978    3.2737 H   0  0  0  0  0  0  0  0  0  0  0  0
    5.7117   -2.5492    2.9664 H   0  0  0  0  0  0  0  0  0  0  0  0
    6.8115   -3.5843    2.0745 H   0  0  0  0  0  0  0  0  0  0  0  0
    3.8648   -5.3793    2.1668 H   0  0  0  0  0  0  0  0  0  0  0  0
    3.3957   -7.6442    1.4759 H   0  0  0  0  0  0  0  0  0  0  0  0
    2.8898   -9.6396    3.2514 H   0  0  0  0  0  0  0  0  0  0  0  0
    1.2153  -10.2037    3.1209 H   0  0  0  0  0  0  0  0  0  0  0  0
    1.7265   -9.1241    4.4196 H   0  0  0  0  0  0  0  0  0  0  0  0
   -1.6163   -8.6610    2.4231 H   0  0  0  0  0  0  0  0  0  0  0  0
   -1.0596   -6.0803    4.1504 H   0  0  0  0  0  0  0  0  0  0  0  0
   -2.6677   -6.9811    4.0791 H   0  0  0  0  0  0  0  0  0  0  0  0
   -1.5116   -9.0379    4.9725 H   0  0  0  0  0  0  0  0  0  0  0  0
    0.0084   -8.0285    5.0993 H   0  0  0  0  0  0  0  0  0  0  0  0
    2.6111   -1.9276   -3.3147 H   0  0  0  0  0  0  0  0  0  0  0  0
    2.1119   -4.2308   -2.3943 H   0  0  0  0  0  0  0  0  0  0  0  0
  1  2  1  0
  1 21  1  0
  1 22  1  0
  1 23  1  0
  2 20  1  0
  2  3  2  0
  3  4  1  0
  3 24  1  0
  4  5  2  3
  4 15  1  0
  5  6  1  0
  6 14  2  0
  6  7  1  0
  7  8  2  0
  7 25  1  0
  8  9  1  0
  8 10  1  0
  9 26  1  0
  9 27  1  0
  9 28  1  0
 10 11  1  0
 10 14  1  0
 11 13  1  0
 11 12  1  0
 11 29  1  0
 12 13  1  0
 12 30  1  0
 12 31  1  0
 13 32  1  0
 13 33  1  0
 15 19  1  0
 15 16  1  0
 16 17  1  0
 16 35  1  0
 17 18  2  0
 17 34  1  0
 18 19  1  0
 19 20  2  0
M  END
>  <i_m_ct_stereo_status>  (169) 
1

>  <s_m_source_file>  (169) 
/var/tmp/pbs.5083856.sched01/tmpvbvzlgyy/70fwvses89.sdf

>  <i_m_source_file_index>  (169) 
1

>  <i_lp_mmshare_version>  (169) 
48012

>  <i_f3d_flags>  (169) 
0

>  <s_epik_input>  (169) 
W25IXTFbY0hdbmMobjEyKW5jKFtDSDNdKVtjSF0vYzI9TlxjM1tjSF1jKFtDSDNdKW4objMpW0NIXTRbQ0gyXVtDSDJdNA==

>  <s_epik_cmdline>  (169) 
J2VwaWtfcHl0aG9uJywgJy1waHQnLCAnMi4wJywgJy1waCcsICc3LjAnLCAnLXRuJywgJzgnLCAnLW1hJywgJzIwMCcsICctaW1hZScsICc8aW5maWxlLm1hZT4nLCAnLW9tYWUnLCAnPG91dGZpbGUubWFlPic=

>  <r_lp_tautomer_probability>  (169) 
1

>  <r_epik_Ionization_Penalty>  (169) 
22.5323

>  <r_epik_Ionization_Penalty_Charging>  (169) 
21.6461

>  <r_epik_Ionization_Penalty_Neutral>  (169) 
0.886188

>  <r_epik_State_Penalty>  (169) 
0

>  <r_epik_Charging_Adjusted_Penalty>  (169) 
21.6461

>  <i_epik_Tot_Q>  (169) 
0

>  <i_epik_Tot_abs_Q>  (169) 
0

>  <s_lp_Force_Field>  (169) 
OPLS3e

>  <r_lp_Energy>  (169) 
21.9773

>  <b_lp_Chiralities_Consistent>  (169) 
1

>  <s_lp_Variant>  (169) 
51:0-1

>  <s_i_glide_gridfile>  (169) 
pfpi4k_grid

>  <i_i_glide_lignum>  (169) 
1

>  <i_i_glide_rotatable_bonds>  (169) 
2

>  <r_i_docking_score>  (169) 
-4.2199

>  <r_i_glide_ligand_efficiency>  (169) 
-0.210995

>  <r_i_glide_ligand_efficiency_sa>  (169) 
-0.572728

>  <r_i_glide_ligand_efficiency_ln>  (169) 
-1.0561

>  <r_i_glide_gscore>  (169) 
-4.2199

>  <r_i_glide_lipo>  (169) 
-0.0586635

>  <r_i_glide_hbond>  (169) 
-0.401522

>  <r_i_glide_metal>  (169) 
-0

>  <r_i_glide_rewards>  (169) 
-1.57292

>  <r_i_glide_evdw>  (169) 
-24.7666

>  <r_i_glide_ecoul>  (169) 
-8.86597

>  <r_i_glide_erotb>  (169) 
0.492681

>  <r_i_glide_esite>  (169) 
-0.111248

>  <r_i_glide_emodel>  (169) 
-42.2037

>  <r_i_glide_energy>  (169) 
-33.6326

>  <r_i_glide_einternal>  (169) 
3.08261

>  <r_i_glide_intrahb_reward>  (169) 
-0

>  <i_i_glide_confnum>  (169) 
2

>  <i_i_glide_posenum>  (169) 
36

>  <r_i_glide_eff_state_penalty>  (169) 
0

>  <ligand_id>  (169) 
51

>  <original_smiles>  (169) 
Cc1cc(=Nc2cc(C)n(C3CC3)n2)n2[nH]cnc2n1

>  <smiles>  (169) 
[H]c1c(N=c2c([H])c(C([H])([H])[H])nc3nc([H])n([H])n23)nn(C2([H])C([H])([H])C2([H])[H])c1C([H])([H])[H]

$$$$
51:0:1
     RDKit          3D

 35 38  0  0  1  0  0  0  0  0999 V2000
    7.1287   -2.5697    0.3447 C   0  0  0  0  0  0  0  0  0  0  0  0
    5.8298   -2.7667   -0.3901 C   0  0  0  0  0  0  0  0  0  0  0  0
    4.8534   -3.6226    0.0445 C   0  0  0  0  0  0  0  0  0  0  0  0
    3.5733   -3.7253   -0.6586 C   0  0  0  0  0  0  0  0  0  0  0  0
    2.5034   -4.4006   -0.3203 N   0  0  0  0  0  0  0  0  0  0  0  0
    2.3550   -5.0522    0.9214 C   0  0  0  0  0  0  0  0  0  0  0  0
    2.8842   -4.5902    2.1628 C   0  0  0  0  0  0  0  0  0  0  0  0
    2.4364   -5.4886    3.0808 C   0  0  0  0  0  0  0  0  0  0  0  0
    2.7415   -5.5662    4.5375 C   0  0  0  0  0  0  0  0  0  0  0  0
    1.5892   -6.3593    2.4204 N   0  0  0  0  0  0  0  0  0  0  0  0
    0.8910   -7.5174    2.9756 C   0  0  0  0  0  0  0  0  0  0  0  0
   -0.5302   -7.7362    2.4972 C   0  0  0  0  0  0  0  0  0  0  0  0
   -0.2793   -7.1706    3.8805 C   0  0  0  0  0  0  0  0  0  0  0  0
    1.5333   -6.0755    1.0934 N   0  0  0  0  0  0  0  0  0  0  0  0
    3.6016   -2.9633   -1.8266 N   0  0  0  0  0  0  0  0  0  0  0  0
    2.6055   -2.8502   -2.7849 N   0  0  0  0  0  0  0  0  0  0  0  0
    3.0375   -1.8760   -3.6593 C   0  0  0  0  0  0  0  0  0  0  0  0
    4.2152   -1.3989   -3.3931 N   0  0  0  0  0  0  0  0  0  0  0  0
    4.5867   -2.0743   -2.2360 C   0  0  0  0  0  0  0  0  0  0  0  0
    5.6787   -1.9721   -1.5420 N   0  0  0  0  0  0  0  0  0  0  0  0
    7.1939   -3.1694    1.2552 H   0  0  0  0  0  0  0  0  0  0  0  0
    7.2503   -1.5209    0.6179 H   0  0  0  0  0  0  0  0  0  0  0  0
    7.9508   -2.8385   -0.3128 H   0  0  0  0  0  0  0  0  0  0  0  0
    5.0908   -4.2001    0.9265 H   0  0  0  0  0  0  0  0  0  0  0  0
    3.5088   -3.7322    2.3809 H   0  0  0  0  0  0  0  0  0  0  0  0
    3.4478   -4.7822    4.8100 H   0  0  0  0  0  0  0  0  0  0  0  0
    3.1953   -6.5214    4.7926 H   0  0  0  0  0  0  0  0  0  0  0  0
    1.8436   -5.4269    5.1325 H   0  0  0  0  0  0  0  0  0  0  0  0
    1.5463   -8.3434    3.2294 H   0  0  0  0  0  0  0  0  0  0  0  0
   -0.9244   -7.0682    1.7399 H   0  0  0  0  0  0  0  0  0  0  0  0
   -0.8626   -8.7742    2.4189 H   0  0  0  0  0  0  0  0  0  0  0  0
   -0.4780   -7.8255    4.7316 H   0  0  0  0  0  0  0  0  0  0  0  0
   -0.5205   -6.1252    4.0487 H   0  0  0  0  0  0  0  0  0  0  0  0
    2.3652   -1.5649   -4.4545 H   0  0  0  0  0  0  0  0  0  0  0  0
    1.9634   -3.6075   -2.9721 H   0  0  0  0  0  0  0  0  0  0  0  0
  1  2  1  0
  1 21  1  0
  1 22  1  0
  1 23  1  0
  2 20  1  0
  2  3  2  0
  3  4  1  0
  3 24  1  0
  4  5  2  3
  4 15  1  0
  5  6  1  0
  6 14  2  0
  6  7  1  0
  7  8  2  0
  7 25  1  0
  8  9  1  0
  8 10  1  0
  9 26  1  0
  9 27  1  0
  9 28  1  0
 10 11  1  0
 10 14  1  0
 11 13  1  0
 11 12  1  0
 11 29  1  0
 12 13  1  0
 12 30  1  0
 12 31  1  0
 13 32  1  0
 13 33  1  0
 15 19  1  0
 15 16  1  0
 16 17  1  0
 16 35  1  0
 17 18  2  0
 17 34  1  0
 18 19  1  0
 19 20  2  0
M  END
>  <i_m_ct_stereo_status>  (170) 
1

>  <s_m_source_file>  (170) 
/var/tmp/pbs.5083856.sched01/tmpvbvzlgyy/70fwvses89.sdf

>  <i_m_source_file_index>  (170) 
1

>  <i_lp_mmshare_version>  (170) 
48012

>  <i_f3d_flags>  (170) 
0

>  <s_epik_input>  (170) 
W25IXTFbY0hdbmMobjEyKW5jKFtDSDNdKVtjSF0vYzI9TlxjM1tjSF1jKFtDSDNdKW4objMpW0NIXTRbQ0gyXVtDSDJdNA==

>  <s_epik_cmdline>  (170) 
J2VwaWtfcHl0aG9uJywgJy1waHQnLCAnMi4wJywgJy1waCcsICc3LjAnLCAnLXRuJywgJzgnLCAnLW1hJywgJzIwMCcsICctaW1hZScsICc8aW5maWxlLm1hZT4nLCAnLW9tYWUnLCAnPG91dGZpbGUubWFlPic=

>  <r_lp_tautomer_probability>  (170) 
1

>  <r_epik_Ionization_Penalty>  (170) 
22.5323

>  <r_epik_Ionization_Penalty_Charging>  (170) 
21.6461

>  <r_epik_Ionization_Penalty_Neutral>  (170) 
0.886188

>  <r_epik_State_Penalty>  (170) 
0

>  <r_epik_Charging_Adjusted_Penalty>  (170) 
21.6461

>  <i_epik_Tot_Q>  (170) 
0

>  <i_epik_Tot_abs_Q>  (170) 
0

>  <s_lp_Force_Field>  (170) 
OPLS3e

>  <r_lp_Energy>  (170) 
21.9773

>  <b_lp_Chiralities_Consistent>  (170) 
1

>  <s_lp_Variant>  (170) 
51:0-1

>  <s_i_glide_gridfile>  (170) 
pfpi4k_grid

>  <i_i_glide_lignum>  (170) 
1

>  <i_i_glide_rotatable_bonds>  (170) 
2

>  <r_i_docking_score>  (170) 
-4.12547

>  <r_i_glide_ligand_efficiency>  (170) 
-0.206273

>  <r_i_glide_ligand_efficiency_sa>  (170) 
-0.559912

>  <r_i_glide_ligand_efficiency_ln>  (170) 
-1.03247

>  <r_i_glide_gscore>  (170) 
-4.12547

>  <r_i_glide_lipo>  (170) 
-0.169014

>  <r_i_glide_hbond>  (170) 
-0.0995268

>  <r_i_glide_metal>  (170) 
-0

>  <r_i_glide_rewards>  (170) 
-1.88322

>  <r_i_glide_evdw>  (170) 
-27.6964

>  <r_i_glide_ecoul>  (170) 
-6.90757

>  <r_i_glide_erotb>  (170) 
0.492681

>  <r_i_glide_esite>  (170) 
-0.0454283

>  <r_i_glide_emodel>  (170) 
-43.3774

>  <r_i_glide_energy>  (170) 
-34.6039

>  <r_i_glide_einternal>  (170) 
2.58173

>  <r_i_glide_intrahb_reward>  (170) 
-0

>  <i_i_glide_confnum>  (170) 
3

>  <i_i_glide_posenum>  (170) 
40

>  <r_i_glide_eff_state_penalty>  (170) 
0

>  <ligand_id>  (170) 
51

>  <original_smiles>  (170) 
Cc1cc(=Nc2cc(C)n(C3CC3)n2)n2[nH]cnc2n1

>  <smiles>  (170) 
[H]c1c(N=c2c([H])c(C([H])([H])[H])nc3nc([H])n([H])n23)nn(C2([H])C([H])([H])C2([H])[H])c1C([H])([H])[H]

$$$$
51:0:2
     RDKit          3D

 35 38  0  0  1  0  0  0  0  0999 V2000
    6.9457   -6.1527    1.6702 C   0  0  0  0  0  0  0  0  0  0  0  0
    5.7613   -5.4819    1.0221 C   0  0  0  0  0  0  0  0  0  0  0  0
    4.4878   -5.9486    1.1466 C   0  0  0  0  0  0  0  0  0  0  0  0
    3.3509   -5.2690    0.5007 C   0  0  0  0  0  0  0  0  0  0  0  0
    2.0762   -5.5170    0.5924 N   0  0  0  0  0  0  0  0  0  0  0  0
    1.5102   -6.5384    1.3881 C   0  0  0  0  0  0  0  0  0  0  0  0
    2.1035   -7.8008    1.6590 C   0  0  0  0  0  0  0  0  0  0  0  0
    1.2247   -8.4420    2.4766 C   0  0  0  0  0  0  0  0  0  0  0  0
    1.3190   -9.7926    3.1079 C   0  0  0  0  0  0  0  0  0  0  0  0
    0.1405   -7.5960    2.6228 N   0  0  0  0  0  0  0  0  0  0  0  0
   -1.1045   -7.8543    3.3361 C   0  0  0  0  0  0  0  0  0  0  0  0
   -1.5134   -6.8151    4.3535 C   0  0  0  0  0  0  0  0  0  0  0  0
   -0.9525   -8.1385    4.8163 C   0  0  0  0  0  0  0  0  0  0  0  0
    0.3035   -6.4400    1.9286 N   0  0  0  0  0  0  0  0  0  0  0  0
    3.8307   -4.1838   -0.2618 N   0  0  0  0  0  0  0  0  0  0  0  0
    3.0551   -3.2396   -0.9173 N   0  0  0  0  0  0  0  0  0  0  0  0
    3.9484   -2.2595   -1.3308 C   0  0  0  0  0  0  0  0  0  0  0  0
    5.1758   -2.4675   -0.9758 N   0  0  0  0  0  0  0  0  0  0  0  0
    5.1205   -3.6778   -0.2870 C   0  0  0  0  0  0  0  0  0  0  0  0
    6.0727   -4.3070    0.3171 N   0  0  0  0  0  0  0  0  0  0  0  0
    6.6674   -7.0548    2.2130 H   0  0  0  0  0  0  0  0  0  0  0  0
    7.4279   -5.4692    2.3685 H   0  0  0  0  0  0  0  0  0  0  0  0
    7.6739   -6.4233    0.9082 H   0  0  0  0  0  0  0  0  0  0  0  0
    4.3872   -6.8417    1.7425 H   0  0  0  0  0  0  0  0  0  0  0  0
    3.0263   -8.2159    1.3057 H   0  0  0  0  0  0  0  0  0  0  0  0
    2.2619  -10.2686    2.8435 H   0  0  0  0  0  0  0  0  0  0  0  0
    0.5132  -10.4444    2.7740 H   0  0  0  0  0  0  0  0  0  0  0  0
    1.2879   -9.7359    4.1960 H   0  0  0  0  0  0  0  0  0  0  0  0
   -1.8456   -8.3942    2.7602 H   0  0  0  0  0  0  0  0  0  0  0  0
   -0.8814   -5.9398    4.4782 H   0  0  0  0  0  0  0  0  0  0  0  0
   -2.5850   -6.6570    4.4887 H   0  0  0  0  0  0  0  0  0  0  0  0
   -1.6435   -8.8499    5.2700 H   0  0  0  0  0  0  0  0  0  0  0  0
    0.0400   -8.1260    5.2573 H   0  0  0  0  0  0  0  0  0  0  0  0
    3.5760   -1.4058   -1.8985 H   0  0  0  0  0  0  0  0  0  0  0  0
    2.2512   -3.5567   -1.4451 H   0  0  0  0  0  0  0  0  0  0  0  0
  1  2  1  0
  1 21  1  0
  1 22  1  0
  1 23  1  0
  2 20  1  0
  2  3  2  0
  3  4  1  0
  3 24  1  0
  4  5  2  3
  4 15  1  0
  5  6  1  0
  6 14  2  0
  6  7  1  0
  7  8  2  0
  7 25  1  0
  8  9  1  0
  8 10  1  0
  9 26  1  0
  9 27  1  0
  9 28  1  0
 10 11  1  0
 10 14  1  0
 11 13  1  0
 11 12  1  0
 11 29  1  0
 12 13  1  0
 12 30  1  0
 12 31  1  0
 13 32  1  0
 13 33  1  0
 15 19  1  0
 15 16  1  0
 16 17  1  0
 16 35  1  0
 17 18  2  0
 17 34  1  0
 18 19  1  0
 19 20  2  0
M  END
>  <i_m_ct_stereo_status>  (171) 
1

>  <s_m_source_file>  (171) 
/var/tmp/pbs.5083856.sched01/tmpvbvzlgyy/70fwvses89.sdf

>  <i_m_source_file_index>  (171) 
1

>  <i_lp_mmshare_version>  (171) 
48012

>  <i_f3d_flags>  (171) 
0

>  <s_epik_input>  (171) 
W25IXTFbY0hdbmMobjEyKW5jKFtDSDNdKVtjSF0vYzI9TlxjM1tjSF1jKFtDSDNdKW4objMpW0NIXTRbQ0gyXVtDSDJdNA==

>  <s_epik_cmdline>  (171) 
J2VwaWtfcHl0aG9uJywgJy1waHQnLCAnMi4wJywgJy1waCcsICc3LjAnLCAnLXRuJywgJzgnLCAnLW1hJywgJzIwMCcsICctaW1hZScsICc8aW5maWxlLm1hZT4nLCAnLW9tYWUnLCAnPG91dGZpbGUubWFlPic=

>  <r_lp_tautomer_probability>  (171) 
1

>  <r_epik_Ionization_Penalty>  (171) 
22.5323

>  <r_epik_Ionization_Penalty_Charging>  (171) 
21.6461

>  <r_epik_Ionization_Penalty_Neutral>  (171) 
0.886188

>  <r_epik_State_Penalty>  (171) 
0

>  <r_epik_Charging_Adjusted_Penalty>  (171) 
21.6461

>  <i_epik_Tot_Q>  (171) 
0

>  <i_epik_Tot_abs_Q>  (171) 
0

>  <s_lp_Force_Field>  (171) 
OPLS3e

>  <r_lp_Energy>  (171) 
21.9773

>  <b_lp_Chiralities_Consistent>  (171) 
1

>  <s_lp_Variant>  (171) 
51:0-1

>  <s_i_glide_gridfile>  (171) 
pfpi4k_grid

>  <i_i_glide_lignum>  (171) 
1

>  <i_i_glide_rotatable_bonds>  (171) 
2

>  <r_i_docking_score>  (171) 
-4.06689

>  <r_i_glide_ligand_efficiency>  (171) 
-0.203345

>  <r_i_glide_ligand_efficiency_sa>  (171) 
-0.551963

>  <r_i_glide_ligand_efficiency_ln>  (171) 
-1.01781

>  <r_i_glide_gscore>  (171) 
-4.06689

>  <r_i_glide_lipo>  (171) 
-0.28757

>  <r_i_glide_hbond>  (171) 
-0.204297

>  <r_i_glide_metal>  (171) 
-0

>  <r_i_glide_rewards>  (171) 
-1.64444

>  <r_i_glide_evdw>  (171) 
-26.2351

>  <r_i_glide_ecoul>  (171) 
-6.72206

>  <r_i_glide_erotb>  (171) 
0.492681

>  <r_i_glide_esite>  (171) 
-0.10321

>  <r_i_glide_emodel>  (171) 
-41.3519

>  <r_i_glide_energy>  (171) 
-32.9572

>  <r_i_glide_einternal>  (171) 
2.48707

>  <r_i_glide_intrahb_reward>  (171) 
-0

>  <i_i_glide_confnum>  (171) 
2

>  <i_i_glide_posenum>  (171) 
28

>  <r_i_glide_eff_state_penalty>  (171) 
0

>  <ligand_id>  (171) 
51

>  <original_smiles>  (171) 
Cc1cc(=Nc2cc(C)n(C3CC3)n2)n2[nH]cnc2n1

>  <smiles>  (171) 
[H]c1c(N=c2c([H])c(C([H])([H])[H])nc3nc([H])n([H])n23)nn(C2([H])C([H])([H])C2([H])[H])c1C([H])([H])[H]

$$$$
51:1:0
     RDKit          3D

 35 38  0  0  1  0  0  0  0  0999 V2000
    3.3858   -0.4984   -3.9791 C   0  0  0  0  0  0  0  0  0  0  0  0
    3.7222   -1.4326   -2.8497 C   0  0  0  0  0  0  0  0  0  0  0  0
    2.8550   -2.3489   -2.3148 C   0  0  0  0  0  0  0  0  0  0  0  0
    3.2443   -3.1955   -1.1961 C   0  0  0  0  0  0  0  0  0  0  0  0
    2.3785   -4.0591   -0.7119 N   0  0  0  0  0  0  0  0  0  0  0  0
    2.7052   -5.1087    0.1615 C   0  0  0  0  0  0  0  0  0  0  0  0
    3.9782   -5.7357    0.2375 C   0  0  0  0  0  0  0  0  0  0  0  0
    3.8572   -6.6605    1.2220 C   0  0  0  0  0  0  0  0  0  0  0  0
    4.8795   -7.5736    1.8232 C   0  0  0  0  0  0  0  0  0  0  0  0
    2.5332   -6.6458    1.6118 N   0  0  0  0  0  0  0  0  0  0  0  0
    1.8811   -7.4737    2.6229 C   0  0  0  0  0  0  0  0  0  0  0  0
    1.8042   -8.9487    2.2813 C   0  0  0  0  0  0  0  0  0  0  0  0
    0.5545   -8.0935    2.2329 C   0  0  0  0  0  0  0  0  0  0  0  0
    1.8290   -5.6742    0.9709 N   0  0  0  0  0  0  0  0  0  0  0  0
    4.5609   -2.9129   -0.7871 N   0  0  0  0  0  0  0  0  0  0  0  0
    5.1649   -3.2567    0.4181 N   0  0  0  0  0  0  0  0  0  0  0  0
    6.4079   -2.6573    0.3839 C   0  0  0  0  0  0  0  0  0  0  0  0
    6.5900   -1.8559   -0.6228 N   0  0  0  0  0  0  0  0  0  0  0  0
    5.4033   -1.9457   -1.3248 C   0  0  0  0  0  0  0  0  0  0  0  0
    5.0090   -1.2285   -2.3331 N   0  0  0  0  0  0  0  0  0  0  0  0
    2.3666   -0.6339   -4.3327 H   0  0  0  0  0  0  0  0  0  0  0  0
    4.0734   -0.6539   -4.8130 H   0  0  0  0  0  0  0  0  0  0  0  0
    3.4970    0.5393   -3.6436 H   0  0  0  0  0  0  0  0  0  0  0  0
    1.8751   -2.4134   -2.7695 H   0  0  0  0  0  0  0  0  0  0  0  0
    4.8600   -5.5271   -0.3348 H   0  0  0  0  0  0  0  0  0  0  0  0
    5.8511   -7.3838    1.3721 H   0  0  0  0  0  0  0  0  0  0  0  0
    4.6316   -8.6217    1.6508 H   0  0  0  0  0  0  0  0  0  0  0  0
    4.9829   -7.4104    2.8998 H   0  0  0  0  0  0  0  0  0  0  0  0
    2.0770   -7.1690    3.6362 H   0  0  0  0  0  0  0  0  0  0  0  0
    2.2101   -9.2866    1.3336 H   0  0  0  0  0  0  0  0  0  0  0  0
    1.8996   -9.6612    3.1044 H   0  0  0  0  0  0  0  0  0  0  0  0
   -0.1809   -8.2243    3.0309 H   0  0  0  0  0  0  0  0  0  0  0  0
    0.1479   -7.8576    1.2561 H   0  0  0  0  0  0  0  0  0  0  0  0
    7.1267   -2.8701    1.1702 H   0  0  0  0  0  0  0  0  0  0  0  0
    5.0093   -4.2268    0.7152 H   0  0  0  0  0  0  0  0  0  0  0  0
  1  2  1  0
  1 21  1  0
  1 22  1  0
  1 23  1  0
  2 20  1  0
  2  3  2  0
  3  4  1  0
  3 24  1  0
  4  5  2  3
  4 15  1  0
  5  6  1  0
  6 14  2  0
  6  7  1  0
  7  8  2  0
  7 25  1  0
  8  9  1  0
  8 10  1  0
  9 26  1  0
  9 27  1  0
  9 28  1  0
 10 11  1  0
 10 14  1  0
 11 13  1  0
 11 12  1  0
 11 29  1  0
 12 13  1  0
 12 30  1  0
 12 31  1  0
 13 32  1  0
 13 33  1  0
 15 19  1  0
 15 16  1  0
 16 17  1  0
 16 35  1  0
 17 18  2  0
 17 34  1  0
 18 19  1  0
 19 20  2  0
M  END
>  <i_m_ct_stereo_status>  (172) 
1

>  <s_m_source_file>  (172) 
/var/tmp/pbs.5083856.sched01/tmpvbvzlgyy/70fwvses89.sdf

>  <i_m_source_file_index>  (172) 
2

>  <i_lp_mmshare_version>  (172) 
48012

>  <i_f3d_flags>  (172) 
0

>  <s_epik_input>  (172) 
W25IXTFbY0hdbmMobjEyKW5jKFtDSDNdKVtjSF0vYzI9TlxjM1tjSF1jKFtDSDNdKW4objMpW0NIXTRbQ0gyXVtDSDJdNA==

>  <s_epik_cmdline>  (172) 
J2VwaWtfcHl0aG9uJywgJy1waHQnLCAnMi4wJywgJy1waCcsICc3LjAnLCAnLXRuJywgJzgnLCAnLW1hJywgJzIwMCcsICctaW1hZScsICc8aW5maWxlLm1hZT4nLCAnLW9tYWUnLCAnPG91dGZpbGUubWFlPic=

>  <r_lp_tautomer_probability>  (172) 
1

>  <r_epik_Ionization_Penalty>  (172) 
22.5323

>  <r_epik_Ionization_Penalty_Charging>  (172) 
21.6461

>  <r_epik_Ionization_Penalty_Neutral>  (172) 
0.886188

>  <r_epik_State_Penalty>  (172) 
0

>  <r_epik_Charging_Adjusted_Penalty>  (172) 
21.6461

>  <i_epik_Tot_Q>  (172) 
0

>  <i_epik_Tot_abs_Q>  (172) 
0

>  <s_lp_Force_Field>  (172) 
OPLS3e

>  <r_lp_Energy>  (172) 
26.9554

>  <b_lp_Chiralities_Consistent>  (172) 
1

>  <s_lp_Variant>  (172) 
51:0-2

>  <s_i_glide_gridfile>  (172) 
pfpi4k_grid

>  <i_i_glide_lignum>  (172) 
2

>  <i_i_glide_rotatable_bonds>  (172) 
2

>  <r_i_docking_score>  (172) 
-3.98287

>  <r_i_glide_ligand_efficiency>  (172) 
-0.199143

>  <r_i_glide_ligand_efficiency_sa>  (172) 
-0.540558

>  <r_i_glide_ligand_efficiency_ln>  (172) 
-0.99678

>  <r_i_glide_gscore>  (172) 
-3.98287

>  <r_i_glide_lipo>  (172) 
-0.473924

>  <r_i_glide_hbond>  (172) 
-0.234609

>  <r_i_glide_metal>  (172) 
-0

>  <r_i_glide_rewards>  (172) 
-1.6869

>  <r_i_glide_evdw>  (172) 
-25.8863

>  <r_i_glide_ecoul>  (172) 
-4.93245

>  <r_i_glide_erotb>  (172) 
0.492681

>  <r_i_glide_esite>  (172) 
-0.0459347

>  <r_i_glide_emodel>  (172) 
-37.7573

>  <r_i_glide_energy>  (172) 
-30.8188

>  <r_i_glide_einternal>  (172) 
2.36347

>  <r_i_glide_intrahb_reward>  (172) 
-0

>  <i_i_glide_confnum>  (172) 
2

>  <i_i_glide_posenum>  (172) 
15

>  <r_i_glide_eff_state_penalty>  (172) 
0

>  <ligand_id>  (172) 
51

>  <original_smiles>  (172) 
Cc1cc(=Nc2cc(C)n(C3CC3)n2)n2[nH]cnc2n1

>  <smiles>  (172) 
[H]c1c(N=c2c([H])c(C([H])([H])[H])nc3nc([H])n([H])n23)nn(C2([H])C([H])([H])C2([H])[H])c1C([H])([H])[H]

$$$$
51:1:1
     RDKit          3D

 35 38  0  0  1  0  0  0  0  0999 V2000
    8.6957   -5.2876    0.8934 C   0  0  0  0  0  0  0  0  0  0  0  0
    7.2254   -5.5590    0.9560 C   0  0  0  0  0  0  0  0  0  0  0  0
    6.6800   -6.7723    1.2840 C   0  0  0  0  0  0  0  0  0  0  0  0
    5.2353   -6.9929    1.3107 C   0  0  0  0  0  0  0  0  0  0  0  0
    4.7652   -8.1415    1.6988 N   0  0  0  0  0  0  0  0  0  0  0  0
    3.4104   -8.4914    1.9830 C   0  0  0  0  0  0  0  0  0  0  0  0
    3.0217   -9.8328    2.1893 C   0  0  0  0  0  0  0  0  0  0  0  0
    1.6996   -9.7859    2.5392 C   0  0  0  0  0  0  0  0  0  0  0  0
    0.7774  -10.9368    2.8906 C   0  0  0  0  0  0  0  0  0  0  0  0
    1.3579   -8.4195    2.5291 N   0  0  0  0  0  0  0  0  0  0  0  0
    0.1023   -7.6839    2.7885 C   0  0  0  0  0  0  0  0  0  0  0  0
   -0.7882   -8.2361    3.8775 C   0  0  0  0  0  0  0  0  0  0  0  0
   -1.1883   -8.3691    2.4047 C   0  0  0  0  0  0  0  0  0  0  0  0
    2.4266   -7.6584    2.2255 N   0  0  0  0  0  0  0  0  0  0  0  0
    4.5759   -5.8184    0.8710 N   0  0  0  0  0  0  0  0  0  0  0  0
    3.2405   -5.6855    0.5689 N   0  0  0  0  0  0  0  0  0  0  0  0
    3.0801   -4.3796    0.1299 C   0  0  0  0  0  0  0  0  0  0  0  0
    4.1734   -3.7078    0.0809 N   0  0  0  0  0  0  0  0  0  0  0  0
    5.1426   -4.6078    0.5086 C   0  0  0  0  0  0  0  0  0  0  0  0
    6.4279   -4.4501    0.5837 N   0  0  0  0  0  0  0  0  0  0  0  0
    9.2877   -6.1662    1.1563 H   0  0  0  0  0  0  0  0  0  0  0  0
    8.9460   -4.4734    1.5791 H   0  0  0  0  0  0  0  0  0  0  0  0
    8.9716   -4.9695   -0.1177 H   0  0  0  0  0  0  0  0  0  0  0  0
    7.3763   -7.5661    1.5503 H   0  0  0  0  0  0  0  0  0  0  0  0
    3.6301  -10.7270    2.1121 H   0  0  0  0  0  0  0  0  0  0  0  0
    1.3153  -11.8946    2.8499 H   0  0  0  0  0  0  0  0  0  0  0  0
   -0.0444  -11.0070    2.1857 H   0  0  0  0  0  0  0  0  0  0  0  0
    0.4047  -10.8515    3.9040 H   0  0  0  0  0  0  0  0  0  0  0  0
    0.2202   -6.6056    2.6564 H   0  0  0  0  0  0  0  0  0  0  0  0
   -0.4149   -9.0556    4.4478 H   0  0  0  0  0  0  0  0  0  0  0  0
   -1.3703   -7.5014    4.4635 H   0  0  0  0  0  0  0  0  0  0  0  0
   -2.0231   -7.7264    2.0920 H   0  0  0  0  0  0  0  0  0  0  0  0
   -1.1122   -9.2909    1.8641 H   0  0  0  0  0  0  0  0  0  0  0  0
    2.0794   -4.0676   -0.1752 H   0  0  0  0  0  0  0  0  0  0  0  0
    2.5792   -6.2669    1.0830 H   0  0  0  0  0  0  0  0  0  0  0  0
  1  2  1  0
  1 21  1  0
  1 22  1  0
  1 23  1  0
  2 20  1  0
  2  3  2  0
  3  4  1  0
  3 24  1  0
  4  5  2  3
  4 15  1  0
  5  6  1  0
  6 14  2  0
  6  7  1  0
  7  8  2  0
  7 25  1  0
  8  9  1  0
  8 10  1  0
  9 26  1  0
  9 27  1  0
  9 28  1  0
 10 11  1  0
 10 14  1  0
 11 13  1  0
 11 12  1  0
 11 29  1  0
 12 13  1  0
 12 30  1  0
 12 31  1  0
 13 32  1  0
 13 33  1  0
 15 19  1  0
 15 16  1  0
 16 17  1  0
 16 35  1  0
 17 18  2  0
 17 34  1  0
 18 19  1  0
 19 20  2  0
M  END
>  <i_m_ct_stereo_status>  (173) 
1

>  <s_m_source_file>  (173) 
/var/tmp/pbs.5083856.sched01/tmpvbvzlgyy/70fwvses89.sdf

>  <i_m_source_file_index>  (173) 
2

>  <i_lp_mmshare_version>  (173) 
48012

>  <i_f3d_flags>  (173) 
0

>  <s_epik_input>  (173) 
W25IXTFbY0hdbmMobjEyKW5jKFtDSDNdKVtjSF0vYzI9TlxjM1tjSF1jKFtDSDNdKW4objMpW0NIXTRbQ0gyXVtDSDJdNA==

>  <s_epik_cmdline>  (173) 
J2VwaWtfcHl0aG9uJywgJy1waHQnLCAnMi4wJywgJy1waCcsICc3LjAnLCAnLXRuJywgJzgnLCAnLW1hJywgJzIwMCcsICctaW1hZScsICc8aW5maWxlLm1hZT4nLCAnLW9tYWUnLCAnPG91dGZpbGUubWFlPic=

>  <r_lp_tautomer_probability>  (173) 
1

>  <r_epik_Ionization_Penalty>  (173) 
22.5323

>  <r_epik_Ionization_Penalty_Charging>  (173) 
21.6461

>  <r_epik_Ionization_Penalty_Neutral>  (173) 
0.886188

>  <r_epik_State_Penalty>  (173) 
0

>  <r_epik_Charging_Adjusted_Penalty>  (173) 
21.6461

>  <i_epik_Tot_Q>  (173) 
0

>  <i_epik_Tot_abs_Q>  (173) 
0

>  <s_lp_Force_Field>  (173) 
OPLS3e

>  <r_lp_Energy>  (173) 
26.9554

>  <b_lp_Chiralities_Consistent>  (173) 
1

>  <s_lp_Variant>  (173) 
51:0-2

>  <s_i_glide_gridfile>  (173) 
pfpi4k_grid

>  <i_i_glide_lignum>  (173) 
2

>  <i_i_glide_rotatable_bonds>  (173) 
2

>  <r_i_docking_score>  (173) 
-3.68221

>  <r_i_glide_ligand_efficiency>  (173) 
-0.184111

>  <r_i_glide_ligand_efficiency_sa>  (173) 
-0.499753

>  <r_i_glide_ligand_efficiency_ln>  (173) 
-0.921536

>  <r_i_glide_gscore>  (173) 
-3.68221

>  <r_i_glide_lipo>  (173) 
-0.463337

>  <r_i_glide_hbond>  (173) 
0

>  <r_i_glide_metal>  (173) 
-0

>  <r_i_glide_rewards>  (173) 
-2.2684

>  <r_i_glide_evdw>  (173) 
-26.7045

>  <r_i_glide_ecoul>  (173) 
-0.342624

>  <r_i_glide_erotb>  (173) 
0.492681

>  <r_i_glide_esite>  (173) 
-0.0565404

>  <r_i_glide_emodel>  (173) 
-37.4251

>  <r_i_glide_energy>  (173) 
-27.0472

>  <r_i_glide_einternal>  (173) 
4.65364

>  <r_i_glide_intrahb_reward>  (173) 
-0.5

>  <i_i_glide_confnum>  (173) 
5

>  <i_i_glide_posenum>  (173) 
2

>  <r_i_glide_eff_state_penalty>  (173) 
0

>  <ligand_id>  (173) 
51

>  <original_smiles>  (173) 
Cc1cc(=Nc2cc(C)n(C3CC3)n2)n2[nH]cnc2n1

>  <smiles>  (173) 
[H]c1c(N=c2c([H])c(C([H])([H])[H])nc3nc([H])n([H])n23)nn(C2([H])C([H])([H])C2([H])[H])c1C([H])([H])[H]

$$$$
51:1:2
     RDKit          3D

 35 38  0  0  1  0  0  0  0  0999 V2000
    0.4880   -3.9227    5.4080 C   0  0  0  0  0  0  0  0  0  0  0  0
    1.1559   -3.1785    4.2820 C   0  0  0  0  0  0  0  0  0  0  0  0
    2.1888   -3.6872    3.5414 C   0  0  0  0  0  0  0  0  0  0  0  0
    2.8148   -2.9137    2.4714 C   0  0  0  0  0  0  0  0  0  0  0  0
    3.7436   -3.4703    1.7354 N   0  0  0  0  0  0  0  0  0  0  0  0
    4.3243   -2.9738    0.5482 C   0  0  0  0  0  0  0  0  0  0  0  0
    5.4575   -3.6003   -0.0433 C   0  0  0  0  0  0  0  0  0  0  0  0
    5.6446   -2.9096   -1.2079 C   0  0  0  0  0  0  0  0  0  0  0  0
    6.6712   -3.0619   -2.2867 C   0  0  0  0  0  0  0  0  0  0  0  0
    4.6540   -1.9529   -1.2704 N   0  0  0  0  0  0  0  0  0  0  0  0
    4.4274   -0.9033   -2.2513 C   0  0  0  0  0  0  0  0  0  0  0  0
    3.0327   -0.8941   -2.8520 C   0  0  0  0  0  0  0  0  0  0  0  0
    4.2088   -1.3842   -3.6637 C   0  0  0  0  0  0  0  0  0  0  0  0
    3.8419   -2.0141   -0.2065 N   0  0  0  0  0  0  0  0  0  0  0  0
    2.2588   -1.6165    2.4356 N   0  0  0  0  0  0  0  0  0  0  0  0
    2.7080   -0.5281    1.7203 N   0  0  0  0  0  0  0  0  0  0  0  0
    1.8804    0.5188    2.0432 C   0  0  0  0  0  0  0  0  0  0  0  0
    0.9842    0.2305    2.9319 N   0  0  0  0  0  0  0  0  0  0  0  0
    1.2312   -1.1118    3.2184 C   0  0  0  0  0  0  0  0  0  0  0  0
    0.6549   -1.8761    4.0912 N   0  0  0  0  0  0  0  0  0  0  0  0
    0.9074   -4.9208    5.5536 H   0  0  0  0  0  0  0  0  0  0  0  0
   -0.5786   -4.0092    5.2011 H   0  0  0  0  0  0  0  0  0  0  0  0
    0.5983   -3.3581    6.3371 H   0  0  0  0  0  0  0  0  0  0  0  0
    2.5077   -4.7016    3.7657 H   0  0  0  0  0  0  0  0  0  0  0  0
    6.0365   -4.4418    0.3159 H   0  0  0  0  0  0  0  0  0  0  0  0
    7.3692   -3.8438   -2.0702 H   0  0  0  0  0  0  0  0  0  0  0  0
    7.2599   -2.1475   -2.3650 H   0  0  0  0  0  0  0  0  0  0  0  0
    6.1990   -3.2780   -3.2508 H   0  0  0  0  0  0  0  0  0  0  0  0
    4.9263    0.0294   -2.0227 H   0  0  0  0  0  0  0  0  0  0  0  0
    2.3142   -1.6415   -2.5210 H   0  0  0  0  0  0  0  0  0  0  0  0
    2.6037    0.0705   -3.1263 H   0  0  0  0  0  0  0  0  0  0  0  0
    4.6035   -0.7444   -4.4525 H   0  0  0  0  0  0  0  0  0  0  0  0
    4.2471   -2.4516   -3.8529 H   0  0  0  0  0  0  0  0  0  0  0  0
    2.0701    1.4824    1.5653 H   0  0  0  0  0  0  0  0  0  0  0  0
    3.1257   -0.7075    0.8018 H   0  0  0  0  0  0  0  0  0  0  0  0
  1  2  1  0
  1 21  1  0
  1 22  1  0
  1 23  1  0
  2 20  1  0
  2  3  2  0
  3  4  1  0
  3 24  1  0
  4  5  2  3
  4 15  1  0
  5  6  1  0
  6 14  2  0
  6  7  1  0
  7  8  2  0
  7 25  1  0
  8  9  1  0
  8 10  1  0
  9 26  1  0
  9 27  1  0
  9 28  1  0
 10 11  1  0
 10 14  1  0
 11 13  1  0
 11 12  1  0
 11 29  1  0
 12 13  1  0
 12 30  1  0
 12 31  1  0
 13 32  1  0
 13 33  1  0
 15 19  1  0
 15 16  1  0
 16 17  1  0
 16 35  1  0
 17 18  2  0
 17 34  1  0
 18 19  1  0
 19 20  2  0
M  END
>  <i_m_ct_stereo_status>  (174) 
1

>  <s_m_source_file>  (174) 
/var/tmp/pbs.5083856.sched01/tmpvbvzlgyy/70fwvses89.sdf

>  <i_m_source_file_index>  (174) 
2

>  <i_lp_mmshare_version>  (174) 
48012

>  <i_f3d_flags>  (174) 
0

>  <s_epik_input>  (174) 
W25IXTFbY0hdbmMobjEyKW5jKFtDSDNdKVtjSF0vYzI9TlxjM1tjSF1jKFtDSDNdKW4objMpW0NIXTRbQ0gyXVtDSDJdNA==

>  <s_epik_cmdline>  (174) 
J2VwaWtfcHl0aG9uJywgJy1waHQnLCAnMi4wJywgJy1waCcsICc3LjAnLCAnLXRuJywgJzgnLCAnLW1hJywgJzIwMCcsICctaW1hZScsICc8aW5maWxlLm1hZT4nLCAnLW9tYWUnLCAnPG91dGZpbGUubWFlPic=

>  <r_lp_tautomer_probability>  (174) 
1

>  <r_epik_Ionization_Penalty>  (174) 
22.5323

>  <r_epik_Ionization_Penalty_Charging>  (174) 
21.6461

>  <r_epik_Ionization_Penalty_Neutral>  (174) 
0.886188

>  <r_epik_State_Penalty>  (174) 
0

>  <r_epik_Charging_Adjusted_Penalty>  (174) 
21.6461

>  <i_epik_Tot_Q>  (174) 
0

>  <i_epik_Tot_abs_Q>  (174) 
0

>  <s_lp_Force_Field>  (174) 
OPLS3e

>  <r_lp_Energy>  (174) 
26.9554

>  <b_lp_Chiralities_Consistent>  (174) 
1

>  <s_lp_Variant>  (174) 
51:0-2

>  <s_i_glide_gridfile>  (174) 
pfpi4k_grid

>  <i_i_glide_lignum>  (174) 
2

>  <i_i_glide_rotatable_bonds>  (174) 
2

>  <r_i_docking_score>  (174) 
-3.177

>  <r_i_glide_ligand_efficiency>  (174) 
-0.15885

>  <r_i_glide_ligand_efficiency_sa>  (174) 
-0.431186

>  <r_i_glide_ligand_efficiency_ln>  (174) 
-0.795099

>  <r_i_glide_gscore>  (174) 
-3.177

>  <r_i_glide_lipo>  (174) 
-0.301887

>  <r_i_glide_hbond>  (174) 
0

>  <r_i_glide_metal>  (174) 
-0

>  <r_i_glide_rewards>  (174) 
-2.07292

>  <r_i_glide_evdw>  (174) 
-24.9847

>  <r_i_glide_ecoul>  (174) 
0.668735

>  <r_i_glide_erotb>  (174) 
0.492681

>  <r_i_glide_esite>  (174) 
-0.145954

>  <r_i_glide_emodel>  (174) 
-35.872

>  <r_i_glide_energy>  (174) 
-24.3159

>  <r_i_glide_einternal>  (174) 
0.210282

>  <r_i_glide_intrahb_reward>  (174) 
-0.5

>  <i_i_glide_confnum>  (174) 
4

>  <i_i_glide_posenum>  (174) 
5

>  <r_i_glide_eff_state_penalty>  (174) 
0

>  <ligand_id>  (174) 
51

>  <original_smiles>  (174) 
Cc1cc(=Nc2cc(C)n(C3CC3)n2)n2[nH]cnc2n1

>  <smiles>  (174) 
[H]c1c(N=c2c([H])c(C([H])([H])[H])nc3nc([H])n([H])n23)nn(C2([H])C([H])([H])C2([H])[H])c1C([H])([H])[H]

$$$$
52:0:0
     RDKit          3D

 90 96  0  0  1  0  0  0  0  0999 V2000
    5.9727   -3.1580    8.1802 C   0  0  0  0  0  0  0  0  0  0  0  0
    4.5626   -2.9556    7.6520 C   0  0  0  0  0  0  0  0  0  0  0  0
    4.1115   -2.0006    6.8337 C   0  0  0  0  0  0  0  0  0  0  0  0
    2.6269   -2.0899    6.4935 C   0  0  2  0  0  0  0  0  0  0  0  0
    2.2070   -3.4475    7.1654 C   0  0  1  0  0  0  0  0  0  0  0  0
    1.1485   -3.1797    8.0598 O   0  0  0  0  0  0  0  0  0  0  0  0
    1.7218   -4.6031    6.2598 C   0  0  0  0  0  0  0  0  0  0  0  0
    2.6900   -5.1123    5.1756 C   0  0  1  0  0  0  0  0  0  0  0  0
    2.4331   -6.6172    4.9677 C   0  0  0  0  0  0  0  0  0  0  0  0
    2.6948   -4.2849    3.8433 C   0  0  1  0  0  0  0  0  0  0  0  0
    1.5291   -4.7278    2.9521 C   0  0  0  0  0  0  0  0  0  0  0  0
    2.8270   -2.7220    3.9176 C   0  0  2  0  0  0  0  0  0  0  0  0
    4.3608   -2.9418    3.8708 C   0  0  0  0  0  0  0  0  0  0  0  0
    5.3521   -2.4014    4.3211 O   0  0  0  0  0  0  0  0  0  0  0  0
    4.0997   -4.2830    3.1213 C   0  0  1  0  0  0  0  0  0  0  0  0
    5.2489   -5.3009    3.3121 C   0  0  0  0  0  0  0  0  0  0  0  0
    6.1075   -5.1541    2.0930 C   0  0  0  0  0  0  0  0  0  0  0  0
    5.4115   -4.0952    1.1951 C   0  0  1  0  0  0  0  0  0  0  0  0
    6.1400   -2.7157    1.3057 C   0  0  0  0  0  0  0  0  0  0  0  0
    5.3714   -1.6692    0.4815 C   0  0  0  0  0  0  0  0  0  0  0  0
    5.2349   -2.0600   -1.0104 C   0  0  1  0  0  0  0  0  0  0  0  0
    4.5031   -0.9625   -1.8147 C   0  0  0  0  0  0  0  0  0  0  0  0
    6.5742   -2.1083   -1.5062 O   0  0  0  0  0  0  0  0  0  0  0  0
    4.5383   -3.4589   -1.1404 C   0  0  1  0  0  0  0  0  0  0  0  0
    3.0113   -3.4115   -0.7911 C   0  0  0  0  0  0  0  0  0  0  0  0
    4.5889   -3.8486   -2.5036 O   0  0  0  0  0  0  0  0  0  0  0  0
    5.2904   -4.5264   -0.2871 C   0  0  0  0  0  0  0  0  0  0  0  0
    4.0809   -4.0378    1.7453 O   0  0  0  0  0  0  0  0  0  0  0  0
    2.1959   -1.7512    4.9952 C   0  0  1  0  0  0  0  0  0  0  0  0
    0.6218   -1.8679    4.8595 C   0  0  0  0  0  0  0  0  0  0  0  0
    0.1035   -0.4177    4.7647 C   0  0  2  0  0  0  0  0  0  0  0  0
   -1.0484   -0.0116    4.1103 O   0  0  0  0  0  0  0  0  0  0  0  0
   -0.7317    1.3130    3.7856 C   0  0  0  0  0  0  0  0  0  0  0  0
   -1.1322    1.6317    2.3221 C   0  0  0  0  0  0  0  0  0  0  0  0
   -1.4573    2.3168    4.7305 C   0  0  0  0  0  0  0  0  0  0  0  0
    0.6686    1.5354    3.9235 O   0  0  0  0  0  0  0  0  0  0  0  0
    1.1718    0.2051    3.9146 C   0  0  1  0  0  0  0  0  0  0  0  0
    2.4530   -0.2052    4.6482 C   0  0  1  0  0  0  0  0  0  0  0  0
    2.7098    0.7612    5.8492 C   0  0  0  0  0  0  0  0  0  0  0  0
    3.5283   -0.0033    3.7377 O   0  0  0  0  0  0  0  0  0  0  0  0
    3.4589   -3.8277    7.9835 C   0  0  0  0  0  0  0  0  0  0  0  0
    3.4812   -4.7583    8.8128 O   0  0  0  0  0  0  0  0  0  0  0  0
    6.3916   -4.0856    7.7820 H   0  0  0  0  0  0  0  0  0  0  0  0
    5.9405   -3.2373    9.2709 H   0  0  0  0  0  0  0  0  0  0  0  0
    6.6425   -2.3341    7.9152 H   0  0  0  0  0  0  0  0  0  0  0  0
    4.7571   -1.2387    6.4242 H   0  0  0  0  0  0  0  0  0  0  0  0
    2.1857   -1.3359    7.1221 H   0  0  0  0  0  0  0  0  0  0  0  0
    1.4492   -2.5770    8.7125 H   0  0  0  0  0  0  0  0  0  0  0  0
    1.5201   -5.4419    6.9425 H   0  0  0  0  0  0  0  0  0  0  0  0
    0.7523   -4.3922    5.8083 H   0  0  0  0  0  0  0  0  0  0  0  0
    3.6964   -5.0556    5.5839 H   0  0  0  0  0  0  0  0  0  0  0  0
    1.3818   -6.8077    4.7480 H   0  0  0  0  0  0  0  0  0  0  0  0
    2.6828   -7.1549    5.8845 H   0  0  0  0  0  0  0  0  0  0  0  0
    3.0273   -7.0434    4.1627 H   0  0  0  0  0  0  0  0  0  0  0  0
    1.4389   -4.0402    2.1094 H   0  0  0  0  0  0  0  0  0  0  0  0
    0.5763   -4.7032    3.4789 H   0  0  0  0  0  0  0  0  0  0  0  0
    1.6566   -5.7210    2.5178 H   0  0  0  0  0  0  0  0  0  0  0  0
    2.5347   -2.3394    2.9297 H   0  0  0  0  0  0  0  0  0  0  0  0
    5.8302   -5.1567    4.2561 H   0  0  0  0  0  0  0  0  0  0  0  0
    4.8482   -6.3340    3.3320 H   0  0  0  0  0  0  0  0  0  0  0  0
    7.1407   -4.8265    2.3470 H   0  0  0  0  0  0  0  0  0  0  0  0
    6.2183   -6.1263    1.5631 H   0  0  0  0  0  0  0  0  0  0  0  0
    6.2411   -2.3628    2.3109 H   0  0  0  0  0  0  0  0  0  0  0  0
    7.1443   -2.8255    0.8635 H   0  0  0  0  0  0  0  0  0  0  0  0
    4.3764   -1.5214    0.8968 H   0  0  0  0  0  0  0  0  0  0  0  0
    5.8628   -0.7074    0.5743 H   0  0  0  0  0  0  0  0  0  0  0  0
    3.4573   -0.8724   -1.5042 H   0  0  0  0  0  0  0  0  0  0  0  0
    4.5244   -1.1906   -2.8902 H   0  0  0  0  0  0  0  0  0  0  0  0
    4.9681    0.0111   -1.6692 H   0  0  0  0  0  0  0  0  0  0  0  0
    6.9454   -2.9261   -1.2408 H   0  0  0  0  0  0  0  0  0  0  0  0
    2.8397   -3.0857    0.2311 H   0  0  0  0  0  0  0  0  0  0  0  0
    2.5664   -4.4087   -0.8998 H   0  0  0  0  0  0  0  0  0  0  0  0
    2.4611   -2.7214   -1.4357 H   0  0  0  0  0  0  0  0  0  0  0  0
    4.0585   -4.6362   -2.6013 H   0  0  0  0  0  0  0  0  0  0  0  0
    6.2964   -4.6748   -0.6902 H   0  0  0  0  0  0  0  0  0  0  0  0
    4.8051   -5.5123   -0.3915 H   0  0  0  0  0  0  0  0  0  0  0  0
    0.3486   -2.3886    3.9393 H   0  0  0  0  0  0  0  0  0  0  0  0
    0.1284   -2.3599    5.6758 H   0  0  0  0  0  0  0  0  0  0  0  0
    0.0812   -0.0175    5.7877 H   0  0  0  0  0  0  0  0  0  0  0  0
   -0.6607    0.9353    1.6247 H   0  0  0  0  0  0  0  0  0  0  0  0
   -0.8549    2.6425    2.0583 H   0  0  0  0  0  0  0  0  0  0  0  0
   -2.2138    1.5565    2.2217 H   0  0  0  0  0  0  0  0  0  0  0  0
   -1.1838    2.1424    5.7753 H   0  0  0  0  0  0  0  0  0  0  0  0
   -2.5398    2.2036    4.6120 H   0  0  0  0  0  0  0  0  0  0  0  0
   -1.1868    3.3276    4.4472 H   0  0  0  0  0  0  0  0  0  0  0  0
    1.1250   -0.2149    2.9050 H   0  0  0  0  0  0  0  0  0  0  0  0
    1.9619    0.6343    6.6432 H   0  0  0  0  0  0  0  0  0  0  0  0
    2.6962    1.8004    5.5397 H   0  0  0  0  0  0  0  0  0  0  0  0
    3.6824    0.5906    6.3102 H   0  0  0  0  0  0  0  0  0  0  0  0
    3.5435    0.8952    3.4874 H   0  0  0  0  0  0  0  0  0  0  0  0
  1  2  1  0
  1 43  1  0
  1 44  1  0
  1 45  1  0
  2 41  1  0
  2  3  2  0
  3  4  1  0
  3 46  1  0
  4 29  1  0
  4  5  1  0
  4 47  1  1
  5  6  1  1
  5  7  1  0
  5 41  1  0
  6 48  1  0
  7  8  1  0
  7 49  1  0
  7 50  1  0
  8  9  1  0
  8 10  1  0
  8 51  1  1
  9 52  1  0
  9 53  1  0
  9 54  1  0
 10 15  1  0
 10 11  1  6
 10 12  1  0
 11 55  1  0
 11 56  1  0
 11 57  1  0
 12 13  1  0
 12 29  1  0
 12 58  1  6
 13 14  2  0
 13 15  1  0
 15 28  1  6
 15 16  1  0
 16 17  1  0
 16 59  1  0
 16 60  1  0
 17 18  1  0
 17 61  1  0
 17 62  1  0
 18 27  1  0
 18 19  1  0
 18 28  1  1
 19 20  1  0
 19 63  1  0
 19 64  1  0
 20 21  1  0
 20 65  1  0
 20 66  1  0
 21 22  1  0
 21 23  1  6
 21 24  1  0
 22 67  1  0
 22 68  1  0
 22 69  1  0
 23 70  1  0
 24 25  1  0
 24 26  1  6
 24 27  1  0
 25 71  1  0
 25 72  1  0
 25 73  1  0
 26 74  1  0
 27 75  1  0
 27 76  1  0
 29 38  1  0
 29 30  1  1
 30 31  1  0
 30 77  1  0
 30 78  1  0
 31 37  1  0
 31 32  1  0
 31 79  1  1
 32 33  1  0
 33 34  1  0
 33 35  1  0
 33 36  1  0
 34 80  1  0
 34 81  1  0
 34 82  1  0
 35 83  1  0
 35 84  1  0
 35 85  1  0
 36 37  1  0
 37 38  1  0
 37 86  1  6
 38 39  1  0
 38 40  1  6
 39 87  1  0
 39 88  1  0
 39 89  1  0
 40 90  1  0
 41 42  2  0
M  END
>  <i_m_ct_stereo_status>  (175) 
1

>  <s_m_source_file>  (175) 
/var/tmp/pbs.5083856.sched01/tmpvbvzlgyy/70fwvses89.sdf

>  <i_m_source_file_index>  (175) 
3

>  <i_lp_mmshare_version>  (175) 
48012

>  <i_f3d_flags>  (175) 
0

>  <s_epik_input>  (175) 
TzFDKFtDSDNdKShbQ0gzXSlPW0NAQEhdKFtDQF0yKFtDSDNdKVtPSF0pW0NAQEhdMVtDSDJdW0NAQF0yKFtDQEhdM1tDQEBdKFtPSF0pKFtDSDJdW0NASF00W0NIM10pQyg9TylDKFtDSDNdKT1bQ0hdMylbQ0BASF0oQzU9TylbQ0BAXTQoW0NIM10pW0NAXTU2W0NIMl1bQ0gyXVtDQEBdNyhPNilbQ0gyXVtDSDJdW0NAQF0oW0NIM10pKFtPSF0pW0NAQF0oW0NIM10pKFtPSF0pW0NIMl03

>  <s_epik_cmdline>  (175) 
J2VwaWtfcHl0aG9uJywgJy1waHQnLCAnMi4wJywgJy1waCcsICc3LjAnLCAnLXRuJywgJzgnLCAnLW1hJywgJzIwMCcsICctaW1hZScsICc8aW5maWxlLm1hZT4nLCAnLW9tYWUnLCAnPG91dGZpbGUubWFlPic=

>  <r_lp_tautomer_probability>  (175) 
1

>  <r_epik_Ionization_Penalty>  (175) 
9.78523e-07

>  <r_epik_Ionization_Penalty_Charging>  (175) 
0

>  <r_epik_Ionization_Penalty_Neutral>  (175) 
9.78523e-07

>  <r_epik_State_Penalty>  (175) 
0

>  <r_epik_Charging_Adjusted_Penalty>  (175) 
0

>  <i_epik_Tot_Q>  (175) 
0

>  <i_epik_Tot_abs_Q>  (175) 
0

>  <s_lp_Force_Field>  (175) 
OPLS3e

>  <r_lp_Energy>  (175) 
58.8623

>  <b_lp_Chiralities_Consistent>  (175) 
1

>  <s_lp_Variant>  (175) 
52:0-1

>  <s_i_glide_gridfile>  (175) 
pfpi4k_grid

>  <i_i_glide_lignum>  (175) 
3

>  <i_i_glide_rotatable_bonds>  (175) 
4

>  <r_i_docking_score>  (175) 
-2.8532

>  <r_i_glide_ligand_efficiency>  (175) 
-0.0679334

>  <r_i_glide_ligand_efficiency_sa>  (175) 
-0.236138

>  <r_i_glide_ligand_efficiency_ln>  (175) 
-0.602238

>  <r_i_glide_gscore>  (175) 
-2.8532

>  <r_i_glide_lipo>  (175) 
-0.382069

>  <r_i_glide_hbond>  (175) 
0

>  <r_i_glide_metal>  (175) 
-0

>  <r_i_glide_rewards>  (175) 
-0.0163004

>  <r_i_glide_evdw>  (175) 
-23.1362

>  <r_i_glide_ecoul>  (175) 
-8.48009

>  <r_i_glide_erotb>  (175) 
0

>  <r_i_glide_esite>  (175) 
-0.0260063

>  <r_i_glide_emodel>  (175) 
-34.0604

>  <r_i_glide_energy>  (175) 
-31.6163

>  <r_i_glide_einternal>  (175) 
2.03132

>  <r_i_glide_intrahb_reward>  (175) 
-0

>  <i_i_glide_confnum>  (175) 
4

>  <i_i_glide_posenum>  (175) 
17

>  <r_i_glide_eff_state_penalty>  (175) 
0

>  <ligand_id>  (175) 
52

>  <original_smiles>  (175) 
CC1=CC2C(O)(CC(C)C3(C)C(C(=O)C34CCC3(CCC(C)(O)C(C)(O)C3)O4)C23CC2OC(C)(C)OC2C3(C)O)C1=O

>  <smiles>  (175) 
[H]OC12C(=O)C(C([H])([H])[H])=C([H])C1([H])C1(C([H])([H])C3([H])OC(C([H])([H])[H])(C([H])([H])[H])OC3([H])C1(O[H])C([H])([H])[H])C1([H])C(=O)C3(OC4(C([H])([H])C3([H])[H])C([H])([H])C([H])([H])C(O[H])(C([H])([H])[H])C(O[H])(C([H])([H])[H])C4([H])[H])C1(C([H])([H])[H])C([H])(C([H])([H])[H])C2([H])[H]

$$$$
52:0:1
     RDKit          3D

 90 96  0  0  1  0  0  0  0  0999 V2000
    5.9791   -3.1270    8.1748 C   0  0  0  0  0  0  0  0  0  0  0  0
    4.5699   -2.9306    7.6470 C   0  0  0  0  0  0  0  0  0  0  0  0
    4.1107   -1.9794    6.8262 C   0  0  0  0  0  0  0  0  0  0  0  0
    2.6261   -2.0807    6.4879 C   0  0  2  0  0  0  0  0  0  0  0  0
    2.2243   -3.4488    7.1525 C   0  0  1  0  0  0  0  0  0  0  0  0
    1.1627   -3.2209    8.0498 O   0  0  0  0  0  0  0  0  0  0  0  0
    1.7381   -4.6032    6.2531 C   0  0  0  0  0  0  0  0  0  0  0  0
    2.7065   -5.1064    5.1718 C   0  0  1  0  0  0  0  0  0  0  0  0
    2.4557   -6.6122    4.9708 C   0  0  0  0  0  0  0  0  0  0  0  0
    2.7040   -4.2802    3.8405 C   0  0  1  0  0  0  0  0  0  0  0  0
    1.5397   -4.7305    2.9516 C   0  0  0  0  0  0  0  0  0  0  0  0
    2.8291   -2.7158    3.9127 C   0  0  2  0  0  0  0  0  0  0  0  0
    4.3605   -2.9300    3.8640 C   0  0  0  0  0  0  0  0  0  0  0  0
    5.3525   -2.3813    4.3145 O   0  0  0  0  0  0  0  0  0  0  0  0
    4.1097   -4.2727    3.1195 C   0  0  1  0  0  0  0  0  0  0  0  0
    5.2630   -5.2846    3.3103 C   0  0  0  0  0  0  0  0  0  0  0  0
    6.1204   -5.1361    2.0911 C   0  0  0  0  0  0  0  0  0  0  0  0
    5.4187   -4.0836    1.1924 C   0  0  1  0  0  0  0  0  0  0  0  0
    6.1382   -2.6992    1.2974 C   0  0  0  0  0  0  0  0  0  0  0  0
    5.3656   -1.6563    0.4731 C   0  0  0  0  0  0  0  0  0  0  0  0
    5.2189   -2.0609   -1.0176 C   0  0  1  0  0  0  0  0  0  0  0  0
    4.4895   -0.9656   -1.8248 C   0  0  0  0  0  0  0  0  0  0  0  0
    6.5350   -2.1161   -1.5574 O   0  0  0  0  0  0  0  0  0  0  0  0
    4.5420   -3.4666   -1.1429 C   0  0  1  0  0  0  0  0  0  0  0  0
    3.0155   -3.4168   -0.7967 C   0  0  0  0  0  0  0  0  0  0  0  0
    4.6412   -3.9058   -2.4954 O   0  0  0  0  0  0  0  0  0  0  0  0
    5.2998   -4.5184   -0.2852 C   0  0  0  0  0  0  0  0  0  0  0  0
    4.0883   -4.0341    1.7431 O   0  0  0  0  0  0  0  0  0  0  0  0
    2.1941   -1.7464    4.9884 C   0  0  1  0  0  0  0  0  0  0  0  0
    0.6207   -1.8719    4.8542 C   0  0  0  0  0  0  0  0  0  0  0  0
    0.0942   -0.4248    4.7569 C   0  0  2  0  0  0  0  0  0  0  0  0
   -1.0604   -0.0269    4.1025 O   0  0  0  0  0  0  0  0  0  0  0  0
   -0.7512    1.2975    3.7763 C   0  0  0  0  0  0  0  0  0  0  0  0
   -1.1526    1.6133    2.3161 C   0  0  0  0  0  0  0  0  0  0  0  0
   -1.4808    2.3017    4.7165 C   0  0  0  0  0  0  0  0  0  0  0  0
    0.6460    1.5278    3.9113 O   0  0  0  0  0  0  0  0  0  0  0  0
    1.1581    0.2015    3.9050 C   0  0  1  0  0  0  0  0  0  0  0  0
    2.4427   -0.1996    4.6375 C   0  0  1  0  0  0  0  0  0  0  0  0
    2.6952    0.7682    5.8370 C   0  0  0  0  0  0  0  0  0  0  0  0
    3.5159    0.0040    3.7265 O   0  0  0  0  0  0  0  0  0  0  0  0
    3.4735   -3.8114    7.9738 C   0  0  0  0  0  0  0  0  0  0  0  0
    3.4870   -4.7380    8.8076 O   0  0  0  0  0  0  0  0  0  0  0  0
    6.4016   -4.0536    7.7782 H   0  0  0  0  0  0  0  0  0  0  0  0
    5.9474   -3.2045    9.2655 H   0  0  0  0  0  0  0  0  0  0  0  0
    6.6444   -2.3012    7.9079 H   0  0  0  0  0  0  0  0  0  0  0  0
    4.7521   -1.2161    6.4136 H   0  0  0  0  0  0  0  0  0  0  0  0
    2.1746   -1.3350    7.1224 H   0  0  0  0  0  0  0  0  0  0  0  0
    1.0495   -3.9992    8.5740 H   0  0  0  0  0  0  0  0  0  0  0  0
    1.5398   -5.4415    6.9364 H   0  0  0  0  0  0  0  0  0  0  0  0
    0.7666   -4.3936    5.8052 H   0  0  0  0  0  0  0  0  0  0  0  0
    3.7114   -5.0424    5.5827 H   0  0  0  0  0  0  0  0  0  0  0  0
    1.4048   -6.8081    4.7524 H   0  0  0  0  0  0  0  0  0  0  0  0
    2.7083   -7.1468    5.8891 H   0  0  0  0  0  0  0  0  0  0  0  0
    3.0512   -7.0373    4.1669 H   0  0  0  0  0  0  0  0  0  0  0  0
    1.4450   -4.0458    2.1072 H   0  0  0  0  0  0  0  0  0  0  0  0
    0.5874   -4.7100    3.4789 H   0  0  0  0  0  0  0  0  0  0  0  0
    1.6723   -5.7240    2.5199 H   0  0  0  0  0  0  0  0  0  0  0  0
    2.5343   -2.3367    2.9249 H   0  0  0  0  0  0  0  0  0  0  0  0
    5.8411   -5.1340    4.2537 H   0  0  0  0  0  0  0  0  0  0  0  0
    4.8672   -6.3186    3.3345 H   0  0  0  0  0  0  0  0  0  0  0  0
    7.1519   -4.8024    2.3413 H   0  0  0  0  0  0  0  0  0  0  0  0
    6.2365   -6.1074    1.5623 H   0  0  0  0  0  0  0  0  0  0  0  0
    6.2430   -2.3447    2.3010 H   0  0  0  0  0  0  0  0  0  0  0  0
    7.1416   -2.8044    0.8523 H   0  0  0  0  0  0  0  0  0  0  0  0
    4.3713   -1.5119    0.8912 H   0  0  0  0  0  0  0  0  0  0  0  0
    5.8556   -0.6922    0.5625 H   0  0  0  0  0  0  0  0  0  0  0  0
    3.4454   -0.8754   -1.5144 H   0  0  0  0  0  0  0  0  0  0  0  0
    4.5109   -1.1932   -2.8997 H   0  0  0  0  0  0  0  0  0  0  0  0
    4.9503    0.0119   -1.6813 H   0  0  0  0  0  0  0  0  0  0  0  0
    6.5069   -2.6829   -2.3117 H   0  0  0  0  0  0  0  0  0  0  0  0
    2.8425   -3.0895    0.2247 H   0  0  0  0  0  0  0  0  0  0  0  0
    2.5730   -4.4143   -0.9012 H   0  0  0  0  0  0  0  0  0  0  0  0
    2.4617   -2.7249   -1.4370 H   0  0  0  0  0  0  0  0  0  0  0  0
    4.0575   -4.6430   -2.6037 H   0  0  0  0  0  0  0  0  0  0  0  0
    6.3073   -4.6534   -0.6895 H   0  0  0  0  0  0  0  0  0  0  0  0
    4.8222   -5.5065   -0.3902 H   0  0  0  0  0  0  0  0  0  0  0  0
    0.3488   -2.3957    3.9352 H   0  0  0  0  0  0  0  0  0  0  0  0
    0.1311   -2.3647    5.6732 H   0  0  0  0  0  0  0  0  0  0  0  0
    0.0716   -0.0227    5.7788 H   0  0  0  0  0  0  0  0  0  0  0  0
   -0.6762    0.9235    1.6139 H   0  0  0  0  0  0  0  0  0  0  0  0
   -0.8772    2.6319    2.0847 H   0  0  0  0  0  0  0  0  0  0  0  0
   -2.2332    1.5376    2.2076 H   0  0  0  0  0  0  0  0  0  0  0  0
   -1.2056    2.1322    5.7609 H   0  0  0  0  0  0  0  0  0  0  0  0
   -2.5626    2.1842    4.5987 H   0  0  0  0  0  0  0  0  0  0  0  0
   -1.2151    3.3141    4.4311 H   0  0  0  0  0  0  0  0  0  0  0  0
    1.1139   -0.2203    2.8962 H   0  0  0  0  0  0  0  0  0  0  0  0
    1.9492    0.6378    6.6314 H   0  0  0  0  0  0  0  0  0  0  0  0
    2.6754    1.8064    5.5268 H   0  0  0  0  0  0  0  0  0  0  0  0
    3.6686    0.6035    6.2975 H   0  0  0  0  0  0  0  0  0  0  0  0
    3.5294    0.9039    3.4757 H   0  0  0  0  0  0  0  0  0  0  0  0
  1  2  1  0
  1 43  1  0
  1 44  1  0
  1 45  1  0
  2 41  1  0
  2  3  2  0
  3  4  1  0
  3 46  1  0
  4 29  1  0
  4  5  1  0
  4 47  1  1
  5  6  1  1
  5  7  1  0
  5 41  1  0
  6 48  1  0
  7  8  1  0
  7 49  1  0
  7 50  1  0
  8  9  1  0
  8 10  1  0
  8 51  1  1
  9 52  1  0
  9 53  1  0
  9 54  1  0
 10 15  1  0
 10 11  1  6
 10 12  1  0
 11 55  1  0
 11 56  1  0
 11 57  1  0
 12 13  1  0
 12 29  1  0
 12 58  1  6
 13 14  2  0
 13 15  1  0
 15 28  1  6
 15 16  1  0
 16 17  1  0
 16 59  1  0
 16 60  1  0
 17 18  1  0
 17 61  1  0
 17 62  1  0
 18 27  1  0
 18 19  1  0
 18 28  1  1
 19 20  1  0
 19 63  1  0
 19 64  1  0
 20 21  1  0
 20 65  1  0
 20 66  1  0
 21 22  1  0
 21 23  1  6
 21 24  1  0
 22 67  1  0
 22 68  1  0
 22 69  1  0
 23 70  1  0
 24 25  1  0
 24 26  1  6
 24 27  1  0
 25 71  1  0
 25 72  1  0
 25 73  1  0
 26 74  1  0
 27 75  1  0
 27 76  1  0
 29 38  1  0
 29 30  1  1
 30 31  1  0
 30 77  1  0
 30 78  1  0
 31 37  1  0
 31 32  1  0
 31 79  1  1
 32 33  1  0
 33 34  1  0
 33 35  1  0
 33 36  1  0
 34 80  1  0
 34 81  1  0
 34 82  1  0
 35 83  1  0
 35 84  1  0
 35 85  1  0
 36 37  1  0
 37 38  1  0
 37 86  1  6
 38 39  1  0
 38 40  1  6
 39 87  1  0
 39 88  1  0
 39 89  1  0
 40 90  1  0
 41 42  2  0
M  END
>  <i_m_ct_stereo_status>  (176) 
1

>  <s_m_source_file>  (176) 
/var/tmp/pbs.5083856.sched01/tmpvbvzlgyy/70fwvses89.sdf

>  <i_m_source_file_index>  (176) 
3

>  <i_lp_mmshare_version>  (176) 
48012

>  <i_f3d_flags>  (176) 
0

>  <s_epik_input>  (176) 
TzFDKFtDSDNdKShbQ0gzXSlPW0NAQEhdKFtDQF0yKFtDSDNdKVtPSF0pW0NAQEhdMVtDSDJdW0NAQF0yKFtDQEhdM1tDQEBdKFtPSF0pKFtDSDJdW0NASF00W0NIM10pQyg9TylDKFtDSDNdKT1bQ0hdMylbQ0BASF0oQzU9TylbQ0BAXTQoW0NIM10pW0NAXTU2W0NIMl1bQ0gyXVtDQEBdNyhPNilbQ0gyXVtDSDJdW0NAQF0oW0NIM10pKFtPSF0pW0NAQF0oW0NIM10pKFtPSF0pW0NIMl03

>  <s_epik_cmdline>  (176) 
J2VwaWtfcHl0aG9uJywgJy1waHQnLCAnMi4wJywgJy1waCcsICc3LjAnLCAnLXRuJywgJzgnLCAnLW1hJywgJzIwMCcsICctaW1hZScsICc8aW5maWxlLm1hZT4nLCAnLW9tYWUnLCAnPG91dGZpbGUubWFlPic=

>  <r_lp_tautomer_probability>  (176) 
1

>  <r_epik_Ionization_Penalty>  (176) 
9.78523e-07

>  <r_epik_Ionization_Penalty_Charging>  (176) 
0

>  <r_epik_Ionization_Penalty_Neutral>  (176) 
9.78523e-07

>  <r_epik_State_Penalty>  (176) 
0

>  <r_epik_Charging_Adjusted_Penalty>  (176) 
0

>  <i_epik_Tot_Q>  (176) 
0

>  <i_epik_Tot_abs_Q>  (176) 
0

>  <s_lp_Force_Field>  (176) 
OPLS3e

>  <r_lp_Energy>  (176) 
58.8623

>  <b_lp_Chiralities_Consistent>  (176) 
1

>  <s_lp_Variant>  (176) 
52:0-1

>  <s_i_glide_gridfile>  (176) 
pfpi4k_grid

>  <i_i_glide_lignum>  (176) 
3

>  <i_i_glide_rotatable_bonds>  (176) 
4

>  <r_i_docking_score>  (176) 
-2.85041

>  <r_i_glide_ligand_efficiency>  (176) 
-0.0678668

>  <r_i_glide_ligand_efficiency_sa>  (176) 
-0.235907

>  <r_i_glide_ligand_efficiency_ln>  (176) 
-0.601647

>  <r_i_glide_gscore>  (176) 
-2.85041

>  <r_i_glide_lipo>  (176) 
-0.383121

>  <r_i_glide_hbond>  (176) 
0

>  <r_i_glide_metal>  (176) 
-0

>  <r_i_glide_rewards>  (176) 
-0.0163524

>  <r_i_glide_evdw>  (176) 
-22.9452

>  <r_i_glide_ecoul>  (176) 
-8.5165

>  <r_i_glide_erotb>  (176) 
0

>  <r_i_glide_esite>  (176) 
-0.0261996

>  <r_i_glide_emodel>  (176) 
-33.124

>  <r_i_glide_energy>  (176) 
-31.4617

>  <r_i_glide_einternal>  (176) 
2.1514

>  <r_i_glide_intrahb_reward>  (176) 
-0

>  <i_i_glide_confnum>  (176) 
4

>  <i_i_glide_posenum>  (176) 
1

>  <r_i_glide_eff_state_penalty>  (176) 
0

>  <ligand_id>  (176) 
52

>  <original_smiles>  (176) 
CC1=CC2C(O)(CC(C)C3(C)C(C(=O)C34CCC3(CCC(C)(O)C(C)(O)C3)O4)C23CC2OC(C)(C)OC2C3(C)O)C1=O

>  <smiles>  (176) 
[H]OC12C(=O)C(C([H])([H])[H])=C([H])C1([H])C1(C([H])([H])C3([H])OC(C([H])([H])[H])(C([H])([H])[H])OC3([H])C1(O[H])C([H])([H])[H])C1([H])C(=O)C3(OC4(C([H])([H])C3([H])[H])C([H])([H])C([H])([H])C(O[H])(C([H])([H])[H])C(O[H])(C([H])([H])[H])C4([H])[H])C1(C([H])([H])[H])C([H])(C([H])([H])[H])C2([H])[H]

$$$$
52:0:2
     RDKit          3D

 90 96  0  0  1  0  0  0  0  0999 V2000
    5.9556   -3.1492    8.2623 C   0  0  0  0  0  0  0  0  0  0  0  0
    4.5508   -2.9402    7.7305 C   0  0  0  0  0  0  0  0  0  0  0  0
    4.1044   -1.9865    6.9038 C   0  0  0  0  0  0  0  0  0  0  0  0
    2.6200   -2.0719    6.5590 C   0  0  2  0  0  0  0  0  0  0  0  0
    2.2014   -3.4343    7.2281 C   0  0  1  0  0  0  0  0  0  0  0  0
    1.1372   -3.1910    8.1168 O   0  0  0  0  0  0  0  0  0  0  0  0
    1.7044   -4.5869    6.3312 C   0  0  0  0  0  0  0  0  0  0  0  0
    2.6713   -5.1054    5.2561 C   0  0  1  0  0  0  0  0  0  0  0  0
    2.4042   -6.6086    5.0592 C   0  0  0  0  0  0  0  0  0  0  0  0
    2.6830   -4.2854    3.9222 C   0  0  1  0  0  0  0  0  0  0  0  0
    1.5156   -4.7245    3.0319 C   0  0  0  0  0  0  0  0  0  0  0  0
    2.8249   -2.7212    3.9877 C   0  0  2  0  0  0  0  0  0  0  0  0
    4.3559   -2.9514    3.9479 C   0  0  0  0  0  0  0  0  0  0  0  0
    5.3474   -2.4056    4.3915 O   0  0  0  0  0  0  0  0  0  0  0  0
    4.0909   -4.2944    3.2043 C   0  0  1  0  0  0  0  0  0  0  0  0
    5.2332   -5.3195    3.4044 C   0  0  0  0  0  0  0  0  0  0  0  0
    6.0948   -5.1846    2.1886 C   0  0  0  0  0  0  0  0  0  0  0  0
    5.4082   -4.1254    1.2826 C   0  0  1  0  0  0  0  0  0  0  0  0
    6.1456   -2.7506    1.3832 C   0  0  0  0  0  0  0  0  0  0  0  0
    5.3867   -1.7049    0.5513 C   0  0  0  0  0  0  0  0  0  0  0  0
    5.2536   -2.1058   -0.9390 C   0  0  1  0  0  0  0  0  0  0  0  0
    4.5296   -1.0076   -1.7506 C   0  0  0  0  0  0  0  0  0  0  0  0
    6.5946   -2.1561   -1.4254 O   0  0  0  0  0  0  0  0  0  0  0  0
    4.5493   -3.4997   -1.0612 C   0  0  1  0  0  0  0  0  0  0  0  0
    3.0194   -3.4397   -0.7179 C   0  0  0  0  0  0  0  0  0  0  0  0
    4.6162   -3.9094   -2.4214 O   0  0  0  0  0  0  0  0  0  0  0  0
    5.2882   -4.5672   -0.1978 C   0  0  0  0  0  0  0  0  0  0  0  0
    4.0784   -4.0505    1.8298 O   0  0  0  0  0  0  0  0  0  0  0  0
    2.1974   -1.7392    5.0570 C   0  0  1  0  0  0  0  0  0  0  0  0
    0.6217   -1.8487    4.9178 C   0  0  0  0  0  0  0  0  0  0  0  0
    0.1104   -0.3943    4.8138 C   0  0  2  0  0  0  0  0  0  0  0  0
   -1.0345    0.0135    4.1513 O   0  0  0  0  0  0  0  0  0  0  0  0
   -0.7079    1.3339    3.8213 C   0  0  0  0  0  0  0  0  0  0  0  0
   -1.1040    1.6426    2.3554 C   0  0  0  0  0  0  0  0  0  0  0  0
   -1.4311    2.3488    4.7573 C   0  0  0  0  0  0  0  0  0  0  0  0
    0.6897    1.5485    3.9614 O   0  0  0  0  0  0  0  0  0  0  0  0
    1.1845    0.2179    3.9629 C   0  0  1  0  0  0  0  0  0  0  0  0
    2.4594   -0.1948    4.7023 C   0  0  1  0  0  0  0  0  0  0  0  0
    2.7212    0.7724    5.8982 C   0  0  0  0  0  0  0  0  0  0  0  0
    3.5472    0.0124    3.8086 O   0  0  0  0  0  0  0  0  0  0  0  0
    3.4421   -3.8080    8.0565 C   0  0  0  0  0  0  0  0  0  0  0  0
    3.4432   -4.7325    8.8927 O   0  0  0  0  0  0  0  0  0  0  0  0
    6.3700   -4.0819    7.8707 H   0  0  0  0  0  0  0  0  0  0  0  0
    5.9208   -3.2219    9.3537 H   0  0  0  0  0  0  0  0  0  0  0  0
    6.6317   -2.3320    7.9944 H   0  0  0  0  0  0  0  0  0  0  0  0
    4.7559   -1.2315    6.4917 H   0  0  0  0  0  0  0  0  0  0  0  0
    2.1753   -1.3182    7.1885 H   0  0  0  0  0  0  0  0  0  0  0  0
    1.0080   -3.9662    8.6420 H   0  0  0  0  0  0  0  0  0  0  0  0
    1.4955   -5.4203    7.0172 H   0  0  0  0  0  0  0  0  0  0  0  0
    0.7369   -4.3672    5.8791 H   0  0  0  0  0  0  0  0  0  0  0  0
    3.6752   -5.0508    5.6702 H   0  0  0  0  0  0  0  0  0  0  0  0
    1.3518   -6.7926    4.8379 H   0  0  0  0  0  0  0  0  0  0  0  0
    2.6481   -7.1412    5.9807 H   0  0  0  0  0  0  0  0  0  0  0  0
    2.9984   -7.0422    4.2586 H   0  0  0  0  0  0  0  0  0  0  0  0
    1.4340   -4.0404    2.1852 H   0  0  0  0  0  0  0  0  0  0  0  0
    0.5610   -4.6925    3.5566 H   0  0  0  0  0  0  0  0  0  0  0  0
    1.6383   -5.7207    2.6016 H   0  0  0  0  0  0  0  0  0  0  0  0
    2.5349   -2.3509    2.9970 H   0  0  0  0  0  0  0  0  0  0  0  0
    5.8138   -5.1740    4.3499 H   0  0  0  0  0  0  0  0  0  0  0  0
    4.8267   -6.3510    3.4306 H   0  0  0  0  0  0  0  0  0  0  0  0
    7.1302   -4.8633    2.4447 H   0  0  0  0  0  0  0  0  0  0  0  0
    6.2011   -6.1604    1.6646 H   0  0  0  0  0  0  0  0  0  0  0  0
    6.2457   -2.3924    2.3870 H   0  0  0  0  0  0  0  0  0  0  0  0
    7.1503   -2.8705    0.9454 H   0  0  0  0  0  0  0  0  0  0  0  0
    4.3912   -1.5487    0.9605 H   0  0  0  0  0  0  0  0  0  0  0  0
    5.8836   -0.7452    0.6392 H   0  0  0  0  0  0  0  0  0  0  0  0
    3.4840   -0.9061   -1.4439 H   0  0  0  0  0  0  0  0  0  0  0  0
    4.5519   -1.2397   -2.8247 H   0  0  0  0  0  0  0  0  0  0  0  0
    5.0044   -0.0393   -1.6086 H   0  0  0  0  0  0  0  0  0  0  0  0
    6.9915   -2.9362   -1.0857 H   0  0  0  0  0  0  0  0  0  0  0  0
    2.8444   -3.1061    0.3009 H   0  0  0  0  0  0  0  0  0  0  0  0
    2.5675   -4.4352   -0.8179 H   0  0  0  0  0  0  0  0  0  0  0  0
    2.4751   -2.7503   -1.3686 H   0  0  0  0  0  0  0  0  0  0  0  0
    4.0893   -4.6962   -2.5076 H   0  0  0  0  0  0  0  0  0  0  0  0
    6.2921   -4.7311   -0.5940 H   0  0  0  0  0  0  0  0  0  0  0  0
    4.7961   -5.5495   -0.2963 H   0  0  0  0  0  0  0  0  0  0  0  0
    0.3463   -2.3715    4.0004 H   0  0  0  0  0  0  0  0  0  0  0  0
    0.1227   -2.3302    5.7378 H   0  0  0  0  0  0  0  0  0  0  0  0
    0.0905    0.0141    5.8336 H   0  0  0  0  0  0  0  0  0  0  0  0
   -0.6338    0.9414    1.6618 H   0  0  0  0  0  0  0  0  0  0  0  0
   -0.8181    2.6562    2.1065 H   0  0  0  0  0  0  0  0  0  0  0  0
   -2.1846    1.5718    2.2524 H   0  0  0  0  0  0  0  0  0  0  0  0
   -1.1598    2.1798    5.8025 H   0  0  0  0  0  0  0  0  0  0  0  0
   -2.5121    2.2429    4.6372 H   0  0  0  0  0  0  0  0  0  0  0  0
   -1.1516    3.3582    4.4690 H   0  0  0  0  0  0  0  0  0  0  0  0
    1.1388   -0.2072    2.9547 H   0  0  0  0  0  0  0  0  0  0  0  0
    1.9733    0.6564    6.6916 H   0  0  0  0  0  0  0  0  0  0  0  0
    2.7191    1.8053    5.5748 H   0  0  0  0  0  0  0  0  0  0  0  0
    3.6936    0.6009    6.3589 H   0  0  0  0  0  0  0  0  0  0  0  0
    3.4219   -0.5106    3.0406 H   0  0  0  0  0  0  0  0  0  0  0  0
  1  2  1  0
  1 43  1  0
  1 44  1  0
  1 45  1  0
  2 41  1  0
  2  3  2  0
  3  4  1  0
  3 46  1  0
  4 29  1  0
  4  5  1  0
  4 47  1  1
  5  6  1  1
  5  7  1  0
  5 41  1  0
  6 48  1  0
  7  8  1  0
  7 49  1  0
  7 50  1  0
  8  9  1  0
  8 10  1  0
  8 51  1  1
  9 52  1  0
  9 53  1  0
  9 54  1  0
 10 15  1  0
 10 11  1  6
 10 12  1  0
 11 55  1  0
 11 56  1  0
 11 57  1  0
 12 13  1  0
 12 29  1  0
 12 58  1  6
 13 14  2  0
 13 15  1  0
 15 28  1  6
 15 16  1  0
 16 17  1  0
 16 59  1  0
 16 60  1  0
 17 18  1  0
 17 61  1  0
 17 62  1  0
 18 27  1  0
 18 19  1  0
 18 28  1  1
 19 20  1  0
 19 63  1  0
 19 64  1  0
 20 21  1  0
 20 65  1  0
 20 66  1  0
 21 22  1  0
 21 23  1  6
 21 24  1  0
 22 67  1  0
 22 68  1  0
 22 69  1  0
 23 70  1  0
 24 25  1  0
 24 26  1  6
 24 27  1  0
 25 71  1  0
 25 72  1  0
 25 73  1  0
 26 74  1  0
 27 75  1  0
 27 76  1  0
 29 38  1  0
 29 30  1  1
 30 31  1  0
 30 77  1  0
 30 78  1  0
 31 37  1  0
 31 32  1  0
 31 79  1  1
 32 33  1  0
 33 34  1  0
 33 35  1  0
 33 36  1  0
 34 80  1  0
 34 81  1  0
 34 82  1  0
 35 83  1  0
 35 84  1  0
 35 85  1  0
 36 37  1  0
 37 38  1  0
 37 86  1  6
 38 39  1  0
 38 40  1  6
 39 87  1  0
 39 88  1  0
 39 89  1  0
 40 90  1  0
 41 42  2  0
M  END
>  <i_m_ct_stereo_status>  (177) 
1

>  <s_m_source_file>  (177) 
/var/tmp/pbs.5083856.sched01/tmpvbvzlgyy/70fwvses89.sdf

>  <i_m_source_file_index>  (177) 
3

>  <i_lp_mmshare_version>  (177) 
48012

>  <i_f3d_flags>  (177) 
0

>  <s_epik_input>  (177) 
TzFDKFtDSDNdKShbQ0gzXSlPW0NAQEhdKFtDQF0yKFtDSDNdKVtPSF0pW0NAQEhdMVtDSDJdW0NAQF0yKFtDQEhdM1tDQEBdKFtPSF0pKFtDSDJdW0NASF00W0NIM10pQyg9TylDKFtDSDNdKT1bQ0hdMylbQ0BASF0oQzU9TylbQ0BAXTQoW0NIM10pW0NAXTU2W0NIMl1bQ0gyXVtDQEBdNyhPNilbQ0gyXVtDSDJdW0NAQF0oW0NIM10pKFtPSF0pW0NAQF0oW0NIM10pKFtPSF0pW0NIMl03

>  <s_epik_cmdline>  (177) 
J2VwaWtfcHl0aG9uJywgJy1waHQnLCAnMi4wJywgJy1waCcsICc3LjAnLCAnLXRuJywgJzgnLCAnLW1hJywgJzIwMCcsICctaW1hZScsICc8aW5maWxlLm1hZT4nLCAnLW9tYWUnLCAnPG91dGZpbGUubWFlPic=

>  <r_lp_tautomer_probability>  (177) 
1

>  <r_epik_Ionization_Penalty>  (177) 
9.78523e-07

>  <r_epik_Ionization_Penalty_Charging>  (177) 
0

>  <r_epik_Ionization_Penalty_Neutral>  (177) 
9.78523e-07

>  <r_epik_State_Penalty>  (177) 
0

>  <r_epik_Charging_Adjusted_Penalty>  (177) 
0

>  <i_epik_Tot_Q>  (177) 
0

>  <i_epik_Tot_abs_Q>  (177) 
0

>  <s_lp_Force_Field>  (177) 
OPLS3e

>  <r_lp_Energy>  (177) 
58.8623

>  <b_lp_Chiralities_Consistent>  (177) 
1

>  <s_lp_Variant>  (177) 
52:0-1

>  <s_i_glide_gridfile>  (177) 
pfpi4k_grid

>  <i_i_glide_lignum>  (177) 
3

>  <i_i_glide_rotatable_bonds>  (177) 
4

>  <r_i_docking_score>  (177) 
-2.74934

>  <r_i_glide_ligand_efficiency>  (177) 
-0.0654604

>  <r_i_glide_ligand_efficiency_sa>  (177) 
-0.227542

>  <r_i_glide_ligand_efficiency_ln>  (177) 
-0.580314

>  <r_i_glide_gscore>  (177) 
-2.74934

>  <r_i_glide_lipo>  (177) 
-0.369119

>  <r_i_glide_hbond>  (177) 
0

>  <r_i_glide_metal>  (177) 
-0

>  <r_i_glide_rewards>  (177) 
-0.0156024

>  <r_i_glide_evdw>  (177) 
-22.9711

>  <r_i_glide_ecoul>  (177) 
-7.93765

>  <r_i_glide_erotb>  (177) 
0

>  <r_i_glide_esite>  (177) 
-0.0254142

>  <r_i_glide_emodel>  (177) 
-33.333

>  <r_i_glide_energy>  (177) 
-30.9087

>  <r_i_glide_einternal>  (177) 
1.84547

>  <r_i_glide_intrahb_reward>  (177) 
-0

>  <i_i_glide_confnum>  (177) 
4

>  <i_i_glide_posenum>  (177) 
10

>  <r_i_glide_eff_state_penalty>  (177) 
0

>  <ligand_id>  (177) 
52

>  <original_smiles>  (177) 
CC1=CC2C(O)(CC(C)C3(C)C(C(=O)C34CCC3(CCC(C)(O)C(C)(O)C3)O4)C23CC2OC(C)(C)OC2C3(C)O)C1=O

>  <smiles>  (177) 
[H]OC12C(=O)C(C([H])([H])[H])=C([H])C1([H])C1(C([H])([H])C3([H])OC(C([H])([H])[H])(C([H])([H])[H])OC3([H])C1(O[H])C([H])([H])[H])C1([H])C(=O)C3(OC4(C([H])([H])C3([H])[H])C([H])([H])C([H])([H])C(O[H])(C([H])([H])[H])C(O[H])(C([H])([H])[H])C4([H])[H])C1(C([H])([H])[H])C([H])(C([H])([H])[H])C2([H])[H]

$$$$
53:0:0
     RDKit          3D

 80 86  0  0  1  0  0  0  0  0999 V2000
    4.6018   -7.1794    1.6409 C   0  0  0  0  0  0  0  0  0  0  0  0
    5.1576   -6.0034    2.2189 O   0  0  0  0  0  0  0  0  0  0  0  0
    4.5334   -4.7512    1.9529 C   0  0  1  0  0  0  0  0  0  0  0  0
    5.4359   -3.8163    1.1167 C   0  0  1  0  0  0  0  0  0  0  0  0
    6.7378   -4.2710    0.4834 C   0  0  0  0  0  0  0  0  0  0  0  0
    4.1704   -4.3702    0.5185 C   0  0  2  0  0  0  0  0  0  0  0  0
    2.9401   -3.4818    0.5092 C   0  0  0  0  0  0  0  0  0  0  0  0
    2.3601   -3.5273    1.9411 C   0  0  2  0  0  0  0  0  0  0  0  0
    2.2493   -2.3222    2.9078 C   0  0  2  0  0  0  0  0  0  0  0  0
    1.0774   -2.5338    3.8341 C   0  0  0  0  0  0  0  0  0  0  0  0
    1.1952   -2.7378    5.1700 C   0  0  0  0  0  0  0  0  0  0  0  0
   -0.0051   -2.9575    5.9087 C   0  0  0  0  0  0  0  0  0  0  0  0
   -0.9603   -3.1232    6.5166 N   0  0  0  0  0  0  0  0  0  0  0  0
    2.5294   -2.6944    5.9324 C   0  0  0  0  0  0  0  0  0  0  0  0
    2.3773   -1.7464    7.1502 C   0  0  0  0  0  0  0  0  0  0  0  0
    2.8715   -4.0842    6.5418 C   0  0  0  0  0  0  0  0  0  0  0  0
    3.6805   -2.2453    4.9557 C   0  0  2  0  0  0  0  0  0  0  0  0
    3.8045   -0.6800    4.7276 C   0  0  0  0  0  0  0  0  0  0  0  0
    3.3414   -0.0578    3.3735 C   0  0  1  0  0  0  0  0  0  0  0  0
    2.4169   -0.8802    2.4207 C   0  0  2  0  0  0  0  0  0  0  0  0
    1.9474    0.4362    3.0506 C   0  0  0  0  0  0  0  0  0  0  0  0
    0.8803    0.5514    4.1193 C   0  0  0  0  0  0  0  0  0  0  0  0
    1.8288    1.6045    2.0919 C   0  0  0  0  0  0  0  0  0  0  0  0
    3.5558   -2.8139    3.5203 C   0  0  1  0  0  0  0  0  0  0  0  0
    3.3819   -4.2258    2.8754 C   0  0  2  0  0  0  0  0  0  0  0  0
    2.7292   -5.4007    3.6515 C   0  0  0  0  0  0  0  0  0  0  0  0
    2.1128   -6.2935    2.7467 O   0  0  0  0  0  0  0  0  0  0  0  0
    1.3883   -7.3294    3.3492 C   0  0  2  0  0  0  0  0  0  0  0  0
    2.2938   -8.1453    4.0522 O   0  0  0  0  0  0  0  0  0  0  0  0
    1.7521   -9.2739    4.7316 C   0  0  1  0  0  0  0  0  0  0  0  0
    0.8567   -8.8131    5.8994 C   0  0  0  0  0  0  0  0  0  0  0  0
    1.0799  -10.1902    3.6922 C   0  0  1  0  0  0  0  0  0  0  0  0
    0.5350  -11.3529    4.2778 O   0  0  0  0  0  0  0  0  0  0  0  0
    0.0663   -9.4321    2.8283 C   0  0  1  0  0  0  0  0  0  0  0  0
   -1.0505   -9.0224    3.5983 O   0  0  0  0  0  0  0  0  0  0  0  0
    0.7366   -8.1697    2.2324 C   0  0  1  0  0  0  0  0  0  0  0  0
   -0.2143   -7.4197    1.5034 O   0  0  0  0  0  0  0  0  0  0  0  0
    5.2778   -8.0083    1.8699 H   0  0  0  0  0  0  0  0  0  0  0  0
    4.5609   -7.1180    0.5587 H   0  0  0  0  0  0  0  0  0  0  0  0
    3.6558   -7.4191    2.0266 H   0  0  0  0  0  0  0  0  0  0  0  0
    5.4455   -2.7316    1.2573 H   0  0  0  0  0  0  0  0  0  0  0  0
    6.7703   -5.3429    0.2706 H   0  0  0  0  0  0  0  0  0  0  0  0
    7.5795   -4.0171    1.1304 H   0  0  0  0  0  0  0  0  0  0  0  0
    6.8943   -3.7419   -0.4569 H   0  0  0  0  0  0  0  0  0  0  0  0
    4.2416   -5.0956   -0.2734 H   0  0  0  0  0  0  0  0  0  0  0  0
    3.2207   -2.4747    0.1480 H   0  0  0  0  0  0  0  0  0  0  0  0
    2.2336   -3.8899   -0.2266 H   0  0  0  0  0  0  0  0  0  0  0  0
    1.4309   -4.0675    1.9594 H   0  0  0  0  0  0  0  0  0  0  0  0
    0.1080   -2.5531    3.3525 H   0  0  0  0  0  0  0  0  0  0  0  0
    3.3491   -1.5355    7.5978 H   0  0  0  0  0  0  0  0  0  0  0  0
    1.7518   -2.1945    7.9232 H   0  0  0  0  0  0  0  0  0  0  0  0
    1.9072   -0.8061    6.8848 H   0  0  0  0  0  0  0  0  0  0  0  0
    3.1005   -4.0280    7.6086 H   0  0  0  0  0  0  0  0  0  0  0  0
    3.7454   -4.5363    6.0736 H   0  0  0  0  0  0  0  0  0  0  0  0
    2.0487   -4.7935    6.4732 H   0  0  0  0  0  0  0  0  0  0  0  0
    4.6209   -2.5669    5.3945 H   0  0  0  0  0  0  0  0  0  0  0  0
    3.3883   -0.0687    5.5182 H   0  0  0  0  0  0  0  0  0  0  0  0
    4.8865   -0.4619    4.7838 H   0  0  0  0  0  0  0  0  0  0  0  0
    4.1418    0.4590    2.8755 H   0  0  0  0  0  0  0  0  0  0  0  0
    2.6680   -0.7991    1.3819 H   0  0  0  0  0  0  0  0  0  0  0  0
   -0.0960    0.3689    3.6675 H   0  0  0  0  0  0  0  0  0  0  0  0
    0.8978    1.5617    4.5371 H   0  0  0  0  0  0  0  0  0  0  0  0
    1.0612   -0.1424    4.9168 H   0  0  0  0  0  0  0  0  0  0  0  0
    0.8655    1.5907    1.5838 H   0  0  0  0  0  0  0  0  0  0  0  0
    2.6018    1.5531    1.3339 H   0  0  0  0  0  0  0  0  0  0  0  0
    1.9308    2.5569    2.6156 H   0  0  0  0  0  0  0  0  0  0  0  0
    4.3805   -2.4068    2.9742 H   0  0  0  0  0  0  0  0  0  0  0  0
    3.4520   -5.9429    4.2245 H   0  0  0  0  0  0  0  0  0  0  0  0
    1.9809   -5.0430    4.3435 H   0  0  0  0  0  0  0  0  0  0  0  0
    0.6400   -6.9349    4.0511 H   0  0  0  0  0  0  0  0  0  0  0  0
    2.6017   -9.8260    5.1302 H   0  0  0  0  0  0  0  0  0  0  0  0
    0.3966   -9.6645    6.3955 H   0  0  0  0  0  0  0  0  0  0  0  0
    0.0337   -8.1700    5.5696 H   0  0  0  0  0  0  0  0  0  0  0  0
    1.4491   -8.2752    6.6562 H   0  0  0  0  0  0  0  0  0  0  0  0
    1.8588  -10.5942    3.0347 H   0  0  0  0  0  0  0  0  0  0  0  0
   -0.2480  -11.1296    4.7779 H   0  0  0  0  0  0  0  0  0  0  0  0
   -0.2619  -10.1115    2.0262 H   0  0  0  0  0  0  0  0  0  0  0  0
   -1.4273   -9.7757    4.0797 H   0  0  0  0  0  0  0  0  0  0  0  0
    1.5215   -8.4655    1.5459 H   0  0  0  0  0  0  0  0  0  0  0  0
   -0.6146   -8.0107    0.8664 H   0  0  0  0  0  0  0  0  0  0  0  0
  1  2  1  0
  1 38  1  0
  1 39  1  0
  1 40  1  0
  3  2  1  6
  3  6  1  0
  3 25  1  0
  3  4  1  0
  4  5  1  0
  4  6  1  0
  4 41  1  1
  5 42  1  0
  5 43  1  0
  5 44  1  0
  6  7  1  0
  6 45  1  6
  7  8  1  0
  7 46  1  0
  7 47  1  0
  8 25  1  0
  8  9  1  0
  8 48  1  6
  9 20  1  0
  9 24  1  0
  9 10  1  1
 10 11  2  0
 10 49  1  0
 11 12  1  0
 11 14  1  0
 12 13  3  0
 14 15  1  0
 14 16  1  0
 14 17  1  0
 15 50  1  0
 15 51  1  0
 15 52  1  0
 16 53  1  0
 16 54  1  0
 16 55  1  0
 17 18  1  0
 17 24  1  0
 17 56  1  1
 18 19  1  0
 18 57  1  0
 18 58  1  0
 19 21  1  0
 19 20  1  0
 19 59  1  6
 20 21  1  0
 20 60  1  6
 21 22  1  0
 21 23  1  0
 22 61  1  0
 22 62  1  0
 22 63  1  0
 23 64  1  0
 23 65  1  0
 23 66  1  0
 24 25  1  0
 24 67  1  6
 25 26  1  1
 26 27  1  0
 26 68  1  0
 26 69  1  0
 27 28  1  0
 28 36  1  0
 28 29  1  0
 28 70  1  1
 29 30  1  0
 30 31  1  0
 30 32  1  0
 30 71  1  1
 31 72  1  0
 31 73  1  0
 31 74  1  0
 32 33  1  0
 32 34  1  0
 32 75  1  6
 33 76  1  0
 34 35  1  0
 34 36  1  0
 34 77  1  6
 35 78  1  0
 36 37  1  0
 36 79  1  6
 37 80  1  0
M  END
>  <i_m_ct_stereo_status>  (178) 
1

>  <s_m_source_file>  (178) 
/var/tmp/pbs.5083856.sched01/tmpvbvzlgyy/70fwvses89.sdf

>  <i_m_source_file_index>  (178) 
4

>  <i_lp_mmshare_version>  (178) 
48012

>  <i_f3d_flags>  (178) 
2

>  <s_epik_input>  (178) 
W0NIM11DMShbQ0gzXSlbQ0BIXTJbQ0BIXTFbQ0gyXVtDQEBIXShDKFtDSDNdKShbQ0gzXSlDKD1bQ0hdMylDI04pW0NASF00W0NAXShbQ0BIXTVbQ0BAXTIzNCkoW0NAQF02KE9bQ0gzXSlbQ0BASF0oW0NIMl01KVtDQEBIXTZbQ0gzXSlbQ0gyXU9bQ0BASF03T1tDQEBIXShbQ0gzXSlbQ0BASF0oW09IXSlbQ0BASF0oW09IXSlbQ0BIXTdbT0hd

>  <s_epik_cmdline>  (178) 
J2VwaWtfcHl0aG9uJywgJy1waHQnLCAnMi4wJywgJy1waCcsICc3LjAnLCAnLXRuJywgJzgnLCAnLW1hJywgJzIwMCcsICctaW1hZScsICc8aW5maWxlLm1hZT4nLCAnLW9tYWUnLCAnPG91dGZpbGUubWFlPic=

>  <r_lp_tautomer_probability>  (178) 
1

>  <r_epik_Ionization_Penalty>  (178) 
1.64548e-06

>  <r_epik_Ionization_Penalty_Charging>  (178) 
0

>  <r_epik_Ionization_Penalty_Neutral>  (178) 
1.64548e-06

>  <r_epik_State_Penalty>  (178) 
0

>  <r_epik_Charging_Adjusted_Penalty>  (178) 
0

>  <i_epik_Tot_Q>  (178) 
0

>  <i_epik_Tot_abs_Q>  (178) 
0

>  <s_epik_Chemistry_Notes>  (178) 
This compound contains an acetal/aminal-like group ( X-CH(R)-Y where X, Y are N, S, or O) that may be acid/base labile, releasing an aldehyde.

>  <s_lp_Force_Field>  (178) 
OPLS3e

>  <r_lp_Energy>  (178) 
95.7149

>  <b_lp_Chiralities_Consistent>  (178) 
0

>  <s_lp_Variant>  (178) 
53:0-1

>  <s_i_glide_gridfile>  (178) 
pfpi4k_grid

>  <i_i_glide_lignum>  (178) 
4

>  <i_i_glide_rotatable_bonds>  (178) 
8

>  <r_i_docking_score>  (178) 
-3.12143

>  <r_i_glide_ligand_efficiency>  (178) 
-0.0843628

>  <r_i_glide_ligand_efficiency_sa>  (178) 
-0.281116

>  <r_i_glide_ligand_efficiency_ln>  (178) 
-0.676964

>  <r_i_glide_gscore>  (178) 
-3.12143

>  <r_i_glide_lipo>  (178) 
-0.365642

>  <r_i_glide_hbond>  (178) 
0

>  <r_i_glide_metal>  (178) 
-0

>  <r_i_glide_rewards>  (178) 
0

>  <r_i_glide_evdw>  (178) 
-25.0936

>  <r_i_glide_ecoul>  (178) 
-11.3718

>  <r_i_glide_erotb>  (178) 
0.233171

>  <r_i_glide_esite>  (178) 
-0.0284983

>  <r_i_glide_emodel>  (178) 
-40.5152

>  <r_i_glide_energy>  (178) 
-36.4655

>  <r_i_glide_einternal>  (178) 
4.6455

>  <r_i_glide_intrahb_reward>  (178) 
-0

>  <i_i_glide_confnum>  (178) 
4

>  <i_i_glide_posenum>  (178) 
38

>  <r_i_glide_eff_state_penalty>  (178) 
0

>  <ligand_id>  (178) 
53

>  <original_smiles>  (178) 
COC12C(C)C1CC1C34C=C(C#N)C(C)(C)C(CC5C3C5(C)C)C4C12COC1OC(C)C(O)C(O)C1O

>  <smiles>  (178) 
[H]OC1([H])C([H])(OC([H])([H])C23C([H])(C([H])([H])C4([H])C([H])(C([H])([H])[H])C42OC([H])([H])[H])C24C([H])=C(C#N)C(C([H])([H])[H])(C([H])([H])[H])C([H])(C([H])([H])C5([H])C2([H])C5(C([H])([H])[H])C([H])([H])[H])C43[H])OC([H])(C([H])([H])[H])C([H])(O[H])C1([H])O[H]

$$$$
53:0:1
     RDKit          3D

 80 86  0  0  1  0  0  0  0  0999 V2000
    4.7136   -7.1207    1.5949 C   0  0  0  0  0  0  0  0  0  0  0  0
    5.2554   -5.9442    2.1837 O   0  0  0  0  0  0  0  0  0  0  0  0
    4.5589   -4.7108    1.9348 C   0  0  1  0  0  0  0  0  0  0  0  0
    5.4312   -3.7651    1.0654 C   0  0  1  0  0  0  0  0  0  0  0  0
    6.7311   -4.1821    0.4216 C   0  0  0  0  0  0  0  0  0  0  0  0
    4.1662   -4.3526    0.5128 C   0  0  2  0  0  0  0  0  0  0  0  0
    2.9091   -3.5076    0.5229 C   0  0  0  0  0  0  0  0  0  0  0  0
    2.3640   -3.5771    1.9577 C   0  0  2  0  0  0  0  0  0  0  0  0
    2.2385   -2.3706    2.9276 C   0  0  2  0  0  0  0  0  0  0  0  0
    1.0823   -2.6084    3.8928 C   0  0  0  0  0  0  0  0  0  0  0  0
    1.2310   -2.8259    5.2319 C   0  0  0  0  0  0  0  0  0  0  0  0
    0.0573   -3.0759    5.9905 C   0  0  0  0  0  0  0  0  0  0  0  0
   -0.8902   -3.2717    6.6296 N   0  0  0  0  0  0  0  0  0  0  0  0
    2.5789   -2.7327    5.9559 C   0  0  0  0  0  0  0  0  0  0  0  0
    2.4243   -1.7873    7.1812 C   0  0  0  0  0  0  0  0  0  0  0  0
    2.9755   -4.1115    6.5740 C   0  0  0  0  0  0  0  0  0  0  0  0
    3.6989   -2.2500    4.9551 C   0  0  2  0  0  0  0  0  0  0  0  0
    3.7678   -0.6782    4.7301 C   0  0  0  0  0  0  0  0  0  0  0  0
    3.2597   -0.0866    3.3799 C   0  0  1  0  0  0  0  0  0  0  0  0
    2.3492   -0.9208    2.4606 C   0  0  2  0  0  0  0  0  0  0  0  0
    1.8500    0.3827    3.0854 C   0  0  0  0  0  0  0  0  0  0  0  0
    0.8012    0.4659    4.1755 C   0  0  0  0  0  0  0  0  0  0  0  0
    1.6779    1.5492    2.1290 C   0  0  0  0  0  0  0  0  0  0  0  0
    3.5599   -2.8254    3.5345 C   0  0  1  0  0  0  0  0  0  0  0  0
    3.4091   -4.2521    2.8852 C   0  0  2  0  0  0  0  0  0  0  0  0
    2.8179   -5.4400    3.6654 C   0  0  0  0  0  0  0  0  0  0  0  0
    2.0483   -6.2745    2.8141 O   0  0  0  0  0  0  0  0  0  0  0  0
    1.5067   -7.3896    3.4341 C   0  0  2  0  0  0  0  0  0  0  0  0
    2.5025   -8.3463    3.6350 O   0  0  0  0  0  0  0  0  0  0  0  0
    2.1091   -9.5621    4.2505 C   0  0  1  0  0  0  0  0  0  0  0  0
    1.7181   -9.3237    5.7230 C   0  0  0  0  0  0  0  0  0  0  0  0
    1.0503  -10.2384    3.3754 C   0  0  1  0  0  0  0  0  0  0  0  0
    0.6296  -11.4441    3.9532 O   0  0  0  0  0  0  0  0  0  0  0  0
   -0.1301   -9.3005    3.0434 C   0  0  1  0  0  0  0  0  0  0  0  0
   -0.8802   -9.0016    4.2183 O   0  0  0  0  0  0  0  0  0  0  0  0
    0.4324   -7.9580    2.4756 C   0  0  1  0  0  0  0  0  0  0  0  0
   -0.6718   -7.0858    2.3849 O   0  0  0  0  0  0  0  0  0  0  0  0
    5.3334   -7.9686    1.8732 H   0  0  0  0  0  0  0  0  0  0  0  0
    4.6689   -7.0750    0.5125 H   0  0  0  0  0  0  0  0  0  0  0  0
    3.7341   -7.3134    1.9512 H   0  0  0  0  0  0  0  0  0  0  0  0
    5.3967   -2.6774    1.2304 H   0  0  0  0  0  0  0  0  0  0  0  0
    6.7771   -5.2484    0.2156 H   0  0  0  0  0  0  0  0  0  0  0  0
    7.5680   -3.9089    1.0561 H   0  0  0  0  0  0  0  0  0  0  0  0
    6.8449   -3.6522   -0.5210 H   0  0  0  0  0  0  0  0  0  0  0  0
    4.2347   -5.1030   -0.2822 H   0  0  0  0  0  0  0  0  0  0  0  0
    3.1406   -2.4974    0.1658 H   0  0  0  0  0  0  0  0  0  0  0  0
    2.2061   -3.9312   -0.1835 H   0  0  0  0  0  0  0  0  0  0  0  0
    1.4146   -4.1290    1.9827 H   0  0  0  0  0  0  0  0  0  0  0  0
    0.1017   -2.6619    3.4438 H   0  0  0  0  0  0  0  0  0  0  0  0
    3.3967   -1.5446    7.6118 H   0  0  0  0  0  0  0  0  0  0  0  0
    1.8269   -2.2494    7.9693 H   0  0  0  0  0  0  0  0  0  0  0  0
    1.9178   -0.8554    6.9256 H   0  0  0  0  0  0  0  0  0  0  0  0
    3.2407   -4.0406    7.6298 H   0  0  0  0  0  0  0  0  0  0  0  0
    3.8469   -4.5464    6.0785 H   0  0  0  0  0  0  0  0  0  0  0  0
    2.1643   -4.8434    6.5297 H   0  0  0  0  0  0  0  0  0  0  0  0
    4.6628   -2.5479    5.3801 H   0  0  0  0  0  0  0  0  0  0  0  0
    3.3596   -0.0853    5.5401 H   0  0  0  0  0  0  0  0  0  0  0  0
    4.8265   -0.4357    4.7647 H   0  0  0  0  0  0  0  0  0  0  0  0
    4.0504    0.4722    2.8676 H   0  0  0  0  0  0  0  0  0  0  0  0
    2.5686   -0.8412    1.4023 H   0  0  0  0  0  0  0  0  0  0  0  0
   -0.1814    0.2514    3.7558 H   0  0  0  0  0  0  0  0  0  0  0  0
    0.7930    1.4678    4.6009 H   0  0  0  0  0  0  0  0  0  0  0  0
    1.0109   -0.2285    4.9834 H   0  0  0  0  0  0  0  0  0  0  0  0
    0.7093    1.5013    1.6377 H   0  0  0  0  0  0  0  0  0  0  0  0
    2.4453    1.5236    1.3578 H   0  0  0  0  0  0  0  0  0  0  0  0
    1.7596    2.4976    2.6544 H   0  0  0  0  0  0  0  0  0  0  0  0
    4.3743   -2.3761    2.9712 H   0  0  0  0  0  0  0  0  0  0  0  0
    3.5829   -6.0170    4.1680 H   0  0  0  0  0  0  0  0  0  0  0  0
    2.1280   -5.0966    4.4183 H   0  0  0  0  0  0  0  0  0  0  0  0
    1.0494   -7.1048    4.3896 H   0  0  0  0  0  0  0  0  0  0  0  0
    2.9744  -10.2160    4.2276 H   0  0  0  0  0  0  0  0  0  0  0  0
    1.3814  -10.2371    6.2033 H   0  0  0  0  0  0  0  0  0  0  0  0
    0.9156   -8.5979    5.8111 H   0  0  0  0  0  0  0  0  0  0  0  0
    2.5797   -8.9789    6.2830 H   0  0  0  0  0  0  0  0  0  0  0  0
    1.4990  -10.5353    2.4359 H   0  0  0  0  0  0  0  0  0  0  0  0
    0.0851  -11.2587    4.7108 H   0  0  0  0  0  0  0  0  0  0  0  0
   -0.7963   -9.7775    2.2923 H   0  0  0  0  0  0  0  0  0  0  0  0
   -1.3697   -9.8004    4.5120 H   0  0  0  0  0  0  0  0  0  0  0  0
    0.8757   -8.1296    1.5015 H   0  0  0  0  0  0  0  0  0  0  0  0
   -1.1032   -7.1604    3.2278 H   0  0  0  0  0  0  0  0  0  0  0  0
  1  2  1  0
  1 38  1  0
  1 39  1  0
  1 40  1  0
  3  2  1  6
  3  6  1  0
  3 25  1  0
  3  4  1  0
  4  5  1  0
  4  6  1  0
  4 41  1  1
  5 42  1  0
  5 43  1  0
  5 44  1  0
  6  7  1  0
  6 45  1  6
  7  8  1  0
  7 46  1  0
  7 47  1  0
  8 25  1  0
  8  9  1  0
  8 48  1  6
  9 20  1  0
  9 24  1  0
  9 10  1  1
 10 11  2  0
 10 49  1  0
 11 12  1  0
 11 14  1  0
 12 13  3  0
 14 15  1  0
 14 16  1  0
 14 17  1  0
 15 50  1  0
 15 51  1  0
 15 52  1  0
 16 53  1  0
 16 54  1  0
 16 55  1  0
 17 18  1  0
 17 24  1  0
 17 56  1  1
 18 19  1  0
 18 57  1  0
 18 58  1  0
 19 21  1  0
 19 20  1  0
 19 59  1  6
 20 21  1  0
 20 60  1  6
 21 22  1  0
 21 23  1  0
 22 61  1  0
 22 62  1  0
 22 63  1  0
 23 64  1  0
 23 65  1  0
 23 66  1  0
 24 25  1  0
 24 67  1  6
 25 26  1  1
 26 27  1  0
 26 68  1  0
 26 69  1  0
 27 28  1  0
 28 36  1  0
 28 29  1  0
 28 70  1  1
 29 30  1  0
 30 31  1  0
 30 32  1  0
 30 71  1  1
 31 72  1  0
 31 73  1  0
 31 74  1  0
 32 33  1  0
 32 34  1  0
 32 75  1  6
 33 76  1  0
 34 35  1  0
 34 36  1  0
 34 77  1  6
 35 78  1  0
 36 37  1  0
 36 79  1  6
 37 80  1  0
M  END
>  <i_m_ct_stereo_status>  (179) 
1

>  <s_m_source_file>  (179) 
/var/tmp/pbs.5083856.sched01/tmpvbvzlgyy/70fwvses89.sdf

>  <i_m_source_file_index>  (179) 
4

>  <i_lp_mmshare_version>  (179) 
48012

>  <i_f3d_flags>  (179) 
2

>  <s_epik_input>  (179) 
W0NIM11DMShbQ0gzXSlbQ0BIXTJbQ0BIXTFbQ0gyXVtDQEBIXShDKFtDSDNdKShbQ0gzXSlDKD1bQ0hdMylDI04pW0NASF00W0NAXShbQ0BIXTVbQ0BAXTIzNCkoW0NAQF02KE9bQ0gzXSlbQ0BASF0oW0NIMl01KVtDQEBIXTZbQ0gzXSlbQ0gyXU9bQ0BASF03T1tDQEBIXShbQ0gzXSlbQ0BASF0oW09IXSlbQ0BASF0oW09IXSlbQ0BIXTdbT0hd

>  <s_epik_cmdline>  (179) 
J2VwaWtfcHl0aG9uJywgJy1waHQnLCAnMi4wJywgJy1waCcsICc3LjAnLCAnLXRuJywgJzgnLCAnLW1hJywgJzIwMCcsICctaW1hZScsICc8aW5maWxlLm1hZT4nLCAnLW9tYWUnLCAnPG91dGZpbGUubWFlPic=

>  <r_lp_tautomer_probability>  (179) 
1

>  <r_epik_Ionization_Penalty>  (179) 
1.64548e-06

>  <r_epik_Ionization_Penalty_Charging>  (179) 
0

>  <r_epik_Ionization_Penalty_Neutral>  (179) 
1.64548e-06

>  <r_epik_State_Penalty>  (179) 
0

>  <r_epik_Charging_Adjusted_Penalty>  (179) 
0

>  <i_epik_Tot_Q>  (179) 
0

>  <i_epik_Tot_abs_Q>  (179) 
0

>  <s_epik_Chemistry_Notes>  (179) 
This compound contains an acetal/aminal-like group ( X-CH(R)-Y where X, Y are N, S, or O) that may be acid/base labile, releasing an aldehyde.

>  <s_lp_Force_Field>  (179) 
OPLS3e

>  <r_lp_Energy>  (179) 
95.7149

>  <b_lp_Chiralities_Consistent>  (179) 
0

>  <s_lp_Variant>  (179) 
53:0-1

>  <s_i_glide_gridfile>  (179) 
pfpi4k_grid

>  <i_i_glide_lignum>  (179) 
4

>  <i_i_glide_rotatable_bonds>  (179) 
8

>  <r_i_docking_score>  (179) 
-3.02665

>  <r_i_glide_ligand_efficiency>  (179) 
-0.0818013

>  <r_i_glide_ligand_efficiency_sa>  (179) 
-0.27258

>  <r_i_glide_ligand_efficiency_ln>  (179) 
-0.656409

>  <r_i_glide_gscore>  (179) 
-3.02665

>  <r_i_glide_lipo>  (179) 
-0.433235

>  <r_i_glide_hbond>  (179) 
0

>  <r_i_glide_metal>  (179) 
-0

>  <r_i_glide_rewards>  (179) 
0

>  <r_i_glide_evdw>  (179) 
-24.0432

>  <r_i_glide_ecoul>  (179) 
-10.6636

>  <r_i_glide_erotb>  (179) 
0.233171

>  <r_i_glide_esite>  (179) 
-0.0248775

>  <r_i_glide_emodel>  (179) 
-37.9591

>  <r_i_glide_energy>  (179) 
-34.7068

>  <r_i_glide_einternal>  (179) 
5.62855

>  <r_i_glide_intrahb_reward>  (179) 
-0

>  <i_i_glide_confnum>  (179) 
4

>  <i_i_glide_posenum>  (179) 
1

>  <r_i_glide_eff_state_penalty>  (179) 
0

>  <ligand_id>  (179) 
53

>  <original_smiles>  (179) 
COC12C(C)C1CC1C34C=C(C#N)C(C)(C)C(CC5C3C5(C)C)C4C12COC1OC(C)C(O)C(O)C1O

>  <smiles>  (179) 
[H]OC1([H])C([H])(OC([H])([H])C23C([H])(C([H])([H])C4([H])C([H])(C([H])([H])[H])C42OC([H])([H])[H])C24C([H])=C(C#N)C(C([H])([H])[H])(C([H])([H])[H])C([H])(C([H])([H])C5([H])C2([H])C5(C([H])([H])[H])C([H])([H])[H])C43[H])OC([H])(C([H])([H])[H])C([H])(O[H])C1([H])O[H]

$$$$
53:0:2
     RDKit          3D

 80 86  0  0  1  0  0  0  0  0999 V2000
    3.6932   -2.7726    6.8429 C   0  0  0  0  0  0  0  0  0  0  0  0
    2.3367   -3.0555    7.1453 O   0  0  0  0  0  0  0  0  0  0  0  0
    1.9790   -4.4177    6.9029 C   0  0  1  0  0  0  0  0  0  0  0  0
    2.2302   -5.3021    8.1268 C   0  0  1  0  0  0  0  0  0  0  0  0
    2.7108   -4.7766    9.4597 C   0  0  0  0  0  0  0  0  0  0  0  0
    0.8301   -4.9680    7.7204 C   0  0  2  0  0  0  0  0  0  0  0  0
    0.0590   -5.9973    6.9155 C   0  0  0  0  0  0  0  0  0  0  0  0
    0.5220   -5.8176    5.4615 C   0  0  2  0  0  0  0  0  0  0  0  0
    1.2888   -6.8736    4.6292 C   0  0  2  0  0  0  0  0  0  0  0  0
    0.9797   -6.6853    3.1448 C   0  0  0  0  0  0  0  0  0  0  0  0
    1.8765   -6.2673    2.2342 C   0  0  0  0  0  0  0  0  0  0  0  0
    1.4363   -6.0991    0.9022 C   0  0  0  0  0  0  0  0  0  0  0  0
    1.0635   -5.8670   -0.1673 N   0  0  0  0  0  0  0  0  0  0  0  0
    3.3680   -6.0094    2.5201 C   0  0  0  0  0  0  0  0  0  0  0  0
    4.2188   -6.7667    1.4639 C   0  0  0  0  0  0  0  0  0  0  0  0
    3.7201   -4.5062    2.3218 C   0  0  0  0  0  0  0  0  0  0  0  0
    3.6869   -6.4452    3.9982 C   0  0  2  0  0  0  0  0  0  0  0  0
    3.9488   -7.9988    4.1903 C   0  0  0  0  0  0  0  0  0  0  0  0
    2.8559   -8.8673    4.8936 C   0  0  1  0  0  0  0  0  0  0  0  0
    1.4149   -8.3432    5.0312 C   0  0  2  0  0  0  0  0  0  0  0  0
    1.7245   -9.5920    4.2150 C   0  0  0  0  0  0  0  0  0  0  0  0
    1.6343   -9.6837    2.6999 C   0  0  0  0  0  0  0  0  0  0  0  0
    1.2630  -10.9108    4.8145 C   0  0  0  0  0  0  0  0  0  0  0  0
    2.5653   -6.1358    4.9984 C   0  0  1  0  0  0  0  0  0  0  0  0
    1.7492   -4.8696    5.4359 C   0  0  2  0  0  0  0  0  0  0  0  0
    1.5149   -3.6641    4.5049 C   0  0  0  0  0  0  0  0  0  0  0  0
    0.7195   -2.6664    5.1427 O   0  0  0  0  0  0  0  0  0  0  0  0
    0.6013   -1.4910    4.4090 C   0  0  2  0  0  0  0  0  0  0  0  0
    1.8668   -0.9195    4.1965 O   0  0  0  0  0  0  0  0  0  0  0  0
    1.9045    0.2792    3.4263 C   0  0  1  0  0  0  0  0  0  0  0  0
    1.4492    0.0364    1.9693 C   0  0  0  0  0  0  0  0  0  0  0  0
    1.1093    1.3513    4.1922 C   0  0  1  0  0  0  0  0  0  0  0  0
    1.0748    2.5898    3.5119 O   0  0  0  0  0  0  0  0  0  0  0  0
   -0.3089    0.8795    4.5430 C   0  0  1  0  0  0  0  0  0  0  0  0
   -1.1040    0.8010    3.3672 O   0  0  0  0  0  0  0  0  0  0  0  0
   -0.2550   -0.5002    5.2355 C   0  0  1  0  0  0  0  0  0  0  0  0
   -1.5931   -0.9419    5.3548 O   0  0  0  0  0  0  0  0  0  0  0  0
    3.8596   -1.6971    6.9233 H   0  0  0  0  0  0  0  0  0  0  0  0
    3.9630   -3.0728    5.8307 H   0  0  0  0  0  0  0  0  0  0  0  0
    4.3650   -3.2780    7.5385 H   0  0  0  0  0  0  0  0  0  0  0  0
    2.5380   -6.3426    7.9755 H   0  0  0  0  0  0  0  0  0  0  0  0
    2.3777   -3.7513    9.6583 H   0  0  0  0  0  0  0  0  0  0  0  0
    3.7996   -4.8035    9.5032 H   0  0  0  0  0  0  0  0  0  0  0  0
    2.3295   -5.4143   10.2592 H   0  0  0  0  0  0  0  0  0  0  0  0
    0.2423   -4.2699    8.3186 H   0  0  0  0  0  0  0  0  0  0  0  0
    0.2533   -6.9930    7.3250 H   0  0  0  0  0  0  0  0  0  0  0  0
   -1.0087   -5.8205    7.0190 H   0  0  0  0  0  0  0  0  0  0  0  0
   -0.2969   -5.3949    4.8756 H   0  0  0  0  0  0  0  0  0  0  0  0
   -0.0413   -6.8772    2.8545 H   0  0  0  0  0  0  0  0  0  0  0  0
    5.2705   -6.7737    1.7502 H   0  0  0  0  0  0  0  0  0  0  0  0
    4.1495   -6.2931    0.4805 H   0  0  0  0  0  0  0  0  0  0  0  0
    3.8865   -7.7951    1.3236 H   0  0  0  0  0  0  0  0  0  0  0  0
    4.5397   -4.3621    1.6149 H   0  0  0  0  0  0  0  0  0  0  0  0
    4.0685   -4.0423    3.2428 H   0  0  0  0  0  0  0  0  0  0  0  0
    2.8823   -3.9206    1.9361 H   0  0  0  0  0  0  0  0  0  0  0  0
    4.6034   -5.9368    4.2959 H   0  0  0  0  0  0  0  0  0  0  0  0
    4.2795   -8.5223    3.2998 H   0  0  0  0  0  0  0  0  0  0  0  0
    4.8216   -8.0583    4.8418 H   0  0  0  0  0  0  0  0  0  0  0  0
    3.2567   -9.3560    5.7817 H   0  0  0  0  0  0  0  0  0  0  0  0
    0.9441   -8.5468    5.9903 H   0  0  0  0  0  0  0  0  0  0  0  0
    0.5873   -9.7053    2.3918 H   0  0  0  0  0  0  0  0  0  0  0  0
    2.1216  -10.5960    2.3558 H   0  0  0  0  0  0  0  0  0  0  0  0
    2.1351   -8.8519    2.2223 H   0  0  0  0  0  0  0  0  0  0  0  0
    0.2165  -11.1044    4.5792 H   0  0  0  0  0  0  0  0  0  0  0  0
    1.3585  -10.8790    5.8995 H   0  0  0  0  0  0  0  0  0  0  0  0
    1.8714  -11.7414    4.4570 H   0  0  0  0  0  0  0  0  0  0  0  0
    2.9277   -6.5228    5.9489 H   0  0  0  0  0  0  0  0  0  0  0  0
    2.4604   -3.2154    4.2400 H   0  0  0  0  0  0  0  0  0  0  0  0
    1.0288   -3.9575    3.5764 H   0  0  0  0  0  0  0  0  0  0  0  0
    0.1527   -1.7596    3.4536 H   0  0  0  0  0  0  0  0  0  0  0  0
    2.9440    0.6035    3.4033 H   0  0  0  0  0  0  0  0  0  0  0  0
    1.4236    0.9626    1.3979 H   0  0  0  0  0  0  0  0  0  0  0  0
    0.4484   -0.3953    1.9041 H   0  0  0  0  0  0  0  0  0  0  0  0
    2.1300   -0.6373    1.4503 H   0  0  0  0  0  0  0  0  0  0  0  0
    1.6238    1.5510    5.1306 H   0  0  0  0  0  0  0  0  0  0  0  0
    0.8074    2.4566    2.6154 H   0  0  0  0  0  0  0  0  0  0  0  0
   -0.7760    1.6104    5.2109 H   0  0  0  0  0  0  0  0  0  0  0  0
   -0.9851    1.5951    2.8653 H   0  0  0  0  0  0  0  0  0  0  0  0
    0.1979   -0.4091    6.2187 H   0  0  0  0  0  0  0  0  0  0  0  0
   -1.9881   -0.7987    4.5049 H   0  0  0  0  0  0  0  0  0  0  0  0
  1  2  1  0
  1 38  1  0
  1 39  1  0
  1 40  1  0
  3  2  1  6
  3  6  1  0
  3 25  1  0
  3  4  1  0
  4  5  1  0
  4  6  1  0
  4 41  1  6
  5 42  1  0
  5 43  1  0
  5 44  1  0
  6  7  1  0
  6 45  1  1
  7  8  1  0
  7 46  1  0
  7 47  1  0
  8 25  1  0
  8  9  1  0
  8 48  1  6
  9 20  1  0
  9 24  1  0
  9 10  1  6
 10 11  2  0
 10 49  1  0
 11 12  1  0
 11 14  1  0
 12 13  3  0
 14 15  1  0
 14 16  1  0
 14 17  1  0
 15 50  1  0
 15 51  1  0
 15 52  1  0
 16 53  1  0
 16 54  1  0
 16 55  1  0
 17 18  1  0
 17 24  1  0
 17 56  1  1
 18 19  1  0
 18 57  1  0
 18 58  1  0
 19 21  1  0
 19 20  1  0
 19 59  1  1
 20 21  1  0
 20 60  1  1
 21 22  1  0
 21 23  1  0
 22 61  1  0
 22 62  1  0
 22 63  1  0
 23 64  1  0
 23 65  1  0
 23 66  1  0
 24 25  1  0
 24 67  1  1
 25 26  1  6
 26 27  1  0
 26 68  1  0
 26 69  1  0
 27 28  1  0
 28 36  1  0
 28 29  1  0
 28 70  1  6
 29 30  1  0
 30 31  1  0
 30 32  1  0
 30 71  1  6
 31 72  1  0
 31 73  1  0
 31 74  1  0
 32 33  1  0
 32 34  1  0
 32 75  1  1
 33 76  1  0
 34 35  1  0
 34 36  1  0
 34 77  1  1
 35 78  1  0
 36 37  1  0
 36 79  1  1
 37 80  1  0
M  END
>  <i_m_ct_stereo_status>  (180) 
1

>  <s_m_source_file>  (180) 
/var/tmp/pbs.5083856.sched01/tmpvbvzlgyy/70fwvses89.sdf

>  <i_m_source_file_index>  (180) 
4

>  <i_lp_mmshare_version>  (180) 
48012

>  <i_f3d_flags>  (180) 
2

>  <s_epik_input>  (180) 
W0NIM11DMShbQ0gzXSlbQ0BIXTJbQ0BIXTFbQ0gyXVtDQEBIXShDKFtDSDNdKShbQ0gzXSlDKD1bQ0hdMylDI04pW0NASF00W0NAXShbQ0BIXTVbQ0BAXTIzNCkoW0NAQF02KE9bQ0gzXSlbQ0BASF0oW0NIMl01KVtDQEBIXTZbQ0gzXSlbQ0gyXU9bQ0BASF03T1tDQEBIXShbQ0gzXSlbQ0BASF0oW09IXSlbQ0BASF0oW09IXSlbQ0BIXTdbT0hd

>  <s_epik_cmdline>  (180) 
J2VwaWtfcHl0aG9uJywgJy1waHQnLCAnMi4wJywgJy1waCcsICc3LjAnLCAnLXRuJywgJzgnLCAnLW1hJywgJzIwMCcsICctaW1hZScsICc8aW5maWxlLm1hZT4nLCAnLW9tYWUnLCAnPG91dGZpbGUubWFlPic=

>  <r_lp_tautomer_probability>  (180) 
1

>  <r_epik_Ionization_Penalty>  (180) 
1.64548e-06

>  <r_epik_Ionization_Penalty_Charging>  (180) 
0

>  <r_epik_Ionization_Penalty_Neutral>  (180) 
1.64548e-06

>  <r_epik_State_Penalty>  (180) 
0

>  <r_epik_Charging_Adjusted_Penalty>  (180) 
0

>  <i_epik_Tot_Q>  (180) 
0

>  <i_epik_Tot_abs_Q>  (180) 
0

>  <s_epik_Chemistry_Notes>  (180) 
This compound contains an acetal/aminal-like group ( X-CH(R)-Y where X, Y are N, S, or O) that may be acid/base labile, releasing an aldehyde.

>  <s_lp_Force_Field>  (180) 
OPLS3e

>  <r_lp_Energy>  (180) 
95.7149

>  <b_lp_Chiralities_Consistent>  (180) 
0

>  <s_lp_Variant>  (180) 
53:0-1

>  <s_i_glide_gridfile>  (180) 
pfpi4k_grid

>  <i_i_glide_lignum>  (180) 
4

>  <i_i_glide_rotatable_bonds>  (180) 
8

>  <r_i_docking_score>  (180) 
-2.32929

>  <r_i_glide_ligand_efficiency>  (180) 
-0.0629539

>  <r_i_glide_ligand_efficiency_sa>  (180) 
-0.209776

>  <r_i_glide_ligand_efficiency_ln>  (180) 
-0.505169

>  <r_i_glide_gscore>  (180) 
-2.32929

>  <r_i_glide_lipo>  (180) 
-0.149565

>  <r_i_glide_hbond>  (180) 
-0.468468

>  <r_i_glide_metal>  (180) 
-0

>  <r_i_glide_rewards>  (180) 
0

>  <r_i_glide_evdw>  (180) 
-20.3496

>  <r_i_glide_ecoul>  (180) 
-5.59805

>  <r_i_glide_erotb>  (180) 
0.233171

>  <r_i_glide_esite>  (180) 
-0.0872402

>  <r_i_glide_emodel>  (180) 
-30.6485

>  <r_i_glide_energy>  (180) 
-25.9477

>  <r_i_glide_einternal>  (180) 
1.35509

>  <r_i_glide_intrahb_reward>  (180) 
-0

>  <i_i_glide_confnum>  (180) 
2

>  <i_i_glide_posenum>  (180) 
8

>  <r_i_glide_eff_state_penalty>  (180) 
0

>  <ligand_id>  (180) 
53

>  <original_smiles>  (180) 
COC12C(C)C1CC1C34C=C(C#N)C(C)(C)C(CC5C3C5(C)C)C4C12COC1OC(C)C(O)C(O)C1O

>  <smiles>  (180) 
[H]OC1([H])C([H])(OC([H])([H])C23C([H])(C([H])([H])C4([H])C([H])(C([H])([H])[H])C42OC([H])([H])[H])C24C([H])=C(C#N)C(C([H])([H])[H])(C([H])([H])[H])C([H])(C([H])([H])C5([H])C2([H])C5(C([H])([H])[H])C([H])([H])[H])C43[H])OC([H])(C([H])([H])[H])C([H])(O[H])C1([H])O[H]

$$$$
54:0:0
     RDKit          3D

 66 71  0  0  1  0  0  0  0  0999 V2000
    2.7077    6.1625    4.9131 C   0  0  0  0  0  0  0  0  0  0  0  0
    2.2530    4.7212    4.7413 C   0  0  0  0  0  0  0  0  0  0  0  0
    1.5273    3.9587    5.5577 C   0  0  0  0  0  0  0  0  0  0  0  0
    1.1942    2.5901    5.0025 C   0  0  2  0  0  0  0  0  0  0  0  0
    1.9492    2.5459    3.6472 C   0  0  2  0  0  0  0  0  0  0  0  0
    1.1787    2.2099    2.4938 O   0  0  0  0  0  0  0  0  0  0  0  0
    3.1595    1.6233    3.7162 C   0  0  0  0  0  0  0  0  0  0  0  0
    3.0276    0.1628    4.0985 C   0  0  0  0  0  0  0  0  0  0  0  0
    4.3747   -0.5145    4.0489 C   0  0  0  0  0  0  0  0  0  0  0  0
    4.6017   -0.9971    2.7328 O   0  0  0  0  0  0  0  0  0  0  0  0
    4.9957   -2.2617    2.5145 C   0  0  0  0  0  0  0  0  0  0  0  0
    5.3307   -3.0443    3.4065 O   0  0  0  0  0  0  0  0  0  0  0  0
    4.9682   -2.6470    1.1005 C   0  0  0  0  0  0  0  0  0  0  0  0
    4.4043   -1.8882    0.1425 C   0  0  0  0  0  0  0  0  0  0  0  0
    4.3388   -2.1455   -1.2625 C   0  0  0  0  0  0  0  0  0  0  0  0
    3.5681   -1.4820   -2.1833 C   0  0  0  0  0  0  0  0  0  0  0  0
    3.7062   -2.0237   -3.4905 C   0  0  0  0  0  0  0  0  0  0  0  0
    4.5659   -3.0904   -3.5376 C   0  0  0  0  0  0  0  0  0  0  0  0
    5.2325   -3.4600   -1.9762 S   0  0  0  0  0  0  0  0  0  0  0  0
    1.9669   -0.5617    4.5246 C   0  0  0  0  0  0  0  0  0  0  0  0
    2.2033   -1.8701    4.8897 O   0  0  0  0  0  0  0  0  0  0  0  0
    1.0231   -2.4527    5.4594 C   0  0  0  0  0  0  0  0  0  0  0  0
    0.6695   -3.6618    4.5898 C   0  0  0  0  0  0  0  0  0  0  0  0
    1.2497   -2.7945    6.9286 C   0  0  0  0  0  0  0  0  0  0  0  0
    0.0825   -1.3105    5.3379 C   0  0  0  0  0  0  0  0  0  0  0  0
    0.5809   -0.2505    4.8108 C   0  0  0  0  0  0  0  0  0  0  0  0
   -0.5163    0.7489    4.5156 C   0  0  1  0  0  0  0  0  0  0  0  0
   -1.6285    0.0547    5.3732 C   0  0  0  0  0  0  0  0  0  0  0  0
   -1.2307   -1.2981    5.6532 O   0  0  0  0  0  0  0  0  0  0  0  0
   -0.2872    2.2603    4.7862 C   0  0  1  0  0  0  0  0  0  0  0  0
   -1.2532    2.9392    5.6108 O   0  0  0  0  0  0  0  0  0  0  0  0
   -1.2940    3.2763    4.2081 C   0  0  0  0  0  0  0  0  0  0  0  0
   -0.9924    4.7114    3.8715 C   0  0  0  0  0  0  0  0  0  0  0  0
   -2.4897    2.8448    3.3799 C   0  0  0  0  0  0  0  0  0  0  0  0
    2.4780    3.9777    3.4999 C   0  0  0  0  0  0  0  0  0  0  0  0
    3.0014    4.4115    2.4820 O   0  0  0  0  0  0  0  0  0  0  0  0
    3.7949    6.2087    4.9080 H   0  0  0  0  0  0  0  0  0  0  0  0
    2.3370    6.6239    5.8334 H   0  0  0  0  0  0  0  0  0  0  0  0
    2.3572    6.7631    4.0720 H   0  0  0  0  0  0  0  0  0  0  0  0
    1.1939    4.2649    6.5350 H   0  0  0  0  0  0  0  0  0  0  0  0
    1.6174    1.8997    5.7406 H   0  0  0  0  0  0  0  0  0  0  0  0
    0.7751    2.9906    2.1232 H   0  0  0  0  0  0  0  0  0  0  0  0
    3.6334    1.6108    2.7321 H   0  0  0  0  0  0  0  0  0  0  0  0
    3.8909    2.0628    4.4042 H   0  0  0  0  0  0  0  0  0  0  0  0
    5.1604    0.1917    4.3044 H   0  0  0  0  0  0  0  0  0  0  0  0
    4.4021   -1.2747    4.8299 H   0  0  0  0  0  0  0  0  0  0  0  0
    5.4241   -3.5887    0.8494 H   0  0  0  0  0  0  0  0  0  0  0  0
    3.9216   -0.9634    0.4207 H   0  0  0  0  0  0  0  0  0  0  0  0
    2.8976   -0.6694   -1.9540 H   0  0  0  0  0  0  0  0  0  0  0  0
    3.1453   -1.6250   -4.3226 H   0  0  0  0  0  0  0  0  0  0  0  0
    4.8447   -3.7209   -4.3726 H   0  0  0  0  0  0  0  0  0  0  0  0
   -0.2452   -4.1710    4.9101 H   0  0  0  0  0  0  0  0  0  0  0  0
    1.4839   -4.3851    4.6299 H   0  0  0  0  0  0  0  0  0  0  0  0
    0.5570   -3.3670    3.5462 H   0  0  0  0  0  0  0  0  0  0  0  0
    0.3605   -3.2288    7.4041 H   0  0  0  0  0  0  0  0  0  0  0  0
    1.5227   -1.8976    7.4835 H   0  0  0  0  0  0  0  0  0  0  0  0
    2.0684   -3.5019    7.0180 H   0  0  0  0  0  0  0  0  0  0  0  0
   -0.7530    0.6239    3.4558 H   0  0  0  0  0  0  0  0  0  0  0  0
   -1.7288    0.5267    6.3425 H   0  0  0  0  0  0  0  0  0  0  0  0
   -2.5981    0.0546    4.9066 H   0  0  0  0  0  0  0  0  0  0  0  0
   -0.2448    4.7167    3.0814 H   0  0  0  0  0  0  0  0  0  0  0  0
   -0.6386    5.2234    4.7642 H   0  0  0  0  0  0  0  0  0  0  0  0
   -1.8741    5.2436    3.4955 H   0  0  0  0  0  0  0  0  0  0  0  0
   -3.3207    3.5535    3.4321 H   0  0  0  0  0  0  0  0  0  0  0  0
   -2.8530    1.8890    3.7117 H   0  0  0  0  0  0  0  0  0  0  0  0
   -2.1797    2.7404    2.3385 H   0  0  0  0  0  0  0  0  0  0  0  0
  1  2  1  0
  1 37  1  0
  1 38  1  0
  1 39  1  0
  2 35  1  0
  2  3  2  0
  3  4  1  0
  3 40  1  0
  4 30  1  0
  4  5  1  0
  4 41  1  1
  5  6  1  6
  5  7  1  0
  5 35  1  0
  6 42  1  0
  7  8  1  0
  7 43  1  0
  7 44  1  0
  8  9  1  0
  8 20  2  3
  9 10  1  0
  9 45  1  0
  9 46  1  0
 10 11  1  0
 11 12  2  0
 11 13  1  0
 13 14  2  3
 13 47  1  0
 14 15  1  0
 14 48  1  0
 15 19  1  0
 15 16  2  0
 16 17  1  0
 16 49  1  0
 17 18  2  0
 17 50  1  0
 18 19  1  0
 18 51  1  0
 20 26  1  0
 20 21  1  0
 21 22  1  0
 22 23  1  0
 22 24  1  0
 22 25  1  0
 23 52  1  0
 23 53  1  0
 23 54  1  0
 24 55  1  0
 24 56  1  0
 24 57  1  0
 25 29  1  0
 25 26  2  0
 26 27  1  0
 27 28  1  0
 27 30  1  0
 27 58  1  6
 28 29  1  0
 28 59  1  0
 28 60  1  0
 30 32  1  0
 30 31  1  1
 31 32  1  0
 32 33  1  0
 32 34  1  0
 33 61  1  0
 33 62  1  0
 33 63  1  0
 34 64  1  0
 34 65  1  0
 34 66  1  0
 35 36  2  0
M  END
>  <i_m_ct_stereo_status>  (181) 
1

>  <s_m_source_file>  (181) 
/var/tmp/pbs.5083856.sched01/tmpvbvzlgyy/70fwvses89.sdf

>  <i_m_source_file_index>  (181) 
5

>  <i_lp_mmshare_version>  (181) 
48012

>  <i_f3d_flags>  (181) 
0

>  <s_epik_input>  (181) 
W0NIM11DMShbQ0gzXSlPW0NAXTEyW0NASF0zW0NAQF0oW09IXSkoQyg9TylDKFtDSDNdKT1bQ0hdMylbQ0gyXS9DKD1DLzRDNT1DKEMoTzQpKFtDSDNdKVtDSDNdKU9bQ0gyXVtDQEBIXTI1KVtDSDJdT0MoPU8pL1tDSF09W0NIXS9jNltjSF1bY0hdW2NIXXM2

>  <s_epik_cmdline>  (181) 
J2VwaWtfcHl0aG9uJywgJy1waHQnLCAnMi4wJywgJy1waCcsICc3LjAnLCAnLXRuJywgJzgnLCAnLW1hJywgJzIwMCcsICctaW1hZScsICc8aW5maWxlLm1hZT4nLCAnLW9tYWUnLCAnPG91dGZpbGUubWFlPic=

>  <r_lp_tautomer_probability>  (181) 
1

>  <r_epik_Ionization_Penalty>  (181) 
8.32355e-05

>  <r_epik_Ionization_Penalty_Charging>  (181) 
0

>  <r_epik_Ionization_Penalty_Neutral>  (181) 
8.32355e-05

>  <r_epik_State_Penalty>  (181) 
0

>  <r_epik_Charging_Adjusted_Penalty>  (181) 
0

>  <i_epik_Tot_Q>  (181) 
0

>  <i_epik_Tot_abs_Q>  (181) 
0

>  <s_epik_Chemistry_Notes>  (181) 
This compound has an ester and may undergo hydrolysis at high or low pH.

>  <s_lp_Force_Field>  (181) 
OPLS3e

>  <r_lp_Energy>  (181) 
15.2899

>  <b_lp_Chiralities_Consistent>  (181) 
1

>  <s_lp_Variant>  (181) 
54:0-1

>  <s_i_glide_gridfile>  (181) 
pfpi4k_grid

>  <i_i_glide_lignum>  (181) 
5

>  <i_i_glide_rotatable_bonds>  (181) 
6

>  <r_i_docking_score>  (181) 
-2.43095

>  <r_i_glide_ligand_efficiency>  (181) 
-0.0675264

>  <r_i_glide_ligand_efficiency_sa>  (181) 
-0.222967

>  <r_i_glide_ligand_efficiency_ln>  (181) 
-0.530368

>  <r_i_glide_gscore>  (181) 
-2.43095

>  <r_i_glide_lipo>  (181) 
-0.585721

>  <r_i_glide_hbond>  (181) 
0

>  <r_i_glide_metal>  (181) 
-0

>  <r_i_glide_rewards>  (181) 
-0.0821123

>  <r_i_glide_evdw>  (181) 
-36.7431

>  <r_i_glide_ecoul>  (181) 
-1.42287

>  <r_i_glide_erotb>  (181) 
0.314332

>  <r_i_glide_esite>  (181) 
-0.0268651

>  <r_i_glide_emodel>  (181) 
-39.8671

>  <r_i_glide_energy>  (181) 
-38.166

>  <r_i_glide_einternal>  (181) 
4.61118

>  <r_i_glide_intrahb_reward>  (181) 
-0

>  <i_i_glide_confnum>  (181) 
2

>  <i_i_glide_posenum>  (181) 
1

>  <r_i_glide_eff_state_penalty>  (181) 
0

>  <ligand_id>  (181) 
54

>  <original_smiles>  (181) 
CC1=CC2C(O)(CC(COC(=O)C=Cc3cccs3)=C3OC(C)(C)C4=C3C(CO4)C23OC3(C)C)C1=O

>  <smiles>  (181) 
[H]OC12C(=O)C(C([H])([H])[H])=C([H])C1([H])C1(OC1(C([H])([H])[H])C([H])([H])[H])C1([H])C3=C(OC1([H])[H])C(C([H])([H])[H])(C([H])([H])[H])OC3=C(C([H])([H])OC(=O)C([H])=C([H])c1sc([H])c([H])c1[H])C2([H])[H]

$$$$
54:0:1
     RDKit          3D

 66 71  0  0  1  0  0  0  0  0999 V2000
    2.6903    6.2112    4.9049 C   0  0  0  0  0  0  0  0  0  0  0  0
    2.2508    4.7646    4.7395 C   0  0  0  0  0  0  0  0  0  0  0  0
    1.5324    3.9978    5.5565 C   0  0  0  0  0  0  0  0  0  0  0  0
    1.2138    2.6233    5.0075 C   0  0  2  0  0  0  0  0  0  0  0  0
    1.9737    2.5803    3.6557 C   0  0  2  0  0  0  0  0  0  0  0  0
    1.2133    2.2316    2.5002 O   0  0  0  0  0  0  0  0  0  0  0  0
    3.1920    1.6697    3.7421 C   0  0  0  0  0  0  0  0  0  0  0  0
    3.0788    0.1995    4.1099 C   0  0  0  0  0  0  0  0  0  0  0  0
    4.4368   -0.4670    4.0324 C   0  0  0  0  0  0  0  0  0  0  0  0
    4.8580   -0.5136    2.6791 O   0  0  0  0  0  0  0  0  0  0  0  0
    5.0352   -1.6822    2.0640 C   0  0  0  0  0  0  0  0  0  0  0  0
    5.3270   -2.7341    2.6291 O   0  0  0  0  0  0  0  0  0  0  0  0
    4.7481   -1.5206    0.6374 C   0  0  0  0  0  0  0  0  0  0  0  0
    4.8108   -2.5395   -0.2370 C   0  0  0  0  0  0  0  0  0  0  0  0
    4.5043   -2.5009   -1.6389 C   0  0  0  0  0  0  0  0  0  0  0  0
    4.6192   -3.5217   -2.5470 C   0  0  0  0  0  0  0  0  0  0  0  0
    4.2144   -3.1418   -3.8587 C   0  0  0  0  0  0  0  0  0  0  0  0
    3.8027   -1.8374   -3.9379 C   0  0  0  0  0  0  0  0  0  0  0  0
    3.9022   -1.0448   -2.3938 S   0  0  0  0  0  0  0  0  0  0  0  0
    2.0234   -0.5333    4.5400 C   0  0  0  0  0  0  0  0  0  0  0  0
    2.2677   -1.8379    4.9150 O   0  0  0  0  0  0  0  0  0  0  0  0
    1.0888   -2.4215    5.4884 C   0  0  0  0  0  0  0  0  0  0  0  0
    0.7447   -3.6371    4.6235 C   0  0  0  0  0  0  0  0  0  0  0  0
    1.3201   -2.7517    6.9599 C   0  0  0  0  0  0  0  0  0  0  0  0
    0.1423   -1.2859    5.3612 C   0  0  0  0  0  0  0  0  0  0  0  0
    0.6371   -0.2227    4.8310 C   0  0  0  0  0  0  0  0  0  0  0  0
   -0.4716    0.7622    4.5243 C   0  0  1  0  0  0  0  0  0  0  0  0
   -1.5871    0.0637    5.3812 C   0  0  0  0  0  0  0  0  0  0  0  0
   -1.1731   -1.2844    5.6701 O   0  0  0  0  0  0  0  0  0  0  0  0
   -0.2614    2.2782    4.7879 C   0  0  1  0  0  0  0  0  0  0  0  0
   -1.2374    2.9506    5.6077 O   0  0  0  0  0  0  0  0  0  0  0  0
   -1.2786    3.2801    4.2037 C   0  0  0  0  0  0  0  0  0  0  0  0
   -0.9945    4.7170    3.8596 C   0  0  0  0  0  0  0  0  0  0  0  0
   -2.4667    2.8308    3.3753 C   0  0  0  0  0  0  0  0  0  0  0  0
    2.4897    4.0179    3.5035 C   0  0  0  0  0  0  0  0  0  0  0  0
    3.0111    4.4499    2.4758 O   0  0  0  0  0  0  0  0  0  0  0  0
    3.7768    6.2699    4.9020 H   0  0  0  0  0  0  0  0  0  0  0  0
    2.3125    6.6726    5.8218 H   0  0  0  0  0  0  0  0  0  0  0  0
    2.3347    6.8039    4.0607 H   0  0  0  0  0  0  0  0  0  0  0  0
    1.1930    4.3053    6.5322 H   0  0  0  0  0  0  0  0  0  0  0  0
    1.6422    1.9414    5.7488 H   0  0  0  0  0  0  0  0  0  0  0  0
    0.7979    3.0061    2.1225 H   0  0  0  0  0  0  0  0  0  0  0  0
    3.6542    1.6844    2.7554 H   0  0  0  0  0  0  0  0  0  0  0  0
    3.9235    2.1169    4.4254 H   0  0  0  0  0  0  0  0  0  0  0  0
    5.1455    0.1221    4.6053 H   0  0  0  0  0  0  0  0  0  0  0  0
    4.4253   -1.4426    4.5097 H   0  0  0  0  0  0  0  0  0  0  0  0
    4.4517   -0.5412    0.2983 H   0  0  0  0  0  0  0  0  0  0  0  0
    5.1100   -3.5063    0.1374 H   0  0  0  0  0  0  0  0  0  0  0  0
    4.9664   -4.5153   -2.3184 H   0  0  0  0  0  0  0  0  0  0  0  0
    4.2411   -3.8489   -4.6733 H   0  0  0  0  0  0  0  0  0  0  0  0
    3.4188   -1.2738   -4.7839 H   0  0  0  0  0  0  0  0  0  0  0  0
   -0.1688   -4.1516    4.9398 H   0  0  0  0  0  0  0  0  0  0  0  0
    1.5683   -4.3500    4.6688 H   0  0  0  0  0  0  0  0  0  0  0  0
    0.6329   -3.3481    3.5783 H   0  0  0  0  0  0  0  0  0  0  0  0
    0.4362   -3.1930    7.4375 H   0  0  0  0  0  0  0  0  0  0  0  0
    1.5836   -1.8488    7.5099 H   0  0  0  0  0  0  0  0  0  0  0  0
    2.1471   -3.4489    7.0533 H   0  0  0  0  0  0  0  0  0  0  0  0
   -0.7057    0.6294    3.4648 H   0  0  0  0  0  0  0  0  0  0  0  0
   -1.6871    0.5371    6.3517 H   0  0  0  0  0  0  0  0  0  0  0  0
   -2.5615    0.0555    4.9189 H   0  0  0  0  0  0  0  0  0  0  0  0
   -0.2438    4.7271    3.0722 H   0  0  0  0  0  0  0  0  0  0  0  0
   -0.6499    5.2389    4.7506 H   0  0  0  0  0  0  0  0  0  0  0  0
   -1.8812    5.2350    3.4771 H   0  0  0  0  0  0  0  0  0  0  0  0
   -3.3050    3.5303    3.4222 H   0  0  0  0  0  0  0  0  0  0  0  0
   -2.8187    1.8722    3.7112 H   0  0  0  0  0  0  0  0  0  0  0  0
   -2.1517    2.7259    2.3358 H   0  0  0  0  0  0  0  0  0  0  0  0
  1  2  1  0
  1 37  1  0
  1 38  1  0
  1 39  1  0
  2 35  1  0
  2  3  2  0
  3  4  1  0
  3 40  1  0
  4 30  1  0
  4  5  1  0
  4 41  1  1
  5  6  1  6
  5  7  1  0
  5 35  1  0
  6 42  1  0
  7  8  1  0
  7 43  1  0
  7 44  1  0
  8  9  1  0
  8 20  2  3
  9 10  1  0
  9 45  1  0
  9 46  1  0
 10 11  1  0
 11 12  2  0
 11 13  1  0
 13 14  2  3
 13 47  1  0
 14 15  1  0
 14 48  1  0
 15 19  1  0
 15 16  2  0
 16 17  1  0
 16 49  1  0
 17 18  2  0
 17 50  1  0
 18 19  1  0
 18 51  1  0
 20 26  1  0
 20 21  1  0
 21 22  1  0
 22 23  1  0
 22 24  1  0
 22 25  1  0
 23 52  1  0
 23 53  1  0
 23 54  1  0
 24 55  1  0
 24 56  1  0
 24 57  1  0
 25 29  1  0
 25 26  2  0
 26 27  1  0
 27 28  1  0
 27 30  1  0
 27 58  1  6
 28 29  1  0
 28 59  1  0
 28 60  1  0
 30 32  1  0
 30 31  1  1
 31 32  1  0
 32 33  1  0
 32 34  1  0
 33 61  1  0
 33 62  1  0
 33 63  1  0
 34 64  1  0
 34 65  1  0
 34 66  1  0
 35 36  2  0
M  END
>  <i_m_ct_stereo_status>  (182) 
1

>  <s_m_source_file>  (182) 
/var/tmp/pbs.5083856.sched01/tmpvbvzlgyy/70fwvses89.sdf

>  <i_m_source_file_index>  (182) 
5

>  <i_lp_mmshare_version>  (182) 
48012

>  <i_f3d_flags>  (182) 
0

>  <s_epik_input>  (182) 
W0NIM11DMShbQ0gzXSlPW0NAXTEyW0NASF0zW0NAQF0oW09IXSkoQyg9TylDKFtDSDNdKT1bQ0hdMylbQ0gyXS9DKD1DLzRDNT1DKEMoTzQpKFtDSDNdKVtDSDNdKU9bQ0gyXVtDQEBIXTI1KVtDSDJdT0MoPU8pL1tDSF09W0NIXS9jNltjSF1bY0hdW2NIXXM2

>  <s_epik_cmdline>  (182) 
J2VwaWtfcHl0aG9uJywgJy1waHQnLCAnMi4wJywgJy1waCcsICc3LjAnLCAnLXRuJywgJzgnLCAnLW1hJywgJzIwMCcsICctaW1hZScsICc8aW5maWxlLm1hZT4nLCAnLW9tYWUnLCAnPG91dGZpbGUubWFlPic=

>  <r_lp_tautomer_probability>  (182) 
1

>  <r_epik_Ionization_Penalty>  (182) 
8.32355e-05

>  <r_epik_Ionization_Penalty_Charging>  (182) 
0

>  <r_epik_Ionization_Penalty_Neutral>  (182) 
8.32355e-05

>  <r_epik_State_Penalty>  (182) 
0

>  <r_epik_Charging_Adjusted_Penalty>  (182) 
0

>  <i_epik_Tot_Q>  (182) 
0

>  <i_epik_Tot_abs_Q>  (182) 
0

>  <s_epik_Chemistry_Notes>  (182) 
This compound has an ester and may undergo hydrolysis at high or low pH.

>  <s_lp_Force_Field>  (182) 
OPLS3e

>  <r_lp_Energy>  (182) 
15.2899

>  <b_lp_Chiralities_Consistent>  (182) 
1

>  <s_lp_Variant>  (182) 
54:0-1

>  <s_i_glide_gridfile>  (182) 
pfpi4k_grid

>  <i_i_glide_lignum>  (182) 
5

>  <i_i_glide_rotatable_bonds>  (182) 
6

>  <r_i_docking_score>  (182) 
-2.24423

>  <r_i_glide_ligand_efficiency>  (182) 
-0.0623397

>  <r_i_glide_ligand_efficiency_sa>  (182) 
-0.205841

>  <r_i_glide_ligand_efficiency_ln>  (182) 
-0.489631

>  <r_i_glide_gscore>  (182) 
-2.24423

>  <r_i_glide_lipo>  (182) 
-0.233662

>  <r_i_glide_hbond>  (182) 
0

>  <r_i_glide_metal>  (182) 
-0

>  <r_i_glide_rewards>  (182) 
-0.105653

>  <r_i_glide_evdw>  (182) 
-38.2417

>  <r_i_glide_ecoul>  (182) 
-1.87573

>  <r_i_glide_erotb>  (182) 
0.314332

>  <r_i_glide_esite>  (182) 
-0.0258064

>  <r_i_glide_emodel>  (182) 
-40.1042

>  <r_i_glide_energy>  (182) 
-40.1174

>  <r_i_glide_einternal>  (182) 
6.66643

>  <r_i_glide_intrahb_reward>  (182) 
-0

>  <i_i_glide_confnum>  (182) 
2

>  <i_i_glide_posenum>  (182) 
11

>  <r_i_glide_eff_state_penalty>  (182) 
0

>  <ligand_id>  (182) 
54

>  <original_smiles>  (182) 
CC1=CC2C(O)(CC(COC(=O)C=Cc3cccs3)=C3OC(C)(C)C4=C3C(CO4)C23OC3(C)C)C1=O

>  <smiles>  (182) 
[H]OC12C(=O)C(C([H])([H])[H])=C([H])C1([H])C1(OC1(C([H])([H])[H])C([H])([H])[H])C1([H])C3=C(OC1([H])[H])C(C([H])([H])[H])(C([H])([H])[H])OC3=C(C([H])([H])OC(=O)C([H])=C([H])c1sc([H])c([H])c1[H])C2([H])[H]

$$$$
54:0:2
     RDKit          3D

 66 71  0  0  1  0  0  0  0  0999 V2000
    2.7162    6.3092    4.8224 C   0  0  0  0  0  0  0  0  0  0  0  0
    2.2811    4.8603    4.7059 C   0  0  0  0  0  0  0  0  0  0  0  0
    1.5353    4.1241    5.5279 C   0  0  0  0  0  0  0  0  0  0  0  0
    1.2401    2.7272    5.0241 C   0  0  2  0  0  0  0  0  0  0  0  0
    2.0524    2.6339    3.6980 C   0  0  2  0  0  0  0  0  0  0  0  0
    1.3384    2.2356    2.5359 O   0  0  0  0  0  0  0  0  0  0  0  0
    3.2804    1.7329    3.8526 C   0  0  0  0  0  0  0  0  0  0  0  0
    3.1485    0.2850    4.2976 C   0  0  0  0  0  0  0  0  0  0  0  0
    4.5188   -0.3737    4.3231 C   0  0  0  0  0  0  0  0  0  0  0  0
    4.7872   -0.9647    3.0612 O   0  0  0  0  0  0  0  0  0  0  0  0
    4.9089   -2.2944    2.9337 C   0  0  0  0  0  0  0  0  0  0  0  0
    4.9932   -3.0765    3.8855 O   0  0  0  0  0  0  0  0  0  0  0  0
    4.9144   -2.7469    1.5363 C   0  0  0  0  0  0  0  0  0  0  0  0
    4.6899   -1.9300    0.4939 C   0  0  0  0  0  0  0  0  0  0  0  0
    4.6744   -2.2685   -0.8897 C   0  0  0  0  0  0  0  0  0  0  0  0
    4.9466   -3.4819   -1.4693 C   0  0  0  0  0  0  0  0  0  0  0  0
    4.8089   -3.4511   -2.8807 C   0  0  0  0  0  0  0  0  0  0  0  0
    4.4205   -2.2184   -3.3530 C   0  0  0  0  0  0  0  0  0  0  0  0
    4.2240   -1.0640   -2.0655 S   0  0  0  0  0  0  0  0  0  0  0  0
    2.0911   -0.4257    4.7162 C   0  0  0  0  0  0  0  0  0  0  0  0
    2.3308   -1.7206    5.1513 O   0  0  0  0  0  0  0  0  0  0  0  0
    1.1338   -2.2941    5.6983 C   0  0  0  0  0  0  0  0  0  0  0  0
    0.8216   -3.5458    4.8716 C   0  0  0  0  0  0  0  0  0  0  0  0
    1.3142   -2.5664    7.1882 C   0  0  0  0  0  0  0  0  0  0  0  0
    0.1715   -1.1742    5.4943 C   0  0  0  0  0  0  0  0  0  0  0  0
    0.6800   -0.1319    4.9328 C   0  0  0  0  0  0  0  0  0  0  0  0
   -0.4185    0.8375    4.5601 C   0  0  1  0  0  0  0  0  0  0  0  0
   -1.5684    0.1745    5.4030 C   0  0  0  0  0  0  0  0  0  0  0  0
   -1.1509   -1.1627    5.7513 O   0  0  0  0  0  0  0  0  0  0  0  0
   -0.2211    2.3623    4.7660 C   0  0  1  0  0  0  0  0  0  0  0  0
   -1.2292    3.0638    5.5239 O   0  0  0  0  0  0  0  0  0  0  0  0
   -1.2164    3.3412    4.1086 C   0  0  0  0  0  0  0  0  0  0  0  0
   -0.9199    4.7688    3.7227 C   0  0  0  0  0  0  0  0  0  0  0  0
   -2.3728    2.8423    3.2650 C   0  0  0  0  0  0  0  0  0  0  0  0
    2.5429    4.0741    3.5068 C   0  0  0  0  0  0  0  0  0  0  0  0
    3.0348    4.5030    2.4673 O   0  0  0  0  0  0  0  0  0  0  0  0
    3.8029    6.3757    4.8542 H   0  0  0  0  0  0  0  0  0  0  0  0
    2.3085    6.8086    5.7053 H   0  0  0  0  0  0  0  0  0  0  0  0
    2.3873    6.8694    3.9441 H   0  0  0  0  0  0  0  0  0  0  0  0
    1.1648    4.4671    6.4821 H   0  0  0  0  0  0  0  0  0  0  0  0
    1.6536    2.0770    5.8006 H   0  0  0  0  0  0  0  0  0  0  0  0
    0.8753    2.9813    2.1585 H   0  0  0  0  0  0  0  0  0  0  0  0
    3.7984    1.6866    2.8930 H   0  0  0  0  0  0  0  0  0  0  0  0
    3.9745    2.2120    4.5487 H   0  0  0  0  0  0  0  0  0  0  0  0
    5.2757    0.3762    4.5234 H   0  0  0  0  0  0  0  0  0  0  0  0
    4.5512   -1.0566    5.1746 H   0  0  0  0  0  0  0  0  0  0  0  0
    5.1040   -3.7943    1.3690 H   0  0  0  0  0  0  0  0  0  0  0  0
    4.4865   -0.8806    0.6716 H   0  0  0  0  0  0  0  0  0  0  0  0
    5.2223   -4.3784   -0.9319 H   0  0  0  0  0  0  0  0  0  0  0  0
    4.9822   -4.3312   -3.4798 H   0  0  0  0  0  0  0  0  0  0  0  0
    4.2203   -1.9099   -4.3606 H   0  0  0  0  0  0  0  0  0  0  0  0
   -0.0998   -4.0505    5.1785 H   0  0  0  0  0  0  0  0  0  0  0  0
    1.6436   -4.2563    4.9721 H   0  0  0  0  0  0  0  0  0  0  0  0
    0.7409   -3.3036    3.8111 H   0  0  0  0  0  0  0  0  0  0  0  0
    0.4161   -2.9923    7.6502 H   0  0  0  0  0  0  0  0  0  0  0  0
    1.5538   -1.6420    7.7137 H   0  0  0  0  0  0  0  0  0  0  0  0
    2.1396   -3.2572    7.3403 H   0  0  0  0  0  0  0  0  0  0  0  0
   -0.6153    0.6636    3.5002 H   0  0  0  0  0  0  0  0  0  0  0  0
   -1.6869    0.6803    6.3529 H   0  0  0  0  0  0  0  0  0  0  0  0
   -2.5252    0.1344    4.9156 H   0  0  0  0  0  0  0  0  0  0  0  0
   -0.1444    4.7508    2.9559 H   0  0  0  0  0  0  0  0  0  0  0  0
   -0.5842    5.3161    4.6067 H   0  0  0  0  0  0  0  0  0  0  0  0
   -1.7929    5.2757    3.2992 H   0  0  0  0  0  0  0  0  0  0  0  0
   -3.2121    3.5376    3.2540 H   0  0  0  0  0  0  0  0  0  0  0  0
   -2.7282    1.8942    3.6348 H   0  0  0  0  0  0  0  0  0  0  0  0
   -2.0264    2.6967    2.2418 H   0  0  0  0  0  0  0  0  0  0  0  0
  1  2  1  0
  1 37  1  0
  1 38  1  0
  1 39  1  0
  2 35  1  0
  2  3  2  0
  3  4  1  0
  3 40  1  0
  4 30  1  0
  4  5  1  0
  4 41  1  1
  5  6  1  6
  5  7  1  0
  5 35  1  0
  6 42  1  0
  7  8  1  0
  7 43  1  0
  7 44  1  0
  8  9  1  0
  8 20  2  3
  9 10  1  0
  9 45  1  0
  9 46  1  0
 10 11  1  0
 11 12  2  0
 11 13  1  0
 13 14  2  3
 13 47  1  0
 14 15  1  0
 14 48  1  0
 15 19  1  0
 15 16  2  0
 16 17  1  0
 16 49  1  0
 17 18  2  0
 17 50  1  0
 18 19  1  0
 18 51  1  0
 20 26  1  0
 20 21  1  0
 21 22  1  0
 22 23  1  0
 22 24  1  0
 22 25  1  0
 23 52  1  0
 23 53  1  0
 23 54  1  0
 24 55  1  0
 24 56  1  0
 24 57  1  0
 25 29  1  0
 25 26  2  0
 26 27  1  0
 27 28  1  0
 27 30  1  0
 27 58  1  6
 28 29  1  0
 28 59  1  0
 28 60  1  0
 30 32  1  0
 30 31  1  1
 31 32  1  0
 32 33  1  0
 32 34  1  0
 33 61  1  0
 33 62  1  0
 33 63  1  0
 34 64  1  0
 34 65  1  0
 34 66  1  0
 35 36  2  0
M  END
>  <i_m_ct_stereo_status>  (183) 
1

>  <s_m_source_file>  (183) 
/var/tmp/pbs.5083856.sched01/tmpvbvzlgyy/70fwvses89.sdf

>  <i_m_source_file_index>  (183) 
5

>  <i_lp_mmshare_version>  (183) 
48012

>  <i_f3d_flags>  (183) 
0

>  <s_epik_input>  (183) 
W0NIM11DMShbQ0gzXSlPW0NAXTEyW0NASF0zW0NAQF0oW09IXSkoQyg9TylDKFtDSDNdKT1bQ0hdMylbQ0gyXS9DKD1DLzRDNT1DKEMoTzQpKFtDSDNdKVtDSDNdKU9bQ0gyXVtDQEBIXTI1KVtDSDJdT0MoPU8pL1tDSF09W0NIXS9jNltjSF1bY0hdW2NIXXM2

>  <s_epik_cmdline>  (183) 
J2VwaWtfcHl0aG9uJywgJy1waHQnLCAnMi4wJywgJy1waCcsICc3LjAnLCAnLXRuJywgJzgnLCAnLW1hJywgJzIwMCcsICctaW1hZScsICc8aW5maWxlLm1hZT4nLCAnLW9tYWUnLCAnPG91dGZpbGUubWFlPic=

>  <r_lp_tautomer_probability>  (183) 
1

>  <r_epik_Ionization_Penalty>  (183) 
8.32355e-05

>  <r_epik_Ionization_Penalty_Charging>  (183) 
0

>  <r_epik_Ionization_Penalty_Neutral>  (183) 
8.32355e-05

>  <r_epik_State_Penalty>  (183) 
0

>  <r_epik_Charging_Adjusted_Penalty>  (183) 
0

>  <i_epik_Tot_Q>  (183) 
0

>  <i_epik_Tot_abs_Q>  (183) 
0

>  <s_epik_Chemistry_Notes>  (183) 
This compound has an ester and may undergo hydrolysis at high or low pH.

>  <s_lp_Force_Field>  (183) 
OPLS3e

>  <r_lp_Energy>  (183) 
15.2899

>  <b_lp_Chiralities_Consistent>  (183) 
1

>  <s_lp_Variant>  (183) 
54:0-1

>  <s_i_glide_gridfile>  (183) 
pfpi4k_grid

>  <i_i_glide_lignum>  (183) 
5

>  <i_i_glide_rotatable_bonds>  (183) 
6

>  <r_i_docking_score>  (183) 
-2.06224

>  <r_i_glide_ligand_efficiency>  (183) 
-0.0572843

>  <r_i_glide_ligand_efficiency_sa>  (183) 
-0.189149

>  <r_i_glide_ligand_efficiency_ln>  (183) 
-0.449924

>  <r_i_glide_gscore>  (183) 
-2.06224

>  <r_i_glide_lipo>  (183) 
-0.361164

>  <r_i_glide_hbond>  (183) 
0

>  <r_i_glide_metal>  (183) 
-0

>  <r_i_glide_rewards>  (183) 
-0.072093

>  <r_i_glide_evdw>  (183) 
-36.225

>  <r_i_glide_ecoul>  (183) 
-0.729146

>  <r_i_glide_erotb>  (183) 
0.314332

>  <r_i_glide_esite>  (183) 
-0.0226887

>  <r_i_glide_emodel>  (183) 
-38.6839

>  <r_i_glide_energy>  (183) 
-36.9541

>  <r_i_glide_einternal>  (183) 
3.72744

>  <r_i_glide_intrahb_reward>  (183) 
-0

>  <i_i_glide_confnum>  (183) 
2

>  <i_i_glide_posenum>  (183) 
38

>  <r_i_glide_eff_state_penalty>  (183) 
0

>  <ligand_id>  (183) 
54

>  <original_smiles>  (183) 
CC1=CC2C(O)(CC(COC(=O)C=Cc3cccs3)=C3OC(C)(C)C4=C3C(CO4)C23OC3(C)C)C1=O

>  <smiles>  (183) 
[H]OC12C(=O)C(C([H])([H])[H])=C([H])C1([H])C1(OC1(C([H])([H])[H])C([H])([H])[H])C1([H])C3=C(OC1([H])[H])C(C([H])([H])[H])(C([H])([H])[H])OC3=C(C([H])([H])OC(=O)C([H])=C([H])c1sc([H])c([H])c1[H])C2([H])[H]

$$$$
54:2:0
     RDKit          3D

 66 71  0  0  1  0  0  0  0  0999 V2000
    4.3167   -6.6405    0.6285 C   0  0  0  0  0  0  0  0  0  0  0  0
    4.1882   -5.4743    1.5960 C   0  0  0  0  0  0  0  0  0  0  0  0
    5.1374   -4.6656    2.0737 C   0  0  0  0  0  0  0  0  0  0  0  0
    4.6289   -3.5455    2.9723 C   0  0  2  0  0  0  0  0  0  0  0  0
    3.1148   -3.8528    3.0661 C   0  0  2  0  0  0  0  0  0  0  0  0
    2.2123   -2.7901    2.7799 O   0  0  0  0  0  0  0  0  0  0  0  0
    2.7351   -4.4077    4.4203 C   0  0  0  0  0  0  0  0  0  0  0  0
    2.9675   -3.6457    5.7334 C   0  0  0  0  0  0  0  0  0  0  0  0
    2.4362   -4.3990    6.9581 C   0  0  0  0  0  0  0  0  0  0  0  0
    1.0732   -4.7552    6.8375 O   0  0  0  0  0  0  0  0  0  0  0  0
    0.7286   -5.8663    6.1784 C   0  0  0  0  0  0  0  0  0  0  0  0
    1.5442   -6.7615    5.9597 O   0  0  0  0  0  0  0  0  0  0  0  0
   -0.6715   -5.8953    5.7460 C   0  0  0  0  0  0  0  0  0  0  0  0
   -1.2348   -6.7853    4.8843 C   0  0  0  0  0  0  0  0  0  0  0  0
   -0.7596   -7.9356    4.1432 C   0  0  0  0  0  0  0  0  0  0  0  0
    0.4163   -8.6381    4.2068 C   0  0  0  0  0  0  0  0  0  0  0  0
    0.5352   -9.6590    3.2302 C   0  0  0  0  0  0  0  0  0  0  0  0
   -0.5873   -9.8080    2.4823 C   0  0  0  0  0  0  0  0  0  0  0  0
   -1.7659   -8.5806    2.8485 S   0  0  0  0  0  0  0  0  0  0  0  0
    3.6669   -2.5163    5.9525 C   0  0  0  0  0  0  0  0  0  0  0  0
    3.8630   -2.1531    7.2719 O   0  0  0  0  0  0  0  0  0  0  0  0
    4.7069   -0.9876    7.3525 C   0  0  0  0  0  0  0  0  0  0  0  0
    3.8952    0.1007    8.0610 C   0  0  0  0  0  0  0  0  0  0  0  0
    6.0137   -1.3506    8.0553 C   0  0  0  0  0  0  0  0  0  0  0  0
    4.9352   -0.7357    5.9039 C   0  0  0  0  0  0  0  0  0  0  0  0
    4.3784   -1.5638    5.1083 C   0  0  0  0  0  0  0  0  0  0  0  0
    4.4976   -1.0970    3.6803 C   0  0  1  0  0  0  0  0  0  0  0  0
    5.5821   -0.0054    3.9424 C   0  0  0  0  0  0  0  0  0  0  0  0
    5.6136    0.3093    5.3429 O   0  0  0  0  0  0  0  0  0  0  0  0
    4.8487   -2.0990    2.5519 C   0  0  1  0  0  0  0  0  0  0  0  0
    5.9797   -1.8081    1.7279 O   0  0  0  0  0  0  0  0  0  0  0  0
    4.6978   -1.6484    1.0999 C   0  0  0  0  0  0  0  0  0  0  0  0
    4.4102   -2.6061   -0.0453 C   0  0  0  0  0  0  0  0  0  0  0  0
    4.2305   -0.2473    0.7532 C   0  0  0  0  0  0  0  0  0  0  0  0
    2.9044   -4.9852    2.0438 C   0  0  0  0  0  0  0  0  0  0  0  0
    1.7930   -5.4320    1.7131 O   0  0  0  0  0  0  0  0  0  0  0  0
    4.0152   -7.5656    1.1185 H   0  0  0  0  0  0  0  0  0  0  0  0
    5.3360   -6.7467    0.2476 H   0  0  0  0  0  0  0  0  0  0  0  0
    3.6538   -6.4831   -0.2239 H   0  0  0  0  0  0  0  0  0  0  0  0
    6.1928   -4.7582    1.8787 H   0  0  0  0  0  0  0  0  0  0  0  0
    5.1201   -3.7290    3.9291 H   0  0  0  0  0  0  0  0  0  0  0  0
    2.3271   -2.4924    1.8940 H   0  0  0  0  0  0  0  0  0  0  0  0
    1.6567   -4.5531    4.3257 H   0  0  0  0  0  0  0  0  0  0  0  0
    3.2384   -5.3805    4.5103 H   0  0  0  0  0  0  0  0  0  0  0  0
    3.0436   -5.2848    7.1154 H   0  0  0  0  0  0  0  0  0  0  0  0
    2.5404   -3.8350    7.8856 H   0  0  0  0  0  0  0  0  0  0  0  0
   -1.3205   -5.1332    6.1540 H   0  0  0  0  0  0  0  0  0  0  0  0
   -2.2775   -6.6007    4.7098 H   0  0  0  0  0  0  0  0  0  0  0  0
    1.2482   -8.5441    4.8848 H   0  0  0  0  0  0  0  0  0  0  0  0
    1.4483  -10.2206    3.1543 H   0  0  0  0  0  0  0  0  0  0  0  0
   -0.7274  -10.5148    1.6750 H   0  0  0  0  0  0  0  0  0  0  0  0
    4.4341    1.0469    8.1250 H   0  0  0  0  0  0  0  0  0  0  0  0
    3.6543   -0.2259    9.0714 H   0  0  0  0  0  0  0  0  0  0  0  0
    2.9482    0.2779    7.5484 H   0  0  0  0  0  0  0  0  0  0  0  0
    6.6974   -0.5005    8.1144 H   0  0  0  0  0  0  0  0  0  0  0  0
    6.5228   -2.1578    7.5275 H   0  0  0  0  0  0  0  0  0  0  0  0
    5.8065   -1.6989    9.0616 H   0  0  0  0  0  0  0  0  0  0  0  0
    3.5604   -0.5993    3.4263 H   0  0  0  0  0  0  0  0  0  0  0  0
    6.5849   -0.3099    3.6680 H   0  0  0  0  0  0  0  0  0  0  0  0
    5.4167    0.8664    3.3603 H   0  0  0  0  0  0  0  0  0  0  0  0
    3.4171   -3.0323    0.0983 H   0  0  0  0  0  0  0  0  0  0  0  0
    5.1534   -3.3968   -0.0513 H   0  0  0  0  0  0  0  0  0  0  0  0
    4.4661   -2.1215   -1.0215 H   0  0  0  0  0  0  0  0  0  0  0  0
    4.5931    0.0587   -0.2258 H   0  0  0  0  0  0  0  0  0  0  0  0
    4.5932    0.4930    1.4557 H   0  0  0  0  0  0  0  0  0  0  0  0
    3.1408   -0.1922    0.7691 H   0  0  0  0  0  0  0  0  0  0  0  0
  1  2  1  0
  1 37  1  0
  1 38  1  0
  1 39  1  0
  2 35  1  0
  2  3  2  0
  3  4  1  0
  3 40  1  0
  4 30  1  0
  4  5  1  0
  4 41  1  1
  5  6  1  6
  5  7  1  0
  5 35  1  0
  6 42  1  0
  7  8  1  0
  7 43  1  0
  7 44  1  0
  8  9  1  0
  8 20  2  3
  9 10  1  0
  9 45  1  0
  9 46  1  0
 10 11  1  0
 11 12  2  0
 11 13  1  0
 13 14  2  3
 13 47  1  0
 14 15  1  0
 14 48  1  0
 15 19  1  0
 15 16  2  0
 16 17  1  0
 16 49  1  0
 17 18  2  0
 17 50  1  0
 18 19  1  0
 18 51  1  0
 20 26  1  0
 20 21  1  0
 21 22  1  0
 22 23  1  0
 22 24  1  0
 22 25  1  0
 23 52  1  0
 23 53  1  0
 23 54  1  0
 24 55  1  0
 24 56  1  0
 24 57  1  0
 25 29  1  0
 25 26  2  0
 26 27  1  0
 27 28  1  0
 27 30  1  0
 27 58  1  6
 28 29  1  0
 28 59  1  0
 28 60  1  0
 30 32  1  0
 30 31  1  1
 31 32  1  0
 32 33  1  0
 32 34  1  0
 33 61  1  0
 33 62  1  0
 33 63  1  0
 34 64  1  0
 34 65  1  0
 34 66  1  0
 35 36  2  0
M  END
>  <i_m_ct_stereo_status>  (184) 
1

>  <s_m_source_file>  (184) 
/var/tmp/pbs.5083856.sched01/tmphq7z50f0/75yhppymv9.sdf

>  <i_m_source_file_index>  (184) 
2

>  <i_lp_mmshare_version>  (184) 
48012

>  <i_f3d_flags>  (184) 
0

>  <s_epik_input>  (184) 
W0NIM11DMShbQ0gzXSlPW0NAXTEyW0NASF0zW0NAQF0oW09IXSkoQyg9TylDKFtDSDNdKT1bQ0hdMylbQ0gyXS9DKD1DLzRDNT1DKEMoTzQpKFtDSDNdKVtDSDNdKU9bQ0gyXVtDQEBIXTI1KVtDSDJdT0MoPU8pL1tDSF09W0NIXS9jNltjSF1bY0hdW2NIXXM2

>  <s_epik_cmdline>  (184) 
J2VwaWtfcHl0aG9uJywgJy1waHQnLCAnMi4wJywgJy1waCcsICc3LjAnLCAnLXRuJywgJzgnLCAnLW1hJywgJzIwMCcsICctaW1hZScsICc8aW5maWxlLm1hZT4nLCAnLW9tYWUnLCAnPG91dGZpbGUubWFlPic=

>  <r_lp_tautomer_probability>  (184) 
1

>  <r_epik_Ionization_Penalty>  (184) 
8.32355e-05

>  <r_epik_Ionization_Penalty_Charging>  (184) 
0

>  <r_epik_Ionization_Penalty_Neutral>  (184) 
8.32355e-05

>  <r_epik_State_Penalty>  (184) 
0

>  <r_epik_Charging_Adjusted_Penalty>  (184) 
0

>  <i_epik_Tot_Q>  (184) 
0

>  <i_epik_Tot_abs_Q>  (184) 
0

>  <s_epik_Chemistry_Notes>  (184) 
This compound has an ester and may undergo hydrolysis at high or low pH.

>  <s_lp_Force_Field>  (184) 
OPLS3e

>  <r_lp_Energy>  (184) 
19.086

>  <b_lp_Chiralities_Consistent>  (184) 
1

>  <s_lp_Variant>  (184) 
54:0-3

>  <s_i_glide_gridfile>  (184) 
pfpi4k_grid

>  <i_i_glide_lignum>  (184) 
2

>  <i_i_glide_rotatable_bonds>  (184) 
6

>  <r_i_docking_score>  (184) 
-2.0965

>  <r_i_glide_ligand_efficiency>  (184) 
-0.058236

>  <r_i_glide_ligand_efficiency_sa>  (184) 
-0.192291

>  <r_i_glide_ligand_efficiency_ln>  (184) 
-0.457399

>  <r_i_glide_gscore>  (184) 
-2.0965

>  <r_i_glide_lipo>  (184) 
-0.64694

>  <r_i_glide_hbond>  (184) 
-0.0411471

>  <r_i_glide_metal>  (184) 
-0

>  <r_i_glide_rewards>  (184) 
0

>  <r_i_glide_evdw>  (184) 
-30.0848

>  <r_i_glide_ecoul>  (184) 
-1.4115

>  <r_i_glide_erotb>  (184) 
0.314332

>  <r_i_glide_esite>  (184) 
-0.0067748

>  <r_i_glide_emodel>  (184) 
-31.1532

>  <r_i_glide_energy>  (184) 
-31.4963

>  <r_i_glide_einternal>  (184) 
3.8664

>  <r_i_glide_intrahb_reward>  (184) 
-0

>  <i_i_glide_confnum>  (184) 
3

>  <i_i_glide_posenum>  (184) 
1

>  <r_i_glide_eff_state_penalty>  (184) 
0

>  <ligand_id>  (184) 
54

>  <original_smiles>  (184) 
CC1=CC2C(O)(CC(COC(=O)C=Cc3cccs3)=C3OC(C)(C)C4=C3C(CO4)C23OC3(C)C)C1=O

>  <smiles>  (184) 
[H]OC12C(=O)C(C([H])([H])[H])=C([H])C1([H])C1(OC1(C([H])([H])[H])C([H])([H])[H])C1([H])C3=C(OC1([H])[H])C(C([H])([H])[H])(C([H])([H])[H])OC3=C(C([H])([H])OC(=O)C([H])=C([H])c1sc([H])c([H])c1[H])C2([H])[H]

$$$$
54:2:1
     RDKit          3D

 66 71  0  0  1  0  0  0  0  0999 V2000
    2.3852    3.5581    3.6592 C   0  0  0  0  0  0  0  0  0  0  0  0
    2.2313    2.0701    3.9611 C   0  0  0  0  0  0  0  0  0  0  0  0
    2.0710    1.4659    5.1386 C   0  0  0  0  0  0  0  0  0  0  0  0
    1.8775   -0.0425    5.0605 C   0  0  2  0  0  0  0  0  0  0  0  0
    2.0649   -0.3174    3.5545 C   0  0  2  0  0  0  0  0  0  0  0  0
    1.0213   -1.0610    2.9207 O   0  0  0  0  0  0  0  0  0  0  0  0
    3.3843   -0.9986    3.2207 C   0  0  0  0  0  0  0  0  0  0  0  0
    3.7477   -2.3477    3.8590 C   0  0  0  0  0  0  0  0  0  0  0  0
    5.0862   -2.8700    3.3794 C   0  0  0  0  0  0  0  0  0  0  0  0
    4.9459   -3.7541    2.2616 O   0  0  0  0  0  0  0  0  0  0  0  0
    4.9840   -3.2553    1.0475 C   0  0  0  0  0  0  0  0  0  0  0  0
    5.1393   -2.0757    0.8230 O   0  0  0  0  0  0  0  0  0  0  0  0
    4.8579   -4.2825   -0.0210 C   0  0  0  0  0  0  0  0  0  0  0  0
    4.6226   -4.0054   -1.3417 C   0  0  0  0  0  0  0  0  0  0  0  0
    4.3871   -2.8425   -2.1770 C   0  0  0  0  0  0  0  0  0  0  0  0
    4.5965   -1.4903   -1.9290 C   0  0  0  0  0  0  0  0  0  0  0  0
    4.1222   -0.6515   -2.9625 C   0  0  0  0  0  0  0  0  0  0  0  0
    3.6340   -1.3088   -4.0499 C   0  0  0  0  0  0  0  0  0  0  0  0
    3.6912   -3.0416   -3.7599 S   0  0  0  0  0  0  0  0  0  0  0  0
    3.1408   -3.0700    4.8261 C   0  0  0  0  0  0  0  0  0  0  0  0
    3.8247   -4.1805    5.2723 O   0  0  0  0  0  0  0  0  0  0  0  0
    3.1318   -4.7603    6.3865 C   0  0  0  0  0  0  0  0  0  0  0  0
    2.7842   -6.2051    5.9906 C   0  0  0  0  0  0  0  0  0  0  0  0
    3.9899   -4.6623    7.6527 C   0  0  0  0  0  0  0  0  0  0  0  0
    1.9568   -3.8592    6.5006 C   0  0  0  0  0  0  0  0  0  0  0  0
    1.9368   -2.8900    5.6119 C   0  0  0  0  0  0  0  0  0  0  0  0
    0.6082   -2.1900    5.6537 C   0  0  1  0  0  0  0  0  0  0  0  0
    0.0965   -2.8045    6.9961 C   0  0  0  0  0  0  0  0  0  0  0  0
    0.8716   -3.9634    7.2983 O   0  0  0  0  0  0  0  0  0  0  0  0
    0.5587   -0.6415    5.5727 C   0  0  1  0  0  0  0  0  0  0  0  0
   -0.1182    0.0541    6.6126 O   0  0  0  0  0  0  0  0  0  0  0  0
   -0.7927    0.0395    5.3448 C   0  0  0  0  0  0  0  0  0  0  0  0
   -0.9515    1.3956    4.6731 C   0  0  0  0  0  0  0  0  0  0  0  0
   -2.0642   -0.7693    5.2163 C   0  0  0  0  0  0  0  0  0  0  0  0
    2.1132    1.0801    2.9123 C   0  0  0  0  0  0  0  0  0  0  0  0
    2.1027    1.2950    1.6935 O   0  0  0  0  0  0  0  0  0  0  0  0
    3.3582    3.7449    3.2135 H   0  0  0  0  0  0  0  0  0  0  0  0
    2.2818    4.1783    4.5554 H   0  0  0  0  0  0  0  0  0  0  0  0
    1.6297    3.8712    2.9407 H   0  0  0  0  0  0  0  0  0  0  0  0
    2.0953    1.9517    6.1008 H   0  0  0  0  0  0  0  0  0  0  0  0
    2.7213   -0.4510    5.6204 H   0  0  0  0  0  0  0  0  0  0  0  0
    0.2584   -0.5126    2.8203 H   0  0  0  0  0  0  0  0  0  0  0  0
    3.3271   -1.1095    2.1352 H   0  0  0  0  0  0  0  0  0  0  0  0
    4.2087   -0.3015    3.4347 H   0  0  0  0  0  0  0  0  0  0  0  0
    5.7177   -2.0245    3.1293 H   0  0  0  0  0  0  0  0  0  0  0  0
    5.6534   -3.3819    4.1799 H   0  0  0  0  0  0  0  0  0  0  0  0
    4.9769   -5.3061    0.2659 H   0  0  0  0  0  0  0  0  0  0  0  0
    4.6161   -4.9060   -1.9060 H   0  0  0  0  0  0  0  0  0  0  0  0
    5.0316   -0.9777   -1.0648 H   0  0  0  0  0  0  0  0  0  0  0  0
    4.1767    0.4120   -2.8159 H   0  0  0  0  0  0  0  0  0  0  0  0
    3.2370   -0.8664   -4.9665 H   0  0  0  0  0  0  0  0  0  0  0  0
    2.2055   -6.7260    6.7531 H   0  0  0  0  0  0  0  0  0  0  0  0
    3.7016   -6.7632    5.8203 H   0  0  0  0  0  0  0  0  0  0  0  0
    2.2212   -6.2241    5.0576 H   0  0  0  0  0  0  0  0  0  0  0  0
    3.4838   -5.0752    8.5276 H   0  0  0  0  0  0  0  0  0  0  0  0
    4.2294   -3.6217    7.8652 H   0  0  0  0  0  0  0  0  0  0  0  0
    4.9217   -5.1936    7.5106 H   0  0  0  0  0  0  0  0  0  0  0  0
    0.0214   -2.5945    4.8331 H   0  0  0  0  0  0  0  0  0  0  0  0
    0.2559   -2.1238    7.8309 H   0  0  0  0  0  0  0  0  0  0  0  0
   -0.9571   -3.0737    7.0174 H   0  0  0  0  0  0  0  0  0  0  0  0
   -0.6347    1.3057    3.6352 H   0  0  0  0  0  0  0  0  0  0  0  0
   -0.3472    2.1295    5.1893 H   0  0  0  0  0  0  0  0  0  0  0  0
   -1.9891    1.7545    4.7081 H   0  0  0  0  0  0  0  0  0  0  0  0
   -2.9404   -0.1918    5.4956 H   0  0  0  0  0  0  0  0  0  0  0  0
   -2.0631   -1.6581    5.8351 H   0  0  0  0  0  0  0  0  0  0  0  0
   -2.1815   -1.0794    4.1790 H   0  0  0  0  0  0  0  0  0  0  0  0
  1  2  1  0
  1 37  1  0
  1 38  1  0
  1 39  1  0
  2 35  1  0
  2  3  2  0
  3  4  1  0
  3 40  1  0
  4 30  1  0
  4  5  1  0
  4 41  1  1
  5  6  1  6
  5  7  1  0
  5 35  1  0
  6 42  1  0
  7  8  1  0
  7 43  1  0
  7 44  1  0
  8  9  1  0
  8 20  2  3
  9 10  1  0
  9 45  1  0
  9 46  1  0
 10 11  1  0
 11 12  2  0
 11 13  1  0
 13 14  2  3
 13 47  1  0
 14 15  1  0
 14 48  1  0
 15 19  1  0
 15 16  2  0
 16 17  1  0
 16 49  1  0
 17 18  2  0
 17 50  1  0
 18 19  1  0
 18 51  1  0
 20 26  1  0
 20 21  1  0
 21 22  1  0
 22 23  1  0
 22 24  1  0
 22 25  1  0
 23 52  1  0
 23 53  1  0
 23 54  1  0
 24 55  1  0
 24 56  1  0
 24 57  1  0
 25 29  1  0
 25 26  2  0
 26 27  1  0
 27 28  1  0
 27 30  1  0
 27 58  1  6
 28 29  1  0
 28 59  1  0
 28 60  1  0
 30 32  1  0
 30 31  1  1
 31 32  1  0
 32 33  1  0
 32 34  1  0
 33 61  1  0
 33 62  1  0
 33 63  1  0
 34 64  1  0
 34 65  1  0
 34 66  1  0
 35 36  2  0
M  END
>  <i_m_ct_stereo_status>  (185) 
1

>  <s_m_source_file>  (185) 
/var/tmp/pbs.5083856.sched01/tmphq7z50f0/75yhppymv9.sdf

>  <i_m_source_file_index>  (185) 
2

>  <i_lp_mmshare_version>  (185) 
48012

>  <i_f3d_flags>  (185) 
0

>  <s_epik_input>  (185) 
W0NIM11DMShbQ0gzXSlPW0NAXTEyW0NASF0zW0NAQF0oW09IXSkoQyg9TylDKFtDSDNdKT1bQ0hdMylbQ0gyXS9DKD1DLzRDNT1DKEMoTzQpKFtDSDNdKVtDSDNdKU9bQ0gyXVtDQEBIXTI1KVtDSDJdT0MoPU8pL1tDSF09W0NIXS9jNltjSF1bY0hdW2NIXXM2

>  <s_epik_cmdline>  (185) 
J2VwaWtfcHl0aG9uJywgJy1waHQnLCAnMi4wJywgJy1waCcsICc3LjAnLCAnLXRuJywgJzgnLCAnLW1hJywgJzIwMCcsICctaW1hZScsICc8aW5maWxlLm1hZT4nLCAnLW9tYWUnLCAnPG91dGZpbGUubWFlPic=

>  <r_lp_tautomer_probability>  (185) 
1

>  <r_epik_Ionization_Penalty>  (185) 
8.32355e-05

>  <r_epik_Ionization_Penalty_Charging>  (185) 
0

>  <r_epik_Ionization_Penalty_Neutral>  (185) 
8.32355e-05

>  <r_epik_State_Penalty>  (185) 
0

>  <r_epik_Charging_Adjusted_Penalty>  (185) 
0

>  <i_epik_Tot_Q>  (185) 
0

>  <i_epik_Tot_abs_Q>  (185) 
0

>  <s_epik_Chemistry_Notes>  (185) 
This compound has an ester and may undergo hydrolysis at high or low pH.

>  <s_lp_Force_Field>  (185) 
OPLS3e

>  <r_lp_Energy>  (185) 
19.086

>  <b_lp_Chiralities_Consistent>  (185) 
1

>  <s_lp_Variant>  (185) 
54:0-3

>  <s_i_glide_gridfile>  (185) 
pfpi4k_grid

>  <i_i_glide_lignum>  (185) 
2

>  <i_i_glide_rotatable_bonds>  (185) 
6

>  <r_i_docking_score>  (185) 
-2.06539

>  <r_i_glide_ligand_efficiency>  (185) 
-0.057372

>  <r_i_glide_ligand_efficiency_sa>  (185) 
-0.189438

>  <r_i_glide_ligand_efficiency_ln>  (185) 
-0.450613

>  <r_i_glide_gscore>  (185) 
-2.06539

>  <r_i_glide_lipo>  (185) 
-0.466152

>  <r_i_glide_hbond>  (185) 
0

>  <r_i_glide_metal>  (185) 
-0

>  <r_i_glide_rewards>  (185) 
-0.0436213

>  <r_i_glide_evdw>  (185) 
-35.5221

>  <r_i_glide_ecoul>  (185) 
-0.613894

>  <r_i_glide_erotb>  (185) 
0.314332

>  <r_i_glide_esite>  (185) 
-0.00175983

>  <r_i_glide_emodel>  (185) 
-35.8352

>  <r_i_glide_energy>  (185) 
-36.136

>  <r_i_glide_einternal>  (185) 
3.33303

>  <r_i_glide_intrahb_reward>  (185) 
-0

>  <i_i_glide_confnum>  (185) 
3

>  <i_i_glide_posenum>  (185) 
2

>  <r_i_glide_eff_state_penalty>  (185) 
0

>  <ligand_id>  (185) 
54

>  <original_smiles>  (185) 
CC1=CC2C(O)(CC(COC(=O)C=Cc3cccs3)=C3OC(C)(C)C4=C3C(CO4)C23OC3(C)C)C1=O

>  <smiles>  (185) 
[H]OC12C(=O)C(C([H])([H])[H])=C([H])C1([H])C1(OC1(C([H])([H])[H])C([H])([H])[H])C1([H])C3=C(OC1([H])[H])C(C([H])([H])[H])(C([H])([H])[H])OC3=C(C([H])([H])OC(=O)C([H])=C([H])c1sc([H])c([H])c1[H])C2([H])[H]

$$$$
54:2:2
     RDKit          3D

 66 71  0  0  1  0  0  0  0  0999 V2000
    2.6304    4.4308    2.9417 C   0  0  0  0  0  0  0  0  0  0  0  0
    2.6730    3.0551    3.5770 C   0  0  0  0  0  0  0  0  0  0  0  0
    3.0158    2.6958    4.8268 C   0  0  0  0  0  0  0  0  0  0  0  0
    2.8791    1.2124    5.1121 C   0  0  2  0  0  0  0  0  0  0  0  0
    2.5033    0.6136    3.7272 C   0  0  2  0  0  0  0  0  0  0  0  0
    1.3439   -0.2121    3.7096 O   0  0  0  0  0  0  0  0  0  0  0  0
    3.6457   -0.1589    3.0831 C   0  0  0  0  0  0  0  0  0  0  0  0
    4.2957   -1.3195    3.8311 C   0  0  0  0  0  0  0  0  0  0  0  0
    5.3609   -1.9667    2.9766 C   0  0  0  0  0  0  0  0  0  0  0  0
    4.7667   -2.8757    2.0711 O   0  0  0  0  0  0  0  0  0  0  0  0
    4.7164   -2.5785    0.7660 C   0  0  0  0  0  0  0  0  0  0  0  0
    5.3455   -1.6540    0.2711 O   0  0  0  0  0  0  0  0  0  0  0  0
    3.8452   -3.5046    0.0330 C   0  0  0  0  0  0  0  0  0  0  0  0
    3.3901   -3.3535   -1.2339 C   0  0  0  0  0  0  0  0  0  0  0  0
    3.4690   -2.3219   -2.2333 C   0  0  0  0  0  0  0  0  0  0  0  0
    3.8446   -0.9997   -2.1116 C   0  0  0  0  0  0  0  0  0  0  0  0
    3.8561   -0.2924   -3.3376 C   0  0  0  0  0  0  0  0  0  0  0  0
    3.4180   -1.0297   -4.3971 C   0  0  0  0  0  0  0  0  0  0  0  0
    3.0529   -2.6673   -3.8934 S   0  0  0  0  0  0  0  0  0  0  0  0
    4.1296   -1.7982    5.0828 C   0  0  0  0  0  0  0  0  0  0  0  0
    4.9955   -2.8107    5.4727 O   0  0  0  0  0  0  0  0  0  0  0  0
    4.7880   -3.1339    6.8533 C   0  0  0  0  0  0  0  0  0  0  0  0
    4.3989   -4.6164    6.9154 C   0  0  0  0  0  0  0  0  0  0  0  0
    6.0487   -2.7909    7.6491 C   0  0  0  0  0  0  0  0  0  0  0  0
    3.6712   -2.1920    7.1825 C   0  0  0  0  0  0  0  0  0  0  0  0
    3.2955   -1.4401    6.2097 C   0  0  0  0  0  0  0  0  0  0  0  0
    2.0364   -0.7003    6.5905 C   0  0  1  0  0  0  0  0  0  0  0  0
    2.0938   -1.0028    8.1386 C   0  0  0  0  0  0  0  0  0  0  0  0
    2.9956   -2.1055    8.3524 O   0  0  0  0  0  0  0  0  0  0  0  0
    1.8877    0.7823    6.2066 C   0  0  1  0  0  0  0  0  0  0  0  0
    1.6034    1.7071    7.2664 O   0  0  0  0  0  0  0  0  0  0  0  0
    0.5091    1.4421    6.3711 C   0  0  0  0  0  0  0  0  0  0  0  0
    0.0462    2.6260    5.5462 C   0  0  0  0  0  0  0  0  0  0  0  0
   -0.6844    0.6590    6.9027 C   0  0  0  0  0  0  0  0  0  0  0  0
    2.2484    1.8556    2.8659 C   0  0  0  0  0  0  0  0  0  0  0  0
    1.7612    1.7960    1.7410 O   0  0  0  0  0  0  0  0  0  0  0  0
    3.3603    4.4920    2.1358 H   0  0  0  0  0  0  0  0  0  0  0  0
    2.8367    5.2300    3.6573 H   0  0  0  0  0  0  0  0  0  0  0  0
    1.6505    4.6134    2.5027 H   0  0  0  0  0  0  0  0  0  0  0  0
    3.3511    3.3871    5.5862 H   0  0  0  0  0  0  0  0  0  0  0  0
    3.8877    0.9230    5.4122 H   0  0  0  0  0  0  0  0  0  0  0  0
    0.5850    0.3303    3.8733 H   0  0  0  0  0  0  0  0  0  0  0  0
    3.2939   -0.5261    2.1152 H   0  0  0  0  0  0  0  0  0  0  0  0
    4.4535    0.5349    2.8435 H   0  0  0  0  0  0  0  0  0  0  0  0
    5.9403   -1.1719    2.5050 H   0  0  0  0  0  0  0  0  0  0  0  0
    6.1068   -2.5097    3.5553 H   0  0  0  0  0  0  0  0  0  0  0  0
    3.5393   -4.4066    0.5523 H   0  0  0  0  0  0  0  0  0  0  0  0
    2.8015   -4.1852   -1.5578 H   0  0  0  0  0  0  0  0  0  0  0  0
    4.1000   -0.4553   -1.2059 H   0  0  0  0  0  0  0  0  0  0  0  0
    4.1633    0.7426   -3.3515 H   0  0  0  0  0  0  0  0  0  0  0  0
    3.2590   -0.6899   -5.4140 H   0  0  0  0  0  0  0  0  0  0  0  0
    4.1735   -4.9459    7.9297 H   0  0  0  0  0  0  0  0  0  0  0  0
    5.2173   -5.2262    6.5350 H   0  0  0  0  0  0  0  0  0  0  0  0
    3.5313   -4.8197    6.2881 H   0  0  0  0  0  0  0  0  0  0  0  0
    5.9262   -2.9964    8.7138 H   0  0  0  0  0  0  0  0  0  0  0  0
    6.2966   -1.7363    7.5374 H   0  0  0  0  0  0  0  0  0  0  0  0
    6.8916   -3.3684    7.2817 H   0  0  0  0  0  0  0  0  0  0  0  0
    1.2049   -1.2599    6.1684 H   0  0  0  0  0  0  0  0  0  0  0  0
    2.5147   -0.1589    8.6898 H   0  0  0  0  0  0  0  0  0  0  0  0
    1.1321   -1.2227    8.6048 H   0  0  0  0  0  0  0  0  0  0  0  0
   -0.0380    2.3145    4.5055 H   0  0  0  0  0  0  0  0  0  0  0  0
    0.7638    3.4358    5.6303 H   0  0  0  0  0  0  0  0  0  0  0  0
   -0.9091    3.0296    5.8870 H   0  0  0  0  0  0  0  0  0  0  0  0
   -1.4197    1.3201    7.3615 H   0  0  0  0  0  0  0  0  0  0  0  0
   -0.3955   -0.0619    7.6555 H   0  0  0  0  0  0  0  0  0  0  0  0
   -1.1553    0.1089    6.0867 H   0  0  0  0  0  0  0  0  0  0  0  0
  1  2  1  0
  1 37  1  0
  1 38  1  0
  1 39  1  0
  2 35  1  0
  2  3  2  0
  3  4  1  0
  3 40  1  0
  4 30  1  0
  4  5  1  0
  4 41  1  1
  5  6  1  1
  5  7  1  0
  5 35  1  0
  6 42  1  0
  7  8  1  0
  7 43  1  0
  7 44  1  0
  8  9  1  0
  8 20  2  3
  9 10  1  0
  9 45  1  0
  9 46  1  0
 10 11  1  0
 11 12  2  0
 11 13  1  0
 13 14  2  3
 13 47  1  0
 14 15  1  0
 14 48  1  0
 15 19  1  0
 15 16  2  0
 16 17  1  0
 16 49  1  0
 17 18  2  0
 17 50  1  0
 18 19  1  0
 18 51  1  0
 20 26  1  0
 20 21  1  0
 21 22  1  0
 22 23  1  0
 22 24  1  0
 22 25  1  0
 23 52  1  0
 23 53  1  0
 23 54  1  0
 24 55  1  0
 24 56  1  0
 24 57  1  0
 25 29  1  0
 25 26  2  0
 26 27  1  0
 27 28  1  0
 27 30  1  0
 27 58  1  6
 28 29  1  0
 28 59  1  0
 28 60  1  0
 30 32  1  0
 30 31  1  1
 31 32  1  0
 32 33  1  0
 32 34  1  0
 33 61  1  0
 33 62  1  0
 33 63  1  0
 34 64  1  0
 34 65  1  0
 34 66  1  0
 35 36  2  0
M  END
>  <i_m_ct_stereo_status>  (186) 
1

>  <s_m_source_file>  (186) 
/var/tmp/pbs.5083856.sched01/tmphq7z50f0/75yhppymv9.sdf

>  <i_m_source_file_index>  (186) 
2

>  <i_lp_mmshare_version>  (186) 
48012

>  <i_f3d_flags>  (186) 
0

>  <s_epik_input>  (186) 
W0NIM11DMShbQ0gzXSlPW0NAXTEyW0NASF0zW0NAQF0oW09IXSkoQyg9TylDKFtDSDNdKT1bQ0hdMylbQ0gyXS9DKD1DLzRDNT1DKEMoTzQpKFtDSDNdKVtDSDNdKU9bQ0gyXVtDQEBIXTI1KVtDSDJdT0MoPU8pL1tDSF09W0NIXS9jNltjSF1bY0hdW2NIXXM2

>  <s_epik_cmdline>  (186) 
J2VwaWtfcHl0aG9uJywgJy1waHQnLCAnMi4wJywgJy1waCcsICc3LjAnLCAnLXRuJywgJzgnLCAnLW1hJywgJzIwMCcsICctaW1hZScsICc8aW5maWxlLm1hZT4nLCAnLW9tYWUnLCAnPG91dGZpbGUubWFlPic=

>  <r_lp_tautomer_probability>  (186) 
1

>  <r_epik_Ionization_Penalty>  (186) 
8.32355e-05

>  <r_epik_Ionization_Penalty_Charging>  (186) 
0

>  <r_epik_Ionization_Penalty_Neutral>  (186) 
8.32355e-05

>  <r_epik_State_Penalty>  (186) 
0

>  <r_epik_Charging_Adjusted_Penalty>  (186) 
0

>  <i_epik_Tot_Q>  (186) 
0

>  <i_epik_Tot_abs_Q>  (186) 
0

>  <s_epik_Chemistry_Notes>  (186) 
This compound has an ester and may undergo hydrolysis at high or low pH.

>  <s_lp_Force_Field>  (186) 
OPLS3e

>  <r_lp_Energy>  (186) 
19.086

>  <b_lp_Chiralities_Consistent>  (186) 
1

>  <s_lp_Variant>  (186) 
54:0-3

>  <s_i_glide_gridfile>  (186) 
pfpi4k_grid

>  <i_i_glide_lignum>  (186) 
2

>  <i_i_glide_rotatable_bonds>  (186) 
6

>  <r_i_docking_score>  (186) 
-1.90095

>  <r_i_glide_ligand_efficiency>  (186) 
-0.0528041

>  <r_i_glide_ligand_efficiency_sa>  (186) 
-0.174355

>  <r_i_glide_ligand_efficiency_ln>  (186) 
-0.414735

>  <r_i_glide_gscore>  (186) 
-1.90095

>  <r_i_glide_lipo>  (186) 
-0.530076

>  <r_i_glide_hbond>  (186) 
0

>  <r_i_glide_metal>  (186) 
-0

>  <r_i_glide_rewards>  (186) 
-0.0194664

>  <r_i_glide_evdw>  (186) 
-31.9283

>  <r_i_glide_ecoul>  (186) 
-0.441037

>  <r_i_glide_erotb>  (186) 
0.314332

>  <r_i_glide_esite>  (186) 
-0.00316621

>  <r_i_glide_emodel>  (186) 
-33.1678

>  <r_i_glide_energy>  (186) 
-32.3693

>  <r_i_glide_einternal>  (186) 
3.36997

>  <r_i_glide_intrahb_reward>  (186) 
-0

>  <i_i_glide_confnum>  (186) 
3

>  <i_i_glide_posenum>  (186) 
23

>  <r_i_glide_eff_state_penalty>  (186) 
0

>  <ligand_id>  (186) 
54

>  <original_smiles>  (186) 
CC1=CC2C(O)(CC(COC(=O)C=Cc3cccs3)=C3OC(C)(C)C4=C3C(CO4)C23OC3(C)C)C1=O

>  <smiles>  (186) 
[H]OC12C(=O)C(C([H])([H])[H])=C([H])C1([H])C1(OC1(C([H])([H])[H])C([H])([H])[H])C1([H])C3=C(OC1([H])[H])C(C([H])([H])[H])(C([H])([H])[H])OC3=C(C([H])([H])OC(=O)C([H])=C([H])c1sc([H])c([H])c1[H])C2([H])[H]

$$$$
54:3:0
     RDKit          3D

 66 71  0  0  1  0  0  0  0  0999 V2000
   -1.4106   -8.7436    2.6542 C   0  0  0  0  0  0  0  0  0  0  0  0
   -0.0597   -8.1207    2.9169 C   0  0  0  0  0  0  0  0  0  0  0  0
    0.8473   -8.4029    3.8724 C   0  0  0  0  0  0  0  0  0  0  0  0
    2.0657   -7.4982    3.8353 C   0  0  2  0  0  0  0  0  0  0  0  0
    1.8895   -6.7309    2.4556 C   0  0  2  0  0  0  0  0  0  0  0  0
    2.6689   -7.2522    1.4044 O   0  0  0  0  0  0  0  0  0  0  0  0
    2.1548   -5.2021    2.5061 C   0  0  0  0  0  0  0  0  0  0  0  0
    3.5543   -4.9689    3.0631 C   0  0  0  0  0  0  0  0  0  0  0  0
    4.7947   -5.4195    2.2765 C   0  0  0  0  0  0  0  0  0  0  0  0
    5.5069   -4.2983    1.7446 O   0  0  0  0  0  0  0  0  0  0  0  0
    5.1575   -3.6757    0.5937 C   0  0  0  0  0  0  0  0  0  0  0  0
    5.8114   -2.7334    0.1492 O   0  0  0  0  0  0  0  0  0  0  0  0
    3.9163   -4.2193   -0.0354 C   0  0  0  0  0  0  0  0  0  0  0  0
    3.2373   -3.7113   -1.0747 C   0  0  0  0  0  0  0  0  0  0  0  0
    3.3909   -2.5895   -1.9330 C   0  0  0  0  0  0  0  0  0  0  0  0
    4.0963   -1.4374   -1.7354 C   0  0  0  0  0  0  0  0  0  0  0  0
    4.1345   -0.6120   -2.8881 C   0  0  0  0  0  0  0  0  0  0  0  0
    3.4123   -1.1039   -3.9471 C   0  0  0  0  0  0  0  0  0  0  0  0
    2.6855   -2.6347   -3.5377 S   0  0  0  0  0  0  0  0  0  0  0  0
    3.6208   -4.8624    4.4067 C   0  0  0  0  0  0  0  0  0  0  0  0
    2.7561   -4.1133    5.1597 O   0  0  0  0  0  0  0  0  0  0  0  0
    2.9941   -4.4446    6.5469 C   0  0  0  0  0  0  0  0  0  0  0  0
    3.7683   -3.3188    7.2513 C   0  0  0  0  0  0  0  0  0  0  0  0
    1.6002   -4.6779    7.1319 C   0  0  0  0  0  0  0  0  0  0  0  0
    3.9138   -5.6447    6.4493 C   0  0  0  0  0  0  0  0  0  0  0  0
    4.2454   -5.8675    5.1997 C   0  0  0  0  0  0  0  0  0  0  0  0
    4.4873   -7.3325    4.9717 C   0  0  1  0  0  0  0  0  0  0  0  0
    4.6059   -7.7635    6.4692 C   0  0  0  0  0  0  0  0  0  0  0  0
    3.9235   -6.7513    7.2396 O   0  0  0  0  0  0  0  0  0  0  0  0
    3.4361   -8.1715    4.1415 C   0  0  1  0  0  0  0  0  0  0  0  0
    3.3244   -9.5459    4.5852 O   0  0  0  0  0  0  0  0  0  0  0  0
    3.9207   -9.3732    3.3047 C   0  0  0  0  0  0  0  0  0  0  0  0
    3.1275   -9.9704    2.1394 C   0  0  0  0  0  0  0  0  0  0  0  0
    5.3990   -9.7074    3.2206 C   0  0  0  0  0  0  0  0  0  0  0  0
    0.4425   -7.0460    2.0787 C   0  0  0  0  0  0  0  0  0  0  0  0
   -0.1588   -6.4935    1.1534 O   0  0  0  0  0  0  0  0  0  0  0  0
   -1.4101   -9.2681    1.6956 H   0  0  0  0  0  0  0  0  0  0  0  0
   -2.1794   -7.9694    2.6095 H   0  0  0  0  0  0  0  0  0  0  0  0
   -1.6906   -9.4569    3.4280 H   0  0  0  0  0  0  0  0  0  0  0  0
    0.7015   -9.1445    4.6476 H   0  0  0  0  0  0  0  0  0  0  0  0
    1.8466   -6.8102    4.6444 H   0  0  0  0  0  0  0  0  0  0  0  0
    2.5527   -8.1896    1.3266 H   0  0  0  0  0  0  0  0  0  0  0  0
    2.0269   -4.7307    1.5218 H   0  0  0  0  0  0  0  0  0  0  0  0
    1.4232   -4.7639    3.1926 H   0  0  0  0  0  0  0  0  0  0  0  0
    5.5011   -5.8954    2.9465 H   0  0  0  0  0  0  0  0  0  0  0  0
    4.5932   -6.1237    1.4633 H   0  0  0  0  0  0  0  0  0  0  0  0
    3.4899   -5.1269    0.3618 H   0  0  0  0  0  0  0  0  0  0  0  0
    2.3475   -4.2619   -1.3441 H   0  0  0  0  0  0  0  0  0  0  0  0
    4.6102   -1.1953   -0.8042 H   0  0  0  0  0  0  0  0  0  0  0  0
    4.6772    0.3241   -2.8812 H   0  0  0  0  0  0  0  0  0  0  0  0
    3.2167   -0.6564   -4.9184 H   0  0  0  0  0  0  0  0  0  0  0  0
    3.9513   -3.5765    8.2989 H   0  0  0  0  0  0  0  0  0  0  0  0
    3.2314   -2.3717    7.2154 H   0  0  0  0  0  0  0  0  0  0  0  0
    4.7446   -3.1765    6.7832 H   0  0  0  0  0  0  0  0  0  0  0  0
    1.6189   -4.9904    8.1727 H   0  0  0  0  0  0  0  0  0  0  0  0
    1.0430   -5.4120    6.5539 H   0  0  0  0  0  0  0  0  0  0  0  0
    1.0270   -3.7532    7.0779 H   0  0  0  0  0  0  0  0  0  0  0  0
    5.4602   -7.4122    4.4914 H   0  0  0  0  0  0  0  0  0  0  0  0
    4.2673   -8.7631    6.7193 H   0  0  0  0  0  0  0  0  0  0  0  0
    5.6551   -7.7202    6.7586 H   0  0  0  0  0  0  0  0  0  0  0  0
    3.5396   -9.5988    1.1928 H   0  0  0  0  0  0  0  0  0  0  0  0
    2.0718   -9.7077    2.1974 H   0  0  0  0  0  0  0  0  0  0  0  0
    3.1907  -11.0624    2.1369 H   0  0  0  0  0  0  0  0  0  0  0  0
    5.8643   -9.0950    2.4470 H   0  0  0  0  0  0  0  0  0  0  0  0
    5.5568  -10.7590    2.9852 H   0  0  0  0  0  0  0  0  0  0  0  0
    5.9101   -9.5098    4.1672 H   0  0  0  0  0  0  0  0  0  0  0  0
  1  2  1  0
  1 37  1  0
  1 38  1  0
  1 39  1  0
  2 35  1  0
  2  3  2  0
  3  4  1  0
  3 40  1  0
  4 30  1  0
  4  5  1  0
  4 41  1  1
  5  6  1  6
  5  7  1  0
  5 35  1  0
  6 42  1  0
  7  8  1  0
  7 43  1  0
  7 44  1  0
  8  9  1  0
  8 20  2  3
  9 10  1  0
  9 45  1  0
  9 46  1  0
 10 11  1  0
 11 12  2  0
 11 13  1  0
 13 14  2  3
 13 47  1  0
 14 15  1  0
 14 48  1  0
 15 19  1  0
 15 16  2  0
 16 17  1  0
 16 49  1  0
 17 18  2  0
 17 50  1  0
 18 19  1  0
 18 51  1  0
 20 26  1  0
 20 21  1  0
 21 22  1  0
 22 23  1  0
 22 24  1  0
 22 25  1  0
 23 52  1  0
 23 53  1  0
 23 54  1  0
 24 55  1  0
 24 56  1  0
 24 57  1  0
 25 29  1  0
 25 26  2  0
 26 27  1  0
 27 28  1  0
 27 30  1  0
 27 58  1  6
 28 29  1  0
 28 59  1  0
 28 60  1  0
 30 32  1  0
 30 31  1  1
 31 32  1  0
 32 33  1  0
 32 34  1  0
 33 61  1  0
 33 62  1  0
 33 63  1  0
 34 64  1  0
 34 65  1  0
 34 66  1  0
 35 36  2  0
M  END
>  <i_m_ct_stereo_status>  (187) 
1

>  <s_m_source_file>  (187) 
/var/tmp/pbs.5083856.sched01/tmphq7z50f0/75yhppymv9.sdf

>  <i_m_source_file_index>  (187) 
3

>  <i_lp_mmshare_version>  (187) 
48012

>  <i_f3d_flags>  (187) 
0

>  <s_epik_input>  (187) 
W0NIM11DMShbQ0gzXSlPW0NAXTEyW0NASF0zW0NAQF0oW09IXSkoQyg9TylDKFtDSDNdKT1bQ0hdMylbQ0gyXS9DKD1DLzRDNT1DKEMoTzQpKFtDSDNdKVtDSDNdKU9bQ0gyXVtDQEBIXTI1KVtDSDJdT0MoPU8pL1tDSF09W0NIXS9jNltjSF1bY0hdW2NIXXM2

>  <s_epik_cmdline>  (187) 
J2VwaWtfcHl0aG9uJywgJy1waHQnLCAnMi4wJywgJy1waCcsICc3LjAnLCAnLXRuJywgJzgnLCAnLW1hJywgJzIwMCcsICctaW1hZScsICc8aW5maWxlLm1hZT4nLCAnLW9tYWUnLCAnPG91dGZpbGUubWFlPic=

>  <r_lp_tautomer_probability>  (187) 
1

>  <r_epik_Ionization_Penalty>  (187) 
8.32355e-05

>  <r_epik_Ionization_Penalty_Charging>  (187) 
0

>  <r_epik_Ionization_Penalty_Neutral>  (187) 
8.32355e-05

>  <r_epik_State_Penalty>  (187) 
0

>  <r_epik_Charging_Adjusted_Penalty>  (187) 
0

>  <i_epik_Tot_Q>  (187) 
0

>  <i_epik_Tot_abs_Q>  (187) 
0

>  <s_epik_Chemistry_Notes>  (187) 
This compound has an ester and may undergo hydrolysis at high or low pH.

>  <s_lp_Force_Field>  (187) 
OPLS3e

>  <r_lp_Energy>  (187) 
52.9488

>  <b_lp_Chiralities_Consistent>  (187) 
1

>  <s_lp_Variant>  (187) 
54:0-4

>  <s_i_glide_gridfile>  (187) 
pfpi4k_grid

>  <i_i_glide_lignum>  (187) 
3

>  <i_i_glide_rotatable_bonds>  (187) 
6

>  <r_i_docking_score>  (187) 
-2.99916

>  <r_i_glide_ligand_efficiency>  (187) 
-0.0833101

>  <r_i_glide_ligand_efficiency_sa>  (187) 
-0.275084

>  <r_i_glide_ligand_efficiency_ln>  (187) 
-0.654337

>  <r_i_glide_gscore>  (187) 
-2.99916

>  <r_i_glide_lipo>  (187) 
-0.58572

>  <r_i_glide_hbond>  (187) 
-0.237459

>  <r_i_glide_metal>  (187) 
-0

>  <r_i_glide_rewards>  (187) 
-0.0555323

>  <r_i_glide_evdw>  (187) 
-35.3891

>  <r_i_glide_ecoul>  (187) 
-3.97701

>  <r_i_glide_erotb>  (187) 
0.314332

>  <r_i_glide_esite>  (187) 
-0.073916

>  <r_i_glide_emodel>  (187) 
-39.821

>  <r_i_glide_energy>  (187) 
-39.3661

>  <r_i_glide_einternal>  (187) 
6.68817

>  <r_i_glide_intrahb_reward>  (187) 
-0

>  <i_i_glide_confnum>  (187) 
2

>  <i_i_glide_posenum>  (187) 
15

>  <r_i_glide_eff_state_penalty>  (187) 
0

>  <ligand_id>  (187) 
54

>  <original_smiles>  (187) 
CC1=CC2C(O)(CC(COC(=O)C=Cc3cccs3)=C3OC(C)(C)C4=C3C(CO4)C23OC3(C)C)C1=O

>  <smiles>  (187) 
[H]OC12C(=O)C(C([H])([H])[H])=C([H])C1([H])C1(OC1(C([H])([H])[H])C([H])([H])[H])C1([H])C3=C(OC1([H])[H])C(C([H])([H])[H])(C([H])([H])[H])OC3=C(C([H])([H])OC(=O)C([H])=C([H])c1sc([H])c([H])c1[H])C2([H])[H]

$$$$
54:3:1
     RDKit          3D

 66 71  0  0  1  0  0  0  0  0999 V2000
   -1.7572   -8.1876    3.6980 C   0  0  0  0  0  0  0  0  0  0  0  0
   -0.2664   -7.9297    3.7704 C   0  0  0  0  0  0  0  0  0  0  0  0
    0.6424   -8.3932    4.6435 C   0  0  0  0  0  0  0  0  0  0  0  0
    2.0408   -7.8788    4.3950 C   0  0  2  0  0  0  0  0  0  0  0  0
    1.9098   -7.2041    2.9613 C   0  0  2  0  0  0  0  0  0  0  0  0
    2.3635   -7.9820    1.8763 O   0  0  0  0  0  0  0  0  0  0  0  0
    2.5686   -5.8124    2.7992 C   0  0  0  0  0  0  0  0  0  0  0  0
    4.0667   -5.8986    3.1947 C   0  0  0  0  0  0  0  0  0  0  0  0
    5.0434   -6.7110    2.3247 C   0  0  0  0  0  0  0  0  0  0  0  0
    5.8162   -5.8061    1.5063 O   0  0  0  0  0  0  0  0  0  0  0  0
    5.2317   -5.2011    0.4704 C   0  0  0  0  0  0  0  0  0  0  0  0
    4.1243   -5.4642    0.1173 O   0  0  0  0  0  0  0  0  0  0  0  0
    6.1715   -4.2725   -0.2638 C   0  0  0  0  0  0  0  0  0  0  0  0
    5.7397   -3.4672   -1.2782 C   0  0  0  0  0  0  0  0  0  0  0  0
    4.4957   -3.1417   -1.8983 C   0  0  0  0  0  0  0  0  0  0  0  0
    3.1743   -3.3319   -1.5134 C   0  0  0  0  0  0  0  0  0  0  0  0
    2.2324   -2.9965   -2.4860 C   0  0  0  0  0  0  0  0  0  0  0  0
    2.7499   -2.4124   -3.6025 C   0  0  0  0  0  0  0  0  0  0  0  0
    4.4952   -2.3730   -3.5008 S   0  0  0  0  0  0  0  0  0  0  0  0
    4.3271   -5.7399    4.4782 C   0  0  0  0  0  0  0  0  0  0  0  0
    3.7775   -4.7380    5.2538 O   0  0  0  0  0  0  0  0  0  0  0  0
    4.0964   -5.0028    6.6428 C   0  0  0  0  0  0  0  0  0  0  0  0
    5.2259   -4.0907    7.1505 C   0  0  0  0  0  0  0  0  0  0  0  0
    2.7795   -4.8010    7.3945 C   0  0  0  0  0  0  0  0  0  0  0  0
    4.6401   -6.4152    6.5661 C   0  0  0  0  0  0  0  0  0  0  0  0
    4.7480   -6.8112    5.3450 C   0  0  0  0  0  0  0  0  0  0  0  0
    4.5491   -8.3002    5.2343 C   0  0  1  0  0  0  0  0  0  0  0  0
    4.7374   -8.6364    6.7493 C   0  0  0  0  0  0  0  0  0  0  0  0
    4.4666   -7.4203    7.4814 O   0  0  0  0  0  0  0  0  0  0  0  0
    3.2242   -8.8795    4.6179 C   0  0  1  0  0  0  0  0  0  0  0  0
    2.8095  -10.1232    5.2157 O   0  0  0  0  0  0  0  0  0  0  0  0
    3.2513  -10.2285    3.8713 C   0  0  0  0  0  0  0  0  0  0  0  0
    2.1943  -10.6930    2.8700 C   0  0  0  0  0  0  0  0  0  0  0  0
    4.5692  -10.9619    3.6659 C   0  0  0  0  0  0  0  0  0  0  0  0
    0.3900   -7.1152    2.7715 C   0  0  0  0  0  0  0  0  0  0  0  0
   -0.1558   -6.4962    1.8482 O   0  0  0  0  0  0  0  0  0  0  0  0
   -2.0172   -8.7635    2.8013 H   0  0  0  0  0  0  0  0  0  0  0  0
   -2.2835   -7.2331    3.6520 H   0  0  0  0  0  0  0  0  0  0  0  0
   -2.1131   -8.7329    4.5737 H   0  0  0  0  0  0  0  0  0  0  0  0
    0.4095   -9.0105    5.4965 H   0  0  0  0  0  0  0  0  0  0  0  0
    2.1241   -7.0855    5.1293 H   0  0  0  0  0  0  0  0  0  0  0  0
    1.9907   -8.8525    1.8989 H   0  0  0  0  0  0  0  0  0  0  0  0
    2.3976   -5.4530    1.7798 H   0  0  0  0  0  0  0  0  0  0  0  0
    2.0729   -5.1050    3.4805 H   0  0  0  0  0  0  0  0  0  0  0  0
    5.7574   -7.2833    2.9539 H   0  0  0  0  0  0  0  0  0  0  0  0
    4.5858   -7.4408    1.6752 H   0  0  0  0  0  0  0  0  0  0  0  0
    7.2142   -4.2727    0.0161 H   0  0  0  0  0  0  0  0  0  0  0  0
    6.5815   -2.9253   -1.7201 H   0  0  0  0  0  0  0  0  0  0  0  0
    2.8124   -3.7262   -0.5594 H   0  0  0  0  0  0  0  0  0  0  0  0
    1.1688   -3.1600   -2.3092 H   0  0  0  0  0  0  0  0  0  0  0  0
    2.2068   -1.9742   -4.4520 H   0  0  0  0  0  0  0  0  0  0  0  0
    5.4638   -4.3124    8.1957 H   0  0  0  0  0  0  0  0  0  0  0  0
    4.9580   -3.0402    7.0699 H   0  0  0  0  0  0  0  0  0  0  0  0
    6.1340   -4.2593    6.5723 H   0  0  0  0  0  0  0  0  0  0  0  0
    2.8407   -5.0280    8.4586 H   0  0  0  0  0  0  0  0  0  0  0  0
    1.9732   -5.3902    6.9578 H   0  0  0  0  0  0  0  0  0  0  0  0
    2.4680   -3.7610    7.3040 H   0  0  0  0  0  0  0  0  0  0  0  0
    5.3944   -8.6701    4.6579 H   0  0  0  0  0  0  0  0  0  0  0  0
    4.1856   -9.4793    7.1448 H   0  0  0  0  0  0  0  0  0  0  0  0
    5.7818   -8.8619    6.9284 H   0  0  0  0  0  0  0  0  0  0  0  0
    2.5791  -10.5100    1.8584 H   0  0  0  0  0  0  0  0  0  0  0  0
    1.2641  -10.1411    2.9953 H   0  0  0  0  0  0  0  0  0  0  0  0
    1.9655  -11.7568    2.9727 H   0  0  0  0  0  0  0  0  0  0  0  0
    5.0713  -10.5537    2.7864 H   0  0  0  0  0  0  0  0  0  0  0  0
    4.4075  -12.0304    3.5256 H   0  0  0  0  0  0  0  0  0  0  0  0
    5.2299  -10.8409    4.5302 H   0  0  0  0  0  0  0  0  0  0  0  0
  1  2  1  0
  1 37  1  0
  1 38  1  0
  1 39  1  0
  2 35  1  0
  2  3  2  0
  3  4  1  0
  3 40  1  0
  4 30  1  0
  4  5  1  0
  4 41  1  1
  5  6  1  6
  5  7  1  0
  5 35  1  0
  6 42  1  0
  7  8  1  0
  7 43  1  0
  7 44  1  0
  8  9  1  0
  8 20  2  3
  9 10  1  0
  9 45  1  0
  9 46  1  0
 10 11  1  0
 11 12  2  0
 11 13  1  0
 13 14  2  3
 13 47  1  0
 14 15  1  0
 14 48  1  0
 15 19  1  0
 15 16  2  0
 16 17  1  0
 16 49  1  0
 17 18  2  0
 17 50  1  0
 18 19  1  0
 18 51  1  0
 20 26  1  0
 20 21  1  0
 21 22  1  0
 22 23  1  0
 22 24  1  0
 22 25  1  0
 23 52  1  0
 23 53  1  0
 23 54  1  0
 24 55  1  0
 24 56  1  0
 24 57  1  0
 25 29  1  0
 25 26  2  0
 26 27  1  0
 27 28  1  0
 27 30  1  0
 27 58  1  6
 28 29  1  0
 28 59  1  0
 28 60  1  0
 30 32  1  0
 30 31  1  1
 31 32  1  0
 32 33  1  0
 32 34  1  0
 33 61  1  0
 33 62  1  0
 33 63  1  0
 34 64  1  0
 34 65  1  0
 34 66  1  0
 35 36  2  0
M  END
>  <i_m_ct_stereo_status>  (188) 
1

>  <s_m_source_file>  (188) 
/var/tmp/pbs.5083856.sched01/tmphq7z50f0/75yhppymv9.sdf

>  <i_m_source_file_index>  (188) 
3

>  <i_lp_mmshare_version>  (188) 
48012

>  <i_f3d_flags>  (188) 
0

>  <s_epik_input>  (188) 
W0NIM11DMShbQ0gzXSlPW0NAXTEyW0NASF0zW0NAQF0oW09IXSkoQyg9TylDKFtDSDNdKT1bQ0hdMylbQ0gyXS9DKD1DLzRDNT1DKEMoTzQpKFtDSDNdKVtDSDNdKU9bQ0gyXVtDQEBIXTI1KVtDSDJdT0MoPU8pL1tDSF09W0NIXS9jNltjSF1bY0hdW2NIXXM2

>  <s_epik_cmdline>  (188) 
J2VwaWtfcHl0aG9uJywgJy1waHQnLCAnMi4wJywgJy1waCcsICc3LjAnLCAnLXRuJywgJzgnLCAnLW1hJywgJzIwMCcsICctaW1hZScsICc8aW5maWxlLm1hZT4nLCAnLW9tYWUnLCAnPG91dGZpbGUubWFlPic=

>  <r_lp_tautomer_probability>  (188) 
1

>  <r_epik_Ionization_Penalty>  (188) 
8.32355e-05

>  <r_epik_Ionization_Penalty_Charging>  (188) 
0

>  <r_epik_Ionization_Penalty_Neutral>  (188) 
8.32355e-05

>  <r_epik_State_Penalty>  (188) 
0

>  <r_epik_Charging_Adjusted_Penalty>  (188) 
0

>  <i_epik_Tot_Q>  (188) 
0

>  <i_epik_Tot_abs_Q>  (188) 
0

>  <s_epik_Chemistry_Notes>  (188) 
This compound has an ester and may undergo hydrolysis at high or low pH.

>  <s_lp_Force_Field>  (188) 
OPLS3e

>  <r_lp_Energy>  (188) 
52.9488

>  <b_lp_Chiralities_Consistent>  (188) 
1

>  <s_lp_Variant>  (188) 
54:0-4

>  <s_i_glide_gridfile>  (188) 
pfpi4k_grid

>  <i_i_glide_lignum>  (188) 
3

>  <i_i_glide_rotatable_bonds>  (188) 
6

>  <r_i_docking_score>  (188) 
-2.98679

>  <r_i_glide_ligand_efficiency>  (188) 
-0.0829663

>  <r_i_glide_ligand_efficiency_sa>  (188) 
-0.273949

>  <r_i_glide_ligand_efficiency_ln>  (188) 
-0.651636

>  <r_i_glide_gscore>  (188) 
-2.98679

>  <r_i_glide_lipo>  (188) 
-0.741197

>  <r_i_glide_hbond>  (188) 
-0.255407

>  <r_i_glide_metal>  (188) 
-0

>  <r_i_glide_rewards>  (188) 
-0.125934

>  <r_i_glide_evdw>  (188) 
-32.7357

>  <r_i_glide_ecoul>  (188) 
-3.25142

>  <r_i_glide_erotb>  (188) 
0.314332

>  <r_i_glide_esite>  (188) 
-0.0540816

>  <r_i_glide_emodel>  (188) 
-38.8813

>  <r_i_glide_energy>  (188) 
-35.9871

>  <r_i_glide_einternal>  (188) 
3.57884

>  <r_i_glide_intrahb_reward>  (188) 
-0

>  <i_i_glide_confnum>  (188) 
2

>  <i_i_glide_posenum>  (188) 
16

>  <r_i_glide_eff_state_penalty>  (188) 
0

>  <ligand_id>  (188) 
54

>  <original_smiles>  (188) 
CC1=CC2C(O)(CC(COC(=O)C=Cc3cccs3)=C3OC(C)(C)C4=C3C(CO4)C23OC3(C)C)C1=O

>  <smiles>  (188) 
[H]OC12C(=O)C(C([H])([H])[H])=C([H])C1([H])C1(OC1(C([H])([H])[H])C([H])([H])[H])C1([H])C3=C(OC1([H])[H])C(C([H])([H])[H])(C([H])([H])[H])OC3=C(C([H])([H])OC(=O)C([H])=C([H])c1sc([H])c([H])c1[H])C2([H])[H]

$$$$
54:3:2
     RDKit          3D

 66 71  0  0  1  0  0  0  0  0999 V2000
   -1.5840   -9.0097    2.5753 C   0  0  0  0  0  0  0  0  0  0  0  0
   -0.2850   -8.3283    2.9793 C   0  0  0  0  0  0  0  0  0  0  0  0
    0.5822   -8.6514    3.9459 C   0  0  0  0  0  0  0  0  0  0  0  0
    1.7786   -7.7227    4.0222 C   0  0  2  0  0  0  0  0  0  0  0  0
    1.6664   -6.8822    2.6912 C   0  0  2  0  0  0  0  0  0  0  0  0
    2.4821   -7.2748    1.6071 O   0  0  0  0  0  0  0  0  0  0  0  0
    1.8970   -5.3537    2.8243 C   0  0  0  0  0  0  0  0  0  0  0  0
    3.2543   -5.0843    3.4995 C   0  0  0  0  0  0  0  0  0  0  0  0
    4.5624   -5.4342    2.7426 C   0  0  0  0  0  0  0  0  0  0  0  0
    5.1852   -4.2679    2.2473 O   0  0  0  0  0  0  0  0  0  0  0  0
    4.6194   -3.6869    1.1126 C   0  0  0  0  0  0  0  0  0  0  0  0
    3.6547   -4.1147    0.5233 O   0  0  0  0  0  0  0  0  0  0  0  0
    5.3028   -2.4639    0.6922 C   0  0  0  0  0  0  0  0  0  0  0  0
    5.0685   -1.7889   -0.4716 C   0  0  0  0  0  0  0  0  0  0  0  0
    4.2357   -1.9957   -1.6672 C   0  0  0  0  0  0  0  0  0  0  0  0
    3.4936   -3.1041   -2.0459 C   0  0  0  0  0  0  0  0  0  0  0  0
    2.7684   -2.8706   -3.2510 C   0  0  0  0  0  0  0  0  0  0  0  0
    3.0216   -1.6508   -3.8539 C   0  0  0  0  0  0  0  0  0  0  0  0
    4.1195   -0.6887   -2.8752 S   0  0  0  0  0  0  0  0  0  0  0  0
    3.2281   -5.1033    4.8133 C   0  0  0  0  0  0  0  0  0  0  0  0
    2.2787   -4.4684    5.5825 O   0  0  0  0  0  0  0  0  0  0  0  0
    2.4830   -4.8401    6.9571 C   0  0  0  0  0  0  0  0  0  0  0  0
    3.1763   -3.7576    7.7885 C   0  0  0  0  0  0  0  0  0  0  0  0
    1.0686   -5.1686    7.4691 C   0  0  0  0  0  0  0  0  0  0  0  0
    3.4777   -5.9701    6.8127 C   0  0  0  0  0  0  0  0  0  0  0  0
    3.8759   -6.1152    5.6044 C   0  0  0  0  0  0  0  0  0  0  0  0
    4.1417   -7.5722    5.2781 C   0  0  1  0  0  0  0  0  0  0  0  0
    4.1826   -8.0898    6.7438 C   0  0  0  0  0  0  0  0  0  0  0  0
    3.4488   -7.1356    7.5265 O   0  0  0  0  0  0  0  0  0  0  0  0
    3.1586   -8.3804    4.3331 C   0  0  1  0  0  0  0  0  0  0  0  0
    3.1004   -9.7766    4.6865 O   0  0  0  0  0  0  0  0  0  0  0  0
    3.7411   -9.5127    3.4448 C   0  0  0  0  0  0  0  0  0  0  0  0
    3.0565  -10.0921    2.2063 C   0  0  0  0  0  0  0  0  0  0  0  0
    5.2302   -9.8005    3.4115 C   0  0  0  0  0  0  0  0  0  0  0  0
    0.2538   -7.2028    2.2276 C   0  0  0  0  0  0  0  0  0  0  0  0
   -0.2931   -6.6147    1.2920 O   0  0  0  0  0  0  0  0  0  0  0  0
   -1.5159   -9.4622    1.5799 H   0  0  0  0  0  0  0  0  0  0  0  0
   -2.3652   -8.2498    2.5482 H   0  0  0  0  0  0  0  0  0  0  0  0
   -1.8741   -9.7971    3.2784 H   0  0  0  0  0  0  0  0  0  0  0  0
    0.4371   -9.4618    4.6399 H   0  0  0  0  0  0  0  0  0  0  0  0
    1.4848   -7.0846    4.8631 H   0  0  0  0  0  0  0  0  0  0  0  0
    2.4085   -8.2086    1.5027 H   0  0  0  0  0  0  0  0  0  0  0  0
    1.7900   -4.8842    1.8482 H   0  0  0  0  0  0  0  0  0  0  0  0
    1.0861   -4.9166    3.4198 H   0  0  0  0  0  0  0  0  0  0  0  0
    5.2946   -5.8868    3.4100 H   0  0  0  0  0  0  0  0  0  0  0  0
    4.4296   -6.1262    1.9118 H   0  0  0  0  0  0  0  0  0  0  0  0
    6.0502   -2.0306    1.3455 H   0  0  0  0  0  0  0  0  0  0  0  0
    5.6371   -0.8726   -0.5389 H   0  0  0  0  0  0  0  0  0  0  0  0
    3.3842   -4.0613   -1.5653 H   0  0  0  0  0  0  0  0  0  0  0  0
    2.1222   -3.6679   -3.5834 H   0  0  0  0  0  0  0  0  0  0  0  0
    2.5897   -1.3033   -4.7920 H   0  0  0  0  0  0  0  0  0  0  0  0
    3.3230   -4.0778    8.8257 H   0  0  0  0  0  0  0  0  0  0  0  0
    2.6148   -2.8315    7.7854 H   0  0  0  0  0  0  0  0  0  0  0  0
    4.1629   -3.5544    7.3775 H   0  0  0  0  0  0  0  0  0  0  0  0
    1.0414   -5.5513    8.4941 H   0  0  0  0  0  0  0  0  0  0  0  0
    0.5587   -5.8752    6.8077 H   0  0  0  0  0  0  0  0  0  0  0  0
    0.4651   -4.2541    7.4433 H   0  0  0  0  0  0  0  0  0  0  0  0
    5.1222   -7.5705    4.8166 H   0  0  0  0  0  0  0  0  0  0  0  0
    3.8991   -9.1287    6.9168 H   0  0  0  0  0  0  0  0  0  0  0  0
    5.2131   -8.0454    7.0798 H   0  0  0  0  0  0  0  0  0  0  0  0
    3.5024   -9.6545    1.3082 H   0  0  0  0  0  0  0  0  0  0  0  0
    1.9978   -9.8788    2.2030 H   0  0  0  0  0  0  0  0  0  0  0  0
    3.1211  -11.1865    2.1349 H   0  0  0  0  0  0  0  0  0  0  0  0
    5.6927   -9.1031    2.7097 H   0  0  0  0  0  0  0  0  0  0  0  0
    5.4253  -10.8382    3.1152 H   0  0  0  0  0  0  0  0  0  0  0  0
    5.6733   -9.6486    4.3938 H   0  0  0  0  0  0  0  0  0  0  0  0
  1  2  1  0
  1 37  1  0
  1 38  1  0
  1 39  1  0
  2 35  1  0
  2  3  2  0
  3  4  1  0
  3 40  1  0
  4 30  1  0
  4  5  1  0
  4 41  1  1
  5  6  1  6
  5  7  1  0
  5 35  1  0
  6 42  1  0
  7  8  1  0
  7 43  1  0
  7 44  1  0
  8  9  1  0
  8 20  2  3
  9 10  1  0
  9 45  1  0
  9 46  1  0
 10 11  1  0
 11 12  2  0
 11 13  1  0
 13 14  2  3
 13 47  1  0
 14 15  1  0
 14 48  1  0
 15 19  1  0
 15 16  2  0
 16 17  1  0
 16 49  1  0
 17 18  2  0
 17 50  1  0
 18 19  1  0
 18 51  1  0
 20 26  1  0
 20 21  1  0
 21 22  1  0
 22 23  1  0
 22 24  1  0
 22 25  1  0
 23 52  1  0
 23 53  1  0
 23 54  1  0
 24 55  1  0
 24 56  1  0
 24 57  1  0
 25 29  1  0
 25 26  2  0
 26 27  1  0
 27 28  1  0
 27 30  1  0
 27 58  1  6
 28 29  1  0
 28 59  1  0
 28 60  1  0
 30 32  1  0
 30 31  1  1
 31 32  1  0
 32 33  1  0
 32 34  1  0
 33 61  1  0
 33 62  1  0
 33 63  1  0
 34 64  1  0
 34 65  1  0
 34 66  1  0
 35 36  2  0
M  END
>  <i_m_ct_stereo_status>  (189) 
1

>  <s_m_source_file>  (189) 
/var/tmp/pbs.5083856.sched01/tmphq7z50f0/75yhppymv9.sdf

>  <i_m_source_file_index>  (189) 
3

>  <i_lp_mmshare_version>  (189) 
48012

>  <i_f3d_flags>  (189) 
0

>  <s_epik_input>  (189) 
W0NIM11DMShbQ0gzXSlPW0NAXTEyW0NASF0zW0NAQF0oW09IXSkoQyg9TylDKFtDSDNdKT1bQ0hdMylbQ0gyXS9DKD1DLzRDNT1DKEMoTzQpKFtDSDNdKVtDSDNdKU9bQ0gyXVtDQEBIXTI1KVtDSDJdT0MoPU8pL1tDSF09W0NIXS9jNltjSF1bY0hdW2NIXXM2

>  <s_epik_cmdline>  (189) 
J2VwaWtfcHl0aG9uJywgJy1waHQnLCAnMi4wJywgJy1waCcsICc3LjAnLCAnLXRuJywgJzgnLCAnLW1hJywgJzIwMCcsICctaW1hZScsICc8aW5maWxlLm1hZT4nLCAnLW9tYWUnLCAnPG91dGZpbGUubWFlPic=

>  <r_lp_tautomer_probability>  (189) 
1

>  <r_epik_Ionization_Penalty>  (189) 
8.32355e-05

>  <r_epik_Ionization_Penalty_Charging>  (189) 
0

>  <r_epik_Ionization_Penalty_Neutral>  (189) 
8.32355e-05

>  <r_epik_State_Penalty>  (189) 
0

>  <r_epik_Charging_Adjusted_Penalty>  (189) 
0

>  <i_epik_Tot_Q>  (189) 
0

>  <i_epik_Tot_abs_Q>  (189) 
0

>  <s_epik_Chemistry_Notes>  (189) 
This compound has an ester and may undergo hydrolysis at high or low pH.

>  <s_lp_Force_Field>  (189) 
OPLS3e

>  <r_lp_Energy>  (189) 
52.9488

>  <b_lp_Chiralities_Consistent>  (189) 
1

>  <s_lp_Variant>  (189) 
54:0-4

>  <s_i_glide_gridfile>  (189) 
pfpi4k_grid

>  <i_i_glide_lignum>  (189) 
3

>  <i_i_glide_rotatable_bonds>  (189) 
6

>  <r_i_docking_score>  (189) 
-2.92436

>  <r_i_glide_ligand_efficiency>  (189) 
-0.0812322

>  <r_i_glide_ligand_efficiency_sa>  (189) 
-0.268223

>  <r_i_glide_ligand_efficiency_ln>  (189) 
-0.638016

>  <r_i_glide_gscore>  (189) 
-2.92436

>  <r_i_glide_lipo>  (189) 
-0.58279

>  <r_i_glide_hbond>  (189) 
-0.271414

>  <r_i_glide_metal>  (189) 
-0

>  <r_i_glide_rewards>  (189) 
-0.0348891

>  <r_i_glide_evdw>  (189) 
-33.4671

>  <r_i_glide_ecoul>  (189) 
-4.32235

>  <r_i_glide_erotb>  (189) 
0.314332

>  <r_i_glide_esite>  (189) 
-0.0695064

>  <r_i_glide_emodel>  (189) 
-39.6617

>  <r_i_glide_energy>  (189) 
-37.7894

>  <r_i_glide_einternal>  (189) 
3.36202

>  <r_i_glide_intrahb_reward>  (189) 
-0

>  <i_i_glide_confnum>  (189) 
2

>  <i_i_glide_posenum>  (189) 
1

>  <r_i_glide_eff_state_penalty>  (189) 
0

>  <ligand_id>  (189) 
54

>  <original_smiles>  (189) 
CC1=CC2C(O)(CC(COC(=O)C=Cc3cccs3)=C3OC(C)(C)C4=C3C(CO4)C23OC3(C)C)C1=O

>  <smiles>  (189) 
[H]OC12C(=O)C(C([H])([H])[H])=C([H])C1([H])C1(OC1(C([H])([H])[H])C([H])([H])[H])C1([H])C3=C(OC1([H])[H])C(C([H])([H])[H])(C([H])([H])[H])OC3=C(C([H])([H])OC(=O)C([H])=C([H])c1sc([H])c([H])c1[H])C2([H])[H]

$$$$
55:0:0
     RDKit          3D

 31 33  0  0  1  0  0  0  0  0999 V2000
    3.7737   -2.3713    3.6896 C   0  0  0  0  0  0  0  0  0  0  0  0
    3.3477   -2.2914    2.2703 N   0  0  1  0  0  0  0  0  0  0  0  0
    3.0542   -0.9103    1.8367 C   0  0  0  0  0  0  0  0  0  0  0  0
    4.2985   -0.4520    1.0883 C   0  0  0  0  0  0  0  0  0  0  0  0
    4.7517   -1.7150    0.3442 C   0  0  2  0  0  0  0  0  0  0  0  0
    4.1730   -1.8046   -1.0727 C   0  0  0  0  0  0  0  0  0  0  0  0
    4.6737   -0.9208   -1.9610 N   0  0  0  0  0  0  0  0  0  0  0  0
    4.2085   -0.9621   -3.2268 C   0  0  0  0  0  0  0  0  0  0  0  0
    3.2717   -1.9032   -3.6826 C   0  0  0  0  0  0  0  0  0  0  0  0
    2.7574   -2.8319   -2.7613 C   0  0  0  0  0  0  0  0  0  0  0  0
    3.2143   -2.7822   -1.4299 C   0  0  0  0  0  0  0  0  0  0  0  0
    2.6873   -3.7586   -0.4063 C   0  0  0  0  0  0  0  0  0  0  0  0
    3.7725   -4.1132    0.6119 C   0  0  0  0  0  0  0  0  0  0  0  0
    4.3343   -2.8590    1.3088 C   0  0  2  0  0  0  0  0  0  0  0  0
    4.6837   -1.7959    3.8653 H   0  0  0  0  0  0  0  0  0  0  0  0
    3.9580   -3.4049    3.9882 H   0  0  0  0  0  0  0  0  0  0  0  0
    2.9971   -1.9747    4.3447 H   0  0  0  0  0  0  0  0  0  0  0  0
    2.2115   -0.9411    1.1444 H   0  0  0  0  0  0  0  0  0  0  0  0
    2.7824   -0.2487    2.6591 H   0  0  0  0  0  0  0  0  0  0  0  0
    4.1266    0.4197    0.4528 H   0  0  0  0  0  0  0  0  0  0  0  0
    5.0601   -0.1803    1.8238 H   0  0  0  0  0  0  0  0  0  0  0  0
    5.8381   -1.7054    0.2392 H   0  0  0  0  0  0  0  0  0  0  0  0
    4.6122   -0.2319   -3.9090 H   0  0  0  0  0  0  0  0  0  0  0  0
    2.9439   -1.9018   -4.7095 H   0  0  0  0  0  0  0  0  0  0  0  0
    2.0338   -3.5699   -3.0771 H   0  0  0  0  0  0  0  0  0  0  0  0
    1.8366   -3.2932    0.0919 H   0  0  0  0  0  0  0  0  0  0  0  0
    2.3168   -4.6560   -0.9018 H   0  0  0  0  0  0  0  0  0  0  0  0
    3.4018   -4.8388    1.3372 H   0  0  0  0  0  0  0  0  0  0  0  0
    4.5854   -4.6126    0.0823 H   0  0  0  0  0  0  0  0  0  0  0  0
    5.2206   -3.1569    1.8666 H   0  0  0  0  0  0  0  0  0  0  0  0
    2.4909   -2.8187    2.1925 H   0  0  0  0  0  0  0  0  0  0  0  0
  1  2  1  0
  1 15  1  0
  1 16  1  0
  1 17  1  0
  2 14  1  0
  2  3  1  0
  2 31  1  1
  3  4  1  0
  3 18  1  0
  3 19  1  0
  4  5  1  0
  4 20  1  0
  4 21  1  0
  5 14  1  0
  5  6  1  0
  5 22  1  6
  6 11  2  0
  6  7  1  0
  7  8  2  0
  8  9  1  0
  8 23  1  0
  9 10  2  0
  9 24  1  0
 10 11  1  0
 10 25  1  0
 11 12  1  0
 12 13  1  0
 12 26  1  0
 12 27  1  0
 13 14  1  0
 13 28  1  0
 13 29  1  0
 14 30  1  1
M  CHG  1   2   1
M  END
>  <i_m_ct_stereo_status>  (190) 
1

>  <s_m_source_file>  (190) 
/var/tmp/pbs.5083856.sched01/tmphq7z50f0/75yhppymv9.sdf

>  <i_m_source_file_index>  (190) 
4

>  <i_lp_mmshare_version>  (190) 
48012

>  <i_f3d_flags>  (190) 
0

>  <s_epik_input>  (190) 
W0NIMl0xW0NIMl1OKFtDSDNdKVtDQEhdMltDSDJdW0NIMl1jKGMzW0NAQEhdMTIpW2NIXVtjSF1bY0hdbjM=

>  <s_epik_cmdline>  (190) 
J2VwaWtfcHl0aG9uJywgJy1waHQnLCAnMi4wJywgJy1waCcsICc3LjAnLCAnLXRuJywgJzgnLCAnLW1hJywgJzIwMCcsICctaW1hZScsICc8aW5maWxlLm1hZT4nLCAnLW9tYWUnLCAnPG91dGZpbGUubWFlPic=

>  <r_lp_tautomer_probability>  (190) 
1

>  <r_epik_Ionization_Penalty>  (190) 
0.00301155

>  <r_epik_Ionization_Penalty_Charging>  (190) 
0.00230155

>  <r_epik_Ionization_Penalty_Neutral>  (190) 
0.00071

>  <r_epik_State_Penalty>  (190) 
0

>  <r_epik_Charging_Adjusted_Penalty>  (190) 
0.00230155

>  <i_epik_Tot_Q>  (190) 
1

>  <i_epik_Tot_abs_Q>  (190) 
1

>  <s_lp_Force_Field>  (190) 
OPLS3e

>  <r_lp_Energy>  (190) 
28.9931

>  <b_lp_Chiralities_Consistent>  (190) 
1

>  <s_lp_Variant>  (190) 
55:0-1

>  <s_i_glide_gridfile>  (190) 
pfpi4k_grid

>  <i_i_glide_lignum>  (190) 
4

>  <i_i_glide_rotatable_bonds>  (190) 
0

>  <r_i_docking_score>  (190) 
-3.89769

>  <r_i_glide_ligand_efficiency>  (190) 
-0.278406

>  <r_i_glide_ligand_efficiency_sa>  (190) 
-0.670999

>  <r_i_glide_ligand_efficiency_ln>  (190) 
-1.07107

>  <r_i_glide_gscore>  (190) 
-3.89769

>  <r_i_glide_lipo>  (190) 
-0.485002

>  <r_i_glide_hbond>  (190) 
0

>  <r_i_glide_metal>  (190) 
-0

>  <r_i_glide_rewards>  (190) 
-2.11857

>  <r_i_glide_evdw>  (190) 
-17.3302

>  <r_i_glide_ecoul>  (190) 
-2.84043

>  <r_i_glide_erotb>  (190) 
0

>  <r_i_glide_esite>  (190) 
-0.00154381

>  <r_i_glide_emodel>  (190) 
-24.7813

>  <r_i_glide_energy>  (190) 
-20.1707

>  <r_i_glide_einternal>  (190) 
0

>  <r_i_glide_intrahb_reward>  (190) 
-0

>  <i_i_glide_confnum>  (190) 
1

>  <i_i_glide_posenum>  (190) 
1

>  <r_i_glide_eff_state_penalty>  (190) 
0

>  <ligand_id>  (190) 
55

>  <original_smiles>  (190) 
CN1CCC2c3ncccc3CCC21

>  <smiles>  (190) 
[H]c1nc2c(c([H])c1[H])C([H])([H])C([H])([H])C1([H])C2([H])C([H])([H])C([H])([H])[N+]1([H])C([H])([H])[H]

$$$$
56:0:0
     RDKit          3D

 20 22  0  0  1  0  0  0  0  0999 V2000
    4.2513   -4.6149    0.1304 C   0  0  0  0  0  0  0  0  0  0  0  0
    4.7763   -5.8507    0.3959 C   0  0  0  0  0  0  0  0  0  0  0  0
    3.7347   -6.6133    0.8915 N   0  0  0  0  0  0  0  0  0  0  0  0
    3.6514   -7.9048    1.3173 C   0  0  0  0  0  0  0  0  0  0  0  0
    2.4301   -8.3640    1.7639 C   0  0  0  0  0  0  0  0  0  0  0  0
    1.3161   -7.4812    1.7561 C   0  0  0  0  0  0  0  0  0  0  0  0
   -0.0081   -7.9327    2.2248 C   0  0  0  0  0  0  0  0  0  0  0  0
   -0.4609   -9.2590    2.4850 C   0  0  0  0  0  0  0  0  0  0  0  0
   -1.7558   -9.0858    2.8774 C   0  0  0  0  0  0  0  0  0  0  0  0
   -2.0952   -7.7787    2.8848 O   0  0  0  0  0  0  0  0  0  0  0  0
   -0.9743   -7.0529    2.4808 N   0  0  0  0  0  0  0  0  0  0  0  0
    1.3935   -6.2247    1.3182 N   0  0  0  0  0  0  0  0  0  0  0  0
    2.5916   -5.7789    0.9037 C   0  0  0  0  0  0  0  0  0  0  0  0
    2.9026   -4.5658    0.4593 N   0  0  0  0  0  0  0  0  0  0  0  0
    4.7374   -3.7379   -0.2753 H   0  0  0  0  0  0  0  0  0  0  0  0
    5.7659   -6.2631    0.2752 H   0  0  0  0  0  0  0  0  0  0  0  0
    4.5508   -8.5139    1.2789 H   0  0  0  0  0  0  0  0  0  0  0  0
    2.3344   -9.3887    2.1045 H   0  0  0  0  0  0  0  0  0  0  0  0
    0.0683  -10.1963    2.3821 H   0  0  0  0  0  0  0  0  0  0  0  0
   -2.5296   -9.7677    3.1815 H   0  0  0  0  0  0  0  0  0  0  0  0
  1 14  1  0
  1  2  2  0
  1 15  1  0
  2  3  1  0
  2 16  1  0
  3 13  1  0
  3  4  1  0
  4  5  2  0
  4 17  1  0
  5  6  1  0
  5 18  1  0
  6  7  1  0
  6 12  2  0
  7 11  2  0
  7  8  1  0
  8  9  2  0
  8 19  1  0
  9 10  1  0
  9 20  1  0
 10 11  1  0
 12 13  1  0
 13 14  2  0
M  END
>  <i_m_ct_stereo_status>  (191) 
1

>  <s_m_source_file>  (191) 
/var/tmp/pbs.5083856.sched01/tmphq7z50f0/75yhppymv9.sdf

>  <i_m_source_file_index>  (191) 
5

>  <i_lp_mmshare_version>  (191) 
48012

>  <i_f3d_flags>  (191) 
0

>  <s_epik_input>  (191) 
W2NIXTFbY0hdbmMobjEyKW5jKFtjSF1bY0hdMiktYzNbY0hdW2NIXW9uMw==

>  <s_epik_cmdline>  (191) 
J2VwaWtfcHl0aG9uJywgJy1waHQnLCAnMi4wJywgJy1waCcsICc3LjAnLCAnLXRuJywgJzgnLCAnLW1hJywgJzIwMCcsICctaW1hZScsICc8aW5maWxlLm1hZT4nLCAnLW9tYWUnLCAnPG91dGZpbGUubWFlPic=

>  <r_lp_tautomer_probability>  (191) 
1

>  <r_epik_Ionization_Penalty>  (191) 
4.24818e-05

>  <r_epik_Ionization_Penalty_Charging>  (191) 
4.24817e-05

>  <r_epik_Ionization_Penalty_Neutral>  (191) 
4.39477e-11

>  <r_epik_State_Penalty>  (191) 
0

>  <r_epik_Charging_Adjusted_Penalty>  (191) 
4.24817e-05

>  <i_epik_Tot_Q>  (191) 
0

>  <i_epik_Tot_abs_Q>  (191) 
0

>  <s_lp_Force_Field>  (191) 
OPLS3e

>  <r_lp_Energy>  (191) 
20.1344

>  <b_lp_Chiralities_Consistent>  (191) 
1

>  <s_lp_Variant>  (191) 
56:0-1

>  <s_i_glide_gridfile>  (191) 
pfpi4k_grid

>  <i_i_glide_lignum>  (191) 
5

>  <i_i_glide_rotatable_bonds>  (191) 
1

>  <r_i_docking_score>  (191) 
-3.73417

>  <r_i_glide_ligand_efficiency>  (191) 
-0.266727

>  <r_i_glide_ligand_efficiency_sa>  (191) 
-0.642849

>  <r_i_glide_ligand_efficiency_ln>  (191) 
-1.02614

>  <r_i_glide_gscore>  (191) 
-3.73417

>  <r_i_glide_lipo>  (191) 
-0.172374

>  <r_i_glide_hbond>  (191) 
-0.0795988

>  <r_i_glide_metal>  (191) 
-0

>  <r_i_glide_rewards>  (191) 
-2.24249

>  <r_i_glide_evdw>  (191) 
-19.3924

>  <r_i_glide_ecoul>  (191) 
-3.75467

>  <r_i_glide_erotb>  (191) 
0.459866

>  <r_i_glide_esite>  (191) 
-0.166756

>  <r_i_glide_emodel>  (191) 
-28.8828

>  <r_i_glide_energy>  (191) 
-23.147

>  <r_i_glide_einternal>  (191) 
2.27227

>  <r_i_glide_intrahb_reward>  (191) 
-0

>  <i_i_glide_confnum>  (191) 
4

>  <i_i_glide_posenum>  (191) 
24

>  <r_i_glide_eff_state_penalty>  (191) 
0

>  <ligand_id>  (191) 
56

>  <original_smiles>  (191) 
c1cn2ccc(-c3ccon3)nc2n1

>  <smiles>  (191) 
[H]c1nc2nc(-c3noc([H])c3[H])c([H])c([H])n2c1[H]

$$$$
56:0:1
     RDKit          3D

 20 22  0  0  1  0  0  0  0  0999 V2000
   -0.7731   -8.2993    2.2851 C   0  0  0  0  0  0  0  0  0  0  0  0
   -0.1669   -9.1584    3.1582 C   0  0  0  0  0  0  0  0  0  0  0  0
    0.0131   -8.4520    4.3349 N   0  0  0  0  0  0  0  0  0  0  0  0
    0.5555   -8.7802    5.5403 C   0  0  0  0  0  0  0  0  0  0  0  0
    0.5997   -7.8114    6.5192 C   0  0  0  0  0  0  0  0  0  0  0  0
    0.0662   -6.5251    6.2345 C   0  0  0  0  0  0  0  0  0  0  0  0
    0.0698   -5.4641    7.2637 C   0  0  0  0  0  0  0  0  0  0  0  0
    0.8061   -5.4130    8.4836 C   0  0  0  0  0  0  0  0  0  0  0  0
    0.4341   -4.2240    9.0414 C   0  0  0  0  0  0  0  0  0  0  0  0
   -0.4771   -3.5890    8.2656 O   0  0  0  0  0  0  0  0  0  0  0  0
   -0.7152   -4.3920    7.1454 N   0  0  0  0  0  0  0  0  0  0  0  0
   -0.4742   -6.2120    5.0565 N   0  0  0  0  0  0  0  0  0  0  0  0
   -0.5076   -7.1598    4.1089 C   0  0  0  0  0  0  0  0  0  0  0  0
   -0.9939   -7.0624    2.8728 N   0  0  0  0  0  0  0  0  0  0  0  0
   -1.0785   -8.4707    1.2666 H   0  0  0  0  0  0  0  0  0  0  0  0
    0.1464  -10.1901    3.0723 H   0  0  0  0  0  0  0  0  0  0  0  0
    0.9250   -9.7962    5.6670 H   0  0  0  0  0  0  0  0  0  0  0  0
    1.0172   -8.0543    7.4909 H   0  0  0  0  0  0  0  0  0  0  0  0
    1.5120   -6.1250    8.8904 H   0  0  0  0  0  0  0  0  0  0  0  0
    0.7128   -3.7134    9.9480 H   0  0  0  0  0  0  0  0  0  0  0  0
  1 14  1  0
  1  2  2  0
  1 15  1  0
  2  3  1  0
  2 16  1  0
  3 13  1  0
  3  4  1  0
  4  5  2  0
  4 17  1  0
  5  6  1  0
  5 18  1  0
  6  7  1  0
  6 12  2  0
  7 11  2  0
  7  8  1  0
  8  9  2  0
  8 19  1  0
  9 10  1  0
  9 20  1  0
 10 11  1  0
 12 13  1  0
 13 14  2  0
M  END
>  <i_m_ct_stereo_status>  (192) 
1

>  <s_m_source_file>  (192) 
/var/tmp/pbs.5083856.sched01/tmphq7z50f0/75yhppymv9.sdf

>  <i_m_source_file_index>  (192) 
5

>  <i_lp_mmshare_version>  (192) 
48012

>  <i_f3d_flags>  (192) 
0

>  <s_epik_input>  (192) 
W2NIXTFbY0hdbmMobjEyKW5jKFtjSF1bY0hdMiktYzNbY0hdW2NIXW9uMw==

>  <s_epik_cmdline>  (192) 
J2VwaWtfcHl0aG9uJywgJy1waHQnLCAnMi4wJywgJy1waCcsICc3LjAnLCAnLXRuJywgJzgnLCAnLW1hJywgJzIwMCcsICctaW1hZScsICc8aW5maWxlLm1hZT4nLCAnLW9tYWUnLCAnPG91dGZpbGUubWFlPic=

>  <r_lp_tautomer_probability>  (192) 
1

>  <r_epik_Ionization_Penalty>  (192) 
4.24818e-05

>  <r_epik_Ionization_Penalty_Charging>  (192) 
4.24817e-05

>  <r_epik_Ionization_Penalty_Neutral>  (192) 
4.39477e-11

>  <r_epik_State_Penalty>  (192) 
0

>  <r_epik_Charging_Adjusted_Penalty>  (192) 
4.24817e-05

>  <i_epik_Tot_Q>  (192) 
0

>  <i_epik_Tot_abs_Q>  (192) 
0

>  <s_lp_Force_Field>  (192) 
OPLS3e

>  <r_lp_Energy>  (192) 
20.1344

>  <b_lp_Chiralities_Consistent>  (192) 
1

>  <s_lp_Variant>  (192) 
56:0-1

>  <s_i_glide_gridfile>  (192) 
pfpi4k_grid

>  <i_i_glide_lignum>  (192) 
5

>  <i_i_glide_rotatable_bonds>  (192) 
1

>  <r_i_docking_score>  (192) 
-3.46512

>  <r_i_glide_ligand_efficiency>  (192) 
-0.247508

>  <r_i_glide_ligand_efficiency_sa>  (192) 
-0.596531

>  <r_i_glide_ligand_efficiency_ln>  (192) 
-0.952202

>  <r_i_glide_gscore>  (192) 
-3.46512

>  <r_i_glide_lipo>  (192) 
0

>  <r_i_glide_hbond>  (192) 
-0.16

>  <r_i_glide_metal>  (192) 
-0

>  <r_i_glide_rewards>  (192) 
-2.13975

>  <r_i_glide_evdw>  (192) 
-15.0512

>  <r_i_glide_ecoul>  (192) 
-4.73946

>  <r_i_glide_erotb>  (192) 
0.459866

>  <r_i_glide_esite>  (192) 
-0.161757

>  <r_i_glide_emodel>  (192) 
-25.0311

>  <r_i_glide_energy>  (192) 
-19.7907

>  <r_i_glide_einternal>  (192) 
2.28895

>  <r_i_glide_intrahb_reward>  (192) 
-0

>  <i_i_glide_confnum>  (192) 
4

>  <i_i_glide_posenum>  (192) 
14

>  <r_i_glide_eff_state_penalty>  (192) 
0

>  <ligand_id>  (192) 
56

>  <original_smiles>  (192) 
c1cn2ccc(-c3ccon3)nc2n1

>  <smiles>  (192) 
[H]c1nc2nc(-c3noc([H])c3[H])c([H])c([H])n2c1[H]

$$$$
56:0:2
     RDKit          3D

 20 22  0  0  1  0  0  0  0  0999 V2000
    3.4610   -1.1192   -4.0061 C   0  0  0  0  0  0  0  0  0  0  0  0
    4.0832   -0.5376   -2.9373 C   0  0  0  0  0  0  0  0  0  0  0  0
    3.8665   -1.3738   -1.8528 N   0  0  0  0  0  0  0  0  0  0  0  0
    4.2309   -1.3077   -0.5403 C   0  0  0  0  0  0  0  0  0  0  0  0
    3.8609   -2.3399    0.2925 C   0  0  0  0  0  0  0  0  0  0  0  0
    3.0925   -3.4099   -0.2440 C   0  0  0  0  0  0  0  0  0  0  0  0
    2.6884   -4.5521    0.6013 C   0  0  0  0  0  0  0  0  0  0  0  0
    3.0782   -4.8561    1.9406 C   0  0  0  0  0  0  0  0  0  0  0  0
    2.3933   -6.0006    2.2271 C   0  0  0  0  0  0  0  0  0  0  0  0
    1.6208   -6.3762    1.1814 O   0  0  0  0  0  0  0  0  0  0  0  0
    1.8127   -5.4551    0.1532 N   0  0  0  0  0  0  0  0  0  0  0  0
    2.7126   -3.4550   -1.5156 N   0  0  0  0  0  0  0  0  0  0  0  0
    3.0979   -2.4625   -2.3300 C   0  0  0  0  0  0  0  0  0  0  0  0
    2.8879   -2.3308   -3.6384 N   0  0  0  0  0  0  0  0  0  0  0  0
    3.3709   -0.7701   -5.0244 H   0  0  0  0  0  0  0  0  0  0  0  0
    4.6135    0.3938   -2.8164 H   0  0  0  0  0  0  0  0  0  0  0  0
    4.7991   -0.4395   -0.2216 H   0  0  0  0  0  0  0  0  0  0  0  0
    4.1380   -2.3158    1.3413 H   0  0  0  0  0  0  0  0  0  0  0  0
    3.7541   -4.3236    2.5914 H   0  0  0  0  0  0  0  0  0  0  0  0
    2.3410   -6.6372    3.0967 H   0  0  0  0  0  0  0  0  0  0  0  0
  1 14  1  0
  1  2  2  0
  1 15  1  0
  2  3  1  0
  2 16  1  0
  3 13  1  0
  3  4  1  0
  4  5  2  0
  4 17  1  0
  5  6  1  0
  5 18  1  0
  6  7  1  0
  6 12  2  0
  7 11  2  0
  7  8  1  0
  8  9  2  0
  8 19  1  0
  9 10  1  0
  9 20  1  0
 10 11  1  0
 12 13  1  0
 13 14  2  0
M  END
>  <i_m_ct_stereo_status>  (193) 
1

>  <s_m_source_file>  (193) 
/var/tmp/pbs.5083856.sched01/tmphq7z50f0/75yhppymv9.sdf

>  <i_m_source_file_index>  (193) 
5

>  <i_lp_mmshare_version>  (193) 
48012

>  <i_f3d_flags>  (193) 
0

>  <s_epik_input>  (193) 
W2NIXTFbY0hdbmMobjEyKW5jKFtjSF1bY0hdMiktYzNbY0hdW2NIXW9uMw==

>  <s_epik_cmdline>  (193) 
J2VwaWtfcHl0aG9uJywgJy1waHQnLCAnMi4wJywgJy1waCcsICc3LjAnLCAnLXRuJywgJzgnLCAnLW1hJywgJzIwMCcsICctaW1hZScsICc8aW5maWxlLm1hZT4nLCAnLW9tYWUnLCAnPG91dGZpbGUubWFlPic=

>  <r_lp_tautomer_probability>  (193) 
1

>  <r_epik_Ionization_Penalty>  (193) 
4.24818e-05

>  <r_epik_Ionization_Penalty_Charging>  (193) 
4.24817e-05

>  <r_epik_Ionization_Penalty_Neutral>  (193) 
4.39477e-11

>  <r_epik_State_Penalty>  (193) 
0

>  <r_epik_Charging_Adjusted_Penalty>  (193) 
4.24817e-05

>  <i_epik_Tot_Q>  (193) 
0

>  <i_epik_Tot_abs_Q>  (193) 
0

>  <s_lp_Force_Field>  (193) 
OPLS3e

>  <r_lp_Energy>  (193) 
20.1344

>  <b_lp_Chiralities_Consistent>  (193) 
1

>  <s_lp_Variant>  (193) 
56:0-1

>  <s_i_glide_gridfile>  (193) 
pfpi4k_grid

>  <i_i_glide_lignum>  (193) 
5

>  <i_i_glide_rotatable_bonds>  (193) 
1

>  <r_i_docking_score>  (193) 
-3.42611

>  <r_i_glide_ligand_efficiency>  (193) 
-0.244722

>  <r_i_glide_ligand_efficiency_sa>  (193) 
-0.589815

>  <r_i_glide_ligand_efficiency_ln>  (193) 
-0.941483

>  <r_i_glide_gscore>  (193) 
-3.42611

>  <r_i_glide_lipo>  (193) 
-0.325899

>  <r_i_glide_hbond>  (193) 
0

>  <r_i_glide_metal>  (193) 
-0

>  <r_i_glide_rewards>  (193) 
-2.13975

>  <r_i_glide_evdw>  (193) 
-21.2462

>  <r_i_glide_ecoul>  (193) 
-0.634066

>  <r_i_glide_erotb>  (193) 
0.459866

>  <r_i_glide_esite>  (193) 
-0.262908

>  <r_i_glide_emodel>  (193) 
-27.0445

>  <r_i_glide_energy>  (193) 
-21.8803

>  <r_i_glide_einternal>  (193) 
2.25932

>  <r_i_glide_intrahb_reward>  (193) 
-0

>  <i_i_glide_confnum>  (193) 
4

>  <i_i_glide_posenum>  (193) 
9

>  <r_i_glide_eff_state_penalty>  (193) 
0

>  <ligand_id>  (193) 
56

>  <original_smiles>  (193) 
c1cn2ccc(-c3ccon3)nc2n1

>  <smiles>  (193) 
[H]c1nc2nc(-c3noc([H])c3[H])c([H])c([H])n2c1[H]

$$$$
57:0:0
     RDKit          3D

 35 37  0  0  1  0  0  0  0  0999 V2000
    3.4550   -2.4645   -3.8823 C   0  0  0  0  0  0  0  0  0  0  0  0
    4.0974   -2.6084   -2.4910 C   0  0  2  0  0  0  0  0  0  0  0  0
    3.0542   -3.1807   -1.4846 C   0  0  0  0  0  0  0  0  0  0  0  0
    3.4564   -3.0449   -0.0050 C   0  0  0  0  0  0  0  0  0  0  0  0
    2.6090   -3.2594    0.8530 O   0  0  0  0  0  0  0  0  0  0  0  0
    4.8844   -2.6374    0.2591 C   0  0  2  0  0  0  0  0  0  0  0  0
    5.5403   -1.7689   -0.8242 C   0  0  2  0  0  0  0  0  0  0  0  0
    4.6298   -1.2750   -1.9351 C   0  0  0  0  0  0  0  0  0  0  0  0
    6.2573   -3.0293   -1.3212 C   0  0  2  0  0  0  0  0  0  0  0  0
    7.7177   -2.8846   -1.8260 C   0  0  0  0  0  0  0  0  0  0  0  0
    8.6040   -2.2554   -0.9216 O   0  0  0  0  0  0  0  0  0  0  0  0
    5.3848   -3.4805   -2.5156 C   0  0  0  0  0  0  0  0  0  0  0  0
    5.9825   -3.7024    0.0664 C   0  0  0  0  0  0  0  0  0  0  0  0
    7.0700   -3.5997    1.1304 C   0  0  0  0  0  0  0  0  0  0  0  0
    5.5867   -5.1899    0.0756 C   0  0  0  0  0  0  0  0  0  0  0  0
    3.1116   -3.4289   -4.2661 H   0  0  0  0  0  0  0  0  0  0  0  0
    4.1592   -2.0405   -4.5974 H   0  0  0  0  0  0  0  0  0  0  0  0
    2.5884   -1.8013   -3.8438 H   0  0  0  0  0  0  0  0  0  0  0  0
    2.1069   -2.6548   -1.6066 H   0  0  0  0  0  0  0  0  0  0  0  0
    2.8396   -4.2332   -1.6818 H   0  0  0  0  0  0  0  0  0  0  0  0
    4.9874   -2.1588    1.2329 H   0  0  0  0  0  0  0  0  0  0  0  0
    6.2104   -1.0365   -0.3742 H   0  0  0  0  0  0  0  0  0  0  0  0
    5.1969   -0.7423   -2.6976 H   0  0  0  0  0  0  0  0  0  0  0  0
    3.8260   -0.6231   -1.5898 H   0  0  0  0  0  0  0  0  0  0  0  0
    8.1430   -3.8545   -2.0950 H   0  0  0  0  0  0  0  0  0  0  0  0
    7.7259   -2.2568   -2.7188 H   0  0  0  0  0  0  0  0  0  0  0  0
    9.4985   -2.2761   -1.2819 H   0  0  0  0  0  0  0  0  0  0  0  0
    5.1476   -4.5437   -2.5087 H   0  0  0  0  0  0  0  0  0  0  0  0
    5.9073   -3.3109   -3.4579 H   0  0  0  0  0  0  0  0  0  0  0  0
    7.9655   -4.1570    0.8526 H   0  0  0  0  0  0  0  0  0  0  0  0
    6.7253   -3.9849    2.0858 H   0  0  0  0  0  0  0  0  0  0  0  0
    7.3605   -2.5596    1.2868 H   0  0  0  0  0  0  0  0  0  0  0  0
    6.4053   -5.8121   -0.2784 H   0  0  0  0  0  0  0  0  0  0  0  0
    4.7296   -5.4098   -0.5606 H   0  0  0  0  0  0  0  0  0  0  0  0
    5.3269   -5.5404    1.0757 H   0  0  0  0  0  0  0  0  0  0  0  0
  2  1  1  6
  1 16  1  0
  1 17  1  0
  1 18  1  0
  2  8  1  0
  2 12  1  0
  2  3  1  0
  3  4  1  0
  3 19  1  0
  3 20  1  0
  4  5  2  0
  4  6  1  0
  6 13  1  0
  6  7  1  0
  6 21  1  1
  7  8  1  0
  7  9  1  0
  7 22  1  1
  8 23  1  0
  8 24  1  0
  9 10  1  6
  9 12  1  0
  9 13  1  0
 10 11  1  0
 10 25  1  0
 10 26  1  0
 11 27  1  0
 12 28  1  0
 12 29  1  0
 13 14  1  0
 13 15  1  0
 14 30  1  0
 14 31  1  0
 14 32  1  0
 15 33  1  0
 15 34  1  0
 15 35  1  0
M  END
>  <i_m_ct_stereo_status>  (194) 
1

>  <s_m_source_file>  (194) 
/var/tmp/pbs.5083856.sched01/tmpwf87re9s/80yvqvz95v.sdf

>  <i_m_source_file_index>  (194) 
1

>  <i_lp_mmshare_version>  (194) 
48012

>  <i_f3d_flags>  (194) 
2

>  <s_epik_input>  (194) 
W0NIM11bQ0BAXTEyW0NIMl1DKD1PKVtDQEhdM1tDQEhdKFtDSDJdMSlbQ0BdKFtDSDJdMikoW0NIMl1bT0hdKUMzKFtDSDNdKVtDSDNd

>  <s_epik_cmdline>  (194) 
J2VwaWtfcHl0aG9uJywgJy1waHQnLCAnMi4wJywgJy1waCcsICc3LjAnLCAnLXRuJywgJzgnLCAnLW1hJywgJzIwMCcsICctaW1hZScsICc8aW5maWxlLm1hZT4nLCAnLW9tYWUnLCAnPG91dGZpbGUubWFlPic=

>  <r_lp_tautomer_probability>  (194) 
1

>  <r_epik_Ionization_Penalty>  (194) 
7.73888e-07

>  <r_epik_Ionization_Penalty_Charging>  (194) 
0

>  <r_epik_Ionization_Penalty_Neutral>  (194) 
7.73888e-07

>  <r_epik_State_Penalty>  (194) 
0

>  <r_epik_Charging_Adjusted_Penalty>  (194) 
0

>  <i_epik_Tot_Q>  (194) 
0

>  <i_epik_Tot_abs_Q>  (194) 
0

>  <s_lp_Force_Field>  (194) 
OPLS3e

>  <r_lp_Energy>  (194) 
32.5832

>  <b_lp_Chiralities_Consistent>  (194) 
0

>  <s_lp_Variant>  (194) 
57:0-1

>  <s_i_glide_gridfile>  (194) 
pfpi4k_grid

>  <i_i_glide_lignum>  (194) 
1

>  <i_i_glide_rotatable_bonds>  (194) 
2

>  <r_i_docking_score>  (194) 
-4.22198

>  <r_i_glide_ligand_efficiency>  (194) 
-0.281465

>  <r_i_glide_ligand_efficiency_sa>  (194) 
-0.694152

>  <r_i_glide_ligand_efficiency_ln>  (194) 
-1.1386

>  <r_i_glide_gscore>  (194) 
-4.22198

>  <r_i_glide_lipo>  (194) 
-0.655919

>  <r_i_glide_hbond>  (194) 
-0.331115

>  <r_i_glide_metal>  (194) 
-0

>  <r_i_glide_rewards>  (194) 
-1.98889

>  <r_i_glide_evdw>  (194) 
-15.5971

>  <r_i_glide_ecoul>  (194) 
-4.81707

>  <r_i_glide_erotb>  (194) 
0.267062

>  <r_i_glide_esite>  (194) 
-0.0107028

>  <r_i_glide_emodel>  (194) 
-25.8318

>  <r_i_glide_energy>  (194) 
-20.4141

>  <r_i_glide_einternal>  (194) 
2.05331

>  <r_i_glide_intrahb_reward>  (194) 
-0

>  <i_i_glide_confnum>  (194) 
2

>  <i_i_glide_posenum>  (194) 
21

>  <r_i_glide_eff_state_penalty>  (194) 
0

>  <ligand_id>  (194) 
57

>  <original_smiles>  (194) 
CC12CC(=O)C3C(C1)C(CO)(C2)C3(C)C

>  <smiles>  (194) 
[H]OC([H])([H])C12C([H])([H])C3(C([H])([H])[H])C([H])([H])C(=O)C([H])(C1([H])C3([H])[H])C2(C([H])([H])[H])C([H])([H])[H]

$$$$
57:0:1
     RDKit          3D

 35 37  0  0  1  0  0  0  0  0999 V2000
    3.7930   -2.1577   -3.9578 C   0  0  0  0  0  0  0  0  0  0  0  0
    4.2362   -2.4339   -2.5073 C   0  0  2  0  0  0  0  0  0  0  0  0
    3.0517   -3.0473   -1.7058 C   0  0  0  0  0  0  0  0  0  0  0  0
    3.2481   -3.0542   -0.1812 C   0  0  0  0  0  0  0  0  0  0  0  0
    2.2911   -3.3182    0.5402 O   0  0  0  0  0  0  0  0  0  0  0  0
    4.6324   -2.7035    0.3149 C   0  0  2  0  0  0  0  0  0  0  0  0
    5.4501   -1.7714   -0.5995 C   0  0  2  0  0  0  0  0  0  0  0  0
    4.7158   -1.1649   -1.7805 C   0  0  0  0  0  0  0  0  0  0  0  0
    6.1986   -3.0130   -1.0989 C   0  0  2  0  0  0  0  0  0  0  0  0
    7.7094   -2.8820   -1.3884 C   0  0  0  0  0  0  0  0  0  0  0  0
    8.3845   -2.2021   -0.3542 O   0  0  0  0  0  0  0  0  0  0  0  0
    5.4914   -3.3439   -2.4342 C   0  0  0  0  0  0  0  0  0  0  0  0
    5.7352   -3.7786    0.1895 C   0  0  0  0  0  0  0  0  0  0  0  0
    6.6704   -3.7877    1.4008 C   0  0  0  0  0  0  0  0  0  0  0  0
    5.3228   -5.2506    0.0145 C   0  0  0  0  0  0  0  0  0  0  0  0
    3.4904   -3.0819   -4.4578 H   0  0  0  0  0  0  0  0  0  0  0  0
    4.5969   -1.6985   -4.5359 H   0  0  0  0  0  0  0  0  0  0  0  0
    2.9381   -1.4781   -3.9831 H   0  0  0  0  0  0  0  0  0  0  0  0
    2.1455   -2.4767   -1.9181 H   0  0  0  0  0  0  0  0  0  0  0  0
    2.8482   -4.0689   -2.0272 H   0  0  0  0  0  0  0  0  0  0  0  0
    4.6006   -2.2999    1.3294 H   0  0  0  0  0  0  0  0  0  0  0  0
    6.0572   -1.0841   -0.0119 H   0  0  0  0  0  0  0  0  0  0  0  0
    5.3955   -0.5805   -2.4031 H   0  0  0  0  0  0  0  0  0  0  0  0
    3.8872   -0.5180   -1.4901 H   0  0  0  0  0  0  0  0  0  0  0  0
    8.1722   -3.8523   -1.5401 H   0  0  0  0  0  0  0  0  0  0  0  0
    7.8964   -2.3065   -2.2951 H   0  0  0  0  0  0  0  0  0  0  0  0
    8.3658   -2.7477    0.4151 H   0  0  0  0  0  0  0  0  0  0  0  0
    5.2393   -4.3970   -2.5457 H   0  0  0  0  0  0  0  0  0  0  0  0
    6.1384   -3.1164   -3.2843 H   0  0  0  0  0  0  0  0  0  0  0  0
    7.5818   -4.3498    1.1974 H   0  0  0  0  0  0  0  0  0  0  0  0
    6.1968   -4.2355    2.2739 H   0  0  0  0  0  0  0  0  0  0  0  0
    6.9479   -2.7725    1.6860 H   0  0  0  0  0  0  0  0  0  0  0  0
    6.1801   -5.8543   -0.2818 H   0  0  0  0  0  0  0  0  0  0  0  0
    4.5489   -5.3964   -0.7445 H   0  0  0  0  0  0  0  0  0  0  0  0
    4.9226   -5.6712    0.9407 H   0  0  0  0  0  0  0  0  0  0  0  0
  2  1  1  6
  1 16  1  0
  1 17  1  0
  1 18  1  0
  2  8  1  0
  2 12  1  0
  2  3  1  0
  3  4  1  0
  3 19  1  0
  3 20  1  0
  4  5  2  0
  4  6  1  0
  6 13  1  0
  6  7  1  0
  6 21  1  1
  7  8  1  0
  7  9  1  0
  7 22  1  1
  8 23  1  0
  8 24  1  0
  9 10  1  6
  9 12  1  0
  9 13  1  0
 10 11  1  0
 10 25  1  0
 10 26  1  0
 11 27  1  0
 12 28  1  0
 12 29  1  0
 13 14  1  0
 13 15  1  0
 14 30  1  0
 14 31  1  0
 14 32  1  0
 15 33  1  0
 15 34  1  0
 15 35  1  0
M  END
>  <i_m_ct_stereo_status>  (195) 
1

>  <s_m_source_file>  (195) 
/var/tmp/pbs.5083856.sched01/tmpwf87re9s/80yvqvz95v.sdf

>  <i_m_source_file_index>  (195) 
1

>  <i_lp_mmshare_version>  (195) 
48012

>  <i_f3d_flags>  (195) 
2

>  <s_epik_input>  (195) 
W0NIM11bQ0BAXTEyW0NIMl1DKD1PKVtDQEhdM1tDQEhdKFtDSDJdMSlbQ0BdKFtDSDJdMikoW0NIMl1bT0hdKUMzKFtDSDNdKVtDSDNd

>  <s_epik_cmdline>  (195) 
J2VwaWtfcHl0aG9uJywgJy1waHQnLCAnMi4wJywgJy1waCcsICc3LjAnLCAnLXRuJywgJzgnLCAnLW1hJywgJzIwMCcsICctaW1hZScsICc8aW5maWxlLm1hZT4nLCAnLW9tYWUnLCAnPG91dGZpbGUubWFlPic=

>  <r_lp_tautomer_probability>  (195) 
1

>  <r_epik_Ionization_Penalty>  (195) 
7.73888e-07

>  <r_epik_Ionization_Penalty_Charging>  (195) 
0

>  <r_epik_Ionization_Penalty_Neutral>  (195) 
7.73888e-07

>  <r_epik_State_Penalty>  (195) 
0

>  <r_epik_Charging_Adjusted_Penalty>  (195) 
0

>  <i_epik_Tot_Q>  (195) 
0

>  <i_epik_Tot_abs_Q>  (195) 
0

>  <s_lp_Force_Field>  (195) 
OPLS3e

>  <r_lp_Energy>  (195) 
32.5832

>  <b_lp_Chiralities_Consistent>  (195) 
0

>  <s_lp_Variant>  (195) 
57:0-1

>  <s_i_glide_gridfile>  (195) 
pfpi4k_grid

>  <i_i_glide_lignum>  (195) 
1

>  <i_i_glide_rotatable_bonds>  (195) 
2

>  <r_i_docking_score>  (195) 
-3.31295

>  <r_i_glide_ligand_efficiency>  (195) 
-0.220863

>  <r_i_glide_ligand_efficiency_sa>  (195) 
-0.544695

>  <r_i_glide_ligand_efficiency_ln>  (195) 
-0.893447

>  <r_i_glide_gscore>  (195) 
-3.31295

>  <r_i_glide_lipo>  (195) 
-0.602138

>  <r_i_glide_hbond>  (195) 
-0.09149

>  <r_i_glide_metal>  (195) 
-0

>  <r_i_glide_rewards>  (195) 
-1.98889

>  <r_i_glide_evdw>  (195) 
-16.9445

>  <r_i_glide_ecoul>  (195) 
-1.01876

>  <r_i_glide_erotb>  (195) 
0.381518

>  <r_i_glide_esite>  (195) 
-0.0119115

>  <r_i_glide_emodel>  (195) 
-22.2722

>  <r_i_glide_energy>  (195) 
-17.9632

>  <r_i_glide_einternal>  (195) 
1.58648

>  <r_i_glide_intrahb_reward>  (195) 
-0

>  <i_i_glide_confnum>  (195) 
2

>  <i_i_glide_posenum>  (195) 
19

>  <r_i_glide_eff_state_penalty>  (195) 
0

>  <ligand_id>  (195) 
57

>  <original_smiles>  (195) 
CC12CC(=O)C3C(C1)C(CO)(C2)C3(C)C

>  <smiles>  (195) 
[H]OC([H])([H])C12C([H])([H])C3(C([H])([H])[H])C([H])([H])C(=O)C([H])(C1([H])C3([H])[H])C2(C([H])([H])[H])C([H])([H])[H]

$$$$
57:0:2
     RDKit          3D

 35 37  0  0  1  0  0  0  0  0999 V2000
    4.0206   -1.4843   -2.7400 C   0  0  0  0  0  0  0  0  0  0  0  0
    4.1499   -2.3420   -1.4642 C   0  0  2  0  0  0  0  0  0  0  0  0
    3.0751   -3.4645   -1.4776 C   0  0  0  0  0  0  0  0  0  0  0  0
    2.8871   -4.2033   -0.1387 C   0  0  0  0  0  0  0  0  0  0  0  0
    1.9461   -4.9956   -0.0147 O   0  0  0  0  0  0  0  0  0  0  0  0
    3.8952   -3.8806    0.9424 C   0  0  2  0  0  0  0  0  0  0  0  0
    4.5640   -2.4917    0.8510 C   0  0  2  0  0  0  0  0  0  0  0  0
    3.9925   -1.5238   -0.1724 C   0  0  0  0  0  0  0  0  0  0  0  0
    5.7763   -3.1750    0.2085 C   0  0  2  0  0  0  0  0  0  0  0  0
    7.1806   -2.6981    0.6134 C   0  0  0  0  0  0  0  0  0  0  0  0
    7.3342   -1.3021    0.4561 O   0  0  0  0  0  0  0  0  0  0  0  0
    5.5747   -2.9383   -1.3052 C   0  0  0  0  0  0  0  0  0  0  0  0
    5.2889   -4.5298    0.8246 C   0  0  0  0  0  0  0  0  0  0  0  0
    5.8659   -4.9359    2.1851 C   0  0  0  0  0  0  0  0  0  0  0  0
    5.4420   -5.7817   -0.0513 C   0  0  0  0  0  0  0  0  0  0  0  0
    4.1768   -2.0876   -3.6374 H   0  0  0  0  0  0  0  0  0  0  0  0
    4.7508   -0.6720   -2.7511 H   0  0  0  0  0  0  0  0  0  0  0  0
    3.0268   -1.0397   -2.8086 H   0  0  0  0  0  0  0  0  0  0  0  0
    2.1089   -3.0502   -1.7677 H   0  0  0  0  0  0  0  0  0  0  0  0
    3.3478   -4.2002   -2.2314 H   0  0  0  0  0  0  0  0  0  0  0  0
    3.4806   -4.0373    1.9425 H   0  0  0  0  0  0  0  0  0  0  0  0
    4.7730   -2.0793    1.8351 H   0  0  0  0  0  0  0  0  0  0  0  0
    4.5800   -0.6031   -0.2176 H   0  0  0  0  0  0  0  0  0  0  0  0
    2.9597   -1.2443    0.0285 H   0  0  0  0  0  0  0  0  0  0  0  0
    7.3935   -2.9269    1.6537 H   0  0  0  0  0  0  0  0  0  0  0  0
    7.9402   -3.2087    0.0205 H   0  0  0  0  0  0  0  0  0  0  0  0
    6.9652   -0.8636    1.2110 H   0  0  0  0  0  0  0  0  0  0  0  0
    5.7276   -3.8290   -1.9129 H   0  0  0  0  0  0  0  0  0  0  0  0
    6.3027   -2.2204   -1.6885 H   0  0  0  0  0  0  0  0  0  0  0  0
    6.9297   -5.1672    2.1162 H   0  0  0  0  0  0  0  0  0  0  0  0
    5.3656   -5.8212    2.5771 H   0  0  0  0  0  0  0  0  0  0  0  0
    5.7411   -4.1439    2.9246 H   0  0  0  0  0  0  0  0  0  0  0  0
    6.5012   -5.9881   -0.1966 H   0  0  0  0  0  0  0  0  0  0  0  0
    4.9904   -5.6822   -1.0425 H   0  0  0  0  0  0  0  0  0  0  0  0
    4.9863   -6.6627    0.4079 H   0  0  0  0  0  0  0  0  0  0  0  0
  2  1  1  6
  1 16  1  0
  1 17  1  0
  1 18  1  0
  2  8  1  0
  2 12  1  0
  2  3  1  0
  3  4  1  0
  3 19  1  0
  3 20  1  0
  4  5  2  0
  4  6  1  0
  6 13  1  0
  6  7  1  0
  6 21  1  1
  7  8  1  0
  7  9  1  0
  7 22  1  1
  8 23  1  0
  8 24  1  0
  9 10  1  1
  9 12  1  0
  9 13  1  0
 10 11  1  0
 10 25  1  0
 10 26  1  0
 11 27  1  0
 12 28  1  0
 12 29  1  0
 13 14  1  0
 13 15  1  0
 14 30  1  0
 14 31  1  0
 14 32  1  0
 15 33  1  0
 15 34  1  0
 15 35  1  0
M  END
>  <i_m_ct_stereo_status>  (196) 
1

>  <s_m_source_file>  (196) 
/var/tmp/pbs.5083856.sched01/tmpwf87re9s/80yvqvz95v.sdf

>  <i_m_source_file_index>  (196) 
1

>  <i_lp_mmshare_version>  (196) 
48012

>  <i_f3d_flags>  (196) 
2

>  <s_epik_input>  (196) 
W0NIM11bQ0BAXTEyW0NIMl1DKD1PKVtDQEhdM1tDQEhdKFtDSDJdMSlbQ0BdKFtDSDJdMikoW0NIMl1bT0hdKUMzKFtDSDNdKVtDSDNd

>  <s_epik_cmdline>  (196) 
J2VwaWtfcHl0aG9uJywgJy1waHQnLCAnMi4wJywgJy1waCcsICc3LjAnLCAnLXRuJywgJzgnLCAnLW1hJywgJzIwMCcsICctaW1hZScsICc8aW5maWxlLm1hZT4nLCAnLW9tYWUnLCAnPG91dGZpbGUubWFlPic=

>  <r_lp_tautomer_probability>  (196) 
1

>  <r_epik_Ionization_Penalty>  (196) 
7.73888e-07

>  <r_epik_Ionization_Penalty_Charging>  (196) 
0

>  <r_epik_Ionization_Penalty_Neutral>  (196) 
7.73888e-07

>  <r_epik_State_Penalty>  (196) 
0

>  <r_epik_Charging_Adjusted_Penalty>  (196) 
0

>  <i_epik_Tot_Q>  (196) 
0

>  <i_epik_Tot_abs_Q>  (196) 
0

>  <s_lp_Force_Field>  (196) 
OPLS3e

>  <r_lp_Energy>  (196) 
32.5832

>  <b_lp_Chiralities_Consistent>  (196) 
0

>  <s_lp_Variant>  (196) 
57:0-1

>  <s_i_glide_gridfile>  (196) 
pfpi4k_grid

>  <i_i_glide_lignum>  (196) 
1

>  <i_i_glide_rotatable_bonds>  (196) 
2

>  <r_i_docking_score>  (196) 
-3.30375

>  <r_i_glide_ligand_efficiency>  (196) 
-0.22025

>  <r_i_glide_ligand_efficiency_sa>  (196) 
-0.543184

>  <r_i_glide_ligand_efficiency_ln>  (196) 
-0.890967

>  <r_i_glide_gscore>  (196) 
-3.30375

>  <r_i_glide_lipo>  (196) 
-0.447701

>  <r_i_glide_hbond>  (196) 
-0.0767325

>  <r_i_glide_metal>  (196) 
-0

>  <r_i_glide_rewards>  (196) 
-1.98889

>  <r_i_glide_evdw>  (196) 
-11.2839

>  <r_i_glide_ecoul>  (196) 
-3.81708

>  <r_i_glide_erotb>  (196) 
0.381518

>  <r_i_glide_esite>  (196) 
-0.035194

>  <r_i_glide_emodel>  (196) 
-19.486

>  <r_i_glide_energy>  (196) 
-15.101

>  <r_i_glide_einternal>  (196) 
1.16066

>  <r_i_glide_intrahb_reward>  (196) 
-0

>  <i_i_glide_confnum>  (196) 
2

>  <i_i_glide_posenum>  (196) 
13

>  <r_i_glide_eff_state_penalty>  (196) 
0

>  <ligand_id>  (196) 
57

>  <original_smiles>  (196) 
CC12CC(=O)C3C(C1)C(CO)(C2)C3(C)C

>  <smiles>  (196) 
[H]OC([H])([H])C12C([H])([H])C3(C([H])([H])[H])C([H])([H])C(=O)C([H])(C1([H])C3([H])[H])C2(C([H])([H])[H])C([H])([H])[H]

$$$$
59:0:0
     RDKit          3D

 79 86  0  0  1  0  0  0  0  0999 V2000
    4.2473   -2.8021   -2.1886 C   0  0  0  0  0  0  0  0  0  0  0  0
    5.4091   -2.2050   -1.3943 C   0  0  0  0  0  0  0  0  0  0  0  0
    6.5607   -2.2695   -1.8211 O   0  0  0  0  0  0  0  0  0  0  0  0
    5.0913   -1.6117   -0.2184 O   0  0  0  0  0  0  0  0  0  0  0  0
    3.7528   -1.5166    0.2715 C   0  0  2  0  0  0  0  0  0  0  0  0
    3.6108   -0.2763    1.1902 C   0  0  0  0  0  0  0  0  0  0  0  0
    3.4675   -0.7884    2.6436 C   0  0  2  0  0  0  0  0  0  0  0  0
    4.8798   -1.0153    3.2413 C   0  0  0  0  0  0  0  0  0  0  0  0
    2.8147   -2.1293    2.4067 C   0  0  0  0  0  0  0  0  0  0  0  0
    1.7510   -2.5852    3.0853 C   0  0  0  0  0  0  0  0  0  0  0  0
    1.1193   -1.8442    4.2435 C   0  0  0  0  0  0  0  0  0  0  0  0
    1.9710   -0.6491    4.7476 C   0  0  2  0  0  0  0  0  0  0  0  0
    1.1193    0.2175    5.7538 C   0  0  1  0  0  0  0  0  0  0  0  0
    1.4977   -0.0724    7.2089 C   0  0  1  0  0  0  0  0  0  0  0  0
    2.9126    0.1707    7.7852 C   0  0  1  0  0  0  0  0  0  0  0  0
    3.9186    0.5725    6.8500 O   0  0  0  0  0  0  0  0  0  0  0  0
    4.5245    1.7839    6.8280 C   0  0  0  0  0  0  0  0  0  0  0  0
    5.4948    2.0057    6.1172 O   0  0  0  0  0  0  0  0  0  0  0  0
    3.9197    2.8267    7.6812 C   0  0  0  0  0  0  0  0  0  0  0  0
    2.9107    2.5792    8.5302 C   0  0  0  0  0  0  0  0  0  0  0  0
    2.3627    1.1912    8.8076 C   0  0  2  0  0  0  0  0  0  0  0  0
    2.6247    0.8520   10.2676 C   0  0  0  0  0  0  0  0  0  0  0  0
    0.9345    0.8437    8.2998 C   0  0  1  0  0  0  0  0  0  0  0  0
   -0.1091    1.8665    7.8122 C   0  0  0  0  0  0  0  0  0  0  0  0
   -1.2448    1.9966    8.5373 C   0  0  0  0  0  0  0  0  0  0  0  0
   -2.4243    2.7380    8.0587 C   0  0  0  0  0  0  0  0  0  0  0  0
   -3.4097    2.9443    8.7609 O   0  0  0  0  0  0  0  0  0  0  0  0
   -2.4287    3.2529    6.6259 C   0  0  0  0  0  0  0  0  0  0  0  0
   -1.3774    2.5500    5.7541 C   0  0  0  0  0  0  0  0  0  0  0  0
    0.0344    2.5088    6.4101 C   0  0  1  0  0  0  0  0  0  0  0  0
    0.5087    3.9775    6.5821 C   0  0  0  0  0  0  0  0  0  0  0  0
    1.0586    1.7444    5.4923 C   0  0  2  0  0  0  0  0  0  0  0  0
    0.9306    2.0674    3.9824 C   0  0  0  0  0  0  0  0  0  0  0  0
    2.0538    1.4582    3.1843 C   0  0  1  0  0  0  0  0  0  0  0  0
    3.2946    1.3366    3.8817 O   0  0  0  0  0  0  0  0  0  0  0  0
    2.6154    0.1092    3.5708 C   0  0  2  0  0  0  0  0  0  0  0  0
    3.4423   -2.7314    1.1696 C   0  0  1  0  0  0  0  0  0  0  0  0
    2.5984   -3.6822    0.5271 O   0  0  0  0  0  0  0  0  0  0  0  0
    2.6292   -5.0100    0.8236 C   0  0  0  0  0  0  0  0  0  0  0  0
    3.8073   -5.4591    1.6840 C   0  0  0  0  0  0  0  0  0  0  0  0
    1.7801   -5.8181    0.4443 O   0  0  0  0  0  0  0  0  0  0  0  0
    3.4711   -2.0509   -2.3523 H   0  0  0  0  0  0  0  0  0  0  0  0
    3.8089   -3.6406   -1.6475 H   0  0  0  0  0  0  0  0  0  0  0  0
    4.5710   -3.1804   -3.1535 H   0  0  0  0  0  0  0  0  0  0  0  0
    3.0276   -1.4015   -0.5348 H   0  0  0  0  0  0  0  0  0  0  0  0
    4.3993    0.4616    1.0460 H   0  0  0  0  0  0  0  0  0  0  0  0
    2.6775    0.1709    0.8673 H   0  0  0  0  0  0  0  0  0  0  0  0
    5.4133   -0.0701    3.3524 H   0  0  0  0  0  0  0  0  0  0  0  0
    5.4986   -1.6465    2.5985 H   0  0  0  0  0  0  0  0  0  0  0  0
    4.8275   -1.5048    4.2153 H   0  0  0  0  0  0  0  0  0  0  0  0
    1.2604   -3.5093    2.7973 H   0  0  0  0  0  0  0  0  0  0  0  0
    0.1421   -1.5061    3.8950 H   0  0  0  0  0  0  0  0  0  0  0  0
    0.9556   -2.5532    5.0568 H   0  0  0  0  0  0  0  0  0  0  0  0
    2.8085   -1.0958    5.2794 H   0  0  0  0  0  0  0  0  0  0  0  0
    0.0862   -0.1106    5.6182 H   0  0  0  0  0  0  0  0  0  0  0  0
    1.2238   -1.1033    7.4565 H   0  0  0  0  0  0  0  0  0  0  0  0
    3.2524   -0.7199    8.3123 H   0  0  0  0  0  0  0  0  0  0  0  0
    4.3198    3.8188    7.5818 H   0  0  0  0  0  0  0  0  0  0  0  0
    2.5091    3.3808    9.1269 H   0  0  0  0  0  0  0  0  0  0  0  0
    2.3167   -0.1734   10.4933 H   0  0  0  0  0  0  0  0  0  0  0  0
    2.0779    1.5028   10.9478 H   0  0  0  0  0  0  0  0  0  0  0  0
    3.6849    0.9183   10.5177 H   0  0  0  0  0  0  0  0  0  0  0  0
    0.4587    0.2169    9.0508 H   0  0  0  0  0  0  0  0  0  0  0  0
   -1.3552    1.4792    9.4790 H   0  0  0  0  0  0  0  0  0  0  0  0
   -3.4225    3.1317    6.1989 H   0  0  0  0  0  0  0  0  0  0  0  0
   -2.2254    4.3168    6.6749 H   0  0  0  0  0  0  0  0  0  0  0  0
   -1.7211    1.5401    5.5275 H   0  0  0  0  0  0  0  0  0  0  0  0
   -1.3534    3.0803    4.8032 H   0  0  0  0  0  0  0  0  0  0  0  0
    0.3931    4.5491    5.6621 H   0  0  0  0  0  0  0  0  0  0  0  0
    1.5541    4.0457    6.8656 H   0  0  0  0  0  0  0  0  0  0  0  0
   -0.0543    4.4929    7.3607 H   0  0  0  0  0  0  0  0  0  0  0  0
    2.0294    2.1312    5.7791 H   0  0  0  0  0  0  0  0  0  0  0  0
   -0.0057    1.6674    3.5794 H   0  0  0  0  0  0  0  0  0  0  0  0
    0.9308    3.1409    3.8089 H   0  0  0  0  0  0  0  0  0  0  0  0
    2.1403    1.8157    2.1575 H   0  0  0  0  0  0  0  0  0  0  0  0
    4.3980   -3.1682    1.4637 H   0  0  0  0  0  0  0  0  0  0  0  0
    4.7519   -5.2369    1.1773 H   0  0  0  0  0  0  0  0  0  0  0  0
    3.7791   -6.5207    1.8985 H   0  0  0  0  0  0  0  0  0  0  0  0
    3.7936   -4.9242    2.6360 H   0  0  0  0  0  0  0  0  0  0  0  0
  1  2  1  0
  1 42  1  0
  1 43  1  0
  1 44  1  0
  2  3  2  0
  2  4  1  0
  4  5  1  0
  5 37  1  0
  5  6  1  0
  5 45  1  6
  6  7  1  0
  6 46  1  0
  6 47  1  0
  7 36  1  0
  7  8  1  1
  7  9  1  0
  8 48  1  0
  8 49  1  0
  8 50  1  0
  9 10  2  0
  9 37  1  0
 10 11  1  0
 10 51  1  0
 11 12  1  0
 11 52  1  0
 11 53  1  0
 12 36  1  0
 12 13  1  0
 12 54  1  1
 13 32  1  0
 13 14  1  0
 13 55  1  1
 14 23  1  0
 14 15  1  0
 14 56  1  1
 15 21  1  0
 15 16  1  0
 15 57  1  1
 16 17  1  0
 17 18  2  0
 17 19  1  0
 19 20  2  0
 19 58  1  0
 20 21  1  0
 20 59  1  0
 21 22  1  1
 21 23  1  0
 22 60  1  0
 22 61  1  0
 22 62  1  0
 23 24  1  0
 23 63  1  1
 24 30  1  0
 24 25  2  0
 25 26  1  0
 25 64  1  0
 26 27  2  0
 26 28  1  0
 28 29  1  0
 28 65  1  0
 28 66  1  0
 29 30  1  0
 29 67  1  0
 29 68  1  0
 30 31  1  1
 30 32  1  0
 31 69  1  0
 31 70  1  0
 31 71  1  0
 32 33  1  0
 32 72  1  1
 33 34  1  0
 33 73  1  0
 33 74  1  0
 34 36  1  0
 34 35  1  0
 34 75  1  6
 36 35  1  1
 37 38  1  0
 37 76  1  1
 38 39  1  0
 39 40  1  0
 39 41  2  0
 40 77  1  0
 40 78  1  0
 40 79  1  0
M  END
>  <i_m_ct_stereo_status>  (197) 
1

>  <s_m_source_file>  (197) 
/var/tmp/pbs.5083856.sched01/tmpwf87re9s/80yvqvz95v.sdf

>  <i_m_source_file_index>  (197) 
3

>  <i_lp_mmshare_version>  (197) 
48012

>  <i_f3d_flags>  (197) 
0

>  <s_epik_input>  (197) 
W0NIM11DKD1PKU9bQ0BIXShbQ0gyXTEpW0NASF0oT0MoPU8pW0NIM10pQyhbQ0BAXTEoW0NAXTIzNClbQ0gzXSk9W0NIXVtDSDJdW0NAQEhdMltDQEhdNVtDQEhdNltDQEBIXTdbQ0BAXShbQ0gzXSkoW0NIXT1bQ0hdQyhPNyk9TylbQ0BIXTZDPThbQ0BAXShbQ0gzXSkoW0NAQEhdNVtDSDJdW0NASF0zTzQpW0NIMl1bQ0gyXUMoPU8pW0NIXTg=

>  <s_epik_cmdline>  (197) 
J2VwaWtfcHl0aG9uJywgJy1waHQnLCAnMi4wJywgJy1waCcsICc3LjAnLCAnLXRuJywgJzgnLCAnLW1hJywgJzIwMCcsICctaW1hZScsICc8aW5maWxlLm1hZT4nLCAnLW9tYWUnLCAnPG91dGZpbGUubWFlPic=

>  <r_lp_tautomer_probability>  (197) 
1

>  <r_epik_Ionization_Penalty>  (197) 
8.72945e-10

>  <r_epik_Ionization_Penalty_Charging>  (197) 
0

>  <r_epik_Ionization_Penalty_Neutral>  (197) 
8.72945e-10

>  <r_epik_State_Penalty>  (197) 
0

>  <r_epik_Charging_Adjusted_Penalty>  (197) 
0

>  <i_epik_Tot_Q>  (197) 
0

>  <i_epik_Tot_abs_Q>  (197) 
0

>  <s_epik_Chemistry_Notes>  (197) 
This compound has an ester and may undergo hydrolysis at high or low pH.

>  <s_lp_Force_Field>  (197) 
OPLS3e

>  <r_lp_Energy>  (197) 
65.2823

>  <b_lp_Chiralities_Consistent>  (197) 
1

>  <s_lp_Variant>  (197) 
59:0-1

>  <s_i_glide_gridfile>  (197) 
pfpi4k_grid

>  <i_i_glide_lignum>  (197) 
3

>  <i_i_glide_rotatable_bonds>  (197) 
4

>  <r_i_docking_score>  (197) 
-2.61709

>  <r_i_glide_ligand_efficiency>  (197) 
-0.0638316

>  <r_i_glide_ligand_efficiency_sa>  (197) 
-0.220105

>  <r_i_glide_ligand_efficiency_ln>  (197) 
-0.555225

>  <r_i_glide_gscore>  (197) 
-2.61709

>  <r_i_glide_lipo>  (197) 
-0.251366

>  <r_i_glide_hbond>  (197) 
-0.232378

>  <r_i_glide_metal>  (197) 
-0

>  <r_i_glide_rewards>  (197) 
-0.0877624

>  <r_i_glide_evdw>  (197) 
-29.9026

>  <r_i_glide_ecoul>  (197) 
-3.57338

>  <r_i_glide_erotb>  (197) 
0.0490867

>  <r_i_glide_esite>  (197) 
-0.0635372

>  <r_i_glide_emodel>  (197) 
-32.8357

>  <r_i_glide_energy>  (197) 
-33.476

>  <r_i_glide_einternal>  (197) 
11.9452

>  <r_i_glide_intrahb_reward>  (197) 
-0

>  <i_i_glide_confnum>  (197) 
1

>  <i_i_glide_posenum>  (197) 
11

>  <r_i_glide_eff_state_penalty>  (197) 
0

>  <ligand_id>  (197) 
59

>  <original_smiles>  (197) 
CC(=O)OC1CC2(C)C(=CCC3C4C5C6OC(=O)C=CC6(C)C5C5=CC(=O)CCC5(C)C4CC4OC432)C1OC(C)=O

>  <smiles>  (197) 
[H]C1=C([H])C2(C([H])([H])[H])C([H])(OC1=O)C1([H])C2([H])C2=C([H])C(=O)C([H])([H])C([H])([H])C2(C([H])([H])[H])C2([H])C([H])([H])C3([H])OC34C([H])(C([H])([H])C([H])=C3C([H])(OC(=O)C([H])([H])[H])C([H])(OC(=O)C([H])([H])[H])C([H])([H])C34C([H])([H])[H])C12[H]

$$$$
59:0:1
     RDKit          3D

 79 86  0  0  1  0  0  0  0  0999 V2000
   -4.0227    3.7090    2.4688 C   0  0  0  0  0  0  0  0  0  0  0  0
   -2.5304    3.6928    2.8627 C   0  0  0  0  0  0  0  0  0  0  0  0
   -1.8907    4.6798    2.9132 O   0  0  0  0  0  0  0  0  0  0  0  0
   -2.1348    2.4382    3.1550 O   0  0  0  0  0  0  0  0  0  0  0  0
   -0.7459    2.0911    3.1594 C   0  0  2  0  0  0  0  0  0  0  0  0
   -0.5965    0.5514    3.2669 C   0  0  0  0  0  0  0  0  0  0  0  0
   -0.0129    0.2058    4.6644 C   0  0  2  0  0  0  0  0  0  0  0  0
   -1.1661    0.1588    5.6930 C   0  0  0  0  0  0  0  0  0  0  0  0
    0.8142    1.4652    4.9052 C   0  0  0  0  0  0  0  0  0  0  0  0
    2.0799    1.4462    5.3554 C   0  0  0  0  0  0  0  0  0  0  0  0
    2.7892    0.1779    5.7728 C   0  0  0  0  0  0  0  0  0  0  0  0
    1.8662   -1.0707    5.8994 C   0  0  2  0  0  0  0  0  0  0  0  0
    2.7402   -2.3694    6.0735 C   0  0  1  0  0  0  0  0  0  0  0  0
    2.7781   -2.8292    7.5487 C   0  0  1  0  0  0  0  0  0  0  0  0
    1.5370   -3.2473    8.3563 C   0  0  1  0  0  0  0  0  0  0  0  0
    0.2614   -3.0646    7.7108 O   0  0  0  0  0  0  0  0  0  0  0  0
   -0.5537   -4.1046    7.2913 C   0  0  0  0  0  0  0  0  0  0  0  0
   -1.6820   -3.8825    6.8754 O   0  0  0  0  0  0  0  0  0  0  0  0
    0.0364   -5.4388    7.3344 C   0  0  0  0  0  0  0  0  0  0  0  0
    1.2334   -5.6953    7.8622 C   0  0  0  0  0  0  0  0  0  0  0  0
    2.1000   -4.6708    8.5642 C   0  0  2  0  0  0  0  0  0  0  0  0
    2.2539   -5.1016   10.0196 C   0  0  0  0  0  0  0  0  0  0  0  0
    3.3868   -4.2023    7.8734 C   0  0  1  0  0  0  0  0  0  0  0  0
    4.0602   -4.9120    6.6836 C   0  0  0  0  0  0  0  0  0  0  0  0
    5.2936   -5.4466    6.8777 C   0  0  0  0  0  0  0  0  0  0  0  0
    6.1515   -5.9181    5.7812 C   0  0  0  0  0  0  0  0  0  0  0  0
    7.2259   -6.4764    5.9756 O   0  0  0  0  0  0  0  0  0  0  0  0
    5.7205   -5.6590    4.3454 C   0  0  0  0  0  0  0  0  0  0  0  0
    4.6602   -4.5530    4.2595 C   0  0  0  0  0  0  0  0  0  0  0  0
    3.4747   -4.7594    5.2484 C   0  0  1  0  0  0  0  0  0  0  0  0
    2.7748   -6.0839    4.8578 C   0  0  0  0  0  0  0  0  0  0  0  0
    2.4410   -3.5769    5.1497 C   0  0  2  0  0  0  0  0  0  0  0  0
    2.1383   -3.1126    3.7040 C   0  0  0  0  0  0  0  0  0  0  0  0
    1.0066   -2.1120    3.6526 C   0  0  1  0  0  0  0  0  0  0  0  0
    0.0286   -2.2616    4.6551 O   0  0  0  0  0  0  0  0  0  0  0  0
    0.8413   -1.1003    4.7659 C   0  0  2  0  0  0  0  0  0  0  0  0
    0.0625    2.6488    4.3474 C   0  0  1  0  0  0  0  0  0  0  0  0
    0.9438    3.6903    3.9500 O   0  0  0  0  0  0  0  0  0  0  0  0
    0.6136    4.9581    4.2328 C   0  0  0  0  0  0  0  0  0  0  0  0
    1.5322    5.9922    3.6011 C   0  0  0  0  0  0  0  0  0  0  0  0
   -0.3798    5.3055    4.8934 O   0  0  0  0  0  0  0  0  0  0  0  0
   -4.6310    3.3460    3.2661 H   0  0  0  0  0  0  0  0  0  0  0  0
   -4.2353    3.1410    1.5771 H   0  0  0  0  0  0  0  0  0  0  0  0
   -4.3376    4.7265    2.2973 H   0  0  0  0  0  0  0  0  0  0  0  0
   -0.3250    2.3948    2.2094 H   0  0  0  0  0  0  0  0  0  0  0  0
   -1.5330    0.0342    3.0674 H   0  0  0  0  0  0  0  0  0  0  0  0
    0.1120    0.2517    2.5031 H   0  0  0  0  0  0  0  0  0  0  0  0
   -1.8222   -0.6894    5.5025 H   0  0  0  0  0  0  0  0  0  0  0  0
   -1.7846    1.0587    5.6391 H   0  0  0  0  0  0  0  0  0  0  0  0
   -0.7873    0.0859    6.7153 H   0  0  0  0  0  0  0  0  0  0  0  0
    2.6642    2.3557    5.3845 H   0  0  0  0  0  0  0  0  0  0  0  0
    3.5619   -0.0092    5.0272 H   0  0  0  0  0  0  0  0  0  0  0  0
    3.2874    0.3527    6.7295 H   0  0  0  0  0  0  0  0  0  0  0  0
    1.2727   -0.9065    6.8030 H   0  0  0  0  0  0  0  0  0  0  0  0
    3.7531   -2.0765    5.8079 H   0  0  0  0  0  0  0  0  0  0  0  0
    3.3041   -2.0965    8.1481 H   0  0  0  0  0  0  0  0  0  0  0  0
    1.5477   -2.7213    9.3052 H   0  0  0  0  0  0  0  0  0  0  0  0
   -0.5616   -6.2225    6.9126 H   0  0  0  0  0  0  0  0  0  0  0  0
    1.6196   -6.7136    7.8697 H   0  0  0  0  0  0  0  0  0  0  0  0
    2.8022   -4.3561   10.5914 H   0  0  0  0  0  0  0  0  0  0  0  0
    2.8015   -6.0405   10.1127 H   0  0  0  0  0  0  0  0  0  0  0  0
    1.2876   -5.2305   10.5203 H   0  0  0  0  0  0  0  0  0  0  0  0
    4.1446   -4.0387    8.6313 H   0  0  0  0  0  0  0  0  0  0  0  0
    5.7300   -5.4550    7.8716 H   0  0  0  0  0  0  0  0  0  0  0  0
    6.5887   -5.3787    3.7557 H   0  0  0  0  0  0  0  0  0  0  0  0
    5.3557   -6.5968    3.9223 H   0  0  0  0  0  0  0  0  0  0  0  0
    5.1362   -3.5894    4.4397 H   0  0  0  0  0  0  0  0  0  0  0  0
    4.3067   -4.5308    3.2317 H   0  0  0  0  0  0  0  0  0  0  0  0
    2.5597   -6.1225    3.7929 H   0  0  0  0  0  0  0  0  0  0  0  0
    1.8368   -6.2257    5.3830 H   0  0  0  0  0  0  0  0  0  0  0  0
    3.3951   -6.9466    5.0978 H   0  0  0  0  0  0  0  0  0  0  0  0
    1.5155   -4.0024    5.5012 H   0  0  0  0  0  0  0  0  0  0  0  0
    3.0186   -2.6255    3.2665 H   0  0  0  0  0  0  0  0  0  0  0  0
    1.8828   -3.9664    3.0553 H   0  0  0  0  0  0  0  0  0  0  0  0
    0.6339   -1.8942    2.6599 H   0  0  0  0  0  0  0  0  0  0  0  0
   -0.6152    2.9639    5.1368 H   0  0  0  0  0  0  0  0  0  0  0  0
    2.5425    5.9260    4.0088 H   0  0  0  0  0  0  0  0  0  0  0  0
    1.1686    7.0107    3.7488 H   0  0  0  0  0  0  0  0  0  0  0  0
    1.5860    5.8260    2.5251 H   0  0  0  0  0  0  0  0  0  0  0  0
  1  2  1  0
  1 42  1  0
  1 43  1  0
  1 44  1  0
  2  3  2  0
  2  4  1  0
  4  5  1  0
  5 37  1  0
  5  6  1  0
  5 45  1  6
  6  7  1  0
  6 46  1  0
  6 47  1  0
  7 36  1  0
  7  8  1  1
  7  9  1  0
  8 48  1  0
  8 49  1  0
  8 50  1  0
  9 10  2  0
  9 37  1  0
 10 11  1  0
 10 51  1  0
 11 12  1  0
 11 52  1  0
 11 53  1  0
 12 36  1  0
 12 13  1  0
 12 54  1  1
 13 32  1  0
 13 14  1  0
 13 55  1  6
 14 23  1  0
 14 15  1  0
 14 56  1  1
 15 21  1  0
 15 16  1  0
 15 57  1  1
 16 17  1  0
 17 18  2  0
 17 19  1  0
 19 20  2  0
 19 58  1  0
 20 21  1  0
 20 59  1  0
 21 22  1  1
 21 23  1  0
 22 60  1  0
 22 61  1  0
 22 62  1  0
 23 24  1  0
 23 63  1  1
 24 30  1  0
 24 25  2  0
 25 26  1  0
 25 64  1  0
 26 27  2  0
 26 28  1  0
 28 29  1  0
 28 65  1  0
 28 66  1  0
 29 30  1  0
 29 67  1  0
 29 68  1  0
 30 31  1  6
 30 32  1  0
 31 69  1  0
 31 70  1  0
 31 71  1  0
 32 33  1  0
 32 72  1  1
 33 34  1  0
 33 73  1  0
 33 74  1  0
 34 36  1  0
 34 35  1  0
 34 75  1  6
 36 35  1  1
 37 38  1  0
 37 76  1  1
 38 39  1  0
 39 40  1  0
 39 41  2  0
 40 77  1  0
 40 78  1  0
 40 79  1  0
M  END
>  <i_m_ct_stereo_status>  (198) 
1

>  <s_m_source_file>  (198) 
/var/tmp/pbs.5083856.sched01/tmpwf87re9s/80yvqvz95v.sdf

>  <i_m_source_file_index>  (198) 
3

>  <i_lp_mmshare_version>  (198) 
48012

>  <i_f3d_flags>  (198) 
0

>  <s_epik_input>  (198) 
W0NIM11DKD1PKU9bQ0BIXShbQ0gyXTEpW0NASF0oT0MoPU8pW0NIM10pQyhbQ0BAXTEoW0NAXTIzNClbQ0gzXSk9W0NIXVtDSDJdW0NAQEhdMltDQEhdNVtDQEhdNltDQEBIXTdbQ0BAXShbQ0gzXSkoW0NIXT1bQ0hdQyhPNyk9TylbQ0BIXTZDPThbQ0BAXShbQ0gzXSkoW0NAQEhdNVtDSDJdW0NASF0zTzQpW0NIMl1bQ0gyXUMoPU8pW0NIXTg=

>  <s_epik_cmdline>  (198) 
J2VwaWtfcHl0aG9uJywgJy1waHQnLCAnMi4wJywgJy1waCcsICc3LjAnLCAnLXRuJywgJzgnLCAnLW1hJywgJzIwMCcsICctaW1hZScsICc8aW5maWxlLm1hZT4nLCAnLW9tYWUnLCAnPG91dGZpbGUubWFlPic=

>  <r_lp_tautomer_probability>  (198) 
1

>  <r_epik_Ionization_Penalty>  (198) 
8.72945e-10

>  <r_epik_Ionization_Penalty_Charging>  (198) 
0

>  <r_epik_Ionization_Penalty_Neutral>  (198) 
8.72945e-10

>  <r_epik_State_Penalty>  (198) 
0

>  <r_epik_Charging_Adjusted_Penalty>  (198) 
0

>  <i_epik_Tot_Q>  (198) 
0

>  <i_epik_Tot_abs_Q>  (198) 
0

>  <s_epik_Chemistry_Notes>  (198) 
This compound has an ester and may undergo hydrolysis at high or low pH.

>  <s_lp_Force_Field>  (198) 
OPLS3e

>  <r_lp_Energy>  (198) 
65.2823

>  <b_lp_Chiralities_Consistent>  (198) 
1

>  <s_lp_Variant>  (198) 
59:0-1

>  <s_i_glide_gridfile>  (198) 
pfpi4k_grid

>  <i_i_glide_lignum>  (198) 
3

>  <i_i_glide_rotatable_bonds>  (198) 
4

>  <r_i_docking_score>  (198) 
-2.58261

>  <r_i_glide_ligand_efficiency>  (198) 
-0.0629904

>  <r_i_glide_ligand_efficiency_sa>  (198) 
-0.217204

>  <r_i_glide_ligand_efficiency_ln>  (198) 
-0.547908

>  <r_i_glide_gscore>  (198) 
-2.58261

>  <r_i_glide_lipo>  (198) 
-0.328868

>  <r_i_glide_hbond>  (198) 
-0.16

>  <r_i_glide_metal>  (198) 
-0

>  <r_i_glide_rewards>  (198) 
-0.000321125

>  <r_i_glide_evdw>  (198) 
-26.4937

>  <r_i_glide_ecoul>  (198) 
-4.47043

>  <r_i_glide_erotb>  (198) 
0.0490867

>  <r_i_glide_esite>  (198) 
-0.147254

>  <r_i_glide_emodel>  (198) 
-32.8566

>  <r_i_glide_energy>  (198) 
-30.9641

>  <r_i_glide_einternal>  (198) 
3.18469

>  <r_i_glide_intrahb_reward>  (198) 
-0

>  <i_i_glide_confnum>  (198) 
1

>  <i_i_glide_posenum>  (198) 
1

>  <r_i_glide_eff_state_penalty>  (198) 
0

>  <ligand_id>  (198) 
59

>  <original_smiles>  (198) 
CC(=O)OC1CC2(C)C(=CCC3C4C5C6OC(=O)C=CC6(C)C5C5=CC(=O)CCC5(C)C4CC4OC432)C1OC(C)=O

>  <smiles>  (198) 
[H]C1=C([H])C2(C([H])([H])[H])C([H])(OC1=O)C1([H])C2([H])C2=C([H])C(=O)C([H])([H])C([H])([H])C2(C([H])([H])[H])C2([H])C([H])([H])C3([H])OC34C([H])(C([H])([H])C([H])=C3C([H])(OC(=O)C([H])([H])[H])C([H])(OC(=O)C([H])([H])[H])C([H])([H])C34C([H])([H])[H])C12[H]

$$$$
59:0:2
     RDKit          3D

 79 86  0  0  1  0  0  0  0  0999 V2000
   -3.9141    2.9270    9.4925 C   0  0  0  0  0  0  0  0  0  0  0  0
   -2.9228    3.4299    8.4755 C   0  0  0  0  0  0  0  0  0  0  0  0
   -2.6118    4.6258    8.4286 O   0  0  0  0  0  0  0  0  0  0  0  0
   -2.4457    2.4429    7.6777 O   0  0  0  0  0  0  0  0  0  0  0  0
   -1.5181    2.7670    6.6543 C   0  0  2  0  0  0  0  0  0  0  0  0
   -1.2694    1.5616    5.7050 C   0  0  0  0  0  0  0  0  0  0  0  0
    0.1233    0.9769    6.0662 C   0  0  2  0  0  0  0  0  0  0  0  0
   -0.0610    0.0113    7.2780 C   0  0  0  0  0  0  0  0  0  0  0  0
    0.8181    2.2220    6.5385 C   0  0  0  0  0  0  0  0  0  0  0  0
    2.1226    2.5361    6.2093 C   0  0  0  0  0  0  0  0  0  0  0  0
    2.9789    1.6632    5.3415 C   0  0  0  0  0  0  0  0  0  0  0  0
    2.4162    0.2333    5.1064 C   0  0  2  0  0  0  0  0  0  0  0  0
    3.2495   -0.4914    3.9805 C   0  0  1  0  0  0  0  0  0  0  0  0
    4.2665   -1.4633    4.5875 C   0  0  1  0  0  0  0  0  0  0  0  0
    3.8667   -2.6693    5.4748 C   0  0  1  0  0  0  0  0  0  0  0  0
    2.4808   -2.7784    5.8191 O   0  0  0  0  0  0  0  0  0  0  0  0
    1.6449   -3.7527    5.3854 C   0  0  0  0  0  0  0  0  0  0  0  0
    0.5177   -3.8761    5.8366 O   0  0  0  0  0  0  0  0  0  0  0  0
    2.1638   -4.6291    4.3181 C   0  0  0  0  0  0  0  0  0  0  0  0
    3.4231   -4.5550    3.8641 C   0  0  0  0  0  0  0  0  0  0  0  0
    4.4900   -3.6619    4.4704 C   0  0  2  0  0  0  0  0  0  0  0  0
    5.5971   -4.5418    5.0318 C   0  0  0  0  0  0  0  0  0  0  0  0
    4.9807   -2.4393    3.6477 C   0  0  1  0  0  0  0  0  0  0  0  0
    4.7333   -2.1932    2.1503 C   0  0  0  0  0  0  0  0  0  0  0  0
    5.8088   -2.1869    1.3244 C   0  0  0  0  0  0  0  0  0  0  0  0
    5.7470   -1.7756   -0.0778 C   0  0  0  0  0  0  0  0  0  0  0  0
    6.6905   -1.9592   -0.8449 O   0  0  0  0  0  0  0  0  0  0  0  0
    4.4698   -1.1056   -0.5827 C   0  0  0  0  0  0  0  0  0  0  0  0
    3.5638   -0.6392    0.5751 C   0  0  0  0  0  0  0  0  0  0  0  0
    3.3445   -1.7268    1.6666 C   0  0  1  0  0  0  0  0  0  0  0  0
    2.6403   -2.9340    0.9969 C   0  0  0  0  0  0  0  0  0  0  0  0
    2.4495   -1.1809    2.8459 C   0  0  2  0  0  0  0  0  0  0  0  0
    1.2492   -0.3113    2.3933 C   0  0  0  0  0  0  0  0  0  0  0  0
    0.3280    0.0295    3.5352 C   0  0  1  0  0  0  0  0  0  0  0  0
    0.2474   -0.9643    4.5643 O   0  0  0  0  0  0  0  0  0  0  0  0
    0.8813    0.2710    4.9202 C   0  0  2  0  0  0  0  0  0  0  0  0
   -0.1293    3.1187    7.2505 C   0  0  1  0  0  0  0  0  0  0  0  0
    0.1749    4.5061    7.1512 O   0  0  0  0  0  0  0  0  0  0  0  0
    0.2309    5.2524    6.0339 C   0  0  0  0  0  0  0  0  0  0  0  0
    0.1712    4.5198    4.6857 C   0  0  0  0  0  0  0  0  0  0  0  0
    0.2990    6.4690    6.0545 O   0  0  0  0  0  0  0  0  0  0  0  0
   -3.4601    2.0971   10.0285 H   0  0  0  0  0  0  0  0  0  0  0  0
   -4.8379    2.6108    9.0014 H   0  0  0  0  0  0  0  0  0  0  0  0
   -4.1442    3.7183   10.2096 H   0  0  0  0  0  0  0  0  0  0  0  0
   -1.9315    3.5996    6.0752 H   0  0  0  0  0  0  0  0  0  0  0  0
   -2.0712    0.8313    5.7306 H   0  0  0  0  0  0  0  0  0  0  0  0
   -1.2321    1.9624    4.7007 H   0  0  0  0  0  0  0  0  0  0  0  0
   -0.6350   -0.8683    6.9839 H   0  0  0  0  0  0  0  0  0  0  0  0
   -0.5931    0.4999    8.0958 H   0  0  0  0  0  0  0  0  0  0  0  0
    0.9040   -0.3172    7.6719 H   0  0  0  0  0  0  0  0  0  0  0  0
    2.5591    3.4567    6.5560 H   0  0  0  0  0  0  0  0  0  0  0  0
    3.0368    2.1984    4.3895 H   0  0  0  0  0  0  0  0  0  0  0  0
    4.0119    1.6009    5.7216 H   0  0  0  0  0  0  0  0  0  0  0  0
    2.5795   -0.2780    6.0541 H   0  0  0  0  0  0  0  0  0  0  0  0
    3.8155    0.2900    3.4641 H   0  0  0  0  0  0  0  0  0  0  0  0
    5.0240   -0.8927    5.1296 H   0  0  0  0  0  0  0  0  0  0  0  0
    4.4576   -2.6583    6.3879 H   0  0  0  0  0  0  0  0  0  0  0  0
    1.4760   -5.3378    3.8944 H   0  0  0  0  0  0  0  0  0  0  0  0
    3.7467   -5.2165    3.0701 H   0  0  0  0  0  0  0  0  0  0  0  0
    6.3488   -3.9447    5.5534 H   0  0  0  0  0  0  0  0  0  0  0  0
    6.1185   -5.0987    4.2552 H   0  0  0  0  0  0  0  0  0  0  0  0
    5.2161   -5.2602    5.7572 H   0  0  0  0  0  0  0  0  0  0  0  0
    6.0447   -2.3382    3.8085 H   0  0  0  0  0  0  0  0  0  0  0  0
    6.7843   -2.4509    1.6896 H   0  0  0  0  0  0  0  0  0  0  0  0
    4.7061   -0.2620   -1.2322 H   0  0  0  0  0  0  0  0  0  0  0  0
    3.9458   -1.8334   -1.1996 H   0  0  0  0  0  0  0  0  0  0  0  0
    3.9923    0.2616    1.0174 H   0  0  0  0  0  0  0  0  0  0  0  0
    2.6134   -0.3337    0.1405 H   0  0  0  0  0  0  0  0  0  0  0  0
    1.7943   -2.6046    0.4079 H   0  0  0  0  0  0  0  0  0  0  0  0
    2.2719   -3.6597    1.7166 H   0  0  0  0  0  0  0  0  0  0  0  0
    3.3054   -3.4686    0.3150 H   0  0  0  0  0  0  0  0  0  0  0  0
    2.0017   -2.0651    3.2861 H   0  0  0  0  0  0  0  0  0  0  0  0
    1.5949    0.6310    1.9514 H   0  0  0  0  0  0  0  0  0  0  0  0
    0.6733   -0.8286    1.6261 H   0  0  0  0  0  0  0  0  0  0  0  0
   -0.6359    0.4458    3.2360 H   0  0  0  0  0  0  0  0  0  0  0  0
   -0.1433    2.8345    8.3235 H   0  0  0  0  0  0  0  0  0  0  0  0
    0.9996    3.8087    4.5882 H   0  0  0  0  0  0  0  0  0  0  0  0
    0.2591    5.2247    3.8533 H   0  0  0  0  0  0  0  0  0  0  0  0
   -0.7814    3.9921    4.5667 H   0  0  0  0  0  0  0  0  0  0  0  0
  1  2  1  0
  1 42  1  0
  1 43  1  0
  1 44  1  0
  2  3  2  0
  2  4  1  0
  4  5  1  0
  5 37  1  0
  5  6  1  0
  5 45  1  6
  6  7  1  0
  6 46  1  0
  6 47  1  0
  7 36  1  0
  7  8  1  1
  7  9  1  0
  8 48  1  0
  8 49  1  0
  8 50  1  0
  9 10  2  0
  9 37  1  0
 10 11  1  0
 10 51  1  0
 11 12  1  0
 11 52  1  0
 11 53  1  0
 12 36  1  0
 12 13  1  0
 12 54  1  1
 13 32  1  0
 13 14  1  0
 13 55  1  6
 14 23  1  0
 14 15  1  0
 14 56  1  1
 15 21  1  0
 15 16  1  0
 15 57  1  1
 16 17  1  0
 17 18  2  0
 17 19  1  0
 19 20  2  0
 19 58  1  0
 20 21  1  0
 20 59  1  0
 21 22  1  1
 21 23  1  0
 22 60  1  0
 22 61  1  0
 22 62  1  0
 23 24  1  0
 23 63  1  6
 24 30  1  0
 24 25  2  0
 25 26  1  0
 25 64  1  0
 26 27  2  0
 26 28  1  0
 28 29  1  0
 28 65  1  0
 28 66  1  0
 29 30  1  0
 29 67  1  0
 29 68  1  0
 30 31  1  6
 30 32  1  0
 31 69  1  0
 31 70  1  0
 31 71  1  0
 32 33  1  0
 32 72  1  1
 33 34  1  0
 33 73  1  0
 33 74  1  0
 34 36  1  0
 34 35  1  0
 34 75  1  6
 36 35  1  1
 37 38  1  0
 37 76  1  1
 38 39  1  0
 39 40  1  0
 39 41  2  0
 40 77  1  0
 40 78  1  0
 40 79  1  0
M  END
>  <i_m_ct_stereo_status>  (199) 
1

>  <s_m_source_file>  (199) 
/var/tmp/pbs.5083856.sched01/tmpwf87re9s/80yvqvz95v.sdf

>  <i_m_source_file_index>  (199) 
3

>  <i_lp_mmshare_version>  (199) 
48012

>  <i_f3d_flags>  (199) 
0

>  <s_epik_input>  (199) 
W0NIM11DKD1PKU9bQ0BIXShbQ0gyXTEpW0NASF0oT0MoPU8pW0NIM10pQyhbQ0BAXTEoW0NAXTIzNClbQ0gzXSk9W0NIXVtDSDJdW0NAQEhdMltDQEhdNVtDQEhdNltDQEBIXTdbQ0BAXShbQ0gzXSkoW0NIXT1bQ0hdQyhPNyk9TylbQ0BIXTZDPThbQ0BAXShbQ0gzXSkoW0NAQEhdNVtDSDJdW0NASF0zTzQpW0NIMl1bQ0gyXUMoPU8pW0NIXTg=

>  <s_epik_cmdline>  (199) 
J2VwaWtfcHl0aG9uJywgJy1waHQnLCAnMi4wJywgJy1waCcsICc3LjAnLCAnLXRuJywgJzgnLCAnLW1hJywgJzIwMCcsICctaW1hZScsICc8aW5maWxlLm1hZT4nLCAnLW9tYWUnLCAnPG91dGZpbGUubWFlPic=

>  <r_lp_tautomer_probability>  (199) 
1

>  <r_epik_Ionization_Penalty>  (199) 
8.72945e-10

>  <r_epik_Ionization_Penalty_Charging>  (199) 
0

>  <r_epik_Ionization_Penalty_Neutral>  (199) 
8.72945e-10

>  <r_epik_State_Penalty>  (199) 
0

>  <r_epik_Charging_Adjusted_Penalty>  (199) 
0

>  <i_epik_Tot_Q>  (199) 
0

>  <i_epik_Tot_abs_Q>  (199) 
0

>  <s_epik_Chemistry_Notes>  (199) 
This compound has an ester and may undergo hydrolysis at high or low pH.

>  <s_lp_Force_Field>  (199) 
OPLS3e

>  <r_lp_Energy>  (199) 
65.2823

>  <b_lp_Chiralities_Consistent>  (199) 
1

>  <s_lp_Variant>  (199) 
59:0-1

>  <s_i_glide_gridfile>  (199) 
pfpi4k_grid

>  <i_i_glide_lignum>  (199) 
3

>  <i_i_glide_rotatable_bonds>  (199) 
4

>  <r_i_docking_score>  (199) 
-2.45226

>  <r_i_glide_ligand_efficiency>  (199) 
-0.0598112

>  <r_i_glide_ligand_efficiency_sa>  (199) 
-0.206242

>  <r_i_glide_ligand_efficiency_ln>  (199) 
-0.520255

>  <r_i_glide_gscore>  (199) 
-2.45226

>  <r_i_glide_lipo>  (199) 
-0.259969

>  <r_i_glide_hbond>  (199) 
-0.16

>  <r_i_glide_metal>  (199) 
-0

>  <r_i_glide_rewards>  (199) 
-0.128956

>  <r_i_glide_evdw>  (199) 
-27.0998

>  <r_i_glide_ecoul>  (199) 
-3.85542

>  <r_i_glide_erotb>  (199) 
0.0490867

>  <r_i_glide_esite>  (199) 
-0.0191168

>  <r_i_glide_emodel>  (199) 
-31.3172

>  <r_i_glide_energy>  (199) 
-30.9552

>  <r_i_glide_einternal>  (199) 
8.52323

>  <r_i_glide_intrahb_reward>  (199) 
-0

>  <i_i_glide_confnum>  (199) 
3

>  <i_i_glide_posenum>  (199) 
5

>  <r_i_glide_eff_state_penalty>  (199) 
0

>  <ligand_id>  (199) 
59

>  <original_smiles>  (199) 
CC(=O)OC1CC2(C)C(=CCC3C4C5C6OC(=O)C=CC6(C)C5C5=CC(=O)CCC5(C)C4CC4OC432)C1OC(C)=O

>  <smiles>  (199) 
[H]C1=C([H])C2(C([H])([H])[H])C([H])(OC1=O)C1([H])C2([H])C2=C([H])C(=O)C([H])([H])C([H])([H])C2(C([H])([H])[H])C2([H])C([H])([H])C3([H])OC34C([H])(C([H])([H])C([H])=C3C([H])(OC(=O)C([H])([H])[H])C([H])(OC(=O)C([H])([H])[H])C([H])([H])C34C([H])([H])[H])C12[H]

$$$$
60:0:0
     RDKit          3D

 60 63  0  0  1  0  0  0  0  0999 V2000
    1.6530    3.2248    3.1680 C   0  0  0  0  0  0  0  0  0  0  0  0
    2.4763    2.1585    3.2141 C   0  0  0  0  0  0  0  0  0  0  0  0
    2.1766    0.7204    2.7659 C   0  0  1  0  0  0  0  0  0  0  0  0
    0.8070    0.6602    2.0497 C   0  0  0  0  0  0  0  0  0  0  0  0
    3.3006    0.2798    1.8115 C   0  0  0  0  0  0  0  0  0  0  0  0
    3.2844   -1.2182    1.4611 C   0  0  1  0  0  0  0  0  0  0  0  0
    4.3384   -1.5316    0.3886 C   0  0  0  0  0  0  0  0  0  0  0  0
    4.2943   -3.0089   -0.0004 C   0  0  0  0  0  0  0  0  0  0  0  0
    4.6105   -3.9024    1.2062 C   0  0  1  0  0  0  0  0  0  0  0  0
    6.0999   -3.8227    1.5891 C   0  0  0  0  0  0  0  0  0  0  0  0
    3.5968   -3.6248    2.3595 C   0  0  1  0  0  0  0  0  0  0  0  0
    3.8661   -4.5082    3.6073 C   0  0  0  0  0  0  0  0  0  0  0  0
    4.7278   -3.8128    4.6717 C   0  0  0  0  0  0  0  0  0  0  0  0
    4.3250   -2.3252    4.7334 C   0  0  2  0  0  0  0  0  0  0  0  0
    5.0817   -1.5337    5.8048 C   0  0  0  0  0  0  0  0  0  0  0  0
    2.9540   -2.2620    4.9868 O   0  0  0  0  0  0  0  0  0  0  0  0
    2.3342   -1.7468    3.8119 C   0  0  1  0  0  0  0  0  0  0  0  0
    0.9316   -2.3962    3.6018 C   0  0  0  0  0  0  0  0  0  0  0  0
    0.3469   -3.0918    4.8233 C   0  0  0  0  0  0  0  0  0  0  0  0
   -0.6689   -2.6797    5.6122 C   0  0  0  0  0  0  0  0  0  0  0  0
   -1.4220   -1.3722    5.4667 C   0  0  0  0  0  0  0  0  0  0  0  0
   -1.1484   -3.5470    6.7656 C   0  0  0  0  0  0  0  0  0  0  0  0
    2.1596   -0.2099    4.0124 C   0  0  0  0  0  0  0  0  0  0  0  0
    1.9542    0.2418    5.1416 O   0  0  0  0  0  0  0  0  0  0  0  0
    3.4247   -2.0988    2.7324 C   0  0  2  0  0  0  0  0  0  0  0  0
    4.5764   -1.7585    3.4849 O   0  0  0  0  0  0  0  0  0  0  0  0
    0.6391    3.1602    2.8022 H   0  0  0  0  0  0  0  0  0  0  0  0
    1.9909    4.1987    3.4935 H   0  0  0  0  0  0  0  0  0  0  0  0
    3.4721    2.3206    3.6048 H   0  0  0  0  0  0  0  0  0  0  0  0
   -0.0052    0.9438    2.7259 H   0  0  0  0  0  0  0  0  0  0  0  0
    0.5679   -0.3177    1.6399 H   0  0  0  0  0  0  0  0  0  0  0  0
    0.7832    1.3400    1.1949 H   0  0  0  0  0  0  0  0  0  0  0  0
    3.2463    0.8726    0.8961 H   0  0  0  0  0  0  0  0  0  0  0  0
    4.2625    0.5205    2.2646 H   0  0  0  0  0  0  0  0  0  0  0  0
    2.3230   -1.4457    1.0022 H   0  0  0  0  0  0  0  0  0  0  0  0
    4.1434   -0.9215   -0.4956 H   0  0  0  0  0  0  0  0  0  0  0  0
    5.3328   -1.2561    0.7451 H   0  0  0  0  0  0  0  0  0  0  0  0
    3.3027   -3.2432   -0.3880 H   0  0  0  0  0  0  0  0  0  0  0  0
    4.9893   -3.2067   -0.8165 H   0  0  0  0  0  0  0  0  0  0  0  0
    4.4423   -4.9303    0.8774 H   0  0  0  0  0  0  0  0  0  0  0  0
    6.3457   -2.8620    2.0404 H   0  0  0  0  0  0  0  0  0  0  0  0
    6.7304   -3.9508    0.7043 H   0  0  0  0  0  0  0  0  0  0  0  0
    6.3682   -4.6108    2.2918 H   0  0  0  0  0  0  0  0  0  0  0  0
    2.6621   -3.9876    1.9339 H   0  0  0  0  0  0  0  0  0  0  0  0
    2.9110   -4.7921    4.0470 H   0  0  0  0  0  0  0  0  0  0  0  0
    4.3464   -5.4426    3.3211 H   0  0  0  0  0  0  0  0  0  0  0  0
    4.5833   -4.2771    5.6522 H   0  0  0  0  0  0  0  0  0  0  0  0
    5.7902   -3.8778    4.4265 H   0  0  0  0  0  0  0  0  0  0  0  0
    4.7645   -0.4933    5.7754 H   0  0  0  0  0  0  0  0  0  0  0  0
    6.1544   -1.5875    5.6161 H   0  0  0  0  0  0  0  0  0  0  0  0
    4.8714   -1.9553    6.7898 H   0  0  0  0  0  0  0  0  0  0  0  0
    0.2245   -1.6539    3.2553 H   0  0  0  0  0  0  0  0  0  0  0  0
    0.9403   -3.1467    2.8152 H   0  0  0  0  0  0  0  0  0  0  0  0
    0.8229   -4.0309    5.0510 H   0  0  0  0  0  0  0  0  0  0  0  0
   -1.3158   -0.7920    6.3823 H   0  0  0  0  0  0  0  0  0  0  0  0
   -2.4845   -1.5570    5.3052 H   0  0  0  0  0  0  0  0  0  0  0  0
   -1.0648   -0.7419    4.6515 H   0  0  0  0  0  0  0  0  0  0  0  0
   -0.9891   -3.0309    7.7098 H   0  0  0  0  0  0  0  0  0  0  0  0
   -0.6076   -4.4929    6.8109 H   0  0  0  0  0  0  0  0  0  0  0  0
   -2.2116   -3.7720    6.6577 H   0  0  0  0  0  0  0  0  0  0  0  0
  1  2  2  0
  1 27  1  0
  1 28  1  0
  2  3  1  0
  2 29  1  0
  3 23  1  0
  3  4  1  6
  3  5  1  0
  4 30  1  0
  4 31  1  0
  4 32  1  0
  5  6  1  0
  5 33  1  0
  5 34  1  0
  6 25  1  0
  6  7  1  0
  6 35  1  6
  7  8  1  0
  7 36  1  0
  7 37  1  0
  8  9  1  0
  8 38  1  0
  8 39  1  0
  9 10  1  0
  9 11  1  0
  9 40  1  6
 10 41  1  0
 10 42  1  0
 10 43  1  0
 11 25  1  0
 11 12  1  0
 11 44  1  6
 12 13  1  0
 12 45  1  0
 12 46  1  0
 13 14  1  0
 13 47  1  0
 13 48  1  0
 14 26  1  0
 14 15  1  1
 14 16  1  0
 15 49  1  0
 15 50  1  0
 15 51  1  0
 16 17  1  0
 17 18  1  6
 17 23  1  0
 17 25  1  0
 18 19  1  0
 18 52  1  0
 18 53  1  0
 19 20  2  3
 19 54  1  0
 20 21  1  0
 20 22  1  0
 21 55  1  0
 21 56  1  0
 21 57  1  0
 22 58  1  0
 22 59  1  0
 22 60  1  0
 23 24  2  0
 25 26  1  1
M  END
>  <i_m_ct_stereo_status>  (200) 
1

>  <s_m_source_file>  (200) 
/var/tmp/pbs.5083856.sched01/tmpwf87re9s/80yvqvz95v.sdf

>  <i_m_source_file_index>  (200) 
4

>  <i_lp_mmshare_version>  (200) 
48012

>  <i_f3d_flags>  (200) 
0

>  <s_epik_input>  (200) 
W0NAQF0xMjNbQ0BIXTRbQ0gyXVtDQF0oW0NIM10pKFtDSF09W0NIMl0pQyg9TylbQ0BdMihbQ0gyXVtDSF09QyhbQ0gzXSlbQ0gzXSlPW0NAQF0oTzMpKFtDSDNdKVtDSDJdW0NIMl1bQ0BASF0xW0NASF0oW0NIM10pW0NIMl1bQ0gyXTQ=

>  <s_epik_cmdline>  (200) 
J2VwaWtfcHl0aG9uJywgJy1waHQnLCAnMi4wJywgJy1waCcsICc3LjAnLCAnLXRuJywgJzgnLCAnLW1hJywgJzIwMCcsICctaW1hZScsICc8aW5maWxlLm1hZT4nLCAnLW9tYWUnLCAnPG91dGZpbGUubWFlPic=

>  <r_lp_tautomer_probability>  (200) 
1

>  <r_epik_Ionization_Penalty>  (200) 
3.81519e-14

>  <r_epik_Ionization_Penalty_Charging>  (200) 
0

>  <r_epik_Ionization_Penalty_Neutral>  (200) 
3.81519e-14

>  <r_epik_State_Penalty>  (200) 
0

>  <r_epik_Charging_Adjusted_Penalty>  (200) 
0

>  <i_epik_Tot_Q>  (200) 
0

>  <i_epik_Tot_abs_Q>  (200) 
0

>  <s_lp_Force_Field>  (200) 
OPLS3e

>  <r_lp_Energy>  (200) 
31.1827

>  <b_lp_Chiralities_Consistent>  (200) 
1

>  <s_lp_Variant>  (200) 
60:0-1

>  <s_i_glide_gridfile>  (200) 
pfpi4k_grid

>  <i_i_glide_lignum>  (200) 
4

>  <i_i_glide_rotatable_bonds>  (200) 
3

>  <r_i_docking_score>  (200) 
-1.94989

>  <r_i_glide_ligand_efficiency>  (200) 
-0.0749956

>  <r_i_glide_ligand_efficiency_sa>  (200) 
-0.222174

>  <r_i_glide_ligand_efficiency_ln>  (200) 
-0.457924

>  <r_i_glide_gscore>  (200) 
-1.94989

>  <r_i_glide_lipo>  (200) 
-0.25672

>  <r_i_glide_hbond>  (200) 
0

>  <r_i_glide_metal>  (200) 
-0

>  <r_i_glide_rewards>  (200) 
-0.976432

>  <r_i_glide_evdw>  (200) 
-18.6984

>  <r_i_glide_ecoul>  (200) 
-1.52229

>  <r_i_glide_erotb>  (200) 
0.447124

>  <r_i_glide_esite>  (200) 
-0.000594659

>  <r_i_glide_emodel>  (200) 
-19.7978

>  <r_i_glide_energy>  (200) 
-20.2207

>  <r_i_glide_einternal>  (200) 
5.27511

>  <r_i_glide_intrahb_reward>  (200) 
-0

>  <i_i_glide_confnum>  (200) 
4

>  <i_i_glide_posenum>  (200) 
13

>  <r_i_glide_eff_state_penalty>  (200) 
0

>  <ligand_id>  (200) 
60

>  <original_smiles>  (200) 
C=CC1(C)CC2CCC(C)C3CCC4(C)OC(CC=C(C)C)(C1=O)C23O4

>  <smiles>  (200) 
[H]C([H])=C([H])C1(C([H])([H])[H])C(=O)C2(C([H])([H])C([H])=C(C([H])([H])[H])C([H])([H])[H])OC3(C([H])([H])[H])OC24C([H])(C([H])([H])C([H])([H])C([H])(C([H])([H])[H])C4([H])C([H])([H])C3([H])[H])C1([H])[H]

$$$$
60:0:1
     RDKit          3D

 60 63  0  0  1  0  0  0  0  0999 V2000
   -2.7394    2.7040    9.8215 C   0  0  0  0  0  0  0  0  0  0  0  0
   -1.5750    2.9348    9.1836 C   0  0  0  0  0  0  0  0  0  0  0  0
   -1.3425    3.0310    7.6655 C   0  0  1  0  0  0  0  0  0  0  0  0
   -2.6911    2.8874    6.9253 C   0  0  0  0  0  0  0  0  0  0  0  0
   -0.6925    4.3971    7.3757 C   0  0  0  0  0  0  0  0  0  0  0  0
   -0.1854    4.5575    5.9298 C   0  0  1  0  0  0  0  0  0  0  0  0
    0.2892    5.9986    5.6876 C   0  0  0  0  0  0  0  0  0  0  0  0
    0.7474    6.1805    4.2404 C   0  0  0  0  0  0  0  0  0  0  0  0
    1.9316    5.2589    3.9241 C   0  0  1  0  0  0  0  0  0  0  0  0
    3.2158    5.7366    4.6299 C   0  0  0  0  0  0  0  0  0  0  0  0
    1.5502    3.7687    4.1713 C   0  0  1  0  0  0  0  0  0  0  0  0
    2.7503    2.8234    3.8653 C   0  0  0  0  0  0  0  0  0  0  0  0
    3.5422    2.4160    5.1167 C   0  0  0  0  0  0  0  0  0  0  0  0
    2.5683    2.2656    6.3073 C   0  0  2  0  0  0  0  0  0  0  0  0
    3.2711    1.8460    7.6023 C   0  0  0  0  0  0  0  0  0  0  0  0
    1.5938    1.3168    5.9750 O   0  0  0  0  0  0  0  0  0  0  0  0
    0.3651    2.0243    5.8408 C   0  0  1  0  0  0  0  0  0  0  0  0
   -0.5337    1.3594    4.7480 C   0  0  0  0  0  0  0  0  0  0  0  0
    0.1621    0.8512    3.4949 C   0  0  0  0  0  0  0  0  0  0  0  0
    0.5979   -0.3974    3.2443 C   0  0  0  0  0  0  0  0  0  0  0  0
    0.4310   -1.5775    4.1784 C   0  0  0  0  0  0  0  0  0  0  0  0
    1.3216   -0.7219    1.9531 C   0  0  0  0  0  0  0  0  0  0  0  0
   -0.3899    1.8943    7.2060 C   0  0  0  0  0  0  0  0  0  0  0  0
   -0.3046    0.8494    7.8548 O   0  0  0  0  0  0  0  0  0  0  0  0
    0.8861    3.4864    5.5768 C   0  0  2  0  0  0  0  0  0  0  0  0
    1.9495    3.4960    6.5122 O   0  0  0  0  0  0  0  0  0  0  0  0
   -3.6728    2.5497    9.3040 H   0  0  0  0  0  0  0  0  0  0  0  0
   -2.7794    2.6661   10.9025 H   0  0  0  0  0  0  0  0  0  0  0  0
   -0.6977    3.0784    9.7997 H   0  0  0  0  0  0  0  0  0  0  0  0
   -3.1536    1.9238    7.1495 H   0  0  0  0  0  0  0  0  0  0  0  0
   -2.6115    2.9527    5.8431 H   0  0  0  0  0  0  0  0  0  0  0  0
   -3.3852    3.6668    7.2402 H   0  0  0  0  0  0  0  0  0  0  0  0
   -1.4050    5.1904    7.6123 H   0  0  0  0  0  0  0  0  0  0  0  0
    0.1447    4.5539    8.0593 H   0  0  0  0  0  0  0  0  0  0  0  0
   -1.0299    4.4083    5.2589 H   0  0  0  0  0  0  0  0  0  0  0  0
   -0.5203    6.6967    5.9037 H   0  0  0  0  0  0  0  0  0  0  0  0
    1.0963    6.2518    6.3766 H   0  0  0  0  0  0  0  0  0  0  0  0
   -0.0778    5.9615    3.5611 H   0  0  0  0  0  0  0  0  0  0  0  0
    1.0174    7.2223    4.0620 H   0  0  0  0  0  0  0  0  0  0  0  0
    2.1189    5.3623    2.8534 H   0  0  0  0  0  0  0  0  0  0  0  0
    3.1739    5.5672    5.7059 H   0  0  0  0  0  0  0  0  0  0  0  0
    3.3726    6.8056    4.4654 H   0  0  0  0  0  0  0  0  0  0  0  0
    4.0956    5.2232    4.2442 H   0  0  0  0  0  0  0  0  0  0  0  0
    0.7855    3.5913    3.4157 H   0  0  0  0  0  0  0  0  0  0  0  0
    2.4229    1.9083    3.3879 H   0  0  0  0  0  0  0  0  0  0  0  0
    3.4134    3.2696    3.1287 H   0  0  0  0  0  0  0  0  0  0  0  0
    4.0614    1.4682    4.9474 H   0  0  0  0  0  0  0  0  0  0  0  0
    4.2938    3.1658    5.3687 H   0  0  0  0  0  0  0  0  0  0  0  0
    2.5429    1.7803    8.4103 H   0  0  0  0  0  0  0  0  0  0  0  0
    4.0277    2.5887    7.8629 H   0  0  0  0  0  0  0  0  0  0  0  0
    3.7501    0.8735    7.4665 H   0  0  0  0  0  0  0  0  0  0  0  0
   -1.1199    0.5535    5.1818 H   0  0  0  0  0  0  0  0  0  0  0  0
   -1.2620    2.0774    4.3773 H   0  0  0  0  0  0  0  0  0  0  0  0
    0.3188    1.5947    2.7289 H   0  0  0  0  0  0  0  0  0  0  0  0
    1.4071   -1.9999    4.4129 H   0  0  0  0  0  0  0  0  0  0  0  0
   -0.1667   -2.3476    3.6887 H   0  0  0  0  0  0  0  0  0  0  0  0
   -0.0511   -1.3181    5.1199 H   0  0  0  0  0  0  0  0  0  0  0  0
    2.3186   -1.1101    2.1601 H   0  0  0  0  0  0  0  0  0  0  0  0
    1.4236    0.1522    1.3081 H   0  0  0  0  0  0  0  0  0  0  0  0
    0.7648   -1.4754    1.4023 H   0  0  0  0  0  0  0  0  0  0  0  0
  1  2  2  0
  1 27  1  0
  1 28  1  0
  2  3  1  0
  2 29  1  0
  3 23  1  0
  3  4  1  6
  3  5  1  0
  4 30  1  0
  4 31  1  0
  4 32  1  0
  5  6  1  0
  5 33  1  0
  5 34  1  0
  6 25  1  0
  6  7  1  0
  6 35  1  6
  7  8  1  0
  7 36  1  0
  7 37  1  0
  8  9  1  0
  8 38  1  0
  8 39  1  0
  9 10  1  0
  9 11  1  0
  9 40  1  6
 10 41  1  0
 10 42  1  0
 10 43  1  0
 11 25  1  0
 11 12  1  0
 11 44  1  6
 12 13  1  0
 12 45  1  0
 12 46  1  0
 13 14  1  0
 13 47  1  0
 13 48  1  0
 14 26  1  0
 14 15  1  1
 14 16  1  0
 15 49  1  0
 15 50  1  0
 15 51  1  0
 16 17  1  0
 17 18  1  6
 17 23  1  0
 17 25  1  0
 18 19  1  0
 18 52  1  0
 18 53  1  0
 19 20  2  3
 19 54  1  0
 20 21  1  0
 20 22  1  0
 21 55  1  0
 21 56  1  0
 21 57  1  0
 22 58  1  0
 22 59  1  0
 22 60  1  0
 23 24  2  0
 25 26  1  1
M  END
>  <i_m_ct_stereo_status>  (201) 
1

>  <s_m_source_file>  (201) 
/var/tmp/pbs.5083856.sched01/tmpwf87re9s/80yvqvz95v.sdf

>  <i_m_source_file_index>  (201) 
4

>  <i_lp_mmshare_version>  (201) 
48012

>  <i_f3d_flags>  (201) 
0

>  <s_epik_input>  (201) 
W0NAQF0xMjNbQ0BIXTRbQ0gyXVtDQF0oW0NIM10pKFtDSF09W0NIMl0pQyg9TylbQ0BdMihbQ0gyXVtDSF09QyhbQ0gzXSlbQ0gzXSlPW0NAQF0oTzMpKFtDSDNdKVtDSDJdW0NIMl1bQ0BASF0xW0NASF0oW0NIM10pW0NIMl1bQ0gyXTQ=

>  <s_epik_cmdline>  (201) 
J2VwaWtfcHl0aG9uJywgJy1waHQnLCAnMi4wJywgJy1waCcsICc3LjAnLCAnLXRuJywgJzgnLCAnLW1hJywgJzIwMCcsICctaW1hZScsICc8aW5maWxlLm1hZT4nLCAnLW9tYWUnLCAnPG91dGZpbGUubWFlPic=

>  <r_lp_tautomer_probability>  (201) 
1

>  <r_epik_Ionization_Penalty>  (201) 
3.81519e-14

>  <r_epik_Ionization_Penalty_Charging>  (201) 
0

>  <r_epik_Ionization_Penalty_Neutral>  (201) 
3.81519e-14

>  <r_epik_State_Penalty>  (201) 
0

>  <r_epik_Charging_Adjusted_Penalty>  (201) 
0

>  <i_epik_Tot_Q>  (201) 
0

>  <i_epik_Tot_abs_Q>  (201) 
0

>  <s_lp_Force_Field>  (201) 
OPLS3e

>  <r_lp_Energy>  (201) 
31.1827

>  <b_lp_Chiralities_Consistent>  (201) 
1

>  <s_lp_Variant>  (201) 
60:0-1

>  <s_i_glide_gridfile>  (201) 
pfpi4k_grid

>  <i_i_glide_lignum>  (201) 
4

>  <i_i_glide_rotatable_bonds>  (201) 
3

>  <r_i_docking_score>  (201) 
-1.83213

>  <r_i_glide_ligand_efficiency>  (201) 
-0.0704664

>  <r_i_glide_ligand_efficiency_sa>  (201) 
-0.208757

>  <r_i_glide_ligand_efficiency_ln>  (201) 
-0.430269

>  <r_i_glide_gscore>  (201) 
-1.83213

>  <r_i_glide_lipo>  (201) 
-0.171991

>  <r_i_glide_hbond>  (201) 
0

>  <r_i_glide_metal>  (201) 
-0

>  <r_i_glide_rewards>  (201) 
-0.964675

>  <r_i_glide_evdw>  (201) 
-17.3603

>  <r_i_glide_ecoul>  (201) 
-1.78093

>  <r_i_glide_erotb>  (201) 
0.447124

>  <r_i_glide_esite>  (201) 
-0.00742952

>  <r_i_glide_emodel>  (201) 
-19.5165

>  <r_i_glide_energy>  (201) 
-19.1413

>  <r_i_glide_einternal>  (201) 
3.51984

>  <r_i_glide_intrahb_reward>  (201) 
-0

>  <i_i_glide_confnum>  (201) 
6

>  <i_i_glide_posenum>  (201) 
31

>  <r_i_glide_eff_state_penalty>  (201) 
0

>  <ligand_id>  (201) 
60

>  <original_smiles>  (201) 
C=CC1(C)CC2CCC(C)C3CCC4(C)OC(CC=C(C)C)(C1=O)C23O4

>  <smiles>  (201) 
[H]C([H])=C([H])C1(C([H])([H])[H])C(=O)C2(C([H])([H])C([H])=C(C([H])([H])[H])C([H])([H])[H])OC3(C([H])([H])[H])OC24C([H])(C([H])([H])C([H])([H])C([H])(C([H])([H])[H])C4([H])C([H])([H])C3([H])[H])C1([H])[H]

$$$$
60:0:2
     RDKit          3D

 60 63  0  0  1  0  0  0  0  0999 V2000
    3.0396    4.2172    3.7452 C   0  0  0  0  0  0  0  0  0  0  0  0
    3.2168    2.9005    3.9780 C   0  0  0  0  0  0  0  0  0  0  0  0
    2.3305    1.7395    3.4960 C   0  0  1  0  0  0  0  0  0  0  0  0
    1.3536    2.2585    2.4274 C   0  0  0  0  0  0  0  0  0  0  0  0
    3.2189    0.6436    2.8893 C   0  0  0  0  0  0  0  0  0  0  0  0
    2.4835   -0.6719    2.5767 C   0  0  1  0  0  0  0  0  0  0  0  0
    3.4159   -1.6410    1.8361 C   0  0  0  0  0  0  0  0  0  0  0  0
    2.6818   -2.9298    1.4772 C   0  0  0  0  0  0  0  0  0  0  0  0
    2.2034   -3.6538    2.7448 C   0  0  1  0  0  0  0  0  0  0  0  0
    3.3887   -4.2664    3.5159 C   0  0  0  0  0  0  0  0  0  0  0  0
    1.2560   -2.7238    3.5741 C   0  0  1  0  0  0  0  0  0  0  0  0
    0.7529   -3.4284    4.8650 C   0  0  0  0  0  0  0  0  0  0  0  0
    1.5840   -3.0824    6.1073 C   0  0  0  0  0  0  0  0  0  0  0  0
    2.0133   -1.6081    6.0291 C   0  0  2  0  0  0  0  0  0  0  0  0
    2.8226   -1.1443    7.2349 C   0  0  0  0  0  0  0  0  0  0  0  0
    0.8567   -0.8220    5.8875 O   0  0  0  0  0  0  0  0  0  0  0  0
    0.8956   -0.2606    4.5778 C   0  0  1  0  0  0  0  0  0  0  0  0
   -0.5514   -0.1781    3.9953 C   0  0  0  0  0  0  0  0  0  0  0  0
   -1.4475    0.8927    4.6204 C   0  0  0  0  0  0  0  0  0  0  0  0
   -2.0345    1.9663    4.0414 C   0  0  0  0  0  0  0  0  0  0  0  0
   -1.9465    2.3516    2.5762 C   0  0  0  0  0  0  0  0  0  0  0  0
   -2.8799    2.9398    4.8475 C   0  0  0  0  0  0  0  0  0  0  0  0
    1.5302    1.1629    4.7000 C   0  0  0  0  0  0  0  0  0  0  0  0
    1.3705    1.8205    5.7275 O   0  0  0  0  0  0  0  0  0  0  0  0
    1.8438   -1.2848    3.8567 C   0  0  2  0  0  0  0  0  0  0  0  0
    2.7953   -1.4531    4.8822 O   0  0  0  0  0  0  0  0  0  0  0  0
    2.2026    4.6033    3.1803 H   0  0  0  0  0  0  0  0  0  0  0  0
    3.7472    4.9453    4.1131 H   0  0  0  0  0  0  0  0  0  0  0  0
    4.0790    2.6094    4.5624 H   0  0  0  0  0  0  0  0  0  0  0  0
    0.6806    2.9945    2.8617 H   0  0  0  0  0  0  0  0  0  0  0  0
    0.7395    1.4726    1.9873 H   0  0  0  0  0  0  0  0  0  0  0  0
    1.8827    2.7502    1.6083 H   0  0  0  0  0  0  0  0  0  0  0  0
    3.6689    1.0222    1.9685 H   0  0  0  0  0  0  0  0  0  0  0  0
    4.0454    0.4331    3.5678 H   0  0  0  0  0  0  0  0  0  0  0  0
    1.6767   -0.4669    1.8741 H   0  0  0  0  0  0  0  0  0  0  0  0
    3.7715   -1.1673    0.9190 H   0  0  0  0  0  0  0  0  0  0  0  0
    4.2991   -1.8503    2.4401 H   0  0  0  0  0  0  0  0  0  0  0  0
    1.8356   -2.6843    0.8374 H   0  0  0  0  0  0  0  0  0  0  0  0
    3.3299   -3.5786    0.8863 H   0  0  0  0  0  0  0  0  0  0  0  0
    1.6022   -4.5006    2.4075 H   0  0  0  0  0  0  0  0  0  0  0  0
    4.0002   -3.5043    3.9968 H   0  0  0  0  0  0  0  0  0  0  0  0
    4.0371   -4.8321    2.8414 H   0  0  0  0  0  0  0  0  0  0  0  0
    3.0498   -4.9614    4.2838 H   0  0  0  0  0  0  0  0  0  0  0  0
    0.3874   -2.5977    2.9374 H   0  0  0  0  0  0  0  0  0  0  0  0
   -0.2840   -3.1380    5.0474 H   0  0  0  0  0  0  0  0  0  0  0  0
    0.7287   -4.5085    4.7350 H   0  0  0  0  0  0  0  0  0  0  0  0
    1.0092   -3.2530    7.0230 H   0  0  0  0  0  0  0  0  0  0  0  0
    2.4831   -3.7041    6.1721 H   0  0  0  0  0  0  0  0  0  0  0  0
    3.1172   -0.1035    7.1085 H   0  0  0  0  0  0  0  0  0  0  0  0
    3.7237   -1.7570    7.3224 H   0  0  0  0  0  0  0  0  0  0  0  0
    2.2291   -1.2482    8.1471 H   0  0  0  0  0  0  0  0  0  0  0  0
   -0.4877   -0.0588    2.9130 H   0  0  0  0  0  0  0  0  0  0  0  0
   -1.0737   -1.1254    4.1426 H   0  0  0  0  0  0  0  0  0  0  0  0
   -1.6147    0.7406    5.6738 H   0  0  0  0  0  0  0  0  0  0  0  0
   -1.4939    3.3395    2.4825 H   0  0  0  0  0  0  0  0  0  0  0  0
   -2.9455    2.4401    2.1453 H   0  0  0  0  0  0  0  0  0  0  0  0
   -1.3649    1.6539    1.9713 H   0  0  0  0  0  0  0  0  0  0  0  0
   -2.4536    3.9423    4.8096 H   0  0  0  0  0  0  0  0  0  0  0  0
   -2.9780    2.6445    5.8923 H   0  0  0  0  0  0  0  0  0  0  0  0
   -3.8767    2.9643    4.4105 H   0  0  0  0  0  0  0  0  0  0  0  0
  1  2  2  0
  1 27  1  0
  1 28  1  0
  2  3  1  0
  2 29  1  0
  3 23  1  0
  3  4  1  6
  3  5  1  0
  4 30  1  0
  4 31  1  0
  4 32  1  0
  5  6  1  0
  5 33  1  0
  5 34  1  0
  6 25  1  0
  6  7  1  0
  6 35  1  6
  7  8  1  0
  7 36  1  0
  7 37  1  0
  8  9  1  0
  8 38  1  0
  8 39  1  0
  9 10  1  0
  9 11  1  0
  9 40  1  6
 10 41  1  0
 10 42  1  0
 10 43  1  0
 11 25  1  0
 11 12  1  0
 11 44  1  6
 12 13  1  0
 12 45  1  0
 12 46  1  0
 13 14  1  0
 13 47  1  0
 13 48  1  0
 14 26  1  0
 14 15  1  1
 14 16  1  0
 15 49  1  0
 15 50  1  0
 15 51  1  0
 16 17  1  0
 17 18  1  6
 17 23  1  0
 17 25  1  0
 18 19  1  0
 18 52  1  0
 18 53  1  0
 19 20  2  3
 19 54  1  0
 20 21  1  0
 20 22  1  0
 21 55  1  0
 21 56  1  0
 21 57  1  0
 22 58  1  0
 22 59  1  0
 22 60  1  0
 23 24  2  0
 25 26  1  1
M  END
>  <i_m_ct_stereo_status>  (202) 
1

>  <s_m_source_file>  (202) 
/var/tmp/pbs.5083856.sched01/tmpwf87re9s/80yvqvz95v.sdf

>  <i_m_source_file_index>  (202) 
4

>  <i_lp_mmshare_version>  (202) 
48012

>  <i_f3d_flags>  (202) 
0

>  <s_epik_input>  (202) 
W0NAQF0xMjNbQ0BIXTRbQ0gyXVtDQF0oW0NIM10pKFtDSF09W0NIMl0pQyg9TylbQ0BdMihbQ0gyXVtDSF09QyhbQ0gzXSlbQ0gzXSlPW0NAQF0oTzMpKFtDSDNdKVtDSDJdW0NIMl1bQ0BASF0xW0NASF0oW0NIM10pW0NIMl1bQ0gyXTQ=

>  <s_epik_cmdline>  (202) 
J2VwaWtfcHl0aG9uJywgJy1waHQnLCAnMi4wJywgJy1waCcsICc3LjAnLCAnLXRuJywgJzgnLCAnLW1hJywgJzIwMCcsICctaW1hZScsICc8aW5maWxlLm1hZT4nLCAnLW9tYWUnLCAnPG91dGZpbGUubWFlPic=

>  <r_lp_tautomer_probability>  (202) 
1

>  <r_epik_Ionization_Penalty>  (202) 
3.81519e-14

>  <r_epik_Ionization_Penalty_Charging>  (202) 
0

>  <r_epik_Ionization_Penalty_Neutral>  (202) 
3.81519e-14

>  <r_epik_State_Penalty>  (202) 
0

>  <r_epik_Charging_Adjusted_Penalty>  (202) 
0

>  <i_epik_Tot_Q>  (202) 
0

>  <i_epik_Tot_abs_Q>  (202) 
0

>  <s_lp_Force_Field>  (202) 
OPLS3e

>  <r_lp_Energy>  (202) 
31.1827

>  <b_lp_Chiralities_Consistent>  (202) 
1

>  <s_lp_Variant>  (202) 
60:0-1

>  <s_i_glide_gridfile>  (202) 
pfpi4k_grid

>  <i_i_glide_lignum>  (202) 
4

>  <i_i_glide_rotatable_bonds>  (202) 
3

>  <r_i_docking_score>  (202) 
-1.70645

>  <r_i_glide_ligand_efficiency>  (202) 
-0.0656325

>  <r_i_glide_ligand_efficiency_sa>  (202) 
-0.194436

>  <r_i_glide_ligand_efficiency_ln>  (202) 
-0.400753

>  <r_i_glide_gscore>  (202) 
-1.70645

>  <r_i_glide_lipo>  (202) 
-0.0948786

>  <r_i_glide_hbond>  (202) 
0

>  <r_i_glide_metal>  (202) 
-0

>  <r_i_glide_rewards>  (202) 
-0.964675

>  <r_i_glide_evdw>  (202) 
-18.541

>  <r_i_glide_ecoul>  (202) 
-1.0977

>  <r_i_glide_erotb>  (202) 
0.447124

>  <r_i_glide_esite>  (202) 
-0.00230889

>  <r_i_glide_emodel>  (202) 
-21.0579

>  <r_i_glide_energy>  (202) 
-19.6387

>  <r_i_glide_einternal>  (202) 
0.476259

>  <r_i_glide_intrahb_reward>  (202) 
-0

>  <i_i_glide_confnum>  (202) 
4

>  <i_i_glide_posenum>  (202) 
1

>  <r_i_glide_eff_state_penalty>  (202) 
0

>  <ligand_id>  (202) 
60

>  <original_smiles>  (202) 
C=CC1(C)CC2CCC(C)C3CCC4(C)OC(CC=C(C)C)(C1=O)C23O4

>  <smiles>  (202) 
[H]C([H])=C([H])C1(C([H])([H])[H])C(=O)C2(C([H])([H])C([H])=C(C([H])([H])[H])C([H])([H])[H])OC3(C([H])([H])[H])OC24C([H])(C([H])([H])C([H])([H])C([H])(C([H])([H])[H])C4([H])C([H])([H])C3([H])[H])C1([H])[H]

$$$$
61:0:0
     RDKit          3D

 55 58  0  0  1  0  0  0  0  0999 V2000
   -1.9708   -8.8588    2.4938 C   0  0  0  0  0  0  0  0  0  0  0  0
   -0.8555   -8.1024    3.1925 C   0  0  0  0  0  0  0  0  0  0  0  0
   -0.7751   -6.8757    3.1038 O   0  0  0  0  0  0  0  0  0  0  0  0
   -0.0360   -8.9353    3.8682 O   0  0  0  0  0  0  0  0  0  0  0  0
    1.0419   -8.3639    4.5464 C   0  0  2  0  0  0  0  0  0  0  0  0
    1.9082   -7.6816    3.6825 O   0  0  0  0  0  0  0  0  0  0  0  0
    2.5774   -8.4735    2.7023 C   0  0  1  0  0  0  0  0  0  0  0  0
    3.3319   -7.5891    1.7431 C   0  0  0  0  0  0  0  0  0  0  0  0
    3.0928   -6.2063    1.4922 C   0  0  0  0  0  0  0  0  0  0  0  0
    3.9877   -5.8244    0.5384 C   0  0  0  0  0  0  0  0  0  0  0  0
    4.7571   -6.8749    0.1563 O   0  0  0  0  0  0  0  0  0  0  0  0
    4.3463   -7.9363    0.8969 C   0  0  0  0  0  0  0  0  0  0  0  0
    3.4925   -9.4605    3.4542 C   0  0  0  0  0  0  0  0  0  0  0  0
    2.6862  -10.3852    4.4083 C   0  0  1  0  0  0  0  0  0  0  0  0
    1.8115  -11.3500    3.5640 C   0  0  0  0  0  0  0  0  0  0  0  0
    3.6340  -11.2834    5.2818 C   0  0  1  0  0  0  0  0  0  0  0  0
    4.4333  -12.3562    4.5139 C   0  0  0  0  0  0  0  0  0  0  0  0
    4.5857  -10.4576    6.1558 C   0  0  0  0  0  0  0  0  0  0  0  0
    3.8415   -9.4917    7.0828 C   0  0  1  0  0  0  0  0  0  0  0  0
    4.7644   -8.4764    7.4528 O   0  0  0  0  0  0  0  0  0  0  0  0
    4.3531   -7.2913    6.8565 C   0  0  0  0  0  0  0  0  0  0  0  0
    3.9614   -6.3142    7.9773 C   0  0  0  0  0  0  0  0  0  0  0  0
    5.4840   -6.7441    5.9732 C   0  0  0  0  0  0  0  0  0  0  0  0
    3.2708   -7.5266    6.0235 O   0  0  0  0  0  0  0  0  0  0  0  0
    2.6675   -8.7286    6.4495 C   0  0  1  0  0  0  0  0  0  0  0  0
    1.8233   -9.4659    5.3569 C   0  0  1  0  0  0  0  0  0  0  0  0
    0.8862  -10.2425    6.0848 O   0  0  0  0  0  0  0  0  0  0  0  0
   -2.5537   -9.4441    3.2074 H   0  0  0  0  0  0  0  0  0  0  0  0
   -1.5609   -9.5312    1.7384 H   0  0  0  0  0  0  0  0  0  0  0  0
   -2.6432   -8.1558    2.0066 H   0  0  0  0  0  0  0  0  0  0  0  0
    0.6275   -7.6298    5.2387 H   0  0  0  0  0  0  0  0  0  0  0  0
    1.8626   -9.0132    2.0769 H   0  0  0  0  0  0  0  0  0  0  0  0
    2.3543   -5.5708    1.9560 H   0  0  0  0  0  0  0  0  0  0  0  0
    4.1944   -4.8955    0.0324 H   0  0  0  0  0  0  0  0  0  0  0  0
    4.8722   -8.8573    0.6884 H   0  0  0  0  0  0  0  0  0  0  0  0
    4.0814  -10.0595    2.7601 H   0  0  0  0  0  0  0  0  0  0  0  0
    4.2004   -8.8443    4.0040 H   0  0  0  0  0  0  0  0  0  0  0  0
    1.3607  -12.1293    4.1786 H   0  0  0  0  0  0  0  0  0  0  0  0
    2.4147  -11.8422    2.8009 H   0  0  0  0  0  0  0  0  0  0  0  0
    1.0072  -10.8704    3.0169 H   0  0  0  0  0  0  0  0  0  0  0  0
    3.0036  -11.8552    5.9667 H   0  0  0  0  0  0  0  0  0  0  0  0
    5.0696  -11.9305    3.7389 H   0  0  0  0  0  0  0  0  0  0  0  0
    3.7802  -13.0959    4.0548 H   0  0  0  0  0  0  0  0  0  0  0  0
    5.0677  -12.9091    5.2040 H   0  0  0  0  0  0  0  0  0  0  0  0
    5.1862  -11.1196    6.7812 H   0  0  0  0  0  0  0  0  0  0  0  0
    5.2973   -9.9128    5.5335 H   0  0  0  0  0  0  0  0  0  0  0  0
    3.4996  -10.0322    7.9682 H   0  0  0  0  0  0  0  0  0  0  0  0
    3.1871   -6.7503    8.6087 H   0  0  0  0  0  0  0  0  0  0  0  0
    3.6057   -5.3728    7.5583 H   0  0  0  0  0  0  0  0  0  0  0  0
    4.8373   -6.1214    8.5981 H   0  0  0  0  0  0  0  0  0  0  0  0
    5.7395   -7.4716    5.1989 H   0  0  0  0  0  0  0  0  0  0  0  0
    6.3690   -6.5290    6.5769 H   0  0  0  0  0  0  0  0  0  0  0  0
    5.1459   -5.8276    5.4843 H   0  0  0  0  0  0  0  0  0  0  0  0
    2.0083   -8.4252    7.2634 H   0  0  0  0  0  0  0  0  0  0  0  0
    1.3117  -10.9422    6.5876 H   0  0  0  0  0  0  0  0  0  0  0  0
  1  2  1  0
  1 28  1  0
  1 29  1  0
  1 30  1  0
  2  3  2  0
  2  4  1  0
  4  5  1  0
  5 26  1  0
  5  6  1  0
  5 31  1  1
  6  7  1  0
  7  8  1  0
  7 13  1  0
  7 32  1  6
  8 12  2  0
  8  9  1  0
  9 10  2  0
  9 33  1  0
 10 11  1  0
 10 34  1  0
 11 12  1  0
 12 35  1  0
 13 14  1  0
 13 36  1  0
 13 37  1  0
 14 26  1  0
 14 15  1  6
 14 16  1  0
 15 38  1  0
 15 39  1  0
 15 40  1  0
 16 17  1  0
 16 18  1  0
 16 41  1  1
 17 42  1  0
 17 43  1  0
 17 44  1  0
 18 19  1  0
 18 45  1  0
 18 46  1  0
 19 25  1  0
 19 20  1  0
 19 47  1  1
 20 21  1  0
 21 22  1  0
 21 23  1  0
 21 24  1  0
 22 48  1  0
 22 49  1  0
 22 50  1  0
 23 51  1  0
 23 52  1  0
 23 53  1  0
 24 25  1  0
 25 26  1  0
 25 54  1  1
 26 27  1  1
 27 55  1  0
M  END
>  <i_m_ct_stereo_status>  (203) 
1

>  <s_m_source_file>  (203) 
/var/tmp/pbs.5083856.sched01/tmpwf87re9s/80yvqvz95v.sdf

>  <i_m_source_file_index>  (203) 
5

>  <i_lp_mmshare_version>  (203) 
48012

>  <i_f3d_flags>  (203) 
0

>  <s_epik_input>  (203) 
W0NIM11bQ0BIXTFbQ0gyXVtDQEBIXShPQyhPMikoW0NIM10pW0NIM10pW0NAQEhdMltDQF0oW09IXSkoW0NAXTEzW0NIM10pW0NASF0oT0MoPU8pW0NIM10pT1tDQEhdKFtDSDJdMyljNFtjSF1bY0hdb1tjSF00

>  <s_epik_cmdline>  (203) 
J2VwaWtfcHl0aG9uJywgJy1waHQnLCAnMi4wJywgJy1waCcsICc3LjAnLCAnLXRuJywgJzgnLCAnLW1hJywgJzIwMCcsICctaW1hZScsICc8aW5maWxlLm1hZT4nLCAnLW9tYWUnLCAnPG91dGZpbGUubWFlPic=

>  <r_lp_tautomer_probability>  (203) 
1

>  <r_epik_Ionization_Penalty>  (203) 
9.73083e-07

>  <r_epik_Ionization_Penalty_Charging>  (203) 
0

>  <r_epik_Ionization_Penalty_Neutral>  (203) 
9.73083e-07

>  <r_epik_State_Penalty>  (203) 
0

>  <r_epik_Charging_Adjusted_Penalty>  (203) 
0

>  <i_epik_Tot_Q>  (203) 
0

>  <i_epik_Tot_abs_Q>  (203) 
0

>  <s_epik_Chemistry_Notes>  (203) 
This compound has an ester and may undergo hydrolysis at high or low pH. This compound contains an acetal/aminal-like group ( X-CH(R)-Y where X, Y are N, S, or O) that may be acid/base labile, releasing an aldehyde.

>  <s_lp_Force_Field>  (203) 
OPLS3e

>  <r_lp_Energy>  (203) 
25.5008

>  <b_lp_Chiralities_Consistent>  (203) 
1

>  <s_lp_Variant>  (203) 
61:0-1

>  <s_i_glide_gridfile>  (203) 
pfpi4k_grid

>  <i_i_glide_lignum>  (203) 
5

>  <i_i_glide_rotatable_bonds>  (203) 
4

>  <r_i_docking_score>  (203) 
-3.41705

>  <r_i_glide_ligand_efficiency>  (203) 
-0.126557

>  <r_i_glide_ligand_efficiency_sa>  (203) 
-0.379672

>  <r_i_glide_ligand_efficiency_ln>  (203) 
-0.795433

>  <r_i_glide_gscore>  (203) 
-3.41705

>  <r_i_glide_lipo>  (203) 
-0.493582

>  <r_i_glide_hbond>  (203) 
-0.16

>  <r_i_glide_metal>  (203) 
-0

>  <r_i_glide_rewards>  (203) 
-0.815236

>  <r_i_glide_evdw>  (203) 
-23.675

>  <r_i_glide_ecoul>  (203) 
-6.37312

>  <r_i_glide_erotb>  (203) 
0.268094

>  <r_i_glide_esite>  (203) 
-0.0766096

>  <r_i_glide_emodel>  (203) 
-36.8088

>  <r_i_glide_energy>  (203) 
-30.0481

>  <r_i_glide_einternal>  (203) 
0.395671

>  <r_i_glide_intrahb_reward>  (203) 
-0

>  <i_i_glide_confnum>  (203) 
2

>  <i_i_glide_posenum>  (203) 
17

>  <r_i_glide_eff_state_penalty>  (203) 
0

>  <ligand_id>  (203) 
61

>  <original_smiles>  (203) 
CC(=O)OC1OC(c2ccoc2)CC2(C)C(C)CC3OC(C)(C)OC3C12O

>  <smiles>  (203) 
[H]OC12C([H])(OC(=O)C([H])([H])[H])OC([H])(c3c([H])oc([H])c3[H])C([H])([H])C1(C([H])([H])[H])C([H])(C([H])([H])[H])C([H])([H])C1([H])OC(C([H])([H])[H])(C([H])([H])[H])OC12[H]

$$$$
61:0:1
     RDKit          3D

 55 58  0  0  1  0  0  0  0  0999 V2000
   -1.8170   -9.3430    2.2963 C   0  0  0  0  0  0  0  0  0  0  0  0
   -1.0781   -8.2155    2.9891 C   0  0  0  0  0  0  0  0  0  0  0  0
   -1.1578   -7.0564    2.5780 O   0  0  0  0  0  0  0  0  0  0  0  0
   -0.3715   -8.6576    4.0514 O   0  0  0  0  0  0  0  0  0  0  0  0
    0.4112   -7.7209    4.7267 C   0  0  2  0  0  0  0  0  0  0  0  0
    1.3603   -7.1205    3.8845 O   0  0  0  0  0  0  0  0  0  0  0  0
    2.3536   -7.9878    3.3366 C   0  0  1  0  0  0  0  0  0  0  0  0
    3.1852   -7.2550    2.3224 C   0  0  0  0  0  0  0  0  0  0  0  0
    4.0172   -7.8017    1.2993 C   0  0  0  0  0  0  0  0  0  0  0  0
    4.5280   -6.7440    0.6077 C   0  0  0  0  0  0  0  0  0  0  0  0
    4.0919   -5.5673    1.1300 O   0  0  0  0  0  0  0  0  0  0  0  0
    3.2857   -5.8976    2.1689 C   0  0  0  0  0  0  0  0  0  0  0  0
    3.1865   -8.5405    4.5058 C   0  0  0  0  0  0  0  0  0  0  0  0
    2.3074   -9.3351    5.5117 C   0  0  1  0  0  0  0  0  0  0  0  0
    1.8055  -10.6439    4.8330 C   0  0  0  0  0  0  0  0  0  0  0  0
    3.1169   -9.7713    6.7860 C   0  0  1  0  0  0  0  0  0  0  0  0
    4.2160  -10.8273    6.5540 C   0  0  0  0  0  0  0  0  0  0  0  0
    3.7018   -8.5753    7.5480 C   0  0  0  0  0  0  0  0  0  0  0  0
    2.6277   -7.5725    7.9778 C   0  0  1  0  0  0  0  0  0  0  0  0
    3.2814   -6.3333    8.2035 O   0  0  0  0  0  0  0  0  0  0  0  0
    2.8781   -5.4477    7.2120 C   0  0  0  0  0  0  0  0  0  0  0  0
    2.0942   -4.3140    7.8901 C   0  0  0  0  0  0  0  0  0  0  0  0
    4.1082   -4.9370    6.4504 C   0  0  0  0  0  0  0  0  0  0  0  0
    2.0742   -6.0990    6.2908 O   0  0  0  0  0  0  0  0  0  0  0  0
    1.5552   -7.2463    6.9291 C   0  0  1  0  0  0  0  0  0  0  0  0
    1.1220   -8.3938    5.9582 C   0  0  1  0  0  0  0  0  0  0  0  0
    0.1744   -9.1387    6.7033 O   0  0  0  0  0  0  0  0  0  0  0  0
   -2.4829   -9.8471    2.9977 H   0  0  0  0  0  0  0  0  0  0  0  0
   -1.1116  -10.0714    1.8959 H   0  0  0  0  0  0  0  0  0  0  0  0
   -2.4221   -8.9625    1.4726 H   0  0  0  0  0  0  0  0  0  0  0  0
   -0.2654   -6.9381    5.0745 H   0  0  0  0  0  0  0  0  0  0  0  0
    1.8899   -8.7995    2.7751 H   0  0  0  0  0  0  0  0  0  0  0  0
    4.1991   -8.8463    1.0736 H   0  0  0  0  0  0  0  0  0  0  0  0
    5.1781   -6.6432   -0.2492 H   0  0  0  0  0  0  0  0  0  0  0  0
    2.8440   -5.0587    2.6808 H   0  0  0  0  0  0  0  0  0  0  0  0
    4.0038   -9.1577    4.1374 H   0  0  0  0  0  0  0  0  0  0  0  0
    3.6485   -7.6778    4.9799 H   0  0  0  0  0  0  0  0  0  0  0  0
    1.3303  -11.3143    5.5494 H   0  0  0  0  0  0  0  0  0  0  0  0
    2.6378  -11.1879    4.3862 H   0  0  0  0  0  0  0  0  0  0  0  0
    1.1020  -10.4961    4.0206 H   0  0  0  0  0  0  0  0  0  0  0  0
    2.4074  -10.2582    7.4609 H   0  0  0  0  0  0  0  0  0  0  0  0
    4.9610  -10.5020    5.8301 H   0  0  0  0  0  0  0  0  0  0  0  0
    3.7959  -11.7767    6.2249 H   0  0  0  0  0  0  0  0  0  0  0  0
    4.7288  -11.0418    7.4888 H   0  0  0  0  0  0  0  0  0  0  0  0
    4.2114   -8.9193    8.4480 H   0  0  0  0  0  0  0  0  0  0  0  0
    4.4660   -8.0813    6.9478 H   0  0  0  0  0  0  0  0  0  0  0  0
    2.1547   -7.9204    8.8980 H   0  0  0  0  0  0  0  0  0  0  0  0
    1.2543   -4.7160    8.4569 H   0  0  0  0  0  0  0  0  0  0  0  0
    1.7308   -3.6028    7.1483 H   0  0  0  0  0  0  0  0  0  0  0  0
    2.7563   -3.7976    8.5856 H   0  0  0  0  0  0  0  0  0  0  0  0
    4.6446   -5.7731    5.9964 H   0  0  0  0  0  0  0  0  0  0  0  0
    4.7781   -4.4017    7.1258 H   0  0  0  0  0  0  0  0  0  0  0  0
    3.7844   -4.2640    5.6538 H   0  0  0  0  0  0  0  0  0  0  0  0
    0.6761   -6.8875    7.4657 H   0  0  0  0  0  0  0  0  0  0  0  0
   -0.0941   -9.8829    6.1758 H   0  0  0  0  0  0  0  0  0  0  0  0
  1  2  1  0
  1 28  1  0
  1 29  1  0
  1 30  1  0
  2  3  2  0
  2  4  1  0
  4  5  1  0
  5 26  1  0
  5  6  1  0
  5 31  1  1
  6  7  1  0
  7  8  1  0
  7 13  1  0
  7 32  1  6
  8 12  2  0
  8  9  1  0
  9 10  2  0
  9 33  1  0
 10 11  1  0
 10 34  1  0
 11 12  1  0
 12 35  1  0
 13 14  1  0
 13 36  1  0
 13 37  1  0
 14 26  1  0
 14 15  1  6
 14 16  1  0
 15 38  1  0
 15 39  1  0
 15 40  1  0
 16 17  1  0
 16 18  1  0
 16 41  1  1
 17 42  1  0
 17 43  1  0
 17 44  1  0
 18 19  1  0
 18 45  1  0
 18 46  1  0
 19 25  1  0
 19 20  1  0
 19 47  1  1
 20 21  1  0
 21 22  1  0
 21 23  1  0
 21 24  1  0
 22 48  1  0
 22 49  1  0
 22 50  1  0
 23 51  1  0
 23 52  1  0
 23 53  1  0
 24 25  1  0
 25 26  1  0
 25 54  1  1
 26 27  1  1
 27 55  1  0
M  END
>  <i_m_ct_stereo_status>  (204) 
1

>  <s_m_source_file>  (204) 
/var/tmp/pbs.5083856.sched01/tmpwf87re9s/80yvqvz95v.sdf

>  <i_m_source_file_index>  (204) 
5

>  <i_lp_mmshare_version>  (204) 
48012

>  <i_f3d_flags>  (204) 
0

>  <s_epik_input>  (204) 
W0NIM11bQ0BIXTFbQ0gyXVtDQEBIXShPQyhPMikoW0NIM10pW0NIM10pW0NAQEhdMltDQF0oW09IXSkoW0NAXTEzW0NIM10pW0NASF0oT0MoPU8pW0NIM10pT1tDQEhdKFtDSDJdMyljNFtjSF1bY0hdb1tjSF00

>  <s_epik_cmdline>  (204) 
J2VwaWtfcHl0aG9uJywgJy1waHQnLCAnMi4wJywgJy1waCcsICc3LjAnLCAnLXRuJywgJzgnLCAnLW1hJywgJzIwMCcsICctaW1hZScsICc8aW5maWxlLm1hZT4nLCAnLW9tYWUnLCAnPG91dGZpbGUubWFlPic=

>  <r_lp_tautomer_probability>  (204) 
1

>  <r_epik_Ionization_Penalty>  (204) 
9.73083e-07

>  <r_epik_Ionization_Penalty_Charging>  (204) 
0

>  <r_epik_Ionization_Penalty_Neutral>  (204) 
9.73083e-07

>  <r_epik_State_Penalty>  (204) 
0

>  <r_epik_Charging_Adjusted_Penalty>  (204) 
0

>  <i_epik_Tot_Q>  (204) 
0

>  <i_epik_Tot_abs_Q>  (204) 
0

>  <s_epik_Chemistry_Notes>  (204) 
This compound has an ester and may undergo hydrolysis at high or low pH. This compound contains an acetal/aminal-like group ( X-CH(R)-Y where X, Y are N, S, or O) that may be acid/base labile, releasing an aldehyde.

>  <s_lp_Force_Field>  (204) 
OPLS3e

>  <r_lp_Energy>  (204) 
25.5008

>  <b_lp_Chiralities_Consistent>  (204) 
1

>  <s_lp_Variant>  (204) 
61:0-1

>  <s_i_glide_gridfile>  (204) 
pfpi4k_grid

>  <i_i_glide_lignum>  (204) 
5

>  <i_i_glide_rotatable_bonds>  (204) 
4

>  <r_i_docking_score>  (204) 
-2.97068

>  <r_i_glide_ligand_efficiency>  (204) 
-0.110025

>  <r_i_glide_ligand_efficiency_sa>  (204) 
-0.330075

>  <r_i_glide_ligand_efficiency_ln>  (204) 
-0.691524

>  <r_i_glide_gscore>  (204) 
-2.97068

>  <r_i_glide_lipo>  (204) 
-0.482706

>  <r_i_glide_hbond>  (204) 
-0.16

>  <r_i_glide_metal>  (204) 
-0

>  <r_i_glide_rewards>  (204) 
-0.815236

>  <r_i_glide_evdw>  (204) 
-22.196

>  <r_i_glide_ecoul>  (204) 
-3.96708

>  <r_i_glide_erotb>  (204) 
0.268094

>  <r_i_glide_esite>  (204) 
-0.0759667

>  <r_i_glide_emodel>  (204) 
-31.8876

>  <r_i_glide_energy>  (204) 
-26.163

>  <r_i_glide_einternal>  (204) 
0.519752

>  <r_i_glide_intrahb_reward>  (204) 
-0

>  <i_i_glide_confnum>  (204) 
2

>  <i_i_glide_posenum>  (204) 
1

>  <r_i_glide_eff_state_penalty>  (204) 
0

>  <ligand_id>  (204) 
61

>  <original_smiles>  (204) 
CC(=O)OC1OC(c2ccoc2)CC2(C)C(C)CC3OC(C)(C)OC3C12O

>  <smiles>  (204) 
[H]OC12C([H])(OC(=O)C([H])([H])[H])OC([H])(c3c([H])oc([H])c3[H])C([H])([H])C1(C([H])([H])[H])C([H])(C([H])([H])[H])C([H])([H])C1([H])OC(C([H])([H])[H])(C([H])([H])[H])OC12[H]

$$$$
61:0:2
     RDKit          3D

 55 58  0  0  1  0  0  0  0  0999 V2000
    0.3961   -5.6725    9.1297 C   0  0  0  0  0  0  0  0  0  0  0  0
    1.3468   -6.5749    8.3489 C   0  0  0  0  0  0  0  0  0  0  0  0
    2.5426   -6.6251    8.6341 O   0  0  0  0  0  0  0  0  0  0  0  0
    0.7031   -7.2610    7.3706 O   0  0  0  0  0  0  0  0  0  0  0  0
    1.4748   -8.1518    6.6097 C   0  0  2  0  0  0  0  0  0  0  0  0
    2.5270   -7.5102    5.9299 O   0  0  0  0  0  0  0  0  0  0  0  0
    2.1614   -6.5666    4.9280 C   0  0  1  0  0  0  0  0  0  0  0  0
    3.3758   -5.8365    4.4125 C   0  0  0  0  0  0  0  0  0  0  0  0
    4.6808   -6.3764    4.1957 C   0  0  0  0  0  0  0  0  0  0  0  0
    5.4594   -5.3470    3.7496 C   0  0  0  0  0  0  0  0  0  0  0  0
    4.7397   -4.1983    3.6645 O   0  0  0  0  0  0  0  0  0  0  0  0
    3.4780   -4.5177    4.0598 C   0  0  0  0  0  0  0  0  0  0  0  0
    1.4215   -7.3411    3.8218 C   0  0  0  0  0  0  0  0  0  0  0  0
    0.1425   -8.0350    4.3701 C   0  0  1  0  0  0  0  0  0  0  0  0
   -0.8905   -6.9430    4.7537 C   0  0  0  0  0  0  0  0  0  0  0  0
   -0.5484   -8.9344    3.2866 C   0  0  1  0  0  0  0  0  0  0  0  0
   -1.1742   -8.1883    2.0948 C   0  0  0  0  0  0  0  0  0  0  0  0
    0.3772  -10.0443    2.7781 C   0  0  0  0  0  0  0  0  0  0  0  0
    0.9027  -10.9456    3.8956 C   0  0  1  0  0  0  0  0  0  0  0  0
    2.0806  -11.5527    3.4033 O   0  0  0  0  0  0  0  0  0  0  0  0
    3.1529  -11.0569    4.1278 C   0  0  0  0  0  0  0  0  0  0  0  0
    3.7556  -12.2099    4.9470 C   0  0  0  0  0  0  0  0  0  0  0  0
    4.1678  -10.4433    3.1588 C   0  0  0  0  0  0  0  0  0  0  0  0
    2.7285  -10.0371    4.9618 O   0  0  0  0  0  0  0  0  0  0  0  0
    1.3478  -10.2280    5.1764 C   0  0  1  0  0  0  0  0  0  0  0  0
    0.5602   -8.9439    5.5955 C   0  0  1  0  0  0  0  0  0  0  0  0
   -0.5821   -9.4569    6.2841 O   0  0  0  0  0  0  0  0  0  0  0  0
   -0.4189   -6.2539    9.5573 H   0  0  0  0  0  0  0  0  0  0  0  0
   -0.0252   -4.9076    8.4773 H   0  0  0  0  0  0  0  0  0  0  0  0
    0.9208   -5.1746    9.9468 H   0  0  0  0  0  0  0  0  0  0  0  0
    1.9364   -8.8518    7.3072 H   0  0  0  0  0  0  0  0  0  0  0  0
    1.5217   -5.7896    5.3515 H   0  0  0  0  0  0  0  0  0  0  0  0
    5.0088   -7.3884    4.3682 H   0  0  0  0  0  0  0  0  0  0  0  0
    6.4987   -5.2630    3.4702 H   0  0  0  0  0  0  0  0  0  0  0  0
    2.7894   -3.6854    4.0561 H   0  0  0  0  0  0  0  0  0  0  0  0
    1.1850   -6.6840    2.9858 H   0  0  0  0  0  0  0  0  0  0  0  0
    2.1295   -8.0692    3.4337 H   0  0  0  0  0  0  0  0  0  0  0  0
   -1.8682   -7.3790    4.9363 H   0  0  0  0  0  0  0  0  0  0  0  0
   -1.0133   -6.2307    3.9414 H   0  0  0  0  0  0  0  0  0  0  0  0
   -0.6205   -6.3475    5.6208 H   0  0  0  0  0  0  0  0  0  0  0  0
   -1.3919   -9.4341    3.7648 H   0  0  0  0  0  0  0  0  0  0  0  0
   -0.4511   -7.5902    1.5437 H   0  0  0  0  0  0  0  0  0  0  0  0
   -2.0009   -7.5521    2.4059 H   0  0  0  0  0  0  0  0  0  0  0  0
   -1.6015   -8.9077    1.3987 H   0  0  0  0  0  0  0  0  0  0  0  0
   -0.1607  -10.6769    2.0708 H   0  0  0  0  0  0  0  0  0  0  0  0
    1.2064   -9.6177    2.2124 H   0  0  0  0  0  0  0  0  0  0  0  0
    0.1646  -11.7113    4.1346 H   0  0  0  0  0  0  0  0  0  0  0  0
    3.0052  -12.6459    5.6053 H   0  0  0  0  0  0  0  0  0  0  0  0
    4.5954  -11.8577    5.5472 H   0  0  0  0  0  0  0  0  0  0  0  0
    4.1012  -12.9895    4.2668 H   0  0  0  0  0  0  0  0  0  0  0  0
    3.6932   -9.6492    2.5809 H   0  0  0  0  0  0  0  0  0  0  0  0
    4.5460  -11.2074    2.4761 H   0  0  0  0  0  0  0  0  0  0  0  0
    4.9968  -10.0175    3.7295 H   0  0  0  0  0  0  0  0  0  0  0  0
    1.2865  -10.9515    5.9852 H   0  0  0  0  0  0  0  0  0  0  0  0
   -1.1161  -10.0223    5.7105 H   0  0  0  0  0  0  0  0  0  0  0  0
  1  2  1  0
  1 28  1  0
  1 29  1  0
  1 30  1  0
  2  3  2  0
  2  4  1  0
  4  5  1  0
  5 26  1  0
  5  6  1  0
  5 31  1  1
  6  7  1  0
  7  8  1  0
  7 13  1  0
  7 32  1  1
  8 12  2  0
  8  9  1  0
  9 10  2  0
  9 33  1  0
 10 11  1  0
 10 34  1  0
 11 12  1  0
 12 35  1  0
 13 14  1  0
 13 36  1  0
 13 37  1  0
 14 26  1  0
 14 15  1  1
 14 16  1  0
 15 38  1  0
 15 39  1  0
 15 40  1  0
 16 17  1  0
 16 18  1  0
 16 41  1  1
 17 42  1  0
 17 43  1  0
 17 44  1  0
 18 19  1  0
 18 45  1  0
 18 46  1  0
 19 25  1  0
 19 20  1  0
 19 47  1  1
 20 21  1  0
 21 22  1  0
 21 23  1  0
 21 24  1  0
 22 48  1  0
 22 49  1  0
 22 50  1  0
 23 51  1  0
 23 52  1  0
 23 53  1  0
 24 25  1  0
 25 26  1  0
 25 54  1  1
 26 27  1  1
 27 55  1  0
M  END
>  <i_m_ct_stereo_status>  (205) 
1

>  <s_m_source_file>  (205) 
/var/tmp/pbs.5083856.sched01/tmpwf87re9s/80yvqvz95v.sdf

>  <i_m_source_file_index>  (205) 
5

>  <i_lp_mmshare_version>  (205) 
48012

>  <i_f3d_flags>  (205) 
0

>  <s_epik_input>  (205) 
W0NIM11bQ0BIXTFbQ0gyXVtDQEBIXShPQyhPMikoW0NIM10pW0NIM10pW0NAQEhdMltDQF0oW09IXSkoW0NAXTEzW0NIM10pW0NASF0oT0MoPU8pW0NIM10pT1tDQEhdKFtDSDJdMyljNFtjSF1bY0hdb1tjSF00

>  <s_epik_cmdline>  (205) 
J2VwaWtfcHl0aG9uJywgJy1waHQnLCAnMi4wJywgJy1waCcsICc3LjAnLCAnLXRuJywgJzgnLCAnLW1hJywgJzIwMCcsICctaW1hZScsICc8aW5maWxlLm1hZT4nLCAnLW9tYWUnLCAnPG91dGZpbGUubWFlPic=

>  <r_lp_tautomer_probability>  (205) 
1

>  <r_epik_Ionization_Penalty>  (205) 
9.73083e-07

>  <r_epik_Ionization_Penalty_Charging>  (205) 
0

>  <r_epik_Ionization_Penalty_Neutral>  (205) 
9.73083e-07

>  <r_epik_State_Penalty>  (205) 
0

>  <r_epik_Charging_Adjusted_Penalty>  (205) 
0

>  <i_epik_Tot_Q>  (205) 
0

>  <i_epik_Tot_abs_Q>  (205) 
0

>  <s_epik_Chemistry_Notes>  (205) 
This compound has an ester and may undergo hydrolysis at high or low pH. This compound contains an acetal/aminal-like group ( X-CH(R)-Y where X, Y are N, S, or O) that may be acid/base labile, releasing an aldehyde.

>  <s_lp_Force_Field>  (205) 
OPLS3e

>  <r_lp_Energy>  (205) 
25.5008

>  <b_lp_Chiralities_Consistent>  (205) 
1

>  <s_lp_Variant>  (205) 
61:0-1

>  <s_i_glide_gridfile>  (205) 
pfpi4k_grid

>  <i_i_glide_lignum>  (205) 
5

>  <i_i_glide_rotatable_bonds>  (205) 
4

>  <r_i_docking_score>  (205) 
-2.55844

>  <r_i_glide_ligand_efficiency>  (205) 
-0.094757

>  <r_i_glide_ligand_efficiency_sa>  (205) 
-0.284271

>  <r_i_glide_ligand_efficiency_ln>  (205) 
-0.595562

>  <r_i_glide_gscore>  (205) 
-2.55844

>  <r_i_glide_lipo>  (205) 
-0.132376

>  <r_i_glide_hbond>  (205) 
0

>  <r_i_glide_metal>  (205) 
-0

>  <r_i_glide_rewards>  (205) 
-0.815236

>  <r_i_glide_evdw>  (205) 
-22.4762

>  <r_i_glide_ecoul>  (205) 
-4.77818

>  <r_i_glide_erotb>  (205) 
0.268094

>  <r_i_glide_esite>  (205) 
-0.0383847

>  <r_i_glide_emodel>  (205) 
-32.16

>  <r_i_glide_energy>  (205) 
-27.2544

>  <r_i_glide_einternal>  (205) 
0.14141

>  <r_i_glide_intrahb_reward>  (205) 
-0

>  <i_i_glide_confnum>  (205) 
3

>  <i_i_glide_posenum>  (205) 
2

>  <r_i_glide_eff_state_penalty>  (205) 
0

>  <ligand_id>  (205) 
61

>  <original_smiles>  (205) 
CC(=O)OC1OC(c2ccoc2)CC2(C)C(C)CC3OC(C)(C)OC3C12O

>  <smiles>  (205) 
[H]OC12C([H])(OC(=O)C([H])([H])[H])OC([H])(c3c([H])oc([H])c3[H])C([H])([H])C1(C([H])([H])[H])C([H])(C([H])([H])[H])C([H])([H])C1([H])OC(C([H])([H])[H])(C([H])([H])[H])OC12[H]

$$$$
62:0:0
     RDKit          3D

 33 37  0  0  1  0  0  0  0  0999 V2000
    3.6996   -0.5075   -3.3676 C   0  0  0  0  0  0  0  0  0  0  0  0
    3.3239   -1.7028   -3.9185 C   0  0  0  0  0  0  0  0  0  0  0  0
    4.1194   -3.0506   -3.1774 S   0  0  0  0  0  0  0  0  0  0  0  0
    4.8921   -1.9331   -2.0609 C   0  0  0  0  0  0  0  0  0  0  0  0
    5.7953   -2.3304   -1.0570 N   0  0  0  0  0  0  0  0  0  0  0  0
    7.0708   -2.8203   -1.3144 C   0  0  0  0  0  0  0  0  0  0  0  0
    7.6395   -3.0867   -0.1012 C   0  0  0  0  0  0  0  0  0  0  0  0
    6.7225   -2.7816    0.8956 N   0  0  0  0  0  0  0  0  0  0  0  0
    5.6158   -2.3492    0.2849 C   0  0  0  0  0  0  0  0  0  0  0  0
    4.4064   -1.9649    1.0309 C   0  0  0  0  0  0  0  0  0  0  0  0
    3.7944   -0.7000    0.8171 C   0  0  0  0  0  0  0  0  0  0  0  0
    2.6365   -0.2702    1.5039 C   0  0  0  0  0  0  0  0  0  0  0  0
    2.1966   -1.2207    2.4150 N   0  0  0  0  0  0  0  0  0  0  0  0
    1.1054   -1.1055    3.2178 N   0  0  0  0  0  0  0  0  0  0  0  0
    1.0547   -2.2087    3.9176 N   0  0  0  0  0  0  0  0  0  0  0  0
    2.0987   -3.0685    3.5594 C   0  0  0  0  0  0  0  0  0  0  0  0
    2.2732   -4.4227    4.1825 C   0  0  0  0  0  0  0  0  0  0  0  0
    2.4871   -5.6523    3.3318 C   0  0  0  0  0  0  0  0  0  0  0  0
    1.1740   -5.4591    4.0471 C   0  0  0  0  0  0  0  0  0  0  0  0
    2.8445   -2.4339    2.6012 C   0  0  0  0  0  0  0  0  0  0  0  0
    3.9520   -2.8608    1.9403 N   0  0  0  0  0  0  0  0  0  0  0  0
    4.6068   -0.6543   -2.3224 N   0  0  0  0  0  0  0  0  0  0  0  0
    3.3500    0.4833   -3.6245 H   0  0  0  0  0  0  0  0  0  0  0  0
    2.6061   -1.8749   -4.7095 H   0  0  0  0  0  0  0  0  0  0  0  0
    7.4571   -2.9572   -2.3153 H   0  0  0  0  0  0  0  0  0  0  0  0
    8.6134   -3.5004    0.1340 H   0  0  0  0  0  0  0  0  0  0  0  0
    4.2230   -0.0129    0.1116 H   0  0  0  0  0  0  0  0  0  0  0  0
    2.1086    0.6702    1.3780 H   0  0  0  0  0  0  0  0  0  0  0  0
    2.7548   -4.3662    5.1585 H   0  0  0  0  0  0  0  0  0  0  0  0
    2.5207   -5.4920    2.2558 H   0  0  0  0  0  0  0  0  0  0  0  0
    3.1650   -6.4124    3.7180 H   0  0  0  0  0  0  0  0  0  0  0  0
    0.9737   -6.1263    4.8839 H   0  0  0  0  0  0  0  0  0  0  0  0
    0.3028   -5.1993    3.4509 H   0  0  0  0  0  0  0  0  0  0  0  0
  1 22  1  0
  1  2  2  0
  1 23  1  0
  2  3  1  0
  2 24  1  0
  3  4  1  0
  4  5  1  0
  4 22  2  0
  5  9  1  0
  5  6  1  0
  6  7  2  0
  6 25  1  0
  7  8  1  0
  7 26  1  0
  8  9  2  0
  9 10  1  0
 10 21  2  0
 10 11  1  0
 11 12  2  0
 11 27  1  0
 12 13  1  0
 12 28  1  0
 13 20  1  0
 13 14  1  0
 14 15  2  0
 15 16  1  0
 16 17  1  0
 16 20  2  0
 17 19  1  0
 17 18  1  0
 17 29  1  0
 18 19  1  0
 18 30  1  0
 18 31  1  0
 19 32  1  0
 19 33  1  0
 20 21  1  0
M  END
>  <i_m_ct_stereo_status>  (206) 
1

>  <s_m_source_file>  (206) 
/var/tmp/pbs.5083856.sched01/tmps7i0iynh/850i2vb9yg.sdf

>  <i_m_source_file_index>  (206) 
1

>  <i_lp_mmshare_version>  (206) 
48012

>  <i_f3d_flags>  (206) 
0

>  <s_epik_input>  (206) 
bjFbY0hdW2NIXXNjMS1uMltjSF1bY0hdbmMyLWMoW2NIXVtjSF0zKW5jKG4zNCljKG5uNClbQ0hdNVtDSDJdW0NIMl01

>  <s_epik_cmdline>  (206) 
J2VwaWtfcHl0aG9uJywgJy1waHQnLCAnMi4wJywgJy1waCcsICc3LjAnLCAnLXRuJywgJzgnLCAnLW1hJywgJzIwMCcsICctaW1hZScsICc8aW5maWxlLm1hZT4nLCAnLW9tYWUnLCAnPG91dGZpbGUubWFlPic=

>  <r_lp_tautomer_probability>  (206) 
1

>  <r_epik_Ionization_Penalty>  (206) 
0.000749701

>  <r_epik_Ionization_Penalty_Charging>  (206) 
0.000749699

>  <r_epik_Ionization_Penalty_Neutral>  (206) 
1.16491e-09

>  <r_epik_State_Penalty>  (206) 
0.000479314

>  <r_epik_Charging_Adjusted_Penalty>  (206) 
0.00122901

>  <i_epik_Tot_Q>  (206) 
0

>  <i_epik_Tot_abs_Q>  (206) 
0

>  <s_lp_Force_Field>  (206) 
OPLS3e

>  <r_lp_Energy>  (206) 
34.4173

>  <b_lp_Chiralities_Consistent>  (206) 
1

>  <s_lp_Variant>  (206) 
62:0-1

>  <s_i_glide_gridfile>  (206) 
pfpi4k_grid

>  <i_i_glide_lignum>  (206) 
1

>  <i_i_glide_rotatable_bonds>  (206) 
3

>  <r_i_docking_score>  (206) 
-3.25977

>  <r_i_glide_ligand_efficiency>  (206) 
-0.148171

>  <r_i_glide_ligand_efficiency_sa>  (206) 
-0.415182

>  <r_i_glide_ligand_efficiency_ln>  (206) 
-0.796807

>  <r_i_glide_gscore>  (206) 
-3.25977

>  <r_i_glide_lipo>  (206) 
-0.543731

>  <r_i_glide_hbond>  (206) 
0

>  <r_i_glide_metal>  (206) 
-0

>  <r_i_glide_rewards>  (206) 
-1.34375

>  <r_i_glide_evdw>  (206) 
-31.7765

>  <r_i_glide_ecoul>  (206) 
-1.88411

>  <r_i_glide_erotb>  (206) 
0.58042

>  <r_i_glide_esite>  (206) 
-0.081269

>  <r_i_glide_emodel>  (206) 
-38.0119

>  <r_i_glide_energy>  (206) 
-33.6606

>  <r_i_glide_einternal>  (206) 
5.80842

>  <r_i_glide_intrahb_reward>  (206) 
-0

>  <i_i_glide_confnum>  (206) 
2

>  <i_i_glide_posenum>  (206) 
1

>  <r_i_glide_eff_state_penalty>  (206) 
0

>  <ligand_id>  (206) 
62

>  <original_smiles>  (206) 
c1csc(-n2ccnc2-c2ccn3nnc(C4CC4)c3n2)n1

>  <smiles>  (206) 
[H]c1nc(-n2c(-c3nc4c(C5([H])C([H])([H])C5([H])[H])nnn4c([H])c3[H])nc([H])c2[H])sc1[H]

$$$$
62:0:1
     RDKit          3D

 33 37  0  0  1  0  0  0  0  0999 V2000
    3.3414   -2.6569   -3.7123 C   0  0  0  0  0  0  0  0  0  0  0  0
    2.4381   -3.0619   -2.7751 C   0  0  0  0  0  0  0  0  0  0  0  0
    3.1597   -3.2682   -1.2100 S   0  0  0  0  0  0  0  0  0  0  0  0
    4.6956   -2.7157   -1.8803 C   0  0  0  0  0  0  0  0  0  0  0  0
    5.8919   -2.5675   -1.1345 N   0  0  0  0  0  0  0  0  0  0  0  0
    7.1436   -2.9469   -1.6007 C   0  0  0  0  0  0  0  0  0  0  0  0
    8.0448   -2.6555   -0.6184 C   0  0  0  0  0  0  0  0  0  0  0  0
    7.3603   -2.0913    0.4540 N   0  0  0  0  0  0  0  0  0  0  0  0
    6.0632   -2.0865    0.1221 C   0  0  0  0  0  0  0  0  0  0  0  0
    5.0268   -1.5878    1.0357 C   0  0  0  0  0  0  0  0  0  0  0  0
    4.0506   -0.6593    0.5827 C   0  0  0  0  0  0  0  0  0  0  0  0
    3.0169   -0.1589    1.4067 C   0  0  0  0  0  0  0  0  0  0  0  0
    3.0939   -0.6668    2.6964 N   0  0  0  0  0  0  0  0  0  0  0  0
    2.2408   -0.3829    3.7171 N   0  0  0  0  0  0  0  0  0  0  0  0
    2.6701   -1.0643    4.7454 N   0  0  0  0  0  0  0  0  0  0  0  0
    3.7931   -1.8232    4.4004 C   0  0  0  0  0  0  0  0  0  0  0  0
    4.4868   -2.7322    5.3759 C   0  0  0  0  0  0  0  0  0  0  0  0
    4.9703   -4.1033    4.9684 C   0  0  0  0  0  0  0  0  0  0  0  0
    3.7782   -3.9715    5.8833 C   0  0  0  0  0  0  0  0  0  0  0  0
    4.0807   -1.5613    3.0886 C   0  0  0  0  0  0  0  0  0  0  0  0
    5.0720   -2.0543    2.3050 N   0  0  0  0  0  0  0  0  0  0  0  0
    4.6295   -2.4682   -3.1985 N   0  0  0  0  0  0  0  0  0  0  0  0
    3.1624   -2.4688   -4.7579 H   0  0  0  0  0  0  0  0  0  0  0  0
    1.3894   -3.2660   -2.9091 H   0  0  0  0  0  0  0  0  0  0  0  0
    7.2860   -3.4055   -2.5702 H   0  0  0  0  0  0  0  0  0  0  0  0
    9.1139   -2.8069   -0.5882 H   0  0  0  0  0  0  0  0  0  0  0  0
    4.0801   -0.3197   -0.4366 H   0  0  0  0  0  0  0  0  0  0  0  0
    2.2307    0.5321    1.1266 H   0  0  0  0  0  0  0  0  0  0  0  0
    5.0558   -2.1718    6.1177 H   0  0  0  0  0  0  0  0  0  0  0  0
    4.7980   -4.3896    3.9322 H   0  0  0  0  0  0  0  0  0  0  0  0
    5.9081   -4.4479    5.4028 H   0  0  0  0  0  0  0  0  0  0  0  0
    3.9266   -4.2733    6.9193 H   0  0  0  0  0  0  0  0  0  0  0  0
    2.7946   -4.1968    5.4762 H   0  0  0  0  0  0  0  0  0  0  0  0
  1 22  1  0
  1  2  2  0
  1 23  1  0
  2  3  1  0
  2 24  1  0
  3  4  1  0
  4  5  1  0
  4 22  2  0
  5  9  1  0
  5  6  1  0
  6  7  2  0
  6 25  1  0
  7  8  1  0
  7 26  1  0
  8  9  2  0
  9 10  1  0
 10 21  2  0
 10 11  1  0
 11 12  2  0
 11 27  1  0
 12 13  1  0
 12 28  1  0
 13 20  1  0
 13 14  1  0
 14 15  2  0
 15 16  1  0
 16 17  1  0
 16 20  2  0
 17 19  1  0
 17 18  1  0
 17 29  1  0
 18 19  1  0
 18 30  1  0
 18 31  1  0
 19 32  1  0
 19 33  1  0
 20 21  1  0
M  END
>  <i_m_ct_stereo_status>  (207) 
1

>  <s_m_source_file>  (207) 
/var/tmp/pbs.5083856.sched01/tmps7i0iynh/850i2vb9yg.sdf

>  <i_m_source_file_index>  (207) 
1

>  <i_lp_mmshare_version>  (207) 
48012

>  <i_f3d_flags>  (207) 
0

>  <s_epik_input>  (207) 
bjFbY0hdW2NIXXNjMS1uMltjSF1bY0hdbmMyLWMoW2NIXVtjSF0zKW5jKG4zNCljKG5uNClbQ0hdNVtDSDJdW0NIMl01

>  <s_epik_cmdline>  (207) 
J2VwaWtfcHl0aG9uJywgJy1waHQnLCAnMi4wJywgJy1waCcsICc3LjAnLCAnLXRuJywgJzgnLCAnLW1hJywgJzIwMCcsICctaW1hZScsICc8aW5maWxlLm1hZT4nLCAnLW9tYWUnLCAnPG91dGZpbGUubWFlPic=

>  <r_lp_tautomer_probability>  (207) 
1

>  <r_epik_Ionization_Penalty>  (207) 
0.000749701

>  <r_epik_Ionization_Penalty_Charging>  (207) 
0.000749699

>  <r_epik_Ionization_Penalty_Neutral>  (207) 
1.16491e-09

>  <r_epik_State_Penalty>  (207) 
0.000479314

>  <r_epik_Charging_Adjusted_Penalty>  (207) 
0.00122901

>  <i_epik_Tot_Q>  (207) 
0

>  <i_epik_Tot_abs_Q>  (207) 
0

>  <s_lp_Force_Field>  (207) 
OPLS3e

>  <r_lp_Energy>  (207) 
34.4173

>  <b_lp_Chiralities_Consistent>  (207) 
1

>  <s_lp_Variant>  (207) 
62:0-1

>  <s_i_glide_gridfile>  (207) 
pfpi4k_grid

>  <i_i_glide_lignum>  (207) 
1

>  <i_i_glide_rotatable_bonds>  (207) 
3

>  <r_i_docking_score>  (207) 
-3.17604

>  <r_i_glide_ligand_efficiency>  (207) 
-0.144365

>  <r_i_glide_ligand_efficiency_sa>  (207) 
-0.404518

>  <r_i_glide_ligand_efficiency_ln>  (207) 
-0.77634

>  <r_i_glide_gscore>  (207) 
-3.17604

>  <r_i_glide_lipo>  (207) 
-0.481233

>  <r_i_glide_hbond>  (207) 
0

>  <r_i_glide_metal>  (207) 
-0

>  <r_i_glide_rewards>  (207) 
-1.33316

>  <r_i_glide_evdw>  (207) 
-29.01

>  <r_i_glide_ecoul>  (207) 
-3.13281

>  <r_i_glide_erotb>  (207) 
0.58042

>  <r_i_glide_esite>  (207) 
-0.0216413

>  <r_i_glide_emodel>  (207) 
-36.9817

>  <r_i_glide_energy>  (207) 
-32.1428

>  <r_i_glide_einternal>  (207) 
4.46086

>  <r_i_glide_intrahb_reward>  (207) 
-0

>  <i_i_glide_confnum>  (207) 
2

>  <i_i_glide_posenum>  (207) 
18

>  <r_i_glide_eff_state_penalty>  (207) 
0

>  <ligand_id>  (207) 
62

>  <original_smiles>  (207) 
c1csc(-n2ccnc2-c2ccn3nnc(C4CC4)c3n2)n1

>  <smiles>  (207) 
[H]c1nc(-n2c(-c3nc4c(C5([H])C([H])([H])C5([H])[H])nnn4c([H])c3[H])nc([H])c2[H])sc1[H]

$$$$
62:0:2
     RDKit          3D

 33 37  0  0  1  0  0  0  0  0999 V2000
    3.6008   -1.6960    0.7980 C   0  0  0  0  0  0  0  0  0  0  0  0
    3.7483   -0.3744    1.1135 C   0  0  0  0  0  0  0  0  0  0  0  0
    2.8637    0.0454    2.5484 S   0  0  0  0  0  0  0  0  0  0  0  0
    2.1898   -1.5809    2.5837 C   0  0  0  0  0  0  0  0  0  0  0  0
    1.2483   -2.0391    3.5426 N   0  0  0  0  0  0  0  0  0  0  0  0
    1.2387   -3.3331    4.0369 C   0  0  0  0  0  0  0  0  0  0  0  0
    0.2431   -3.3950    4.9692 C   0  0  0  0  0  0  0  0  0  0  0  0
   -0.3938   -2.1700    5.0394 N   0  0  0  0  0  0  0  0  0  0  0  0
    0.2316   -1.3753    4.1618 C   0  0  0  0  0  0  0  0  0  0  0  0
   -0.2118    0.0147    3.9363 C   0  0  0  0  0  0  0  0  0  0  0  0
   -0.1826    0.5682    2.6326 C   0  0  0  0  0  0  0  0  0  0  0  0
   -0.5694    1.8906    2.3649 C   0  0  0  0  0  0  0  0  0  0  0  0
   -1.0048    2.5662    3.4939 N   0  0  0  0  0  0  0  0  0  0  0  0
   -1.4483    3.8517    3.5322 N   0  0  0  0  0  0  0  0  0  0  0  0
   -1.7686    4.0862    4.7820 N   0  0  0  0  0  0  0  0  0  0  0  0
   -1.5401    2.9588    5.5629 C   0  0  0  0  0  0  0  0  0  0  0  0
   -1.8308    2.9246    7.0364 C   0  0  0  0  0  0  0  0  0  0  0  0
   -2.4285    1.6964    7.6610 C   0  0  0  0  0  0  0  0  0  0  0  0
   -3.2672    2.9349    7.5089 C   0  0  0  0  0  0  0  0  0  0  0  0
   -1.0322    1.9824    4.7421 C   0  0  0  0  0  0  0  0  0  0  0  0
   -0.6431    0.7078    5.0193 N   0  0  0  0  0  0  0  0  0  0  0  0
    2.7060   -2.3714    1.6329 N   0  0  0  0  0  0  0  0  0  0  0  0
    4.0676   -2.2546   -0.0041 H   0  0  0  0  0  0  0  0  0  0  0  0
    4.3347    0.3713    0.5946 H   0  0  0  0  0  0  0  0  0  0  0  0
    1.9419   -4.0797    3.7079 H   0  0  0  0  0  0  0  0  0  0  0  0
   -0.0650   -4.2209    5.5904 H   0  0  0  0  0  0  0  0  0  0  0  0
    0.1441   -0.0150    1.7858 H   0  0  0  0  0  0  0  0  0  0  0  0
   -0.5365    2.3779    1.4096 H   0  0  0  0  0  0  0  0  0  0  0  0
   -1.1115    3.5060    7.6169 H   0  0  0  0  0  0  0  0  0  0  0  0
   -2.6520    0.8646    6.9941 H   0  0  0  0  0  0  0  0  0  0  0  0
   -2.1076    1.4325    8.6661 H   0  0  0  0  0  0  0  0  0  0  0  0
   -3.5107    3.4774    8.4160 H   0  0  0  0  0  0  0  0  0  0  0  0
   -4.0481    2.8951    6.7533 H   0  0  0  0  0  0  0  0  0  0  0  0
  1 22  1  0
  1  2  2  0
  1 23  1  0
  2  3  1  0
  2 24  1  0
  3  4  1  0
  4  5  1  0
  4 22  2  0
  5  9  1  0
  5  6  1  0
  6  7  2  0
  6 25  1  0
  7  8  1  0
  7 26  1  0
  8  9  2  0
  9 10  1  0
 10 21  2  0
 10 11  1  0
 11 12  2  0
 11 27  1  0
 12 13  1  0
 12 28  1  0
 13 20  1  0
 13 14  1  0
 14 15  2  0
 15 16  1  0
 16 17  1  0
 16 20  2  0
 17 19  1  0
 17 18  1  0
 17 29  1  0
 18 19  1  0
 18 30  1  0
 18 31  1  0
 19 32  1  0
 19 33  1  0
 20 21  1  0
M  END
>  <i_m_ct_stereo_status>  (208) 
1

>  <s_m_source_file>  (208) 
/var/tmp/pbs.5083856.sched01/tmps7i0iynh/850i2vb9yg.sdf

>  <i_m_source_file_index>  (208) 
1

>  <i_lp_mmshare_version>  (208) 
48012

>  <i_f3d_flags>  (208) 
0

>  <s_epik_input>  (208) 
bjFbY0hdW2NIXXNjMS1uMltjSF1bY0hdbmMyLWMoW2NIXVtjSF0zKW5jKG4zNCljKG5uNClbQ0hdNVtDSDJdW0NIMl01

>  <s_epik_cmdline>  (208) 
J2VwaWtfcHl0aG9uJywgJy1waHQnLCAnMi4wJywgJy1waCcsICc3LjAnLCAnLXRuJywgJzgnLCAnLW1hJywgJzIwMCcsICctaW1hZScsICc8aW5maWxlLm1hZT4nLCAnLW9tYWUnLCAnPG91dGZpbGUubWFlPic=

>  <r_lp_tautomer_probability>  (208) 
1

>  <r_epik_Ionization_Penalty>  (208) 
0.000749701

>  <r_epik_Ionization_Penalty_Charging>  (208) 
0.000749699

>  <r_epik_Ionization_Penalty_Neutral>  (208) 
1.16491e-09

>  <r_epik_State_Penalty>  (208) 
0.000479314

>  <r_epik_Charging_Adjusted_Penalty>  (208) 
0.00122901

>  <i_epik_Tot_Q>  (208) 
0

>  <i_epik_Tot_abs_Q>  (208) 
0

>  <s_lp_Force_Field>  (208) 
OPLS3e

>  <r_lp_Energy>  (208) 
34.4173

>  <b_lp_Chiralities_Consistent>  (208) 
1

>  <s_lp_Variant>  (208) 
62:0-1

>  <s_i_glide_gridfile>  (208) 
pfpi4k_grid

>  <i_i_glide_lignum>  (208) 
1

>  <i_i_glide_rotatable_bonds>  (208) 
3

>  <r_i_docking_score>  (208) 
-2.94618

>  <r_i_glide_ligand_efficiency>  (208) 
-0.133917

>  <r_i_glide_ligand_efficiency_sa>  (208) 
-0.375241

>  <r_i_glide_ligand_efficiency_ln>  (208) 
-0.720153

>  <r_i_glide_gscore>  (208) 
-2.94618

>  <r_i_glide_lipo>  (208) 
-0.233916

>  <r_i_glide_hbond>  (208) 
0

>  <r_i_glide_metal>  (208) 
-0

>  <r_i_glide_rewards>  (208) 
-1.34115

>  <r_i_glide_evdw>  (208) 
-23.6258

>  <r_i_glide_ecoul>  (208) 
-3.57431

>  <r_i_glide_erotb>  (208) 
0.58042

>  <r_i_glide_esite>  (208) 
-0.23409

>  <r_i_glide_emodel>  (208) 
-31.7513

>  <r_i_glide_energy>  (208) 
-27.2001

>  <r_i_glide_einternal>  (208) 
3.39083

>  <r_i_glide_intrahb_reward>  (208) 
-0

>  <i_i_glide_confnum>  (208) 
3

>  <i_i_glide_posenum>  (208) 
2

>  <r_i_glide_eff_state_penalty>  (208) 
0

>  <ligand_id>  (208) 
62

>  <original_smiles>  (208) 
c1csc(-n2ccnc2-c2ccn3nnc(C4CC4)c3n2)n1

>  <smiles>  (208) 
[H]c1nc(-n2c(-c3nc4c(C5([H])C([H])([H])C5([H])[H])nnn4c([H])c3[H])nc([H])c2[H])sc1[H]

$$$$
64:0:0
     RDKit          3D

 36 38  0  0  1  0  0  0  0  0999 V2000
    5.5318   -3.3885   -3.4799 C   0  0  0  0  0  0  0  0  0  0  0  0
    5.2219   -3.5965   -2.1215 O   0  0  0  0  0  0  0  0  0  0  0  0
    5.7152   -2.7814   -1.1499 C   0  0  0  0  0  0  0  0  0  0  0  0
    6.5254   -1.8622   -1.3866 O   0  0  0  0  0  0  0  0  0  0  0  0
    5.1672   -3.1227    0.0701 N   0  0  0  0  0  0  0  0  0  0  0  0
    5.3404   -2.2562    1.2281 C   0  0  1  0  0  0  0  0  0  0  0  0
    4.5569   -1.0928    1.0802 O   0  0  0  0  0  0  0  0  0  0  0  0
    3.1547   -1.1833    0.8504 C   0  0  0  0  0  0  0  0  0  0  0  0
    4.9774   -3.3104    2.6585 S   0  0  0  0  0  0  0  0  0  0  0  0
    3.7399   -4.2339    1.7345 C   0  0  2  0  0  0  0  0  0  0  0  0
    3.6188   -5.7120    2.0954 C   0  0  1  0  0  0  0  0  0  0  0  0
    2.1931   -6.2343    1.7818 C   0  0  0  0  0  0  0  0  0  0  0  0
    1.5273   -5.8011    0.8377 O   0  0  0  0  0  0  0  0  0  0  0  0
    1.7744   -7.1764    2.6211 N   0  0  0  0  0  0  0  0  0  0  0  0
    0.4898   -7.7549    2.6837 C   0  0  0  0  0  0  0  0  0  0  0  0
   -0.6336   -7.0775    2.3779 N   0  0  0  0  0  0  0  0  0  0  0  0
   -1.7567   -7.8369    2.6092 N   0  0  0  0  0  0  0  0  0  0  0  0
   -1.4504   -9.0606    3.0570 C   0  0  0  0  0  0  0  0  0  0  0  0
    0.2576   -9.3686    3.2966 S   0  0  0  0  0  0  0  0  0  0  0  0
    4.5816   -6.3697    1.2759 O   0  0  0  0  0  0  0  0  0  0  0  0
    4.7557   -5.6403    0.0583 C   0  0  0  0  0  0  0  0  0  0  0  0
    4.2008   -4.2234    0.2926 C   0  0  2  0  0  0  0  0  0  0  0  0
    5.0564   -4.1594   -4.0836 H   0  0  0  0  0  0  0  0  0  0  0  0
    6.6112   -3.4490   -3.6386 H   0  0  0  0  0  0  0  0  0  0  0  0
    5.1772   -2.4135   -3.8240 H   0  0  0  0  0  0  0  0  0  0  0  0
    6.4037   -1.9683    1.2709 H   0  0  0  0  0  0  0  0  0  0  0  0
    2.6992   -0.1969    0.7169 H   0  0  0  0  0  0  0  0  0  0  0  0
    2.6504   -1.7009    1.6531 H   0  0  0  0  0  0  0  0  0  0  0  0
    2.9679   -1.7047   -0.0717 H   0  0  0  0  0  0  0  0  0  0  0  0
    2.7780   -3.7315    1.8873 H   0  0  0  0  0  0  0  0  0  0  0  0
    3.8455   -5.8396    3.1522 H   0  0  0  0  0  0  0  0  0  0  0  0
   -2.2251   -9.7721    3.2636 H   0  0  0  0  0  0  0  0  0  0  0  0
    5.7947   -5.6400   -0.2775 H   0  0  0  0  0  0  0  0  0  0  0  0
    4.1643   -6.1280   -0.7151 H   0  0  0  0  0  0  0  0  0  0  0  0
    3.3506   -4.0679   -0.3666 H   0  0  0  0  0  0  0  0  0  0  0  0
    2.4609   -7.5243    3.2635 H   0  0  0  0  0  0  0  0  0  0  0  0
  1  2  1  0
  1 23  1  0
  1 24  1  0
  1 25  1  0
  2  3  1  0
  3  4  2  0
  3  5  1  0
  5 22  1  0
  5  6  1  0
  6  7  1  0
  6  9  1  0
  6 26  1  1
  7  8  1  0
  8 27  1  0
  8 28  1  0
  8 29  1  0
  9 10  1  0
 10 22  1  0
 10 11  1  0
 10 30  1  6
 11 12  1  0
 11 20  1  0
 11 31  1  1
 12 13  2  0
 12 14  1  0
 14 15  1  0
 14 36  1  0
 15 19  1  0
 15 16  2  0
 16 17  1  0
 17 18  2  0
 18 19  1  0
 18 32  1  0
 20 21  1  0
 21 22  1  0
 21 33  1  0
 21 34  1  0
 22 35  1  6
M  END
>  <i_m_ct_stereo_status>  (209) 
1

>  <s_m_source_file>  (209) 
/var/tmp/pbs.5083856.sched01/tmps7i0iynh/850i2vb9yg.sdf

>  <i_m_source_file_index>  (209) 
3

>  <i_lp_mmshare_version>  (209) 
48012

>  <i_f3d_flags>  (209) 
0

>  <s_epik_input>  (209) 
W0NIM11PQyg9TylOKFtDQEhdKFMxKU9bQ0gzXSlbQ0BIXShbQ0BIXTEyKVtDSDJdT1tDQEBIXTJDKD1PKS9OPWMzXFtuSF1uW2NIXXMz

>  <s_epik_cmdline>  (209) 
J2VwaWtfcHl0aG9uJywgJy1waHQnLCAnMi4wJywgJy1waCcsICc3LjAnLCAnLXRuJywgJzgnLCAnLW1hJywgJzIwMCcsICctaW1hZScsICc8aW5maWxlLm1hZT4nLCAnLW9tYWUnLCAnPG91dGZpbGUubWFlPic=

>  <r_lp_tautomer_probability>  (209) 
1

>  <r_epik_Ionization_Penalty>  (209) 
0.210098

>  <r_epik_Ionization_Penalty_Charging>  (209) 
0

>  <r_epik_Ionization_Penalty_Neutral>  (209) 
0.210098

>  <r_epik_State_Penalty>  (209) 
0.200164

>  <r_epik_Charging_Adjusted_Penalty>  (209) 
0.200164

>  <i_epik_Tot_Q>  (209) 
0

>  <i_epik_Tot_abs_Q>  (209) 
0

>  <s_epik_Chemistry_Notes>  (209) 
This compound has an ester and may undergo hydrolysis at high or low pH. This compound contains an acetal/aminal-like group ( X-CH(R)-Y where X, Y are N, S, or O) that may be acid/base labile, releasing an aldehyde.

>  <s_lp_Force_Field>  (209) 
OPLS3e

>  <r_lp_Energy>  (209) 
9.05987

>  <b_lp_Chiralities_Consistent>  (209) 
1

>  <s_lp_Variant>  (209) 
64:0-1

>  <s_i_glide_gridfile>  (209) 
pfpi4k_grid

>  <i_i_glide_lignum>  (209) 
3

>  <i_i_glide_rotatable_bonds>  (209) 
6

>  <r_i_docking_score>  (209) 
-3.96798

>  <r_i_glide_ligand_efficiency>  (209) 
-0.180363

>  <r_i_glide_ligand_efficiency_sa>  (209) 
-0.505383

>  <r_i_glide_ligand_efficiency_ln>  (209) 
-0.969919

>  <r_i_glide_gscore>  (209) 
-3.96798

>  <r_i_glide_lipo>  (209) 
-0.263334

>  <r_i_glide_hbond>  (209) 
-0.305104

>  <r_i_glide_metal>  (209) 
-0

>  <r_i_glide_rewards>  (209) 
-1.17497

>  <r_i_glide_evdw>  (209) 
-28.0503

>  <r_i_glide_ecoul>  (209) 
-8.57722

>  <r_i_glide_erotb>  (209) 
0.633809

>  <r_i_glide_esite>  (209) 
-0.169285

>  <r_i_glide_emodel>  (209) 
-43.4097

>  <r_i_glide_energy>  (209) 
-36.6275

>  <r_i_glide_einternal>  (209) 
5.01017

>  <r_i_glide_intrahb_reward>  (209) 
-0

>  <i_i_glide_confnum>  (209) 
1

>  <i_i_glide_posenum>  (209) 
10

>  <r_i_glide_eff_state_penalty>  (209) 
0

>  <ligand_id>  (209) 
64

>  <original_smiles>  (209) 
COC(=O)N1C(OC)SC2C(C(=O)N=c3[nH]ncs3)OCC21

>  <smiles>  (209) 
[H]c1nnc(N([H])C(=O)C2([H])OC([H])([H])C3([H])N(C(=O)OC([H])([H])[H])C([H])(OC([H])([H])[H])SC23[H])s1

$$$$
64:0:1
     RDKit          3D

 36 38  0  0  1  0  0  0  0  0999 V2000
    5.5551   -3.1682   -3.2505 C   0  0  0  0  0  0  0  0  0  0  0  0
    5.2569   -3.4459   -1.8983 O   0  0  0  0  0  0  0  0  0  0  0  0
    5.8209   -2.7374   -0.9056 C   0  0  0  0  0  0  0  0  0  0  0  0
    6.6640   -1.8582   -1.0913 O   0  0  0  0  0  0  0  0  0  0  0  0
    5.3298   -3.1582    0.3296 N   0  0  0  0  0  0  0  0  0  0  0  0
    5.6913   -2.4740    1.5546 C   0  0  1  0  0  0  0  0  0  0  0  0
    4.9523   -1.2930    1.6170 O   0  0  0  0  0  0  0  0  0  0  0  0
    5.2154   -0.4851    2.7560 C   0  0  0  0  0  0  0  0  0  0  0  0
    5.3124   -3.6699    2.8580 S   0  0  0  0  0  0  0  0  0  0  0  0
    3.8979   -4.2787    1.9388 C   0  0  2  0  0  0  0  0  0  0  0  0
    3.6384   -5.7698    2.1608 C   0  0  1  0  0  0  0  0  0  0  0  0
    2.1870   -6.1798    1.8781 C   0  0  0  0  0  0  0  0  0  0  0  0
    1.4556   -5.4975    1.1570 O   0  0  0  0  0  0  0  0  0  0  0  0
    1.8171   -7.3373    2.4481 N   0  0  0  0  0  0  0  0  0  0  0  0
    0.5223   -7.8818    2.5316 C   0  0  0  0  0  0  0  0  0  0  0  0
   -0.5874   -7.1574    2.2935 N   0  0  0  0  0  0  0  0  0  0  0  0
   -1.7362   -7.9021    2.5000 N   0  0  0  0  0  0  0  0  0  0  0  0
   -1.4485   -9.1523    2.8779 C   0  0  0  0  0  0  0  0  0  0  0  0
    0.2567   -9.5326    3.0625 S   0  0  0  0  0  0  0  0  0  0  0  0
    4.5056   -6.4139    1.2306 O   0  0  0  0  0  0  0  0  0  0  0  0
    4.6804   -5.5974    0.0743 C   0  0  0  0  0  0  0  0  0  0  0  0
    4.2708   -4.1688    0.4754 C   0  0  2  0  0  0  0  0  0  0  0  0
    4.9964   -3.8485   -3.8925 H   0  0  0  0  0  0  0  0  0  0  0  0
    6.6107   -3.3050   -3.4623 H   0  0  0  0  0  0  0  0  0  0  0  0
    5.2647   -2.1496   -3.5071 H   0  0  0  0  0  0  0  0  0  0  0  0
    6.7624   -2.2631    1.5319 H   0  0  0  0  0  0  0  0  0  0  0  0
    4.6152    0.4228    2.7040 H   0  0  0  0  0  0  0  0  0  0  0  0
    6.2640   -0.1991    2.8106 H   0  0  0  0  0  0  0  0  0  0  0  0
    4.9460   -0.9874    3.6844 H   0  0  0  0  0  0  0  0  0  0  0  0
    3.0430   -3.6434    2.1773 H   0  0  0  0  0  0  0  0  0  0  0  0
    3.9189   -6.0595    3.1776 H   0  0  0  0  0  0  0  0  0  0  0  0
   -2.2612   -9.8401    3.0741 H   0  0  0  0  0  0  0  0  0  0  0  0
    5.7018   -5.6715   -0.3008 H   0  0  0  0  0  0  0  0  0  0  0  0
    4.0317   -5.9611   -0.7187 H   0  0  0  0  0  0  0  0  0  0  0  0
    3.3963   -3.8661   -0.1011 H   0  0  0  0  0  0  0  0  0  0  0  0
    2.5479   -7.8642    2.9086 H   0  0  0  0  0  0  0  0  0  0  0  0
  1  2  1  0
  1 23  1  0
  1 24  1  0
  1 25  1  0
  2  3  1  0
  3  4  2  0
  3  5  1  0
  5 22  1  0
  5  6  1  0
  6  7  1  0
  6  9  1  0
  6 26  1  6
  7  8  1  0
  8 27  1  0
  8 28  1  0
  8 29  1  0
  9 10  1  0
 10 22  1  0
 10 11  1  0
 10 30  1  6
 11 12  1  0
 11 20  1  0
 11 31  1  1
 12 13  2  0
 12 14  1  0
 14 15  1  0
 14 36  1  0
 15 19  1  0
 15 16  2  0
 16 17  1  0
 17 18  2  0
 18 19  1  0
 18 32  1  0
 20 21  1  0
 21 22  1  0
 21 33  1  0
 21 34  1  0
 22 35  1  6
M  END
>  <i_m_ct_stereo_status>  (210) 
1

>  <s_m_source_file>  (210) 
/var/tmp/pbs.5083856.sched01/tmps7i0iynh/850i2vb9yg.sdf

>  <i_m_source_file_index>  (210) 
3

>  <i_lp_mmshare_version>  (210) 
48012

>  <i_f3d_flags>  (210) 
0

>  <s_epik_input>  (210) 
W0NIM11PQyg9TylOKFtDQEhdKFMxKU9bQ0gzXSlbQ0BIXShbQ0BIXTEyKVtDSDJdT1tDQEBIXTJDKD1PKS9OPWMzXFtuSF1uW2NIXXMz

>  <s_epik_cmdline>  (210) 
J2VwaWtfcHl0aG9uJywgJy1waHQnLCAnMi4wJywgJy1waCcsICc3LjAnLCAnLXRuJywgJzgnLCAnLW1hJywgJzIwMCcsICctaW1hZScsICc8aW5maWxlLm1hZT4nLCAnLW9tYWUnLCAnPG91dGZpbGUubWFlPic=

>  <r_lp_tautomer_probability>  (210) 
1

>  <r_epik_Ionization_Penalty>  (210) 
0.210098

>  <r_epik_Ionization_Penalty_Charging>  (210) 
0

>  <r_epik_Ionization_Penalty_Neutral>  (210) 
0.210098

>  <r_epik_State_Penalty>  (210) 
0.200164

>  <r_epik_Charging_Adjusted_Penalty>  (210) 
0.200164

>  <i_epik_Tot_Q>  (210) 
0

>  <i_epik_Tot_abs_Q>  (210) 
0

>  <s_epik_Chemistry_Notes>  (210) 
This compound has an ester and may undergo hydrolysis at high or low pH. This compound contains an acetal/aminal-like group ( X-CH(R)-Y where X, Y are N, S, or O) that may be acid/base labile, releasing an aldehyde.

>  <s_lp_Force_Field>  (210) 
OPLS3e

>  <r_lp_Energy>  (210) 
9.05987

>  <b_lp_Chiralities_Consistent>  (210) 
1

>  <s_lp_Variant>  (210) 
64:0-1

>  <s_i_glide_gridfile>  (210) 
pfpi4k_grid

>  <i_i_glide_lignum>  (210) 
3

>  <i_i_glide_rotatable_bonds>  (210) 
6

>  <r_i_docking_score>  (210) 
-3.86605

>  <r_i_glide_ligand_efficiency>  (210) 
-0.17573

>  <r_i_glide_ligand_efficiency_sa>  (210) 
-0.492401

>  <r_i_glide_ligand_efficiency_ln>  (210) 
-0.945004

>  <r_i_glide_gscore>  (210) 
-3.86605

>  <r_i_glide_lipo>  (210) 
-0.381649

>  <r_i_glide_hbond>  (210) 
-0.277671

>  <r_i_glide_metal>  (210) 
-0

>  <r_i_glide_rewards>  (210) 
-1.20521

>  <r_i_glide_evdw>  (210) 
-25.642

>  <r_i_glide_ecoul>  (210) 
-7.9669

>  <r_i_glide_erotb>  (210) 
0.633809

>  <r_i_glide_esite>  (210) 
-0.158196

>  <r_i_glide_emodel>  (210) 
-42.7651

>  <r_i_glide_energy>  (210) 
-33.6089

>  <r_i_glide_einternal>  (210) 
1.66338

>  <r_i_glide_intrahb_reward>  (210) 
-0

>  <i_i_glide_confnum>  (210) 
1

>  <i_i_glide_posenum>  (210) 
1

>  <r_i_glide_eff_state_penalty>  (210) 
0

>  <ligand_id>  (210) 
64

>  <original_smiles>  (210) 
COC(=O)N1C(OC)SC2C(C(=O)N=c3[nH]ncs3)OCC21

>  <smiles>  (210) 
[H]c1nnc(N([H])C(=O)C2([H])OC([H])([H])C3([H])N(C(=O)OC([H])([H])[H])C([H])(OC([H])([H])[H])SC23[H])s1

$$$$
64:0:2
     RDKit          3D

 36 38  0  0  1  0  0  0  0  0999 V2000
   -1.1381    2.0832    2.7139 C   0  0  0  0  0  0  0  0  0  0  0  0
   -0.3334    0.9247    2.8394 O   0  0  0  0  0  0  0  0  0  0  0  0
   -0.2897    0.2194    3.9793 C   0  0  0  0  0  0  0  0  0  0  0  0
   -0.9926    0.4577    4.9747 O   0  0  0  0  0  0  0  0  0  0  0  0
    0.6675   -0.7943    3.8788 N   0  0  0  0  0  0  0  0  0  0  0  0
    0.8996   -1.7075    4.9756 C   0  0  1  0  0  0  0  0  0  0  0  0
   -0.1409   -2.6384    4.9883 O   0  0  0  0  0  0  0  0  0  0  0  0
   -0.1317   -3.5065    6.1135 C   0  0  0  0  0  0  0  0  0  0  0  0
    2.5438   -2.4023    4.6634 S   0  0  0  0  0  0  0  0  0  0  0  0
    2.2682   -2.3303    2.8948 C   0  0  2  0  0  0  0  0  0  0  0  0
    3.5452   -2.0390    2.0957 C   0  0  1  0  0  0  0  0  0  0  0  0
    3.4458   -2.5661    0.6617 C   0  0  0  0  0  0  0  0  0  0  0  0
    3.0836   -3.7254    0.4931 O   0  0  0  0  0  0  0  0  0  0  0  0
    3.8263   -1.7513   -0.3373 N   0  0  0  0  0  0  0  0  0  0  0  0
    3.6716   -2.0233   -1.7207 C   0  0  0  0  0  0  0  0  0  0  0  0
    4.4912   -1.4329   -2.5967 N   0  0  0  0  0  0  0  0  0  0  0  0
    4.2111   -1.8477   -3.8975 N   0  0  0  0  0  0  0  0  0  0  0  0
    3.1958   -2.7191   -3.9220 C   0  0  0  0  0  0  0  0  0  0  0  0
    2.4055   -3.0534   -2.4089 S   0  0  0  0  0  0  0  0  0  0  0  0
    3.6535   -0.6186    2.1088 O   0  0  0  0  0  0  0  0  0  0  0  0
    2.3538   -0.0425    2.1189 C   0  0  0  0  0  0  0  0  0  0  0  0
    1.3856   -1.1240    2.6307 C   0  0  2  0  0  0  0  0  0  0  0  0
   -0.9822    2.5098    1.7253 H   0  0  0  0  0  0  0  0  0  0  0  0
   -0.8684    2.8442    3.4455 H   0  0  0  0  0  0  0  0  0  0  0  0
   -2.1908    1.8342    2.8237 H   0  0  0  0  0  0  0  0  0  0  0  0
    0.9249   -1.1287    5.9049 H   0  0  0  0  0  0  0  0  0  0  0  0
   -0.9768   -4.1928    6.0573 H   0  0  0  0  0  0  0  0  0  0  0  0
   -0.2272   -2.9458    7.0432 H   0  0  0  0  0  0  0  0  0  0  0  0
    0.7738   -4.1145    6.1630 H   0  0  0  0  0  0  0  0  0  0  0  0
    1.7546   -3.2489    2.6019 H   0  0  0  0  0  0  0  0  0  0  0  0
    4.4204   -2.4986    2.5542 H   0  0  0  0  0  0  0  0  0  0  0  0
    2.8740   -3.1527   -4.8593 H   0  0  0  0  0  0  0  0  0  0  0  0
    2.3563    0.8646    2.7227 H   0  0  0  0  0  0  0  0  0  0  0  0
    2.0651    0.2539    1.1062 H   0  0  0  0  0  0  0  0  0  0  0  0
    0.6575   -1.3596    1.8535 H   0  0  0  0  0  0  0  0  0  0  0  0
    4.1968   -0.8354   -0.0845 H   0  0  0  0  0  0  0  0  0  0  0  0
  1  2  1  0
  1 23  1  0
  1 24  1  0
  1 25  1  0
  2  3  1  0
  3  4  2  0
  3  5  1  0
  5 22  1  0
  5  6  1  0
  6  7  1  0
  6  9  1  0
  6 26  1  1
  7  8  1  0
  8 27  1  0
  8 28  1  0
  8 29  1  0
  9 10  1  0
 10 22  1  0
 10 11  1  0
 10 30  1  6
 11 12  1  0
 11 20  1  0
 11 31  1  1
 12 13  2  0
 12 14  1  0
 14 15  1  0
 14 36  1  0
 15 19  1  0
 15 16  2  0
 16 17  1  0
 17 18  2  0
 18 19  1  0
 18 32  1  0
 20 21  1  0
 21 22  1  0
 21 33  1  0
 21 34  1  0
 22 35  1  6
M  END
>  <i_m_ct_stereo_status>  (211) 
1

>  <s_m_source_file>  (211) 
/var/tmp/pbs.5083856.sched01/tmps7i0iynh/850i2vb9yg.sdf

>  <i_m_source_file_index>  (211) 
3

>  <i_lp_mmshare_version>  (211) 
48012

>  <i_f3d_flags>  (211) 
0

>  <s_epik_input>  (211) 
W0NIM11PQyg9TylOKFtDQEhdKFMxKU9bQ0gzXSlbQ0BIXShbQ0BIXTEyKVtDSDJdT1tDQEBIXTJDKD1PKS9OPWMzXFtuSF1uW2NIXXMz

>  <s_epik_cmdline>  (211) 
J2VwaWtfcHl0aG9uJywgJy1waHQnLCAnMi4wJywgJy1waCcsICc3LjAnLCAnLXRuJywgJzgnLCAnLW1hJywgJzIwMCcsICctaW1hZScsICc8aW5maWxlLm1hZT4nLCAnLW9tYWUnLCAnPG91dGZpbGUubWFlPic=

>  <r_lp_tautomer_probability>  (211) 
1

>  <r_epik_Ionization_Penalty>  (211) 
0.210098

>  <r_epik_Ionization_Penalty_Charging>  (211) 
0

>  <r_epik_Ionization_Penalty_Neutral>  (211) 
0.210098

>  <r_epik_State_Penalty>  (211) 
0.200164

>  <r_epik_Charging_Adjusted_Penalty>  (211) 
0.200164

>  <i_epik_Tot_Q>  (211) 
0

>  <i_epik_Tot_abs_Q>  (211) 
0

>  <s_epik_Chemistry_Notes>  (211) 
This compound has an ester and may undergo hydrolysis at high or low pH. This compound contains an acetal/aminal-like group ( X-CH(R)-Y where X, Y are N, S, or O) that may be acid/base labile, releasing an aldehyde.

>  <s_lp_Force_Field>  (211) 
OPLS3e

>  <r_lp_Energy>  (211) 
9.05987

>  <b_lp_Chiralities_Consistent>  (211) 
1

>  <s_lp_Variant>  (211) 
64:0-1

>  <s_i_glide_gridfile>  (211) 
pfpi4k_grid

>  <i_i_glide_lignum>  (211) 
3

>  <i_i_glide_rotatable_bonds>  (211) 
6

>  <r_i_docking_score>  (211) 
-2.59671

>  <r_i_glide_ligand_efficiency>  (211) 
-0.118032

>  <r_i_glide_ligand_efficiency_sa>  (211) 
-0.330731

>  <r_i_glide_ligand_efficiency_ln>  (211) 
-0.63473

>  <r_i_glide_gscore>  (211) 
-2.59671

>  <r_i_glide_lipo>  (211) 
-0.146877

>  <r_i_glide_hbond>  (211) 
0

>  <r_i_glide_metal>  (211) 
-0

>  <r_i_glide_rewards>  (211) 
-1.04738

>  <r_i_glide_evdw>  (211) 
-28.6425

>  <r_i_glide_ecoul>  (211) 
-3.06512

>  <r_i_glide_erotb>  (211) 
0.633809

>  <r_i_glide_esite>  (211) 
-0.144368

>  <r_i_glide_emodel>  (211) 
-35.8745

>  <r_i_glide_energy>  (211) 
-31.7076

>  <r_i_glide_einternal>  (211) 
4.67166

>  <r_i_glide_intrahb_reward>  (211) 
-0

>  <i_i_glide_confnum>  (211) 
6

>  <i_i_glide_posenum>  (211) 
2

>  <r_i_glide_eff_state_penalty>  (211) 
0

>  <ligand_id>  (211) 
64

>  <original_smiles>  (211) 
COC(=O)N1C(OC)SC2C(C(=O)N=c3[nH]ncs3)OCC21

>  <smiles>  (211) 
[H]c1nnc(N([H])C(=O)C2([H])OC([H])([H])C3([H])N(C(=O)OC([H])([H])[H])C([H])(OC([H])([H])[H])SC23[H])s1

$$$$
64:1:0
     RDKit          3D

 35 37  0  0  1  0  0  0  0  0999 V2000
    3.2448   -7.4546    5.5486 C   0  0  0  0  0  0  0  0  0  0  0  0
    3.2759   -6.6746    4.3550 O   0  0  0  0  0  0  0  0  0  0  0  0
    4.4455   -6.1258    3.9424 C   0  0  0  0  0  0  0  0  0  0  0  0
    5.5000   -6.2613    4.5659 O   0  0  0  0  0  0  0  0  0  0  0  0
    4.2919   -5.4189    2.7444 N   0  0  0  0  0  0  0  0  0  0  0  0
    2.9971   -5.1599    2.1313 C   0  0  1  0  0  0  0  0  0  0  0  0
    2.2463   -4.2370    2.8949 O   0  0  0  0  0  0  0  0  0  0  0  0
    2.8173   -2.9349    3.1708 C   0  0  0  0  0  0  0  0  0  0  0  0
    3.3603   -4.6721    0.4139 S   0  0  0  0  0  0  0  0  0  0  0  0
    4.9341   -3.8943    0.8953 C   0  0  2  0  0  0  0  0  0  0  0  0
    6.0872   -4.0245   -0.1375 C   0  0  1  0  0  0  0  0  0  0  0  0
    6.6601   -2.6058   -0.3996 C   0  0  0  0  0  0  0  0  0  0  0  0
    7.4041   -2.1067    0.4459 O   0  0  0  0  0  0  0  0  0  0  0  0
    6.2481   -1.9417   -1.5137 N   0  0  0  0  0  0  0  0  0  0  0  0
    5.2319   -2.3446   -2.2998 C   0  0  0  0  0  0  0  0  0  0  0  0
    5.3950   -3.2916   -3.2456 N   0  0  0  0  0  0  0  0  0  0  0  0
    4.2331   -3.5854   -3.9309 N   0  0  0  0  0  0  0  0  0  0  0  0
    3.1929   -2.8491   -3.5196 C   0  0  0  0  0  0  0  0  0  0  0  0
    3.6090   -1.6551   -2.2726 S   0  0  0  0  0  0  0  0  0  0  0  0
    7.0891   -4.7900    0.5172 O   0  0  0  0  0  0  0  0  0  0  0  0
    6.4883   -5.5964    1.5125 C   0  0  0  0  0  0  0  0  0  0  0  0
    5.4123   -4.7065    2.1088 C   0  0  2  0  0  0  0  0  0  0  0  0
    2.2325   -7.8133    5.7440 H   0  0  0  0  0  0  0  0  0  0  0  0
    3.5690   -6.8786    6.4197 H   0  0  0  0  0  0  0  0  0  0  0  0
    3.8940   -8.3273    5.4554 H   0  0  0  0  0  0  0  0  0  0  0  0
    2.4304   -6.1013    2.0980 H   0  0  0  0  0  0  0  0  0  0  0  0
    2.1764   -2.3527    3.8615 H   0  0  0  0  0  0  0  0  0  0  0  0
    2.9824   -2.3780    2.2802 H   0  0  0  0  0  0  0  0  0  0  0  0
    3.7659   -3.0441    3.7091 H   0  0  0  0  0  0  0  0  0  0  0  0
    4.7349   -2.8680    1.1418 H   0  0  0  0  0  0  0  0  0  0  0  0
    5.7225   -4.5873   -0.9871 H   0  0  0  0  0  0  0  0  0  0  0  0
    2.2231   -3.0086   -3.9907 H   0  0  0  0  0  0  0  0  0  0  0  0
    6.0447   -6.4802    1.0507 H   0  0  0  0  0  0  0  0  0  0  0  0
    7.2438   -5.8711    2.2482 H   0  0  0  0  0  0  0  0  0  0  0  0
    5.8617   -4.0139    2.8191 H   0  0  0  0  0  0  0  0  0  0  0  0
  1  2  1  0
  1 23  1  0
  1 24  1  0
  1 25  1  0
  2  3  1  0
  3  4  2  0
  3  5  1  0
  5 22  1  0
  5  6  1  0
  6  7  1  0
  6  9  1  0
  6 26  1  6
  7  8  1  0
  8 27  1  0
  8 28  1  0
  8 29  1  0
  9 10  1  0
 10 22  1  0
 10 11  1  0
 10 30  1  1
 11 12  1  0
 11 20  1  0
 11 31  1  6
 12 13  2  0
 12 14  1  0
 14 15  1  0
 15 19  1  0
 15 16  2  0
 16 17  1  0
 17 18  2  0
 18 19  1  0
 18 32  1  0
 20 21  1  0
 21 22  1  0
 21 33  1  0
 21 34  1  0
 22 35  1  1
M  CHG  1  14  -1
M  END
>  <i_m_ct_stereo_status>  (212) 
1

>  <s_m_source_file>  (212) 
/var/tmp/pbs.5083856.sched01/tmps7i0iynh/850i2vb9yg.sdf

>  <i_m_source_file_index>  (212) 
4

>  <i_lp_mmshare_version>  (212) 
48012

>  <i_f3d_flags>  (212) 
0

>  <s_epik_input>  (212) 
W0NIM11PQyg9TylOKFtDQEhdKFMxKU9bQ0gzXSlbQ0BIXShbQ0BIXTEyKVtDSDJdT1tDQEBIXTJDKD1PKS9OPWMzXFtuSF1uW2NIXXMz

>  <s_epik_cmdline>  (212) 
J2VwaWtfcHl0aG9uJywgJy1waHQnLCAnMi4wJywgJy1waCcsICc3LjAnLCAnLXRuJywgJzgnLCAnLW1hJywgJzIwMCcsICctaW1hZScsICc8aW5maWxlLm1hZT4nLCAnLW9tYWUnLCAnPG91dGZpbGUubWFlPic=

>  <r_epik_Ionization_Penalty>  (212) 
0.72677

>  <r_epik_Ionization_Penalty_Charging>  (212) 
0.71621

>  <r_epik_Ionization_Penalty_Neutral>  (212) 
0.01056

>  <r_epik_State_Penalty>  (212) 
0.740226

>  <r_epik_Charging_Adjusted_Penalty>  (212) 
1.45644

>  <i_epik_Tot_Q>  (212) 
-1

>  <i_epik_Tot_abs_Q>  (212) 
1

>  <s_epik_Chemistry_Notes>  (212) 
This compound has an ester and may undergo hydrolysis at high or low pH. This compound contains an acetal/aminal-like group ( X-CH(R)-Y where X, Y are N, S, or O) that may be acid/base labile, releasing an aldehyde.

>  <s_lp_Force_Field>  (212) 
OPLS3e

>  <r_lp_Energy>  (212) 
17.5323

>  <b_lp_Chiralities_Consistent>  (212) 
1

>  <s_lp_Variant>  (212) 
64:0-2

>  <s_i_glide_gridfile>  (212) 
pfpi4k_grid

>  <i_i_glide_lignum>  (212) 
4

>  <i_i_glide_rotatable_bonds>  (212) 
6

>  <r_i_docking_score>  (212) 
-2.78807

>  <r_i_glide_ligand_efficiency>  (212) 
-0.126731

>  <r_i_glide_ligand_efficiency_sa>  (212) 
-0.355104

>  <r_i_glide_ligand_efficiency_ln>  (212) 
-0.681507

>  <r_i_glide_gscore>  (212) 
-2.78807

>  <r_i_glide_lipo>  (212) 
-0.482849

>  <r_i_glide_hbond>  (212) 
-0.188994

>  <r_i_glide_metal>  (212) 
-0

>  <r_i_glide_rewards>  (212) 
-1.05425

>  <r_i_glide_evdw>  (212) 
-25.7378

>  <r_i_glide_ecoul>  (212) 
-2.68069

>  <r_i_glide_erotb>  (212) 
0.637097

>  <r_i_glide_esite>  (212) 
-0.0100862

>  <r_i_glide_emodel>  (212) 
-33.7241

>  <r_i_glide_energy>  (212) 
-28.4185

>  <r_i_glide_einternal>  (212) 
2.34138

>  <r_i_glide_intrahb_reward>  (212) 
-0

>  <i_i_glide_confnum>  (212) 
5

>  <i_i_glide_posenum>  (212) 
2

>  <r_i_glide_eff_state_penalty>  (212) 
0

>  <ligand_id>  (212) 
64

>  <original_smiles>  (212) 
COC(=O)N1C(OC)SC2C(C(=O)N=c3[nH]ncs3)OCC21

>  <smiles>  (212) 
[H]c1nnc([N-]C(=O)C2([H])OC([H])([H])C3([H])N(C(=O)OC([H])([H])[H])C([H])(OC([H])([H])[H])SC23[H])s1

$$$$
64:1:1
     RDKit          3D

 35 37  0  0  1  0  0  0  0  0999 V2000
   -1.2014   -9.4002    3.0280 C   0  0  0  0  0  0  0  0  0  0  0  0
   -0.5329   -8.1910    3.3608 O   0  0  0  0  0  0  0  0  0  0  0  0
    0.6742   -7.8965    2.8262 C   0  0  0  0  0  0  0  0  0  0  0  0
    1.2941   -8.6344    2.0671 O   0  0  0  0  0  0  0  0  0  0  0  0
    1.0870   -6.6206    3.2468 N   0  0  0  0  0  0  0  0  0  0  0  0
    2.2197   -5.9666    2.6319 C   0  0  1  0  0  0  0  0  0  0  0  0
    1.7991   -5.4847    1.3889 O   0  0  0  0  0  0  0  0  0  0  0  0
    2.8478   -5.0102    0.5526 C   0  0  0  0  0  0  0  0  0  0  0  0
    2.7026   -4.6723    3.8191 S   0  0  0  0  0  0  0  0  0  0  0  0
    0.9889   -4.4373    4.3452 C   0  0  2  0  0  0  0  0  0  0  0  0
    0.8097   -4.0411    5.8362 C   0  0  1  0  0  0  0  0  0  0  0  0
   -0.1667   -2.8575    6.0730 C   0  0  0  0  0  0  0  0  0  0  0  0
   -1.3437   -3.0760    6.3714 O   0  0  0  0  0  0  0  0  0  0  0  0
    0.4239   -1.6492    5.9065 N   0  0  0  0  0  0  0  0  0  0  0  0
   -0.3550   -0.5543    5.7554 C   0  0  0  0  0  0  0  0  0  0  0  0
   -0.8869    0.1283    6.7879 N   0  0  0  0  0  0  0  0  0  0  0  0
   -1.7535    1.1411    6.3898 N   0  0  0  0  0  0  0  0  0  0  0  0
   -1.7528    1.2797    5.0640 C   0  0  0  0  0  0  0  0  0  0  0  0
   -0.7559    0.1385    4.1731 S   0  0  0  0  0  0  0  0  0  0  0  0
    0.2430   -5.1964    6.4617 O   0  0  0  0  0  0  0  0  0  0  0  0
    0.4279   -6.3445    5.6553 C   0  0  0  0  0  0  0  0  0  0  0  0
    0.3528   -5.8106    4.2283 C   0  0  2  0  0  0  0  0  0  0  0  0
   -2.1489   -9.4445    3.5662 H   0  0  0  0  0  0  0  0  0  0  0  0
   -0.6143  -10.2734    3.3113 H   0  0  0  0  0  0  0  0  0  0  0  0
   -1.4255   -9.4478    1.9626 H   0  0  0  0  0  0  0  0  0  0  0  0
    3.0278   -6.6948    2.5122 H   0  0  0  0  0  0  0  0  0  0  0  0
    2.4283   -4.6306   -0.3799 H   0  0  0  0  0  0  0  0  0  0  0  0
    3.5442   -5.8098    0.2997 H   0  0  0  0  0  0  0  0  0  0  0  0
    3.4038   -4.1929    1.0143 H   0  0  0  0  0  0  0  0  0  0  0  0
    0.5249   -3.7339    3.6541 H   0  0  0  0  0  0  0  0  0  0  0  0
    1.7858   -3.8433    6.2892 H   0  0  0  0  0  0  0  0  0  0  0  0
   -2.3663    2.0566    4.6150 H   0  0  0  0  0  0  0  0  0  0  0  0
    1.3909   -6.8003    5.8741 H   0  0  0  0  0  0  0  0  0  0  0  0
   -0.3592   -7.0709    5.8527 H   0  0  0  0  0  0  0  0  0  0  0  0
   -0.6897   -5.7173    3.9483 H   0  0  0  0  0  0  0  0  0  0  0  0
  1  2  1  0
  1 23  1  0
  1 24  1  0
  1 25  1  0
  2  3  1  0
  3  4  2  0
  3  5  1  0
  5 22  1  0
  5  6  1  0
  6  7  1  0
  6  9  1  0
  6 26  1  6
  7  8  1  0
  8 27  1  0
  8 28  1  0
  8 29  1  0
  9 10  1  0
 10 22  1  0
 10 11  1  0
 10 30  1  6
 11 12  1  0
 11 20  1  0
 11 31  1  1
 12 13  2  0
 12 14  1  0
 14 15  1  0
 15 19  1  0
 15 16  2  0
 16 17  1  0
 17 18  2  0
 18 19  1  0
 18 32  1  0
 20 21  1  0
 21 22  1  0
 21 33  1  0
 21 34  1  0
 22 35  1  6
M  CHG  1  14  -1
M  END
>  <i_m_ct_stereo_status>  (213) 
1

>  <s_m_source_file>  (213) 
/var/tmp/pbs.5083856.sched01/tmps7i0iynh/850i2vb9yg.sdf

>  <i_m_source_file_index>  (213) 
4

>  <i_lp_mmshare_version>  (213) 
48012

>  <i_f3d_flags>  (213) 
0

>  <s_epik_input>  (213) 
W0NIM11PQyg9TylOKFtDQEhdKFMxKU9bQ0gzXSlbQ0BIXShbQ0BIXTEyKVtDSDJdT1tDQEBIXTJDKD1PKS9OPWMzXFtuSF1uW2NIXXMz

>  <s_epik_cmdline>  (213) 
J2VwaWtfcHl0aG9uJywgJy1waHQnLCAnMi4wJywgJy1waCcsICc3LjAnLCAnLXRuJywgJzgnLCAnLW1hJywgJzIwMCcsICctaW1hZScsICc8aW5maWxlLm1hZT4nLCAnLW9tYWUnLCAnPG91dGZpbGUubWFlPic=

>  <r_epik_Ionization_Penalty>  (213) 
0.72677

>  <r_epik_Ionization_Penalty_Charging>  (213) 
0.71621

>  <r_epik_Ionization_Penalty_Neutral>  (213) 
0.01056

>  <r_epik_State_Penalty>  (213) 
0.740226

>  <r_epik_Charging_Adjusted_Penalty>  (213) 
1.45644

>  <i_epik_Tot_Q>  (213) 
-1

>  <i_epik_Tot_abs_Q>  (213) 
1

>  <s_epik_Chemistry_Notes>  (213) 
This compound has an ester and may undergo hydrolysis at high or low pH. This compound contains an acetal/aminal-like group ( X-CH(R)-Y where X, Y are N, S, or O) that may be acid/base labile, releasing an aldehyde.

>  <s_lp_Force_Field>  (213) 
OPLS3e

>  <r_lp_Energy>  (213) 
17.5323

>  <b_lp_Chiralities_Consistent>  (213) 
1

>  <s_lp_Variant>  (213) 
64:0-2

>  <s_i_glide_gridfile>  (213) 
pfpi4k_grid

>  <i_i_glide_lignum>  (213) 
4

>  <i_i_glide_rotatable_bonds>  (213) 
6

>  <r_i_docking_score>  (213) 
-2.69559

>  <r_i_glide_ligand_efficiency>  (213) 
-0.122527

>  <r_i_glide_ligand_efficiency_sa>  (213) 
-0.343325

>  <r_i_glide_ligand_efficiency_ln>  (213) 
-0.6589

>  <r_i_glide_gscore>  (213) 
-2.69559

>  <r_i_glide_lipo>  (213) 
0

>  <r_i_glide_hbond>  (213) 
-0.0706459

>  <r_i_glide_metal>  (213) 
-0

>  <r_i_glide_rewards>  (213) 
-1.05425

>  <r_i_glide_evdw>  (213) 
-21.501

>  <r_i_glide_ecoul>  (213) 
-6.11726

>  <r_i_glide_erotb>  (213) 
0.637097

>  <r_i_glide_esite>  (213) 
-0.215153

>  <r_i_glide_emodel>  (213) 
-33.4992

>  <r_i_glide_energy>  (213) 
-27.6182

>  <r_i_glide_einternal>  (213) 
2.12955

>  <r_i_glide_intrahb_reward>  (213) 
-0

>  <i_i_glide_confnum>  (213) 
3

>  <i_i_glide_posenum>  (213) 
3

>  <r_i_glide_eff_state_penalty>  (213) 
0

>  <ligand_id>  (213) 
64

>  <original_smiles>  (213) 
COC(=O)N1C(OC)SC2C(C(=O)N=c3[nH]ncs3)OCC21

>  <smiles>  (213) 
[H]c1nnc([N-]C(=O)C2([H])OC([H])([H])C3([H])N(C(=O)OC([H])([H])[H])C([H])(OC([H])([H])[H])SC23[H])s1

$$$$
64:1:2
     RDKit          3D

 35 37  0  0  1  0  0  0  0  0999 V2000
    0.8252   -9.8681    2.7660 C   0  0  0  0  0  0  0  0  0  0  0  0
    1.1762   -8.5433    3.1389 O   0  0  0  0  0  0  0  0  0  0  0  0
    0.3497   -7.7967    3.8910 C   0  0  0  0  0  0  0  0  0  0  0  0
   -0.6720   -8.2425    4.4313 O   0  0  0  0  0  0  0  0  0  0  0  0
    0.7886   -6.4661    3.9813 N   0  0  0  0  0  0  0  0  0  0  0  0
    1.8672   -5.9126    3.1780 C   0  0  1  0  0  0  0  0  0  0  0  0
    1.4054   -5.6294    1.8833 O   0  0  0  0  0  0  0  0  0  0  0  0
    1.5010   -6.6499    0.8984 C   0  0  0  0  0  0  0  0  0  0  0  0
    2.3837   -4.4283    4.0853 S   0  0  0  0  0  0  0  0  0  0  0  0
    0.6887   -4.1002    4.6236 C   0  0  2  0  0  0  0  0  0  0  0  0
    0.5615   -3.4190    6.0098 C   0  0  1  0  0  0  0  0  0  0  0  0
   -0.4517   -2.2361    6.0242 C   0  0  0  0  0  0  0  0  0  0  0  0
   -1.6346   -2.4608    6.0609 O   0  0  0  0  0  0  0  0  0  0  0  0
    0.1648   -1.0159    5.9929 N   0  0  0  0  0  0  0  0  0  0  0  0
   -0.5578    0.0723    5.7074 C   0  0  0  0  0  0  0  0  0  0  0  0
   -1.3108    0.7210    6.6133 N   0  0  0  0  0  0  0  0  0  0  0  0
   -2.0146    1.7908    6.0979 N   0  0  0  0  0  0  0  0  0  0  0  0
   -1.7555    1.9720    4.7966 C   0  0  0  0  0  0  0  0  0  0  0  0
   -0.6060    0.8386    4.1053 S   0  0  0  0  0  0  0  0  0  0  0  0
    0.0175   -4.4229    6.8671 O   0  0  0  0  0  0  0  0  0  0  0  0
    0.1984   -5.7060    6.2970 C   0  0  0  0  0  0  0  0  0  0  0  0
    0.0689   -5.4808    4.7945 C   0  0  2  0  0  0  0  0  0  0  0  0
    1.5268  -10.2357    2.0183 H   0  0  0  0  0  0  0  0  0  0  0  0
   -0.1627   -9.8805    2.3043 H   0  0  0  0  0  0  0  0  0  0  0  0
    0.8224  -10.5755    3.6025 H   0  0  0  0  0  0  0  0  0  0  0  0
    2.7200   -6.5903    3.1672 H   0  0  0  0  0  0  0  0  0  0  0  0
    1.2114   -6.2398   -0.0764 H   0  0  0  0  0  0  0  0  0  0  0  0
    0.8717   -7.5062    1.1350 H   0  0  0  0  0  0  0  0  0  0  0  0
    2.5363   -6.9754    0.8147 H   0  0  0  0  0  0  0  0  0  0  0  0
    0.2075   -3.5379    3.8268 H   0  0  0  0  0  0  0  0  0  0  0  0
    1.5396   -3.1243    6.3859 H   0  0  0  0  0  0  0  0  0  0  0  0
   -2.2553    2.7737    4.2759 H   0  0  0  0  0  0  0  0  0  0  0  0
    1.1820   -6.0905    6.5674 H   0  0  0  0  0  0  0  0  0  0  0  0
   -0.5569   -6.3907    6.6691 H   0  0  0  0  0  0  0  0  0  0  0  0
   -0.9854   -5.4630    4.5178 H   0  0  0  0  0  0  0  0  0  0  0  0
  1  2  1  0
  1 23  1  0
  1 24  1  0
  1 25  1  0
  2  3  1  0
  3  4  2  0
  3  5  1  0
  5 22  1  0
  5  6  1  0
  6  7  1  0
  6  9  1  0
  6 26  1  6
  7  8  1  0
  8 27  1  0
  8 28  1  0
  8 29  1  0
  9 10  1  0
 10 22  1  0
 10 11  1  0
 10 30  1  6
 11 12  1  0
 11 20  1  0
 11 31  1  1
 12 13  2  0
 12 14  1  0
 14 15  1  0
 15 19  1  0
 15 16  2  0
 16 17  1  0
 17 18  2  0
 18 19  1  0
 18 32  1  0
 20 21  1  0
 21 22  1  0
 21 33  1  0
 21 34  1  0
 22 35  1  6
M  CHG  1  14  -1
M  END
>  <i_m_ct_stereo_status>  (214) 
1

>  <s_m_source_file>  (214) 
/var/tmp/pbs.5083856.sched01/tmps7i0iynh/850i2vb9yg.sdf

>  <i_m_source_file_index>  (214) 
4

>  <i_lp_mmshare_version>  (214) 
48012

>  <i_f3d_flags>  (214) 
0

>  <s_epik_input>  (214) 
W0NIM11PQyg9TylOKFtDQEhdKFMxKU9bQ0gzXSlbQ0BIXShbQ0BIXTEyKVtDSDJdT1tDQEBIXTJDKD1PKS9OPWMzXFtuSF1uW2NIXXMz

>  <s_epik_cmdline>  (214) 
J2VwaWtfcHl0aG9uJywgJy1waHQnLCAnMi4wJywgJy1waCcsICc3LjAnLCAnLXRuJywgJzgnLCAnLW1hJywgJzIwMCcsICctaW1hZScsICc8aW5maWxlLm1hZT4nLCAnLW9tYWUnLCAnPG91dGZpbGUubWFlPic=

>  <r_epik_Ionization_Penalty>  (214) 
0.72677

>  <r_epik_Ionization_Penalty_Charging>  (214) 
0.71621

>  <r_epik_Ionization_Penalty_Neutral>  (214) 
0.01056

>  <r_epik_State_Penalty>  (214) 
0.740226

>  <r_epik_Charging_Adjusted_Penalty>  (214) 
1.45644

>  <i_epik_Tot_Q>  (214) 
-1

>  <i_epik_Tot_abs_Q>  (214) 
1

>  <s_epik_Chemistry_Notes>  (214) 
This compound has an ester and may undergo hydrolysis at high or low pH. This compound contains an acetal/aminal-like group ( X-CH(R)-Y where X, Y are N, S, or O) that may be acid/base labile, releasing an aldehyde.

>  <s_lp_Force_Field>  (214) 
OPLS3e

>  <r_lp_Energy>  (214) 
17.5323

>  <b_lp_Chiralities_Consistent>  (214) 
1

>  <s_lp_Variant>  (214) 
64:0-2

>  <s_i_glide_gridfile>  (214) 
pfpi4k_grid

>  <i_i_glide_lignum>  (214) 
4

>  <i_i_glide_rotatable_bonds>  (214) 
6

>  <r_i_docking_score>  (214) 
-2.64329

>  <r_i_glide_ligand_efficiency>  (214) 
-0.120149

>  <r_i_glide_ligand_efficiency_sa>  (214) 
-0.336663

>  <r_i_glide_ligand_efficiency_ln>  (214) 
-0.646116

>  <r_i_glide_gscore>  (214) 
-2.64329

>  <r_i_glide_lipo>  (214) 
-0.0807071

>  <r_i_glide_hbond>  (214) 
-0.0808965

>  <r_i_glide_metal>  (214) 
-0

>  <r_i_glide_rewards>  (214) 
-1.05425

>  <r_i_glide_evdw>  (214) 
-21.1145

>  <r_i_glide_ecoul>  (214) 
-5.51312

>  <r_i_glide_erotb>  (214) 
0.637097

>  <r_i_glide_esite>  (214) 
-0.18184

>  <r_i_glide_emodel>  (214) 
-32.5616

>  <r_i_glide_energy>  (214) 
-26.6276

>  <r_i_glide_einternal>  (214) 
1.48913

>  <r_i_glide_intrahb_reward>  (214) 
-0

>  <i_i_glide_confnum>  (214) 
4

>  <i_i_glide_posenum>  (214) 
19

>  <r_i_glide_eff_state_penalty>  (214) 
0

>  <ligand_id>  (214) 
64

>  <original_smiles>  (214) 
COC(=O)N1C(OC)SC2C(C(=O)N=c3[nH]ncs3)OCC21

>  <smiles>  (214) 
[H]c1nnc([N-]C(=O)C2([H])OC([H])([H])C3([H])N(C(=O)OC([H])([H])[H])C([H])(OC([H])([H])[H])SC23[H])s1

$$$$
65:0:0
     RDKit          3D

 29 30  0  0  1  0  0  0  0  0999 V2000
    0.7475  -10.9386    2.8844 C   0  0  0  0  0  0  0  0  0  0  0  0
    2.2239  -10.5029    2.8614 C   0  0  0  0  0  0  0  0  0  0  0  0
    2.4702   -9.0992    3.4436 C   0  0  0  0  0  0  0  0  0  0  0  0
    1.9410   -7.9912    2.5990 C   0  0  0  0  0  0  0  0  0  0  0  0
    0.6656   -7.6762    2.3604 N   0  0  0  0  0  0  0  0  0  0  0  0
    0.6921   -6.5883    1.5151 N   0  0  0  0  0  0  0  0  0  0  0  0
    1.9898   -6.3079    1.3392 C   0  0  0  0  0  0  0  0  0  0  0  0
    2.6686   -4.9240    0.4854 S   0  0  0  0  0  0  0  0  0  0  0  0
    4.3693   -5.5023    0.2589 C   0  0  0  0  0  0  0  0  0  0  0  0
    5.2341   -4.3592   -0.2288 C   0  0  0  0  0  0  0  0  0  0  0  0
    6.2578   -3.8360    0.5925 C   0  0  0  0  0  0  0  0  0  0  0  0
    7.0497   -2.7871    0.0911 C   0  0  0  0  0  0  0  0  0  0  0  0
    6.8836   -2.2536   -1.1339 N   0  0  0  0  0  0  0  0  0  0  0  0
    5.8942   -2.7499   -1.9096 C   0  0  0  0  0  0  0  0  0  0  0  0
    5.0474   -3.7989   -1.5061 C   0  0  0  0  0  0  0  0  0  0  0  0
    2.8240   -7.1546    1.9952 O   0  0  0  0  0  0  0  0  0  0  0  0
    0.6318  -11.9544    2.5170 H   0  0  0  0  0  0  0  0  0  0  0  0
    0.1215  -10.2937    2.2681 H   0  0  0  0  0  0  0  0  0  0  0  0
    0.3567  -10.9096    3.9013 H   0  0  0  0  0  0  0  0  0  0  0  0
    2.7992  -11.2264    3.4509 H   0  0  0  0  0  0  0  0  0  0  0  0
    2.6326  -10.5622    1.8543 H   0  0  0  0  0  0  0  0  0  0  0  0
    2.0442   -9.0023    4.4427 H   0  0  0  0  0  0  0  0  0  0  0  0
    3.5484   -8.9512    3.5438 H   0  0  0  0  0  0  0  0  0  0  0  0
    4.7816   -5.8650    1.1954 H   0  0  0  0  0  0  0  0  0  0  0  0
    4.3761   -6.3274   -0.4489 H   0  0  0  0  0  0  0  0  0  0  0  0
    6.4332   -4.2283    1.5823 H   0  0  0  0  0  0  0  0  0  0  0  0
    7.8496   -2.3774    0.6892 H   0  0  0  0  0  0  0  0  0  0  0  0
    5.7907   -2.3061   -2.8854 H   0  0  0  0  0  0  0  0  0  0  0  0
    4.2700   -4.1670   -2.1626 H   0  0  0  0  0  0  0  0  0  0  0  0
  1  2  1  0
  1 17  1  0
  1 18  1  0
  1 19  1  0
  2  3  1  0
  2 20  1  0
  2 21  1  0
  3  4  1  0
  3 22  1  0
  3 23  1  0
  4 16  1  0
  4  5  2  0
  5  6  1  0
  6  7  2  0
  7  8  1  0
  7 16  1  0
  8  9  1  0
  9 10  1  0
  9 24  1  0
  9 25  1  0
 10 15  1  0
 10 11  2  0
 11 12  1  0
 11 26  1  0
 12 13  2  0
 12 27  1  0
 13 14  1  0
 14 15  2  0
 14 28  1  0
 15 29  1  0
M  END
>  <i_m_ct_stereo_status>  (215) 
1

>  <s_m_source_file>  (215) 
/var/tmp/pbs.5083856.sched01/tmps7i0iynh/850i2vb9yg.sdf

>  <i_m_source_file_index>  (215) 
5

>  <i_lp_mmshare_version>  (215) 
48012

>  <i_f3d_flags>  (215) 
0

>  <s_epik_input>  (215) 
W0NIM11bQ0gyXVtDSDJdYzFubmMobzEpU1tDSDJdYzJbY0hdW2NIXW5bY0hdW2NIXTI=

>  <s_epik_cmdline>  (215) 
J2VwaWtfcHl0aG9uJywgJy1waHQnLCAnMi4wJywgJy1waCcsICc3LjAnLCAnLXRuJywgJzgnLCAnLW1hJywgJzIwMCcsICctaW1hZScsICc8aW5maWxlLm1hZT4nLCAnLW9tYWUnLCAnPG91dGZpbGUubWFlPic=

>  <r_lp_tautomer_probability>  (215) 
1

>  <r_epik_Ionization_Penalty>  (215) 
0.000471162

>  <r_epik_Ionization_Penalty_Charging>  (215) 
0

>  <r_epik_Ionization_Penalty_Neutral>  (215) 
0.000471162

>  <r_epik_State_Penalty>  (215) 
0.000291965

>  <r_epik_Charging_Adjusted_Penalty>  (215) 
0.000291965

>  <i_epik_Tot_Q>  (215) 
0

>  <i_epik_Tot_abs_Q>  (215) 
0

>  <s_lp_Force_Field>  (215) 
OPLS3e

>  <r_lp_Energy>  (215) 
14.8516

>  <b_lp_Chiralities_Consistent>  (215) 
1

>  <s_lp_Variant>  (215) 
65:0-1

>  <s_i_glide_gridfile>  (215) 
pfpi4k_grid

>  <i_i_glide_lignum>  (215) 
5

>  <i_i_glide_rotatable_bonds>  (215) 
5

>  <r_i_docking_score>  (215) 
-3.03015

>  <r_i_glide_ligand_efficiency>  (215) 
-0.189384

>  <r_i_glide_ligand_efficiency_sa>  (215) 
-0.477218

>  <r_i_glide_ligand_efficiency_ln>  (215) 
-0.803201

>  <r_i_glide_gscore>  (215) 
-3.03015

>  <r_i_glide_lipo>  (215) 
-0.446845

>  <r_i_glide_hbond>  (215) 
-0.16

>  <r_i_glide_metal>  (215) 
-0

>  <r_i_glide_rewards>  (215) 
-1.80473

>  <r_i_glide_evdw>  (215) 
-22.3111

>  <r_i_glide_ecoul>  (215) 
-4.0343

>  <r_i_glide_erotb>  (215) 
1.24208

>  <r_i_glide_esite>  (215) 
-0.139959

>  <r_i_glide_emodel>  (215) 
-30.6702

>  <r_i_glide_energy>  (215) 
-26.3454

>  <r_i_glide_einternal>  (215) 
2.30941

>  <r_i_glide_intrahb_reward>  (215) 
-0

>  <i_i_glide_confnum>  (215) 
3

>  <i_i_glide_posenum>  (215) 
35

>  <r_i_glide_eff_state_penalty>  (215) 
0

>  <ligand_id>  (215) 
65

>  <original_smiles>  (215) 
CCCc1nnc(SCc2ccncc2)o1

>  <smiles>  (215) 
[H]c1nc([H])c([H])c(C([H])([H])Sc2nnc(C([H])([H])C([H])([H])C([H])([H])[H])o2)c1[H]

$$$$
65:0:1
     RDKit          3D

 29 30  0  0  1  0  0  0  0  0999 V2000
    0.3731  -10.6490    2.7215 C   0  0  0  0  0  0  0  0  0  0  0  0
    1.8657  -10.3913    2.9757 C   0  0  0  0  0  0  0  0  0  0  0  0
    2.1389   -9.0640    3.7016 C   0  0  0  0  0  0  0  0  0  0  0  0
    1.7215   -7.8564    2.9274 C   0  0  0  0  0  0  0  0  0  0  0  0
    0.5043   -7.3010    2.8794 N   0  0  0  0  0  0  0  0  0  0  0  0
    0.6023   -6.2608    1.9843 N   0  0  0  0  0  0  0  0  0  0  0  0
    1.8783   -6.2433    1.5930 C   0  0  0  0  0  0  0  0  0  0  0  0
    2.6337   -5.1124    0.4805 S   0  0  0  0  0  0  0  0  0  0  0  0
    4.1394   -4.7722    1.4338 C   0  0  0  0  0  0  0  0  0  0  0  0
    4.9968   -3.7519    0.7068 C   0  0  0  0  0  0  0  0  0  0  0  0
    4.6091   -2.3988    0.6278 C   0  0  0  0  0  0  0  0  0  0  0  0
    5.4478   -1.4959   -0.0576 C   0  0  0  0  0  0  0  0  0  0  0  0
    6.6075   -1.8570   -0.6457 N   0  0  0  0  0  0  0  0  0  0  0  0
    6.9749   -3.1537   -0.5606 C   0  0  0  0  0  0  0  0  0  0  0  0
    6.2092   -4.1340    0.0980 C   0  0  0  0  0  0  0  0  0  0  0  0
    2.6308   -7.2368    2.1322 O   0  0  0  0  0  0  0  0  0  0  0  0
    0.2158  -11.6044    2.2228 H   0  0  0  0  0  0  0  0  0  0  0  0
   -0.0639   -9.8845    2.0795 H   0  0  0  0  0  0  0  0  0  0  0  0
   -0.1848  -10.6584    3.6597 H   0  0  0  0  0  0  0  0  0  0  0  0
    2.2601  -11.2124    3.5749 H   0  0  0  0  0  0  0  0  0  0  0  0
    2.4172  -10.4166    2.0355 H   0  0  0  0  0  0  0  0  0  0  0  0
    1.6277   -9.0459    4.6646 H   0  0  0  0  0  0  0  0  0  0  0  0
    3.2065   -8.9823    3.9079 H   0  0  0  0  0  0  0  0  0  0  0  0
    3.8745   -4.3866    2.4196 H   0  0  0  0  0  0  0  0  0  0  0  0
    4.6941   -5.7010    1.5763 H   0  0  0  0  0  0  0  0  0  0  0  0
    3.6876   -2.0497    1.0727 H   0  0  0  0  0  0  0  0  0  0  0  0
    5.1879   -0.4504   -0.1318 H   0  0  0  0  0  0  0  0  0  0  0  0
    7.9135   -3.4113   -1.0279 H   0  0  0  0  0  0  0  0  0  0  0  0
    6.5515   -5.1596    0.1318 H   0  0  0  0  0  0  0  0  0  0  0  0
  1  2  1  0
  1 17  1  0
  1 18  1  0
  1 19  1  0
  2  3  1  0
  2 20  1  0
  2 21  1  0
  3  4  1  0
  3 22  1  0
  3 23  1  0
  4 16  1  0
  4  5  2  0
  5  6  1  0
  6  7  2  0
  7  8  1  0
  7 16  1  0
  8  9  1  0
  9 10  1  0
  9 24  1  0
  9 25  1  0
 10 15  1  0
 10 11  2  0
 11 12  1  0
 11 26  1  0
 12 13  2  0
 12 27  1  0
 13 14  1  0
 14 15  2  0
 14 28  1  0
 15 29  1  0
M  END
>  <i_m_ct_stereo_status>  (216) 
1

>  <s_m_source_file>  (216) 
/var/tmp/pbs.5083856.sched01/tmps7i0iynh/850i2vb9yg.sdf

>  <i_m_source_file_index>  (216) 
5

>  <i_lp_mmshare_version>  (216) 
48012

>  <i_f3d_flags>  (216) 
0

>  <s_epik_input>  (216) 
W0NIM11bQ0gyXVtDSDJdYzFubmMobzEpU1tDSDJdYzJbY0hdW2NIXW5bY0hdW2NIXTI=

>  <s_epik_cmdline>  (216) 
J2VwaWtfcHl0aG9uJywgJy1waHQnLCAnMi4wJywgJy1waCcsICc3LjAnLCAnLXRuJywgJzgnLCAnLW1hJywgJzIwMCcsICctaW1hZScsICc8aW5maWxlLm1hZT4nLCAnLW9tYWUnLCAnPG91dGZpbGUubWFlPic=

>  <r_lp_tautomer_probability>  (216) 
1

>  <r_epik_Ionization_Penalty>  (216) 
0.000471162

>  <r_epik_Ionization_Penalty_Charging>  (216) 
0

>  <r_epik_Ionization_Penalty_Neutral>  (216) 
0.000471162

>  <r_epik_State_Penalty>  (216) 
0.000291965

>  <r_epik_Charging_Adjusted_Penalty>  (216) 
0.000291965

>  <i_epik_Tot_Q>  (216) 
0

>  <i_epik_Tot_abs_Q>  (216) 
0

>  <s_lp_Force_Field>  (216) 
OPLS3e

>  <r_lp_Energy>  (216) 
14.8516

>  <b_lp_Chiralities_Consistent>  (216) 
1

>  <s_lp_Variant>  (216) 
65:0-1

>  <s_i_glide_gridfile>  (216) 
pfpi4k_grid

>  <i_i_glide_lignum>  (216) 
5

>  <i_i_glide_rotatable_bonds>  (216) 
5

>  <r_i_docking_score>  (216) 
-2.86395

>  <r_i_glide_ligand_efficiency>  (216) 
-0.178997

>  <r_i_glide_ligand_efficiency_sa>  (216) 
-0.451043

>  <r_i_glide_ligand_efficiency_ln>  (216) 
-0.759146

>  <r_i_glide_gscore>  (216) 
-2.86395

>  <r_i_glide_lipo>  (216) 
-0.432057

>  <r_i_glide_hbond>  (216) 
-0.157057

>  <r_i_glide_metal>  (216) 
-0

>  <r_i_glide_rewards>  (216) 
-1.80473

>  <r_i_glide_evdw>  (216) 
-19.1847

>  <r_i_glide_ecoul>  (216) 
-4.10253

>  <r_i_glide_erotb>  (216) 
1.24208

>  <r_i_glide_esite>  (216) 
-0.137572

>  <r_i_glide_emodel>  (216) 
-27.6241

>  <r_i_glide_energy>  (216) 
-23.2872

>  <r_i_glide_einternal>  (216) 
1.87591

>  <r_i_glide_intrahb_reward>  (216) 
-0

>  <i_i_glide_confnum>  (216) 
3

>  <i_i_glide_posenum>  (216) 
1

>  <r_i_glide_eff_state_penalty>  (216) 
0

>  <ligand_id>  (216) 
65

>  <original_smiles>  (216) 
CCCc1nnc(SCc2ccncc2)o1

>  <smiles>  (216) 
[H]c1nc([H])c([H])c(C([H])([H])Sc2nnc(C([H])([H])C([H])([H])C([H])([H])[H])o2)c1[H]

$$$$
65:0:2
     RDKit          3D

 29 30  0  0  1  0  0  0  0  0999 V2000
    5.3514   -4.8521   -0.2299 C   0  0  0  0  0  0  0  0  0  0  0  0
    4.2325   -5.8627    0.0564 C   0  0  0  0  0  0  0  0  0  0  0  0
    4.0836   -6.1883    1.5485 C   0  0  0  0  0  0  0  0  0  0  0  0
    2.9803   -7.1539    1.8276 C   0  0  0  0  0  0  0  0  0  0  0  0
    3.0958   -8.4708    2.0033 N   0  0  0  0  0  0  0  0  0  0  0  0
    1.8176   -8.9363    2.2112 N   0  0  0  0  0  0  0  0  0  0  0  0
    1.0251   -7.8661    2.1217 C   0  0  0  0  0  0  0  0  0  0  0  0
   -0.7252   -7.7645    2.3034 S   0  0  0  0  0  0  0  0  0  0  0  0
   -0.9424   -8.9617    3.6608 C   0  0  0  0  0  0  0  0  0  0  0  0
   -0.1744   -8.5209    4.8965 C   0  0  0  0  0  0  0  0  0  0  0  0
   -0.1784   -7.1762    5.3230 C   0  0  0  0  0  0  0  0  0  0  0  0
    0.5657   -6.8316    6.4668 C   0  0  0  0  0  0  0  0  0  0  0  0
    1.2695   -7.7243    7.1914 N   0  0  0  0  0  0  0  0  0  0  0  0
    1.2681   -9.0107    6.7833 C   0  0  0  0  0  0  0  0  0  0  0  0
    0.5678   -9.4560    5.6467 C   0  0  0  0  0  0  0  0  0  0  0  0
    1.6947   -6.7119    1.8616 O   0  0  0  0  0  0  0  0  0  0  0  0
    5.4081   -4.6348   -1.2959 H   0  0  0  0  0  0  0  0  0  0  0  0
    6.3223   -5.2351    0.0825 H   0  0  0  0  0  0  0  0  0  0  0  0
    5.1768   -3.9107    0.2897 H   0  0  0  0  0  0  0  0  0  0  0  0
    3.2901   -5.4626   -0.3191 H   0  0  0  0  0  0  0  0  0  0  0  0
    4.4250   -6.7785   -0.5048 H   0  0  0  0  0  0  0  0  0  0  0  0
    5.0117   -6.6217    1.9247 H   0  0  0  0  0  0  0  0  0  0  0  0
    3.9045   -5.2767    2.1217 H   0  0  0  0  0  0  0  0  0  0  0  0
   -2.0008   -9.0466    3.9101 H   0  0  0  0  0  0  0  0  0  0  0  0
   -0.6142   -9.9470    3.3292 H   0  0  0  0  0  0  0  0  0  0  0  0
   -0.7353   -6.4164    4.7951 H   0  0  0  0  0  0  0  0  0  0  0  0
    0.5866   -5.8099    6.8142 H   0  0  0  0  0  0  0  0  0  0  0  0
    1.8411   -9.7049    7.3801 H   0  0  0  0  0  0  0  0  0  0  0  0
    0.5917  -10.5017    5.3739 H   0  0  0  0  0  0  0  0  0  0  0  0
  1  2  1  0
  1 17  1  0
  1 18  1  0
  1 19  1  0
  2  3  1  0
  2 20  1  0
  2 21  1  0
  3  4  1  0
  3 22  1  0
  3 23  1  0
  4 16  1  0
  4  5  2  0
  5  6  1  0
  6  7  2  0
  7  8  1  0
  7 16  1  0
  8  9  1  0
  9 10  1  0
  9 24  1  0
  9 25  1  0
 10 15  1  0
 10 11  2  0
 11 12  1  0
 11 26  1  0
 12 13  2  0
 12 27  1  0
 13 14  1  0
 14 15  2  0
 14 28  1  0
 15 29  1  0
M  END
>  <i_m_ct_stereo_status>  (217) 
1

>  <s_m_source_file>  (217) 
/var/tmp/pbs.5083856.sched01/tmps7i0iynh/850i2vb9yg.sdf

>  <i_m_source_file_index>  (217) 
5

>  <i_lp_mmshare_version>  (217) 
48012

>  <i_f3d_flags>  (217) 
0

>  <s_epik_input>  (217) 
W0NIM11bQ0gyXVtDSDJdYzFubmMobzEpU1tDSDJdYzJbY0hdW2NIXW5bY0hdW2NIXTI=

>  <s_epik_cmdline>  (217) 
J2VwaWtfcHl0aG9uJywgJy1waHQnLCAnMi4wJywgJy1waCcsICc3LjAnLCAnLXRuJywgJzgnLCAnLW1hJywgJzIwMCcsICctaW1hZScsICc8aW5maWxlLm1hZT4nLCAnLW9tYWUnLCAnPG91dGZpbGUubWFlPic=

>  <r_lp_tautomer_probability>  (217) 
1

>  <r_epik_Ionization_Penalty>  (217) 
0.000471162

>  <r_epik_Ionization_Penalty_Charging>  (217) 
0

>  <r_epik_Ionization_Penalty_Neutral>  (217) 
0.000471162

>  <r_epik_State_Penalty>  (217) 
0.000291965

>  <r_epik_Charging_Adjusted_Penalty>  (217) 
0.000291965

>  <i_epik_Tot_Q>  (217) 
0

>  <i_epik_Tot_abs_Q>  (217) 
0

>  <s_lp_Force_Field>  (217) 
OPLS3e

>  <r_lp_Energy>  (217) 
14.8516

>  <b_lp_Chiralities_Consistent>  (217) 
1

>  <s_lp_Variant>  (217) 
65:0-1

>  <s_i_glide_gridfile>  (217) 
pfpi4k_grid

>  <i_i_glide_lignum>  (217) 
5

>  <i_i_glide_rotatable_bonds>  (217) 
5

>  <r_i_docking_score>  (217) 
-1.99966

>  <r_i_glide_ligand_efficiency>  (217) 
-0.124979

>  <r_i_glide_ligand_efficiency_sa>  (217) 
-0.314926

>  <r_i_glide_ligand_efficiency_ln>  (217) 
-0.530049

>  <r_i_glide_gscore>  (217) 
-1.99966

>  <r_i_glide_lipo>  (217) 
-0.115724

>  <r_i_glide_hbond>  (217) 
0

>  <r_i_glide_metal>  (217) 
-0

>  <r_i_glide_rewards>  (217) 
-1.80473

>  <r_i_glide_evdw>  (217) 
-20.6984

>  <r_i_glide_ecoul>  (217) 
-1.80641

>  <r_i_glide_erotb>  (217) 
1.24208

>  <r_i_glide_esite>  (217) 
-0.0154065

>  <r_i_glide_emodel>  (217) 
-25.1588

>  <r_i_glide_energy>  (217) 
-22.5048

>  <r_i_glide_einternal>  (217) 
2.02181

>  <r_i_glide_intrahb_reward>  (217) 
-0

>  <i_i_glide_confnum>  (217) 
5

>  <i_i_glide_posenum>  (217) 
2

>  <r_i_glide_eff_state_penalty>  (217) 
0

>  <ligand_id>  (217) 
65

>  <original_smiles>  (217) 
CCCc1nnc(SCc2ccncc2)o1

>  <smiles>  (217) 
[H]c1nc([H])c([H])c(C([H])([H])Sc2nnc(C([H])([H])C([H])([H])C([H])([H])[H])o2)c1[H]

$$$$
66:0:0
     RDKit          3D

 59 65  0  0  1  0  0  0  0  0999 V2000
    7.8535   -7.0737    3.8813 C   0  0  0  0  0  0  0  0  0  0  0  0
    6.7332   -6.0760    4.2295 C   0  0  2  0  0  0  0  0  0  0  0  0
    5.8014   -6.5640    5.3934 C   0  0  0  0  0  0  0  0  0  0  0  0
    4.3833   -7.0704    4.9209 C   0  0  0  0  0  0  0  0  0  0  0  0
    3.5999   -6.0106    4.0111 C   0  0  2  0  0  0  0  0  0  0  0  0
    2.3701   -5.6402    4.8558 C   0  0  0  0  0  0  0  0  0  0  0  0
    1.3955   -6.8198    4.5622 C   0  0  0  0  0  0  0  0  0  0  0  0
    1.8366   -7.4802    3.2969 N   0  0  1  0  0  0  0  0  0  0  0  0
    0.7324   -7.8978    2.3937 C   0  0  0  0  0  0  0  0  0  0  0  0
   -0.2973   -8.7853    3.0916 C   0  0  0  0  0  0  0  0  0  0  0  0
   -1.7085   -8.9050    2.5397 C   0  0  0  0  0  0  0  0  0  0  0  0
   -1.4783   -8.1794    3.8335 C   0  0  0  0  0  0  0  0  0  0  0  0
    2.8094   -6.5022    2.7630 C   0  0  2  0  0  0  0  0  0  0  0  0
    3.3974   -6.5084    1.2795 C   0  0  2  0  0  0  0  0  0  0  0  0
    4.8918   -6.8581    0.9497 C   0  0  0  0  0  0  0  0  0  0  0  0
    6.0229   -5.9379    1.5501 C   0  0  0  0  0  0  0  0  0  0  0  0
    5.7918   -5.7611    3.0588 C   0  0  2  0  0  0  0  0  0  0  0  0
    4.5729   -4.9180    3.5283 C   0  0  2  0  0  0  0  0  0  0  0  0
    4.7940   -3.5906    4.3916 C   0  0  0  0  0  0  0  0  0  0  0  0
    4.2810   -2.7786    3.2363 C   0  0  0  0  0  0  0  0  0  0  0  0
    3.9842   -1.5205    2.7049 C   0  0  0  0  0  0  0  0  0  0  0  0
    3.4391   -1.5713    1.3908 C   0  0  0  0  0  0  0  0  0  0  0  0
    3.1787   -2.7899    0.6720 C   0  0  0  0  0  0  0  0  0  0  0  0
    2.6161   -2.7066   -0.5749 O   0  0  0  0  0  0  0  0  0  0  0  0
    3.4568   -4.0863    1.2087 C   0  0  0  0  0  0  0  0  0  0  0  0
    4.0341   -3.9727    2.4719 C   0  0  0  0  0  0  0  0  0  0  0  0
    3.1120   -5.2777    0.5880 O   0  0  0  0  0  0  0  0  0  0  0  0
    7.4536   -8.0178    3.5099 H   0  0  0  0  0  0  0  0  0  0  0  0
    8.4800   -7.2911    4.7476 H   0  0  0  0  0  0  0  0  0  0  0  0
    8.5106   -6.6655    3.1114 H   0  0  0  0  0  0  0  0  0  0  0  0
    7.2300   -5.1710    4.5686 H   0  0  0  0  0  0  0  0  0  0  0  0
    6.2977   -7.3493    5.9598 H   0  0  0  0  0  0  0  0  0  0  0  0
    5.6619   -5.7454    6.1075 H   0  0  0  0  0  0  0  0  0  0  0  0
    4.4967   -8.0208    4.3867 H   0  0  0  0  0  0  0  0  0  0  0  0
    3.8228   -7.3582    5.8079 H   0  0  0  0  0  0  0  0  0  0  0  0
    2.5632   -5.5297    5.9275 H   0  0  0  0  0  0  0  0  0  0  0  0
    1.9211   -4.6997    4.5185 H   0  0  0  0  0  0  0  0  0  0  0  0
    1.3598   -7.5460    5.3728 H   0  0  0  0  0  0  0  0  0  0  0  0
    0.4040   -6.3883    4.4873 H   0  0  0  0  0  0  0  0  0  0  0  0
    0.2135   -7.0377    1.9783 H   0  0  0  0  0  0  0  0  0  0  0  0
    1.1337   -8.4692    1.5570 H   0  0  0  0  0  0  0  0  0  0  0  0
    0.0998   -9.7172    3.4923 H   0  0  0  0  0  0  0  0  0  0  0  0
   -1.9768   -8.2996    1.6791 H   0  0  0  0  0  0  0  0  0  0  0  0
   -2.2211   -9.8585    2.6154 H   0  0  0  0  0  0  0  0  0  0  0  0
   -1.7780   -8.6660    4.7608 H   0  0  0  0  0  0  0  0  0  0  0  0
   -1.5963   -7.0973    3.8249 H   0  0  0  0  0  0  0  0  0  0  0  0
    2.0853   -5.7084    2.5642 H   0  0  0  0  0  0  0  0  0  0  0  0
    2.8012   -7.2143    0.7139 H   0  0  0  0  0  0  0  0  0  0  0  0
    5.0608   -7.8957    1.2572 H   0  0  0  0  0  0  0  0  0  0  0  0
    5.0138   -6.8632   -0.1353 H   0  0  0  0  0  0  0  0  0  0  0  0
    6.9762   -6.4332    1.3706 H   0  0  0  0  0  0  0  0  0  0  0  0
    6.0912   -4.9826    1.0302 H   0  0  0  0  0  0  0  0  0  0  0  0
    5.5403   -6.8068    3.0209 H   0  0  0  0  0  0  0  0  0  0  0  0
    4.1404   -3.5211    5.2615 H   0  0  0  0  0  0  0  0  0  0  0  0
    5.8281   -3.3693    4.6326 H   0  0  0  0  0  0  0  0  0  0  0  0
    4.1563   -0.5962    3.2366 H   0  0  0  0  0  0  0  0  0  0  0  0
    3.1862   -0.6367    0.9067 H   0  0  0  0  0  0  0  0  0  0  0  0
    2.0318   -1.9497   -0.7213 H   0  0  0  0  0  0  0  0  0  0  0  0
    2.3410   -8.3073    3.5589 H   0  0  0  0  0  0  0  0  0  0  0  0
  1  2  1  0
  1 28  1  0
  1 29  1  0
  1 30  1  0
  2 17  1  0
  2  3  1  0
  2 31  1  1
  3  4  1  0
  3 32  1  0
  3 33  1  0
  5  4  1  1
  4 34  1  0
  4 35  1  0
  5 13  1  0
  5 18  1  0
  5  6  1  0
  6  7  1  0
  6 36  1  0
  6 37  1  0
  7  8  1  0
  7 38  1  0
  7 39  1  0
  8  9  1  0
  8 13  1  0
  8 59  1  1
  9 10  1  0
  9 40  1  0
  9 41  1  0
 10 12  1  0
 10 11  1  0
 10 42  1  0
 11 12  1  0
 11 43  1  0
 11 44  1  0
 12 45  1  0
 12 46  1  0
 13 14  1  0
 13 47  1  6
 14 27  1  0
 14 15  1  0
 14 48  1  6
 15 16  1  0
 15 49  1  0
 15 50  1  0
 16 17  1  0
 16 51  1  0
 16 52  1  0
 17 18  1  0
 17 53  1  1
 18 26  1  0
 18 19  1  1
 19 20  1  0
 19 54  1  0
 19 55  1  0
 20 26  2  0
 20 21  1  0
 21 22  2  0
 21 56  1  0
 22 23  1  0
 22 57  1  0
 23 24  1  0
 23 25  2  0
 24 58  1  0
 25 26  1  0
 25 27  1  0
M  CHG  1   8   1
M  END
>  <i_m_ct_stereo_status>  (218) 
1

>  <s_m_source_file>  (218) 
/var/tmp/pbs.5083856.sched01/tmpmci7z13a/90fdrtcq7s.sdf

>  <i_m_source_file_index>  (218) 
1

>  <i_lp_mmshare_version>  (218) 
48012

>  <i_f3d_flags>  (218) 
0

>  <s_epik_input>  (218) 
W0NIMl0xW0NIMl1bQ0BASF0oW0NIM10pW0NAQEhdKFtDQEBdMjNbQ0BAXTE0NSlbQ0gyXVtDSDJdW0NAQEhdKFtDQEhdNU4oW0NIMl1bQ0gyXTQpW0NIMl1bQ0hdNltDSDJdW0NIMl02KU9jN2MzYyhbQ0gyXTIpW2NIXVtjSF1jN1tPSF0=

>  <s_epik_cmdline>  (218) 
J2VwaWtfcHl0aG9uJywgJy1waHQnLCAnMi4wJywgJy1waCcsICc3LjAnLCAnLXRuJywgJzgnLCAnLW1hJywgJzIwMCcsICctaW1hZScsICc8aW5maWxlLm1hZT4nLCAnLW9tYWUnLCAnPG91dGZpbGUubWFlPic=

>  <r_lp_tautomer_probability>  (218) 
1

>  <r_epik_Ionization_Penalty>  (218) 
0.00214149

>  <r_epik_Ionization_Penalty_Charging>  (218) 
0.00185665

>  <r_epik_Ionization_Penalty_Neutral>  (218) 
0.00028484

>  <r_epik_State_Penalty>  (218) 
0.00126191

>  <r_epik_Charging_Adjusted_Penalty>  (218) 
0.00311855

>  <i_epik_Tot_Q>  (218) 
1

>  <i_epik_Tot_abs_Q>  (218) 
1

>  <s_lp_Force_Field>  (218) 
OPLS3e

>  <r_lp_Energy>  (218) 
127.308

>  <b_lp_Chiralities_Consistent>  (218) 
1

>  <s_lp_Variant>  (218) 
66:0-1

>  <s_i_glide_gridfile>  (218) 
pfpi4k_grid

>  <i_i_glide_lignum>  (218) 
1

>  <i_i_glide_rotatable_bonds>  (218) 
3

>  <r_i_docking_score>  (218) 
-3.04981

>  <r_i_glide_ligand_efficiency>  (218) 
-0.112956

>  <r_i_glide_ligand_efficiency_sa>  (218) 
-0.338868

>  <r_i_glide_ligand_efficiency_ln>  (218) 
-0.709946

>  <r_i_glide_gscore>  (218) 
-3.04981

>  <r_i_glide_lipo>  (218) 
-0.434852

>  <r_i_glide_hbond>  (218) 
0

>  <r_i_glide_metal>  (218) 
-0

>  <r_i_glide_rewards>  (218) 
-0.910116

>  <r_i_glide_evdw>  (218) 
-22.1547

>  <r_i_glide_ecoul>  (218) 
-5.83574

>  <r_i_glide_erotb>  (218) 
0.286573

>  <r_i_glide_esite>  (218) 
-0.00832396

>  <r_i_glide_emodel>  (218) 
-33.7666

>  <r_i_glide_energy>  (218) 
-27.9904

>  <r_i_glide_einternal>  (218) 
1.56522

>  <r_i_glide_intrahb_reward>  (218) 
-0

>  <i_i_glide_confnum>  (218) 
1

>  <i_i_glide_posenum>  (218) 
6

>  <r_i_glide_eff_state_penalty>  (218) 
0

>  <ligand_id>  (218) 
66

>  <original_smiles>  (218) 
CC1CCC23CCN(CC4CC4)C2C2CCC1C31Cc3ccc(O)c(c31)O2

>  <smiles>  (218) 
[H]Oc1c([H])c([H])c2c3c1OC1([H])C([H])([H])C([H])([H])C4([H])C([H])(C([H])([H])[H])C([H])([H])C([H])([H])C5(C([H])([H])C([H])([H])[N+]([H])(C([H])([H])C6([H])C([H])([H])C6([H])[H])C15[H])C34C2([H])[H]

$$$$
66:0:1
     RDKit          3D

 59 65  0  0  1  0  0  0  0  0999 V2000
    7.8956   -9.4817    4.4781 C   0  0  0  0  0  0  0  0  0  0  0  0
    7.0092   -8.2370    4.6656 C   0  0  2  0  0  0  0  0  0  0  0  0
    5.9167   -8.4191    5.7811 C   0  0  0  0  0  0  0  0  0  0  0  0
    4.4529   -8.6433    5.2344 C   0  0  0  0  0  0  0  0  0  0  0  0
    3.9838   -7.5217    4.1920 C   0  0  2  0  0  0  0  0  0  0  0  0
    2.8182   -6.8222    4.9113 C   0  0  0  0  0  0  0  0  0  0  0  0
    1.6274   -7.7808    4.6259 C   0  0  0  0  0  0  0  0  0  0  0  0
    1.9840   -8.6263    3.4406 N   0  0  1  0  0  0  0  0  0  0  0  0
    0.8739   -8.8666    2.4800 C   0  0  0  0  0  0  0  0  0  0  0  0
   -0.4231   -9.2918    3.1636 C   0  0  0  0  0  0  0  0  0  0  0  0
   -1.7575   -9.1077    2.4686 C   0  0  0  0  0  0  0  0  0  0  0  0
   -1.4249   -8.2554    3.6502 C   0  0  0  0  0  0  0  0  0  0  0  0
    3.1836   -7.9359    2.9188 C   0  0  2  0  0  0  0  0  0  0  0  0
    3.8456   -8.1994    1.4844 C   0  0  2  0  0  0  0  0  0  0  0  0
    5.2458   -8.8844    1.3112 C   0  0  0  0  0  0  0  0  0  0  0  0
    6.5138   -8.1797    1.9342 C   0  0  0  0  0  0  0  0  0  0  0  0
    6.2359   -7.8270    3.4041 C   0  0  2  0  0  0  0  0  0  0  0  0
    5.2016   -6.7105    3.7168 C   0  0  2  0  0  0  0  0  0  0  0  0
    5.6576   -5.3961    4.5054 C   0  0  0  0  0  0  0  0  0  0  0  0
    5.3970   -4.5922    3.2575 C   0  0  0  0  0  0  0  0  0  0  0  0
    5.4117   -3.3505    2.6231 C   0  0  0  0  0  0  0  0  0  0  0  0
    4.9717   -3.3922    1.2672 C   0  0  0  0  0  0  0  0  0  0  0  0
    4.5068   -4.5794    0.6171 C   0  0  0  0  0  0  0  0  0  0  0  0
    4.0969   -4.4640   -0.6813 O   0  0  0  0  0  0  0  0  0  0  0  0
    4.4497   -5.8594    1.2623 C   0  0  0  0  0  0  0  0  0  0  0  0
    4.9512   -5.7635    2.5624 C   0  0  0  0  0  0  0  0  0  0  0  0
    3.9038   -6.9906    0.6945 O   0  0  0  0  0  0  0  0  0  0  0  0
    7.3185  -10.3439    4.1417 H   0  0  0  0  0  0  0  0  0  0  0  0
    8.3994   -9.7570    5.4054 H   0  0  0  0  0  0  0  0  0  0  0  0
    8.6743   -9.2913    3.7381 H   0  0  0  0  0  0  0  0  0  0  0  0
    7.6761   -7.4327    4.9715 H   0  0  0  0  0  0  0  0  0  0  0  0
    6.1890   -9.2409    6.4417 H   0  0  0  0  0  0  0  0  0  0  0  0
    5.9138   -7.5339    6.4237 H   0  0  0  0  0  0  0  0  0  0  0  0
    4.3895   -9.6340    4.7747 H   0  0  0  0  0  0  0  0  0  0  0  0
    3.7844   -8.7307    6.0895 H   0  0  0  0  0  0  0  0  0  0  0  0
    2.9648   -6.6637    5.9836 H   0  0  0  0  0  0  0  0  0  0  0  0
    2.6117   -5.8395    4.4738 H   0  0  0  0  0  0  0  0  0  0  0  0
    1.3816   -8.4168    5.4756 H   0  0  0  0  0  0  0  0  0  0  0  0
    0.7712   -7.1425    4.4438 H   0  0  0  0  0  0  0  0  0  0  0  0
    0.6685   -7.9798    1.8811 H   0  0  0  0  0  0  0  0  0  0  0  0
    1.1636   -9.6626    1.7926 H   0  0  0  0  0  0  0  0  0  0  0  0
   -0.3436  -10.2076    3.7535 H   0  0  0  0  0  0  0  0  0  0  0  0
   -1.7624   -8.6442    1.4881 H   0  0  0  0  0  0  0  0  0  0  0  0
   -2.5358   -9.8453    2.6239 H   0  0  0  0  0  0  0  0  0  0  0  0
   -1.9188   -8.4704    4.5984 H   0  0  0  0  0  0  0  0  0  0  0  0
   -1.2152   -7.2040    3.4550 H   0  0  0  0  0  0  0  0  0  0  0  0
    2.6685   -7.0230    2.6076 H   0  0  0  0  0  0  0  0  0  0  0  0
    3.1474   -8.8141    0.9154 H   0  0  0  0  0  0  0  0  0  0  0  0
    5.1621   -9.9042    1.7009 H   0  0  0  0  0  0  0  0  0  0  0  0
    5.4341   -9.0151    0.2463 H   0  0  0  0  0  0  0  0  0  0  0  0
    7.3459   -8.8791    1.8682 H   0  0  0  0  0  0  0  0  0  0  0  0
    6.8273   -7.3086    1.3601 H   0  0  0  0  0  0  0  0  0  0  0  0
    5.7623   -8.7936    3.4202 H   0  0  0  0  0  0  0  0  0  0  0  0
    4.9863   -5.1125    5.3126 H   0  0  0  0  0  0  0  0  0  0  0  0
    6.7002   -5.3806    4.8078 H   0  0  0  0  0  0  0  0  0  0  0  0
    5.7537   -2.4441    3.0975 H   0  0  0  0  0  0  0  0  0  0  0  0
    4.9739   -2.4710    0.7031 H   0  0  0  0  0  0  0  0  0  0  0  0
    3.7773   -5.2597   -1.0894 H   0  0  0  0  0  0  0  0  0  0  0  0
    2.2776   -9.5229    3.7993 H   0  0  0  0  0  0  0  0  0  0  0  0
  1  2  1  0
  1 28  1  0
  1 29  1  0
  1 30  1  0
  2 17  1  0
  2  3  1  0
  2 31  1  1
  3  4  1  0
  3 32  1  0
  3 33  1  0
  5  4  1  1
  4 34  1  0
  4 35  1  0
  5 13  1  0
  5 18  1  0
  5  6  1  0
  6  7  1  0
  6 36  1  0
  6 37  1  0
  7  8  1  0
  7 38  1  0
  7 39  1  0
  8  9  1  0
  8 13  1  0
  8 59  1  1
  9 10  1  0
  9 40  1  0
  9 41  1  0
 10 12  1  0
 10 11  1  0
 10 42  1  0
 11 12  1  0
 11 43  1  0
 11 44  1  0
 12 45  1  0
 12 46  1  0
 13 14  1  0
 13 47  1  6
 14 27  1  0
 14 15  1  0
 14 48  1  6
 15 16  1  0
 15 49  1  0
 15 50  1  0
 16 17  1  0
 16 51  1  0
 16 52  1  0
 17 18  1  0
 17 53  1  1
 18 26  1  0
 18 19  1  1
 19 20  1  0
 19 54  1  0
 19 55  1  0
 20 26  2  0
 20 21  1  0
 21 22  2  0
 21 56  1  0
 22 23  1  0
 22 57  1  0
 23 24  1  0
 23 25  2  0
 24 58  1  0
 25 26  1  0
 25 27  1  0
M  CHG  1   8   1
M  END
>  <i_m_ct_stereo_status>  (219) 
1

>  <s_m_source_file>  (219) 
/var/tmp/pbs.5083856.sched01/tmpmci7z13a/90fdrtcq7s.sdf

>  <i_m_source_file_index>  (219) 
1

>  <i_lp_mmshare_version>  (219) 
48012

>  <i_f3d_flags>  (219) 
0

>  <s_epik_input>  (219) 
W0NIMl0xW0NIMl1bQ0BASF0oW0NIM10pW0NAQEhdKFtDQEBdMjNbQ0BAXTE0NSlbQ0gyXVtDSDJdW0NAQEhdKFtDQEhdNU4oW0NIMl1bQ0gyXTQpW0NIMl1bQ0hdNltDSDJdW0NIMl02KU9jN2MzYyhbQ0gyXTIpW2NIXVtjSF1jN1tPSF0=

>  <s_epik_cmdline>  (219) 
J2VwaWtfcHl0aG9uJywgJy1waHQnLCAnMi4wJywgJy1waCcsICc3LjAnLCAnLXRuJywgJzgnLCAnLW1hJywgJzIwMCcsICctaW1hZScsICc8aW5maWxlLm1hZT4nLCAnLW9tYWUnLCAnPG91dGZpbGUubWFlPic=

>  <r_lp_tautomer_probability>  (219) 
1

>  <r_epik_Ionization_Penalty>  (219) 
0.00214149

>  <r_epik_Ionization_Penalty_Charging>  (219) 
0.00185665

>  <r_epik_Ionization_Penalty_Neutral>  (219) 
0.00028484

>  <r_epik_State_Penalty>  (219) 
0.00126191

>  <r_epik_Charging_Adjusted_Penalty>  (219) 
0.00311855

>  <i_epik_Tot_Q>  (219) 
1

>  <i_epik_Tot_abs_Q>  (219) 
1

>  <s_lp_Force_Field>  (219) 
OPLS3e

>  <r_lp_Energy>  (219) 
127.308

>  <b_lp_Chiralities_Consistent>  (219) 
1

>  <s_lp_Variant>  (219) 
66:0-1

>  <s_i_glide_gridfile>  (219) 
pfpi4k_grid

>  <i_i_glide_lignum>  (219) 
1

>  <i_i_glide_rotatable_bonds>  (219) 
3

>  <r_i_docking_score>  (219) 
-2.9843

>  <r_i_glide_ligand_efficiency>  (219) 
-0.11053

>  <r_i_glide_ligand_efficiency_sa>  (219) 
-0.331589

>  <r_i_glide_ligand_efficiency_ln>  (219) 
-0.694696

>  <r_i_glide_gscore>  (219) 
-2.9843

>  <r_i_glide_lipo>  (219) 
-0.527083

>  <r_i_glide_hbond>  (219) 
0

>  <r_i_glide_metal>  (219) 
-0

>  <r_i_glide_rewards>  (219) 
-0.910116

>  <r_i_glide_evdw>  (219) 
-23.0132

>  <r_i_glide_ecoul>  (219) 
-4.50091

>  <r_i_glide_erotb>  (219) 
0.286573

>  <r_i_glide_esite>  (219) 
-0.00787721

>  <r_i_glide_emodel>  (219) 
-33.7328

>  <r_i_glide_energy>  (219) 
-27.5142

>  <r_i_glide_einternal>  (219) 
1.24132

>  <r_i_glide_intrahb_reward>  (219) 
-0

>  <i_i_glide_confnum>  (219) 
1

>  <i_i_glide_posenum>  (219) 
34

>  <r_i_glide_eff_state_penalty>  (219) 
0

>  <ligand_id>  (219) 
66

>  <original_smiles>  (219) 
CC1CCC23CCN(CC4CC4)C2C2CCC1C31Cc3ccc(O)c(c31)O2

>  <smiles>  (219) 
[H]Oc1c([H])c([H])c2c3c1OC1([H])C([H])([H])C([H])([H])C4([H])C([H])(C([H])([H])[H])C([H])([H])C([H])([H])C5(C([H])([H])C([H])([H])[N+]([H])(C([H])([H])C6([H])C([H])([H])C6([H])[H])C15[H])C34C2([H])[H]

$$$$
66:0:2
     RDKit          3D

 59 65  0  0  1  0  0  0  0  0999 V2000
    7.0034  -12.1341    1.8308 C   0  0  0  0  0  0  0  0  0  0  0  0
    6.4609  -11.5278    3.1349 C   0  0  2  0  0  0  0  0  0  0  0  0
    5.4521  -12.4820    3.8716 C   0  0  0  0  0  0  0  0  0  0  0  0
    3.9386  -12.0606    3.7466 C   0  0  0  0  0  0  0  0  0  0  0  0
    3.6639  -10.5455    4.1742 C   0  0  2  0  0  0  0  0  0  0  0  0
    2.7470  -10.6633    5.4104 C   0  0  0  0  0  0  0  0  0  0  0  0
    1.3374  -10.8952    4.7822 C   0  0  0  0  0  0  0  0  0  0  0  0
    1.4013  -10.3876    3.3744 N   0  0  1  0  0  0  0  0  0  0  0  0
    0.1846   -9.6588    2.9322 C   0  0  0  0  0  0  0  0  0  0  0  0
   -0.0169   -8.3276    3.6413 C   0  0  0  0  0  0  0  0  0  0  0  0
   -1.2042   -7.4455    3.3294 C   0  0  0  0  0  0  0  0  0  0  0  0
    0.1749   -7.0297    2.8881 C   0  0  0  0  0  0  0  0  0  0  0  0
    2.7001   -9.6745    3.3222 C   0  0  2  0  0  0  0  0  0  0  0  0
    3.1522   -8.6679    2.1583 C   0  0  2  0  0  0  0  0  0  0  0  0
    4.3299   -8.9796    1.1746 C   0  0  0  0  0  0  0  0  0  0  0  0
    5.7716   -9.2021    1.7733 C   0  0  0  0  0  0  0  0  0  0  0  0
    5.7004  -10.2053    2.9390 C   0  0  2  0  0  0  0  0  0  0  0  0
    4.9917   -9.7698    4.2536 C   0  0  2  0  0  0  0  0  0  0  0  0
    5.8120   -9.7170    5.6234 C   0  0  0  0  0  0  0  0  0  0  0  0
    5.6581   -8.2166    5.6256 C   0  0  0  0  0  0  0  0  0  0  0  0
    5.9213   -7.0014    6.2514 C   0  0  0  0  0  0  0  0  0  0  0  0
    5.3639   -5.8709    5.5842 C   0  0  0  0  0  0  0  0  0  0  0  0
    4.5649   -5.9668    4.3976 C   0  0  0  0  0  0  0  0  0  0  0  0
    4.0558   -4.8145    3.8621 O   0  0  0  0  0  0  0  0  0  0  0  0
    4.2656   -7.2072    3.7558 C   0  0  0  0  0  0  0  0  0  0  0  0
    4.8861   -8.2678    4.4210 C   0  0  0  0  0  0  0  0  0  0  0  0
    3.4178   -7.3442    2.6733 O   0  0  0  0  0  0  0  0  0  0  0  0
    6.2198  -12.2815    1.0923 H   0  0  0  0  0  0  0  0  0  0  0  0
    7.5046  -13.0920    2.0022 H   0  0  0  0  0  0  0  0  0  0  0  0
    7.7364  -11.4674    1.3820 H   0  0  0  0  0  0  0  0  0  0  0  0
    7.3216  -11.3724    3.7807 H   0  0  0  0  0  0  0  0  0  0  0  0
    5.5754  -13.5045    3.5174 H   0  0  0  0  0  0  0  0  0  0  0  0
    5.7120  -12.5176    4.9321 H   0  0  0  0  0  0  0  0  0  0  0  0
    3.6019  -12.2307    2.7203 H   0  0  0  0  0  0  0  0  0  0  0  0
    3.3446  -12.7685    4.3219 H   0  0  0  0  0  0  0  0  0  0  0  0
    3.0196  -11.4702    6.0933 H   0  0  0  0  0  0  0  0  0  0  0  0
    2.7450   -9.7391    5.9961 H   0  0  0  0  0  0  0  0  0  0  0  0
    1.0496  -11.9474    4.7867 H   0  0  0  0  0  0  0  0  0  0  0  0
    0.5823  -10.3865    5.3805 H   0  0  0  0  0  0  0  0  0  0  0  0
    0.2182   -9.5005    1.8560 H   0  0  0  0  0  0  0  0  0  0  0  0
   -0.6874  -10.2859    3.1150 H   0  0  0  0  0  0  0  0  0  0  0  0
    0.2694   -8.3184    4.6970 H   0  0  0  0  0  0  0  0  0  0  0  0
   -1.9098   -7.7885    2.5724 H   0  0  0  0  0  0  0  0  0  0  0  0
   -1.6370   -6.9143    4.1748 H   0  0  0  0  0  0  0  0  0  0  0  0
    0.6901   -6.2461    3.4411 H   0  0  0  0  0  0  0  0  0  0  0  0
    0.4173   -7.0966    1.8269 H   0  0  0  0  0  0  0  0  0  0  0  0
    2.4354   -8.8737    4.0110 H   0  0  0  0  0  0  0  0  0  0  0  0
    2.2839   -8.5146    1.5150 H   0  0  0  0  0  0  0  0  0  0  0  0
    4.0332   -9.8512    0.5943 H   0  0  0  0  0  0  0  0  0  0  0  0
    4.3954   -8.1813    0.4323 H   0  0  0  0  0  0  0  0  0  0  0  0
    6.4011   -9.5979    0.9767 H   0  0  0  0  0  0  0  0  0  0  0  0
    6.2344   -8.2650    2.0759 H   0  0  0  0  0  0  0  0  0  0  0  0
    5.0139  -10.7261    2.2909 H   0  0  0  0  0  0  0  0  0  0  0  0
    5.2967  -10.1811    6.4617 H   0  0  0  0  0  0  0  0  0  0  0  0
    6.8499  -10.0316    5.5555 H   0  0  0  0  0  0  0  0  0  0  0  0
    6.5026   -6.9146    7.1571 H   0  0  0  0  0  0  0  0  0  0  0  0
    5.5370   -4.8993    6.0129 H   0  0  0  0  0  0  0  0  0  0  0  0
    4.2970   -4.0373    4.3429 H   0  0  0  0  0  0  0  0  0  0  0  0
    1.4974  -11.2020    2.7848 H   0  0  0  0  0  0  0  0  0  0  0  0
  1  2  1  0
  1 28  1  0
  1 29  1  0
  1 30  1  0
  2 17  1  0
  2  3  1  0
  2 31  1  1
  3  4  1  0
  3 32  1  0
  3 33  1  0
  5  4  1  6
  4 34  1  0
  4 35  1  0
  5 13  1  0
  5 18  1  0
  5  6  1  0
  6  7  1  0
  6 36  1  0
  6 37  1  0
  7  8  1  0
  7 38  1  0
  7 39  1  0
  8  9  1  0
  8 13  1  0
  8 59  1  6
  9 10  1  0
  9 40  1  0
  9 41  1  0
 10 12  1  0
 10 11  1  0
 10 42  1  0
 11 12  1  0
 11 43  1  0
 11 44  1  0
 12 45  1  0
 12 46  1  0
 13 14  1  0
 13 47  1  1
 14 27  1  0
 14 15  1  0
 14 48  1  6
 15 16  1  0
 15 49  1  0
 15 50  1  0
 16 17  1  0
 16 51  1  0
 16 52  1  0
 17 18  1  0
 17 53  1  6
 18 26  1  0
 18 19  1  1
 19 20  1  0
 19 54  1  0
 19 55  1  0
 20 26  2  0
 20 21  1  0
 21 22  2  0
 21 56  1  0
 22 23  1  0
 22 57  1  0
 23 24  1  0
 23 25  2  0
 24 58  1  0
 25 26  1  0
 25 27  1  0
M  CHG  1   8   1
M  END
>  <i_m_ct_stereo_status>  (220) 
1

>  <s_m_source_file>  (220) 
/var/tmp/pbs.5083856.sched01/tmpmci7z13a/90fdrtcq7s.sdf

>  <i_m_source_file_index>  (220) 
1

>  <i_lp_mmshare_version>  (220) 
48012

>  <i_f3d_flags>  (220) 
0

>  <s_epik_input>  (220) 
W0NIMl0xW0NIMl1bQ0BASF0oW0NIM10pW0NAQEhdKFtDQEBdMjNbQ0BAXTE0NSlbQ0gyXVtDSDJdW0NAQEhdKFtDQEhdNU4oW0NIMl1bQ0gyXTQpW0NIMl1bQ0hdNltDSDJdW0NIMl02KU9jN2MzYyhbQ0gyXTIpW2NIXVtjSF1jN1tPSF0=

>  <s_epik_cmdline>  (220) 
J2VwaWtfcHl0aG9uJywgJy1waHQnLCAnMi4wJywgJy1waCcsICc3LjAnLCAnLXRuJywgJzgnLCAnLW1hJywgJzIwMCcsICctaW1hZScsICc8aW5maWxlLm1hZT4nLCAnLW9tYWUnLCAnPG91dGZpbGUubWFlPic=

>  <r_lp_tautomer_probability>  (220) 
1

>  <r_epik_Ionization_Penalty>  (220) 
0.00214149

>  <r_epik_Ionization_Penalty_Charging>  (220) 
0.00185665

>  <r_epik_Ionization_Penalty_Neutral>  (220) 
0.00028484

>  <r_epik_State_Penalty>  (220) 
0.00126191

>  <r_epik_Charging_Adjusted_Penalty>  (220) 
0.00311855

>  <i_epik_Tot_Q>  (220) 
1

>  <i_epik_Tot_abs_Q>  (220) 
1

>  <s_lp_Force_Field>  (220) 
OPLS3e

>  <r_lp_Energy>  (220) 
127.308

>  <b_lp_Chiralities_Consistent>  (220) 
1

>  <s_lp_Variant>  (220) 
66:0-1

>  <s_i_glide_gridfile>  (220) 
pfpi4k_grid

>  <i_i_glide_lignum>  (220) 
1

>  <i_i_glide_rotatable_bonds>  (220) 
3

>  <r_i_docking_score>  (220) 
-2.43235

>  <r_i_glide_ligand_efficiency>  (220) 
-0.0900871

>  <r_i_glide_ligand_efficiency_sa>  (220) 
-0.270261

>  <r_i_glide_ligand_efficiency_ln>  (220) 
-0.566211

>  <r_i_glide_gscore>  (220) 
-2.43235

>  <r_i_glide_lipo>  (220) 
-0.00305789

>  <r_i_glide_hbond>  (220) 
0

>  <r_i_glide_metal>  (220) 
-0

>  <r_i_glide_rewards>  (220) 
-0.910116

>  <r_i_glide_evdw>  (220) 
-25.0778

>  <r_i_glide_ecoul>  (220) 
-3.67907

>  <r_i_glide_erotb>  (220) 
0.286573

>  <r_i_glide_esite>  (220) 
0

>  <r_i_glide_emodel>  (220) 
-32.8449

>  <r_i_glide_energy>  (220) 
-28.7569

>  <r_i_glide_einternal>  (220) 
3.3288

>  <r_i_glide_intrahb_reward>  (220) 
-0

>  <i_i_glide_confnum>  (220) 
1

>  <i_i_glide_posenum>  (220) 
12

>  <r_i_glide_eff_state_penalty>  (220) 
0

>  <ligand_id>  (220) 
66

>  <original_smiles>  (220) 
CC1CCC23CCN(CC4CC4)C2C2CCC1C31Cc3ccc(O)c(c31)O2

>  <smiles>  (220) 
[H]Oc1c([H])c([H])c2c3c1OC1([H])C([H])([H])C([H])([H])C4([H])C([H])(C([H])([H])[H])C([H])([H])C([H])([H])C5(C([H])([H])C([H])([H])[N+]([H])(C([H])([H])C6([H])C([H])([H])C6([H])[H])C15[H])C34C2([H])[H]

$$$$
68:0:0
     RDKit          3D

 28 30  0  0  1  0  0  0  0  0999 V2000
    5.0975   -6.1943    1.0425 C   0  0  0  0  0  0  0  0  0  0  0  0
    3.6467   -6.0541    0.9627 N   0  0  0  0  0  0  0  0  0  0  0  0
    2.8634   -7.0348    1.4094 N   0  0  0  0  0  0  0  0  0  0  0  0
    1.6299   -6.6686    1.1710 N   0  0  0  0  0  0  0  0  0  0  0  0
    1.6211   -5.4574    0.5508 N   0  0  0  0  0  0  0  0  0  0  0  0
    2.8702   -5.0678    0.4797 C   0  0  0  0  0  0  0  0  0  0  0  0
    3.2631   -3.7746   -0.1057 C   0  0  0  0  0  0  0  0  0  0  0  0
    2.7738   -3.5250   -1.3948 C   0  0  0  0  0  0  0  0  0  0  0  0
    3.1677   -2.4013   -2.1202 C   0  0  0  0  0  0  0  0  0  0  0  0
    2.6603   -2.2526   -3.7604 Cl  0  0  0  0  0  0  0  0  0  0  0  0
    4.0191   -1.4644   -1.5073 C   0  0  0  0  0  0  0  0  0  0  0  0
    4.4411   -0.3537   -2.2760 N   0  0  0  0  0  0  0  0  0  0  0  0
    4.4159   -1.6490   -0.2190 N   0  0  0  0  0  0  0  0  0  0  0  0
    5.1913   -0.6722    0.3255 N   0  0  0  0  0  0  0  0  0  0  0  0
    5.6225   -0.8403    1.5819 C   0  0  0  0  0  0  0  0  0  0  0  0
    5.3516   -1.8593    2.3952 N   0  0  0  0  0  0  0  0  0  0  0  0
    4.5529   -2.8098    1.8737 C   0  0  0  0  0  0  0  0  0  0  0  0
    4.2608   -3.8258    2.8024 N   0  0  0  0  0  0  0  0  0  0  0  0
    4.0734   -2.7635    0.5374 C   0  0  0  0  0  0  0  0  0  0  0  0
    5.5619   -5.2019    1.0447 H   0  0  0  0  0  0  0  0  0  0  0  0
    5.4514   -6.7986    0.1984 H   0  0  0  0  0  0  0  0  0  0  0  0
    5.3421   -6.7040    1.9763 H   0  0  0  0  0  0  0  0  0  0  0  0
    2.1397   -4.2498   -1.8950 H   0  0  0  0  0  0  0  0  0  0  0  0
    3.9254   -0.1174   -3.1129 H   0  0  0  0  0  0  0  0  0  0  0  0
    6.2257   -0.0393    2.0030 H   0  0  0  0  0  0  0  0  0  0  0  0
    3.8913   -4.7131    2.4924 H   0  0  0  0  0  0  0  0  0  0  0  0
    4.8133    0.4345   -1.7522 H   0  0  0  0  0  0  0  0  0  0  0  0
    4.8802   -3.8724    3.6160 H   0  0  0  0  0  0  0  0  0  0  0  0
  1  2  1  0
  1 20  1  0
  1 21  1  0
  1 22  1  0
  2  6  1  0
  2  3  1  0
  3  4  2  0
  4  5  1  0
  5  6  2  0
  6  7  1  0
  7 19  1  0
  7  8  2  0
  8  9  1  0
  8 23  1  0
  9 10  1  0
  9 11  2  0
 11 12  1  0
 11 13  1  0
 12 24  1  0
 12 27  1  0
 13 19  2  0
 13 14  1  0
 14 15  2  0
 15 16  1  0
 15 25  1  0
 16 17  2  0
 17 18  1  0
 17 19  1  0
 18 26  1  0
 18 28  1  0
M  CHG  1  13   1
M  END
>  <i_m_ct_stereo_status>  (221) 
1

>  <s_m_source_file>  (221) 
/var/tmp/pbs.5083856.sched01/tmpmci7z13a/90fdrtcq7s.sdf

>  <i_m_source_file_index>  (221) 
3

>  <i_lp_mmshare_version>  (221) 
48012

>  <i_f3d_flags>  (221) 
0

>  <s_epik_input>  (221) 
W0NIM11uMW5ubmMxLWMoW2NIXWMoQ2wpL2MyPU5cW0hdKWMobjIzKWMoPU5cW0hdKVxuW2NIXVtuSF0z

>  <s_epik_cmdline>  (221) 
J2VwaWtfcHl0aG9uJywgJy1waHQnLCAnMi4wJywgJy1waCcsICc3LjAnLCAnLXRuJywgJzgnLCAnLW1hJywgJzIwMCcsICctaW1hZScsICc8aW5maWxlLm1hZT4nLCAnLW9tYWUnLCAnPG91dGZpbGUubWFlPic=

>  <r_lp_tautomer_probability>  (221) 
1

>  <r_epik_Ionization_Penalty>  (221) 
0.00313394

>  <r_epik_Ionization_Penalty_Charging>  (221) 
0

>  <r_epik_Ionization_Penalty_Neutral>  (221) 
0.00313394

>  <r_epik_State_Penalty>  (221) 
-0

>  <r_epik_Charging_Adjusted_Penalty>  (221) 
0

>  <i_epik_Tot_Q>  (221) 
1

>  <i_epik_Tot_abs_Q>  (221) 
1

>  <s_lp_Force_Field>  (221) 
OPLS3e

>  <r_lp_Energy>  (221) 
40.6176

>  <b_lp_Chiralities_Consistent>  (221) 
1

>  <s_lp_Variant>  (221) 
68:0-1

>  <s_i_glide_gridfile>  (221) 
pfpi4k_grid

>  <i_i_glide_lignum>  (221) 
3

>  <i_i_glide_rotatable_bonds>  (221) 
1

>  <r_i_docking_score>  (221) 
-4.37466

>  <r_i_glide_ligand_efficiency>  (221) 
-0.230245

>  <r_i_glide_ligand_efficiency_sa>  (221) 
-0.614386

>  <r_i_glide_ligand_efficiency_ln>  (221) 
-1.10907

>  <r_i_glide_gscore>  (221) 
-4.37466

>  <r_i_glide_lipo>  (221) 
-0.405422

>  <r_i_glide_hbond>  (221) 
-0.32

>  <r_i_glide_metal>  (221) 
-0

>  <r_i_glide_rewards>  (221) 
-1.71125

>  <r_i_glide_evdw>  (221) 
-17.908

>  <r_i_glide_ecoul>  (221) 
-7.14386

>  <r_i_glide_erotb>  (221) 
0.232159

>  <r_i_glide_esite>  (221) 
-0.20317

>  <r_i_glide_emodel>  (221) 
-31.3051

>  <r_i_glide_energy>  (221) 
-25.0518

>  <r_i_glide_einternal>  (221) 
0.669735

>  <r_i_glide_intrahb_reward>  (221) 
-0

>  <i_i_glide_confnum>  (221) 
5

>  <i_i_glide_posenum>  (221) 
19

>  <r_i_glide_eff_state_penalty>  (221) 
0

>  <ligand_id>  (221) 
68

>  <original_smiles>  (221) 
Cn1nnnc1-c1cc(Cl)c(=N)n2[nH]cnc(=N)c12

>  <smiles>  (221) 
[H]c1nc(N([H])[H])c2c(-c3nnnn3C([H])([H])[H])c([H])c(Cl)c(N([H])[H])[n+]2n1

$$$$
68:0:1
     RDKit          3D

 28 30  0  0  1  0  0  0  0  0999 V2000
    4.5811   -6.8078    0.5573 C   0  0  0  0  0  0  0  0  0  0  0  0
    3.4637   -6.2929    1.3118 N   0  0  0  0  0  0  0  0  0  0  0  0
    2.7336   -7.1196    2.0933 N   0  0  0  0  0  0  0  0  0  0  0  0
    1.7853   -6.4038    2.6082 N   0  0  0  0  0  0  0  0  0  0  0  0
    1.8721   -5.0907    2.1994 N   0  0  0  0  0  0  0  0  0  0  0  0
    2.9154   -5.0716    1.3745 C   0  0  0  0  0  0  0  0  0  0  0  0
    3.3177   -3.8973    0.6071 C   0  0  0  0  0  0  0  0  0  0  0  0
    2.8390   -3.8523   -0.7155 C   0  0  0  0  0  0  0  0  0  0  0  0
    3.1689   -2.7876   -1.5616 C   0  0  0  0  0  0  0  0  0  0  0  0
    2.6234   -2.7956   -3.2044 Cl  0  0  0  0  0  0  0  0  0  0  0  0
    3.9642   -1.7447   -1.0584 C   0  0  0  0  0  0  0  0  0  0  0  0
    4.3397   -0.6965   -1.9043 N   0  0  0  0  0  0  0  0  0  0  0  0
    4.3995   -1.7718    0.2398 N   0  0  0  0  0  0  0  0  0  0  0  0
    5.1464   -0.7266    0.6575 N   0  0  0  0  0  0  0  0  0  0  0  0
    5.5828   -0.7435    1.9300 C   0  0  0  0  0  0  0  0  0  0  0  0
    5.3799   -1.7033    2.8365 N   0  0  0  0  0  0  0  0  0  0  0  0
    4.6521   -2.7499    2.4218 C   0  0  0  0  0  0  0  0  0  0  0  0
    4.5158   -3.7355    3.3989 N   0  0  0  0  0  0  0  0  0  0  0  0
    4.1127   -2.8187    1.0969 C   0  0  0  0  0  0  0  0  0  0  0  0
    5.2862   -6.0060    0.3392 H   0  0  0  0  0  0  0  0  0  0  0  0
    4.2281   -7.2440   -0.3798 H   0  0  0  0  0  0  0  0  0  0  0  0
    5.0829   -7.5851    1.1392 H   0  0  0  0  0  0  0  0  0  0  0  0
    2.2305   -4.6591   -1.0917 H   0  0  0  0  0  0  0  0  0  0  0  0
    3.9063   -0.6050   -2.8130 H   0  0  0  0  0  0  0  0  0  0  0  0
    6.1748    0.0962    2.2559 H   0  0  0  0  0  0  0  0  0  0  0  0
    3.9284   -4.5523    3.2856 H   0  0  0  0  0  0  0  0  0  0  0  0
    4.7796    0.1258   -1.5134 H   0  0  0  0  0  0  0  0  0  0  0  0
    4.9099   -3.5932    4.3183 H   0  0  0  0  0  0  0  0  0  0  0  0
  1  2  1  0
  1 20  1  0
  1 21  1  0
  1 22  1  0
  2  6  1  0
  2  3  1  0
  3  4  2  0
  4  5  1  0
  5  6  2  0
  6  7  1  0
  7 19  1  0
  7  8  2  0
  8  9  1  0
  8 23  1  0
  9 10  1  0
  9 11  2  0
 11 12  1  0
 11 13  1  0
 12 24  1  0
 12 27  1  0
 13 19  2  0
 13 14  1  0
 14 15  2  0
 15 16  1  0
 15 25  1  0
 16 17  2  0
 17 18  1  0
 17 19  1  0
 18 26  1  0
 18 28  1  0
M  CHG  1  13   1
M  END
>  <i_m_ct_stereo_status>  (222) 
1

>  <s_m_source_file>  (222) 
/var/tmp/pbs.5083856.sched01/tmpmci7z13a/90fdrtcq7s.sdf

>  <i_m_source_file_index>  (222) 
3

>  <i_lp_mmshare_version>  (222) 
48012

>  <i_f3d_flags>  (222) 
0

>  <s_epik_input>  (222) 
W0NIM11uMW5ubmMxLWMoW2NIXWMoQ2wpL2MyPU5cW0hdKWMobjIzKWMoPU5cW0hdKVxuW2NIXVtuSF0z

>  <s_epik_cmdline>  (222) 
J2VwaWtfcHl0aG9uJywgJy1waHQnLCAnMi4wJywgJy1waCcsICc3LjAnLCAnLXRuJywgJzgnLCAnLW1hJywgJzIwMCcsICctaW1hZScsICc8aW5maWxlLm1hZT4nLCAnLW9tYWUnLCAnPG91dGZpbGUubWFlPic=

>  <r_lp_tautomer_probability>  (222) 
1

>  <r_epik_Ionization_Penalty>  (222) 
0.00313394

>  <r_epik_Ionization_Penalty_Charging>  (222) 
0

>  <r_epik_Ionization_Penalty_Neutral>  (222) 
0.00313394

>  <r_epik_State_Penalty>  (222) 
-0

>  <r_epik_Charging_Adjusted_Penalty>  (222) 
0

>  <i_epik_Tot_Q>  (222) 
1

>  <i_epik_Tot_abs_Q>  (222) 
1

>  <s_lp_Force_Field>  (222) 
OPLS3e

>  <r_lp_Energy>  (222) 
40.6176

>  <b_lp_Chiralities_Consistent>  (222) 
1

>  <s_lp_Variant>  (222) 
68:0-1

>  <s_i_glide_gridfile>  (222) 
pfpi4k_grid

>  <i_i_glide_lignum>  (222) 
3

>  <i_i_glide_rotatable_bonds>  (222) 
1

>  <r_i_docking_score>  (222) 
-3.78007

>  <r_i_glide_ligand_efficiency>  (222) 
-0.198951

>  <r_i_glide_ligand_efficiency_sa>  (222) 
-0.530882

>  <r_i_glide_ligand_efficiency_ln>  (222) 
-0.95833

>  <r_i_glide_gscore>  (222) 
-3.78007

>  <r_i_glide_lipo>  (222) 
-0.281877

>  <r_i_glide_hbond>  (222) 
-0.315195

>  <r_i_glide_metal>  (222) 
-0

>  <r_i_glide_rewards>  (222) 
-1.70999

>  <r_i_glide_evdw>  (222) 
-22.4307

>  <r_i_glide_ecoul>  (222) 
-3.25042

>  <r_i_glide_erotb>  (222) 
0.232159

>  <r_i_glide_esite>  (222) 
-0.096074

>  <r_i_glide_emodel>  (222) 
-32.3847

>  <r_i_glide_energy>  (222) 
-25.6811

>  <r_i_glide_einternal>  (222) 
0.159238

>  <r_i_glide_intrahb_reward>  (222) 
-0

>  <i_i_glide_confnum>  (222) 
5

>  <i_i_glide_posenum>  (222) 
12

>  <r_i_glide_eff_state_penalty>  (222) 
0

>  <ligand_id>  (222) 
68

>  <original_smiles>  (222) 
Cn1nnnc1-c1cc(Cl)c(=N)n2[nH]cnc(=N)c12

>  <smiles>  (222) 
[H]c1nc(N([H])[H])c2c(-c3nnnn3C([H])([H])[H])c([H])c(Cl)c(N([H])[H])[n+]2n1

$$$$
68:0:2
     RDKit          3D

 28 30  0  0  1  0  0  0  0  0999 V2000
    3.2422   -5.2268    3.8143 C   0  0  0  0  0  0  0  0  0  0  0  0
    2.5686   -5.5645    2.5715 N   0  0  0  0  0  0  0  0  0  0  0  0
    1.3004   -6.0566    2.5924 N   0  0  0  0  0  0  0  0  0  0  0  0
    0.9481   -6.2593    1.3795 N   0  0  0  0  0  0  0  0  0  0  0  0
    1.9420   -5.8736    0.4968 N   0  0  0  0  0  0  0  0  0  0  0  0
    2.9429   -5.4863    1.2829 C   0  0  0  0  0  0  0  0  0  0  0  0
    4.2231   -5.0072    0.7575 C   0  0  0  0  0  0  0  0  0  0  0  0
    4.1299   -3.8876   -0.1142 C   0  0  0  0  0  0  0  0  0  0  0  0
    5.2973   -3.3055   -0.6366 C   0  0  0  0  0  0  0  0  0  0  0  0
    5.1751   -1.9438   -1.7017 Cl  0  0  0  0  0  0  0  0  0  0  0  0
    6.5502   -3.8297   -0.2700 C   0  0  0  0  0  0  0  0  0  0  0  0
    7.7183   -3.2464   -0.7712 N   0  0  0  0  0  0  0  0  0  0  0  0
    6.6368   -4.9175    0.5523 N   0  0  0  0  0  0  0  0  0  0  0  0
    7.8734   -5.3731    0.8422 N   0  0  0  0  0  0  0  0  0  0  0  0
    7.9907   -6.4494    1.6401 C   0  0  0  0  0  0  0  0  0  0  0  0
    6.9792   -7.1533    2.1579 N   0  0  0  0  0  0  0  0  0  0  0  0
    5.7462   -6.7402    1.8390 C   0  0  0  0  0  0  0  0  0  0  0  0
    4.7583   -7.6040    2.3021 N   0  0  0  0  0  0  0  0  0  0  0  0
    5.5082   -5.5530    1.0614 C   0  0  0  0  0  0  0  0  0  0  0  0
    4.0176   -4.4791    3.6218 H   0  0  0  0  0  0  0  0  0  0  0  0
    3.7072   -6.1156    4.2514 H   0  0  0  0  0  0  0  0  0  0  0  0
    2.5261   -4.8396    4.5474 H   0  0  0  0  0  0  0  0  0  0  0  0
    3.1616   -3.4812   -0.3697 H   0  0  0  0  0  0  0  0  0  0  0  0
    7.6770   -2.5110   -1.4665 H   0  0  0  0  0  0  0  0  0  0  0  0
    8.9894   -6.8078    1.8554 H   0  0  0  0  0  0  0  0  0  0  0  0
    3.7979   -7.2809    2.3647 H   0  0  0  0  0  0  0  0  0  0  0  0
    8.6229   -3.6478   -0.5801 H   0  0  0  0  0  0  0  0  0  0  0  0
    5.0183   -8.2413    3.0424 H   0  0  0  0  0  0  0  0  0  0  0  0
  1  2  1  0
  1 20  1  0
  1 21  1  0
  1 22  1  0
  2  6  1  0
  2  3  1  0
  3  4  2  0
  4  5  1  0
  5  6  2  0
  6  7  1  0
  7 19  1  0
  7  8  2  0
  8  9  1  0
  8 23  1  0
  9 10  1  0
  9 11  2  0
 11 12  1  0
 11 13  1  0
 12 24  1  0
 12 27  1  0
 13 19  2  0
 13 14  1  0
 14 15  2  0
 15 16  1  0
 15 25  1  0
 16 17  2  0
 17 18  1  0
 17 19  1  0
 18 26  1  0
 18 28  1  0
M  CHG  1  13   1
M  END
>  <i_m_ct_stereo_status>  (223) 
1

>  <s_m_source_file>  (223) 
/var/tmp/pbs.5083856.sched01/tmpmci7z13a/90fdrtcq7s.sdf

>  <i_m_source_file_index>  (223) 
3

>  <i_lp_mmshare_version>  (223) 
48012

>  <i_f3d_flags>  (223) 
0

>  <s_epik_input>  (223) 
W0NIM11uMW5ubmMxLWMoW2NIXWMoQ2wpL2MyPU5cW0hdKWMobjIzKWMoPU5cW0hdKVxuW2NIXVtuSF0z

>  <s_epik_cmdline>  (223) 
J2VwaWtfcHl0aG9uJywgJy1waHQnLCAnMi4wJywgJy1waCcsICc3LjAnLCAnLXRuJywgJzgnLCAnLW1hJywgJzIwMCcsICctaW1hZScsICc8aW5maWxlLm1hZT4nLCAnLW9tYWUnLCAnPG91dGZpbGUubWFlPic=

>  <r_lp_tautomer_probability>  (223) 
1

>  <r_epik_Ionization_Penalty>  (223) 
0.00313394

>  <r_epik_Ionization_Penalty_Charging>  (223) 
0

>  <r_epik_Ionization_Penalty_Neutral>  (223) 
0.00313394

>  <r_epik_State_Penalty>  (223) 
-0

>  <r_epik_Charging_Adjusted_Penalty>  (223) 
0

>  <i_epik_Tot_Q>  (223) 
1

>  <i_epik_Tot_abs_Q>  (223) 
1

>  <s_lp_Force_Field>  (223) 
OPLS3e

>  <r_lp_Energy>  (223) 
40.6176

>  <b_lp_Chiralities_Consistent>  (223) 
1

>  <s_lp_Variant>  (223) 
68:0-1

>  <s_i_glide_gridfile>  (223) 
pfpi4k_grid

>  <i_i_glide_lignum>  (223) 
3

>  <i_i_glide_rotatable_bonds>  (223) 
1

>  <r_i_docking_score>  (223) 
-3.59159

>  <r_i_glide_ligand_efficiency>  (223) 
-0.189031

>  <r_i_glide_ligand_efficiency_sa>  (223) 
-0.50441

>  <r_i_glide_ligand_efficiency_ln>  (223) 
-0.910544

>  <r_i_glide_gscore>  (223) 
-3.59159

>  <r_i_glide_lipo>  (223) 
-0.311176

>  <r_i_glide_hbond>  (223) 
0

>  <r_i_glide_metal>  (223) 
-0

>  <r_i_glide_rewards>  (223) 
-1.66669

>  <r_i_glide_evdw>  (223) 
-21.5502

>  <r_i_glide_ecoul>  (223) 
-3.49754

>  <r_i_glide_erotb>  (223) 
0.232159

>  <r_i_glide_esite>  (223) 
-0.243732

>  <r_i_glide_emodel>  (223) 
-31.1252

>  <r_i_glide_energy>  (223) 
-25.0478

>  <r_i_glide_einternal>  (223) 
0.18972

>  <r_i_glide_intrahb_reward>  (223) 
-0

>  <i_i_glide_confnum>  (223) 
4

>  <i_i_glide_posenum>  (223) 
28

>  <r_i_glide_eff_state_penalty>  (223) 
0

>  <ligand_id>  (223) 
68

>  <original_smiles>  (223) 
Cn1nnnc1-c1cc(Cl)c(=N)n2[nH]cnc(=N)c12

>  <smiles>  (223) 
[H]c1nc(N([H])[H])c2c(-c3nnnn3C([H])([H])[H])c([H])c(Cl)c(N([H])[H])[n+]2n1

$$$$
69:0:0
     RDKit          3D

 72 77  0  0  1  0  0  0  0  0999 V2000
   -3.7726    3.3296    2.5835 C   0  0  0  0  0  0  0  0  0  0  0  0
   -2.7739    2.7414    3.4012 O   0  0  0  0  0  0  0  0  0  0  0  0
   -1.6939    2.2172    2.6442 C   0  0  0  0  0  0  0  0  0  0  0  0
   -0.6969    1.5139    3.5527 C   0  0  0  0  0  0  0  0  0  0  0  0
   -1.0236    0.3311    4.0979 C   0  0  0  0  0  0  0  0  0  0  0  0
   -0.1489   -0.4186    5.0616 C   0  0  1  0  0  0  0  0  0  0  0  0
    1.1907   -0.8398    4.3711 C   0  0  0  0  0  0  0  0  0  0  0  0
    2.3582    0.2129    4.4331 C   0  0  2  0  0  0  0  0  0  0  0  0
    2.9514    0.3465    3.1321 O   0  0  0  0  0  0  0  0  0  0  0  0
    3.7114   -0.6441    2.5436 C   0  0  0  0  0  0  0  0  0  0  0  0
    4.2876   -0.3801    1.2941 C   0  0  0  0  0  0  0  0  0  0  0  0
    5.1199   -1.3471    0.7060 C   0  0  0  0  0  0  0  0  0  0  0  0
    5.7085   -1.0566   -0.5260 N   0  0  0  0  0  0  0  0  0  0  0  0
    5.3461   -2.5651    1.3930 C   0  0  0  0  0  0  0  0  0  0  0  0
    6.1717   -3.5855    0.8647 C   0  0  0  0  0  0  0  0  0  0  0  0
    6.4032   -4.7694    1.5874 C   0  0  0  0  0  0  0  0  0  0  0  0
    7.5497   -6.1180    0.8844 Br  0  0  0  0  0  0  0  0  0  0  0  0
    5.8002   -4.9438    2.8478 C   0  0  0  0  0  0  0  0  0  0  0  0
    4.9746   -3.9353    3.3790 C   0  0  0  0  0  0  0  0  0  0  0  0
    4.7202   -2.7463    2.6624 C   0  0  0  0  0  0  0  0  0  0  0  0
    3.9097   -1.8081    3.1962 N   0  0  0  0  0  0  0  0  0  0  0  0
    3.3910   -0.0218    5.6154 C   0  0  2  0  0  0  0  0  0  0  0  0
    4.6386    0.9178    5.5063 C   0  0  0  0  0  0  0  0  0  0  0  0
    3.9406   -1.3711    6.1553 C   0  0  0  0  0  0  0  0  0  0  0  0
    4.0812   -1.1773    7.7087 C   0  0  0  0  0  0  0  0  0  0  0  0
    3.5232   -2.4268    8.4207 C   0  0  0  0  0  0  0  0  0  0  0  0
    5.5499   -0.9988    8.1503 C   0  0  0  0  0  0  0  0  0  0  0  0
    3.2372    0.0971    8.0470 C   0  0  0  0  0  0  0  0  0  0  0  0
    2.4309    0.2400    6.7624 C   0  0  1  0  0  0  0  0  0  0  0  0
    1.3393    1.2899    6.3370 C   0  0  2  0  0  0  0  0  0  0  0  0
    1.2680    2.4931    7.3034 C   0  0  0  0  0  0  0  0  0  0  0  0
    0.0045    0.5186    6.2762 C   0  0  0  0  0  0  0  0  0  0  0  0
   -0.8821    0.6155    7.1301 O   0  0  0  0  0  0  0  0  0  0  0  0
    1.6989    1.6078    4.8335 C   0  0  1  0  0  0  0  0  0  0  0  0
    2.6254    2.6746    4.8664 O   0  0  0  0  0  0  0  0  0  0  0  0
    0.6207    2.2501    3.8454 C   0  0  1  0  0  0  0  0  0  0  0  0
    1.2730    2.5480    2.6098 O   0  0  0  0  0  0  0  0  0  0  0  0
   -4.6034    3.6515    3.2081 H   0  0  0  0  0  0  0  0  0  0  0  0
   -4.1723    2.6303    1.8439 H   0  0  0  0  0  0  0  0  0  0  0  0
   -3.3796    4.2101    2.0788 H   0  0  0  0  0  0  0  0  0  0  0  0
   -2.0551    1.5028    1.9039 H   0  0  0  0  0  0  0  0  0  0  0  0
   -1.2126    3.0165    2.0904 H   0  0  0  0  0  0  0  0  0  0  0  0
   -1.9825   -0.1186    3.8941 H   0  0  0  0  0  0  0  0  0  0  0  0
   -0.6973   -1.3051    5.3758 H   0  0  0  0  0  0  0  0  0  0  0  0
    1.5114   -1.8026    4.7687 H   0  0  0  0  0  0  0  0  0  0  0  0
    0.9666   -1.0391    3.3205 H   0  0  0  0  0  0  0  0  0  0  0  0
    4.0871    0.5657    0.8134 H   0  0  0  0  0  0  0  0  0  0  0  0
    6.1548   -1.7768   -1.0719 H   0  0  0  0  0  0  0  0  0  0  0  0
    6.6372   -3.4716   -0.0978 H   0  0  0  0  0  0  0  0  0  0  0  0
    5.9796   -5.8547    3.4086 H   0  0  0  0  0  0  0  0  0  0  0  0
    4.5370   -4.0674    4.3573 H   0  0  0  0  0  0  0  0  0  0  0  0
    5.5799    0.3995    5.6753 H   0  0  0  0  0  0  0  0  0  0  0  0
    4.6032    1.7525    6.2077 H   0  0  0  0  0  0  0  0  0  0  0  0
    4.7473    1.3377    4.5075 H   0  0  0  0  0  0  0  0  0  0  0  0
    3.2621   -2.1957    5.9441 H   0  0  0  0  0  0  0  0  0  0  0  0
    4.8911   -1.6524    5.7080 H   0  0  0  0  0  0  0  0  0  0  0  0
    3.5811   -2.3241    9.5045 H   0  0  0  0  0  0  0  0  0  0  0  0
    4.0893   -3.3176    8.1439 H   0  0  0  0  0  0  0  0  0  0  0  0
    2.4799   -2.6075    8.1584 H   0  0  0  0  0  0  0  0  0  0  0  0
    5.6272   -0.9609    9.2362 H   0  0  0  0  0  0  0  0  0  0  0  0
    5.9912   -0.0782    7.7728 H   0  0  0  0  0  0  0  0  0  0  0  0
    6.1734   -1.8254    7.8085 H   0  0  0  0  0  0  0  0  0  0  0  0
    2.6077   -0.0368    8.9271 H   0  0  0  0  0  0  0  0  0  0  0  0
    3.8669    0.9703    8.2138 H   0  0  0  0  0  0  0  0  0  0  0  0
    1.8564   -0.6838    6.8756 H   0  0  0  0  0  0  0  0  0  0  0  0
    2.2407    2.9702    7.4297 H   0  0  0  0  0  0  0  0  0  0  0  0
    0.9498    2.1710    8.2944 H   0  0  0  0  0  0  0  0  0  0  0  0
    0.5628    3.2497    6.9598 H   0  0  0  0  0  0  0  0  0  0  0  0
    2.8321    2.8359    3.9521 H   0  0  0  0  0  0  0  0  0  0  0  0
    0.3068    3.2066    4.2738 H   0  0  0  0  0  0  0  0  0  0  0  0
    0.7423    3.1501    2.0893 H   0  0  0  0  0  0  0  0  0  0  0  0
    5.4072   -0.2131   -1.0177 H   0  0  0  0  0  0  0  0  0  0  0  0
  1  2  1  0
  1 38  1  0
  1 39  1  0
  1 40  1  0
  2  3  1  0
  3  4  1  0
  3 41  1  0
  3 42  1  0
  4 36  1  0
  4  5  2  0
  5  6  1  0
  5 43  1  0
  6 32  1  0
  6  7  1  0
  6 44  1  1
  7  8  1  0
  7 45  1  0
  7 46  1  0
  8 34  1  0
  8  9  1  6
  8 22  1  0
  9 10  1  0
 10 21  1  0
 10 11  2  0
 11 12  1  0
 11 47  1  0
 12 13  1  0
 12 14  2  0
 13 48  1  0
 13 72  1  0
 14 20  1  0
 14 15  1  0
 15 16  2  0
 15 49  1  0
 16 17  1  0
 16 18  1  0
 18 19  2  0
 18 50  1  0
 19 20  1  0
 19 51  1  0
 20 21  2  0
 22 29  1  0
 22 23  1  6
 22 24  1  0
 23 52  1  0
 23 53  1  0
 23 54  1  0
 24 25  1  0
 24 55  1  0
 24 56  1  0
 25 26  1  0
 25 27  1  0
 25 28  1  0
 26 57  1  0
 26 58  1  0
 26 59  1  0
 27 60  1  0
 27 61  1  0
 27 62  1  0
 28 29  1  0
 28 63  1  0
 28 64  1  0
 29 30  1  0
 29 65  1  1
 30 31  1  1
 30 32  1  0
 30 34  1  0
 31 66  1  0
 31 67  1  0
 31 68  1  0
 32 33  2  0
 34 35  1  1
 34 36  1  0
 35 69  1  0
 36 37  1  0
 36 70  1  1
 37 71  1  0
M  END
>  <i_m_ct_stereo_status>  (224) 
1

>  <s_m_source_file>  (224) 
/var/tmp/pbs.5083856.sched01/tmpmci7z13a/90fdrtcq7s.sdf

>  <i_m_source_file_index>  (224) 
4

>  <i_lp_mmshare_version>  (224) 
48012

>  <i_f3d_flags>  (224) 
0

>  <s_epik_input>  (224) 
Tz1DMVtDQEhdKFtDSDJdMilbQ0hdPUMoW0NIMl1PW0NIM10pW0NASF0oW09IXSlbQ0BAXTMoW09IXSlbQ0BdMShbQ0gzXSlbQ0BIXShbQ0gyXUMoW0NIMl00KShbQ0gzXSlbQ0gzXSlbQ0BdNChbQ0gzXSlbQ0BAXTIzT2MoW2NIXS9jNT1OL1tIXSlbbkhdYyhjNTYpW2NIXVtjSF1jKEJyKVtjSF02

>  <s_epik_cmdline>  (224) 
J2VwaWtfcHl0aG9uJywgJy1waHQnLCAnMi4wJywgJy1waCcsICc3LjAnLCAnLXRuJywgJzgnLCAnLW1hJywgJzIwMCcsICctaW1hZScsICc8aW5maWxlLm1hZT4nLCAnLW9tYWUnLCAnPG91dGZpbGUubWFlPic=

>  <r_epik_Ionization_Penalty>  (224) 
0.0257796

>  <r_epik_Ionization_Penalty_Charging>  (224) 
0

>  <r_epik_Ionization_Penalty_Neutral>  (224) 
0.0257796

>  <r_epik_State_Penalty>  (224) 
0.194574

>  <r_epik_Charging_Adjusted_Penalty>  (224) 
0.194574

>  <i_epik_Tot_Q>  (224) 
0

>  <i_epik_Tot_abs_Q>  (224) 
0

>  <s_lp_Force_Field>  (224) 
OPLS3e

>  <r_lp_Energy>  (224) 
98.9212

>  <b_lp_Chiralities_Consistent>  (224) 
1

>  <s_lp_Variant>  (224) 
69:0-1

>  <s_i_glide_gridfile>  (224) 
pfpi4k_grid

>  <i_i_glide_lignum>  (224) 
4

>  <i_i_glide_rotatable_bonds>  (224) 
6

>  <r_i_docking_score>  (224) 
-3.14268

>  <r_i_glide_ligand_efficiency>  (224) 
-0.0849373

>  <r_i_glide_ligand_efficiency_sa>  (224) 
-0.28303

>  <r_i_glide_ligand_efficiency_ln>  (224) 
-0.681574

>  <r_i_glide_gscore>  (224) 
-3.14268

>  <r_i_glide_lipo>  (224) 
-0.626117

>  <r_i_glide_hbond>  (224) 
-0.235795

>  <r_i_glide_metal>  (224) 
-0

>  <r_i_glide_rewards>  (224) 
0

>  <r_i_glide_evdw>  (224) 
-28.1949

>  <r_i_glide_ecoul>  (224) 
-6.02148

>  <r_i_glide_erotb>  (224) 
0.100227

>  <r_i_glide_esite>  (224) 
-0.0680285

>  <r_i_glide_emodel>  (224) 
-39.5723

>  <r_i_glide_energy>  (224) 
-34.2164

>  <r_i_glide_einternal>  (224) 
3.22305

>  <r_i_glide_intrahb_reward>  (224) 
-0

>  <i_i_glide_confnum>  (224) 
2

>  <i_i_glide_posenum>  (224) 
19

>  <r_i_glide_eff_state_penalty>  (224) 
0

>  <ligand_id>  (224) 
69

>  <original_smiles>  (224) 
COCC1=CC2CC3(Oc4cc(=N)c5cc(Br)ccc5[nH]4)C4(C)CC(C)(C)CC4C(C)(C2=O)C3(O)C1O

>  <smiles>  (224) 
[H]OC1([H])C(C([H])([H])OC([H])([H])[H])=C([H])C2([H])C(=O)C3(C([H])([H])[H])C4([H])C([H])([H])C(C([H])([H])[H])(C([H])([H])[H])C([H])([H])C4(C([H])([H])[H])C(Oc4nc5c([H])c([H])c(Br)c([H])c5c(N([H])[H])c4[H])(C2([H])[H])C13O[H]

$$$$
69:0:1
     RDKit          3D

 72 77  0  0  1  0  0  0  0  0999 V2000
   -3.5201    3.2492    2.5300 C   0  0  0  0  0  0  0  0  0  0  0  0
   -2.5724    2.5644    3.3349 O   0  0  0  0  0  0  0  0  0  0  0  0
   -1.4672    2.0679    2.5896 C   0  0  0  0  0  0  0  0  0  0  0  0
   -0.5664    1.2226    3.4809 C   0  0  0  0  0  0  0  0  0  0  0  0
   -1.1086    0.2426    4.2211 C   0  0  0  0  0  0  0  0  0  0  0  0
   -0.3284   -0.6066    5.1814 C   0  0  1  0  0  0  0  0  0  0  0  0
    0.7502   -1.4473    4.4235 C   0  0  0  0  0  0  0  0  0  0  0  0
    2.1471   -0.7528    4.2113 C   0  0  2  0  0  0  0  0  0  0  0  0
    2.5336   -0.9252    2.8407 O   0  0  0  0  0  0  0  0  0  0  0  0
    2.8472   -2.1567    2.3002 C   0  0  0  0  0  0  0  0  0  0  0  0
    2.9010   -2.2709    0.9063 C   0  0  0  0  0  0  0  0  0  0  0  0
    3.2276   -3.5091    0.3284 C   0  0  0  0  0  0  0  0  0  0  0  0
    3.2467   -3.5995   -1.0641 N   0  0  0  0  0  0  0  0  0  0  0  0
    3.5166   -4.5999    1.1834 C   0  0  0  0  0  0  0  0  0  0  0  0
    3.8578   -5.8767    0.6764 C   0  0  0  0  0  0  0  0  0  0  0  0
    4.1584   -6.9358    1.5537 C   0  0  0  0  0  0  0  0  0  0  0  0
    4.6148   -8.6552    0.8816 Br  0  0  0  0  0  0  0  0  0  0  0  0
    4.1272   -6.7245    2.9434 C   0  0  0  0  0  0  0  0  0  0  0  0
    3.7773   -5.4613    3.4540 C   0  0  0  0  0  0  0  0  0  0  0  0
    3.4547   -4.3906    2.5927 C   0  0  0  0  0  0  0  0  0  0  0  0
    3.0960   -3.1995    3.1150 N   0  0  0  0  0  0  0  0  0  0  0  0
    3.2399   -1.1276    5.3001 C   0  0  2  0  0  0  0  0  0  0  0  0
    4.6573   -0.5760    4.9283 C   0  0  0  0  0  0  0  0  0  0  0  0
    3.4962   -2.5076    5.9663 C   0  0  0  0  0  0  0  0  0  0  0  0
    3.8934   -2.1944    7.4515 C   0  0  0  0  0  0  0  0  0  0  0  0
    3.1392   -3.1647    8.3844 C   0  0  0  0  0  0  0  0  0  0  0  0
    5.4066   -2.3733    7.7054 C   0  0  0  0  0  0  0  0  0  0  0  0
    3.4572   -0.7106    7.6937 C   0  0  0  0  0  0  0  0  0  0  0  0
    2.5449   -0.4947    6.4936 C   0  0  1  0  0  0  0  0  0  0  0  0
    1.7108    0.7596    6.0416 C   0  0  2  0  0  0  0  0  0  0  0  0
    2.0807    2.0330    6.8330 C   0  0  0  0  0  0  0  0  0  0  0  0
    0.2276    0.3772    6.2285 C   0  0  0  0  0  0  0  0  0  0  0  0
   -0.4760    0.7992    7.1500 O   0  0  0  0  0  0  0  0  0  0  0  0
    1.9313    0.8013    4.4800 C   0  0  1  0  0  0  0  0  0  0  0  0
    3.0940    1.5818    4.2702 O   0  0  0  0  0  0  0  0  0  0  0  0
    0.9243    1.5913    3.5279 C   0  0  1  0  0  0  0  0  0  0  0  0
    1.4372    1.5753    2.2022 O   0  0  0  0  0  0  0  0  0  0  0  0
   -4.3574    3.5626    3.1562 H   0  0  0  0  0  0  0  0  0  0  0  0
   -3.9257    2.6082    1.7422 H   0  0  0  0  0  0  0  0  0  0  0  0
   -3.0824    4.1411    2.0816 H   0  0  0  0  0  0  0  0  0  0  0  0
   -1.8062    1.4415    1.7637 H   0  0  0  0  0  0  0  0  0  0  0  0
   -0.9181    2.9027    2.1636 H   0  0  0  0  0  0  0  0  0  0  0  0
   -2.1709    0.0557    4.1724 H   0  0  0  0  0  0  0  0  0  0  0  0
   -1.0361   -1.2724    5.6732 H   0  0  0  0  0  0  0  0  0  0  0  0
    0.8675   -2.4128    4.9129 H   0  0  0  0  0  0  0  0  0  0  0  0
    0.3358   -1.6911    3.4421 H   0  0  0  0  0  0  0  0  0  0  0  0
    2.6529   -1.4157    0.2957 H   0  0  0  0  0  0  0  0  0  0  0  0
    3.3759   -4.4793   -1.5616 H   0  0  0  0  0  0  0  0  0  0  0  0
    3.8902   -6.0551   -0.3820 H   0  0  0  0  0  0  0  0  0  0  0  0
    4.3652   -7.5416    3.6110 H   0  0  0  0  0  0  0  0  0  0  0  0
    3.7630   -5.3135    4.5224 H   0  0  0  0  0  0  0  0  0  0  0  0
    5.4498   -1.3070    5.0674 H   0  0  0  0  0  0  0  0  0  0  0  0
    4.9339    0.3072    5.5047 H   0  0  0  0  0  0  0  0  0  0  0  0
    4.7265   -0.3127    3.8739 H   0  0  0  0  0  0  0  0  0  0  0  0
    2.6087   -3.1369    5.9368 H   0  0  0  0  0  0  0  0  0  0  0  0
    4.2785   -3.0808    5.4732 H   0  0  0  0  0  0  0  0  0  0  0  0
    3.3694   -2.9667    9.4312 H   0  0  0  0  0  0  0  0  0  0  0  0
    3.4154   -4.1993    8.1760 H   0  0  0  0  0  0  0  0  0  0  0  0
    2.0588   -3.0835    8.2595 H   0  0  0  0  0  0  0  0  0  0  0  0
    5.6423   -2.2420    8.7605 H   0  0  0  0  0  0  0  0  0  0  0  0
    6.0103   -1.6516    7.1577 H   0  0  0  0  0  0  0  0  0  0  0  0
    5.7461   -3.3683    7.4172 H   0  0  0  0  0  0  0  0  0  0  0  0
    2.9434   -0.5739    8.6458 H   0  0  0  0  0  0  0  0  0  0  0  0
    4.3053   -0.0272    7.6681 H   0  0  0  0  0  0  0  0  0  0  0  0
    1.7754   -1.2107    6.7959 H   0  0  0  0  0  0  0  0  0  0  0  0
    3.1503    2.2416    6.7894 H   0  0  0  0  0  0  0  0  0  0  0  0
    1.8307    1.9187    7.8886 H   0  0  0  0  0  0  0  0  0  0  0  0
    1.5506    2.9107    6.4630 H   0  0  0  0  0  0  0  0  0  0  0  0
    3.1795    1.6645    3.3282 H   0  0  0  0  0  0  0  0  0  0  0  0
    0.9346    2.6393    3.8383 H   0  0  0  0  0  0  0  0  0  0  0  0
    1.1920    0.7568    1.7891 H   0  0  0  0  0  0  0  0  0  0  0  0
    2.9342   -2.8117   -1.6188 H   0  0  0  0  0  0  0  0  0  0  0  0
  1  2  1  0
  1 38  1  0
  1 39  1  0
  1 40  1  0
  2  3  1  0
  3  4  1  0
  3 41  1  0
  3 42  1  0
  4 36  1  0
  4  5  2  0
  5  6  1  0
  5 43  1  0
  6 32  1  0
  6  7  1  0
  6 44  1  1
  7  8  1  0
  7 45  1  0
  7 46  1  0
  8 34  1  0
  8  9  1  6
  8 22  1  0
  9 10  1  0
 10 21  1  0
 10 11  2  0
 11 12  1  0
 11 47  1  0
 12 13  1  0
 12 14  2  0
 13 48  1  0
 13 72  1  0
 14 20  1  0
 14 15  1  0
 15 16  2  0
 15 49  1  0
 16 17  1  0
 16 18  1  0
 18 19  2  0
 18 50  1  0
 19 20  1  0
 19 51  1  0
 20 21  2  0
 22 29  1  0
 22 23  1  6
 22 24  1  0
 23 52  1  0
 23 53  1  0
 23 54  1  0
 24 25  1  0
 24 55  1  0
 24 56  1  0
 25 26  1  0
 25 27  1  0
 25 28  1  0
 26 57  1  0
 26 58  1  0
 26 59  1  0
 27 60  1  0
 27 61  1  0
 27 62  1  0
 28 29  1  0
 28 63  1  0
 28 64  1  0
 29 30  1  0
 29 65  1  1
 30 31  1  1
 30 32  1  0
 30 34  1  0
 31 66  1  0
 31 67  1  0
 31 68  1  0
 32 33  2  0
 34 35  1  1
 34 36  1  0
 35 69  1  0
 36 37  1  0
 36 70  1  1
 37 71  1  0
M  END
>  <i_m_ct_stereo_status>  (225) 
1

>  <s_m_source_file>  (225) 
/var/tmp/pbs.5083856.sched01/tmpmci7z13a/90fdrtcq7s.sdf

>  <i_m_source_file_index>  (225) 
4

>  <i_lp_mmshare_version>  (225) 
48012

>  <i_f3d_flags>  (225) 
0

>  <s_epik_input>  (225) 
Tz1DMVtDQEhdKFtDSDJdMilbQ0hdPUMoW0NIMl1PW0NIM10pW0NASF0oW09IXSlbQ0BAXTMoW09IXSlbQ0BdMShbQ0gzXSlbQ0BIXShbQ0gyXUMoW0NIMl00KShbQ0gzXSlbQ0gzXSlbQ0BdNChbQ0gzXSlbQ0BAXTIzT2MoW2NIXS9jNT1OL1tIXSlbbkhdYyhjNTYpW2NIXVtjSF1jKEJyKVtjSF02

>  <s_epik_cmdline>  (225) 
J2VwaWtfcHl0aG9uJywgJy1waHQnLCAnMi4wJywgJy1waCcsICc3LjAnLCAnLXRuJywgJzgnLCAnLW1hJywgJzIwMCcsICctaW1hZScsICc8aW5maWxlLm1hZT4nLCAnLW9tYWUnLCAnPG91dGZpbGUubWFlPic=

>  <r_epik_Ionization_Penalty>  (225) 
0.0257796

>  <r_epik_Ionization_Penalty_Charging>  (225) 
0

>  <r_epik_Ionization_Penalty_Neutral>  (225) 
0.0257796

>  <r_epik_State_Penalty>  (225) 
0.194574

>  <r_epik_Charging_Adjusted_Penalty>  (225) 
0.194574

>  <i_epik_Tot_Q>  (225) 
0

>  <i_epik_Tot_abs_Q>  (225) 
0

>  <s_lp_Force_Field>  (225) 
OPLS3e

>  <r_lp_Energy>  (225) 
98.9212

>  <b_lp_Chiralities_Consistent>  (225) 
1

>  <s_lp_Variant>  (225) 
69:0-1

>  <s_i_glide_gridfile>  (225) 
pfpi4k_grid

>  <i_i_glide_lignum>  (225) 
4

>  <i_i_glide_rotatable_bonds>  (225) 
6

>  <r_i_docking_score>  (225) 
-2.71704

>  <r_i_glide_ligand_efficiency>  (225) 
-0.0734336

>  <r_i_glide_ligand_efficiency_sa>  (225) 
-0.244697

>  <r_i_glide_ligand_efficiency_ln>  (225) 
-0.589263

>  <r_i_glide_gscore>  (225) 
-2.71704

>  <r_i_glide_lipo>  (225) 
-0.185281

>  <r_i_glide_hbond>  (225) 
-0.32

>  <r_i_glide_metal>  (225) 
-0

>  <r_i_glide_rewards>  (225) 
0

>  <r_i_glide_evdw>  (225) 
-29.1156

>  <r_i_glide_ecoul>  (225) 
-5.62639

>  <r_i_glide_erotb>  (225) 
0.100227

>  <r_i_glide_esite>  (225) 
-0.012251

>  <r_i_glide_emodel>  (225) 
-38.6667

>  <r_i_glide_energy>  (225) 
-34.742

>  <r_i_glide_einternal>  (225) 
3.84599

>  <r_i_glide_intrahb_reward>  (225) 
-0

>  <i_i_glide_confnum>  (225) 
2

>  <i_i_glide_posenum>  (225) 
21

>  <r_i_glide_eff_state_penalty>  (225) 
0

>  <ligand_id>  (225) 
69

>  <original_smiles>  (225) 
COCC1=CC2CC3(Oc4cc(=N)c5cc(Br)ccc5[nH]4)C4(C)CC(C)(C)CC4C(C)(C2=O)C3(O)C1O

>  <smiles>  (225) 
[H]OC1([H])C(C([H])([H])OC([H])([H])[H])=C([H])C2([H])C(=O)C3(C([H])([H])[H])C4([H])C([H])([H])C(C([H])([H])[H])(C([H])([H])[H])C([H])([H])C4(C([H])([H])[H])C(Oc4nc5c([H])c([H])c(Br)c([H])c5c(N([H])[H])c4[H])(C2([H])[H])C13O[H]

$$$$
69:0:2
     RDKit          3D

 72 77  0  0  1  0  0  0  0  0999 V2000
   -0.6413   -4.3332   10.0145 C   0  0  0  0  0  0  0  0  0  0  0  0
   -0.9515   -3.5272    8.8922 O   0  0  0  0  0  0  0  0  0  0  0  0
   -1.0845   -4.2339    7.6642 C   0  0  0  0  0  0  0  0  0  0  0  0
    0.2539   -4.7115    7.1119 C   0  0  0  0  0  0  0  0  0  0  0  0
    0.2905   -5.8495    6.3893 C   0  0  0  0  0  0  0  0  0  0  0  0
    1.5593   -6.4652    5.8827 C   0  0  1  0  0  0  0  0  0  0  0  0
    2.2698   -5.5044    4.8833 C   0  0  0  0  0  0  0  0  0  0  0  0
    3.2574   -4.4474    5.5038 C   0  0  2  0  0  0  0  0  0  0  0  0
    2.9868   -3.1528    4.9584 O   0  0  0  0  0  0  0  0  0  0  0  0
    3.1796   -2.8530    3.6250 C   0  0  0  0  0  0  0  0  0  0  0  0
    2.8775   -1.5662    3.1861 C   0  0  0  0  0  0  0  0  0  0  0  0
    3.0864   -1.2271    1.8449 C   0  0  0  0  0  0  0  0  0  0  0  0
    2.8282    0.0831    1.4365 N   0  0  0  0  0  0  0  0  0  0  0  0
    3.5858   -2.2275    0.9661 C   0  0  0  0  0  0  0  0  0  0  0  0
    3.8126   -1.9685   -0.4085 C   0  0  0  0  0  0  0  0  0  0  0  0
    4.3211   -2.9697   -1.2538 C   0  0  0  0  0  0  0  0  0  0  0  0
    4.6100   -2.6186   -3.1101 Br  0  0  0  0  0  0  0  0  0  0  0  0
    4.6105   -4.2362   -0.7232 C   0  0  0  0  0  0  0  0  0  0  0  0
    4.3855   -4.5066    0.6352 C   0  0  0  0  0  0  0  0  0  0  0  0
    3.8649   -3.5126    1.4977 C   0  0  0  0  0  0  0  0  0  0  0  0
    3.6548   -3.8137    2.7962 N   0  0  0  0  0  0  0  0  0  0  0  0
    4.7790   -4.8817    5.5036 C   0  0  2  0  0  0  0  0  0  0  0  0
    5.7310   -3.7270    5.9625 C   0  0  0  0  0  0  0  0  0  0  0  0
    5.5483   -5.6364    4.3931 C   0  0  0  0  0  0  0  0  0  0  0  0
    6.5456   -6.5851    5.1559 C   0  0  0  0  0  0  0  0  0  0  0  0
    6.5063   -7.9775    4.4984 C   0  0  0  0  0  0  0  0  0  0  0  0
    8.0020   -6.0795    5.1078 C   0  0  0  0  0  0  0  0  0  0  0  0
    6.0292   -6.6435    6.6313 C   0  0  0  0  0  0  0  0  0  0  0  0
    4.6350   -6.0629    6.4511 C   0  0  1  0  0  0  0  0  0  0  0  0
    3.4906   -5.7935    7.4894 C   0  0  2  0  0  0  0  0  0  0  0  0
    3.9590   -5.9484    8.9579 C   0  0  0  0  0  0  0  0  0  0  0  0
    2.3641   -6.7884    7.1583 C   0  0  0  0  0  0  0  0  0  0  0  0
    2.0956   -7.7553    7.8603 O   0  0  0  0  0  0  0  0  0  0  0  0
    2.9428   -4.3824    7.0553 C   0  0  1  0  0  0  0  0  0  0  0  0
    3.7257   -3.4510    7.7607 O   0  0  0  0  0  0  0  0  0  0  0  0
    1.4986   -3.8839    7.4716 C   0  0  1  0  0  0  0  0  0  0  0  0
    1.3100   -2.5365    7.0453 O   0  0  0  0  0  0  0  0  0  0  0  0
   -0.5421   -3.6803   10.8784 H   0  0  0  0  0  0  0  0  0  0  0  0
    0.3047   -4.8614    9.8837 H   0  0  0  0  0  0  0  0  0  0  0  0
   -1.4417   -5.0423   10.2161 H   0  0  0  0  0  0  0  0  0  0  0  0
   -1.7925   -5.0529    7.7879 H   0  0  0  0  0  0  0  0  0  0  0  0
   -1.5308   -3.5819    6.9139 H   0  0  0  0  0  0  0  0  0  0  0  0
   -0.6057   -6.4040    6.1700 H   0  0  0  0  0  0  0  0  0  0  0  0
    1.2896   -7.3966    5.3852 H   0  0  0  0  0  0  0  0  0  0  0  0
    2.7634   -6.0998    4.1132 H   0  0  0  0  0  0  0  0  0  0  0  0
    1.4805   -4.9623    4.3554 H   0  0  0  0  0  0  0  0  0  0  0  0
    2.4944   -0.8329    3.8960 H   0  0  0  0  0  0  0  0  0  0  0  0
    2.7694    0.3214    0.4578 H   0  0  0  0  0  0  0  0  0  0  0  0
    3.5694   -1.0020   -0.8258 H   0  0  0  0  0  0  0  0  0  0  0  0
    4.9907   -5.0200   -1.3799 H   0  0  0  0  0  0  0  0  0  0  0  0
    4.6078   -5.4858    1.0331 H   0  0  0  0  0  0  0  0  0  0  0  0
    6.6138   -3.6269    5.3402 H   0  0  0  0  0  0  0  0  0  0  0  0
    6.0830   -3.8499    6.9878 H   0  0  0  0  0  0  0  0  0  0  0  0
    5.2476   -2.7513    5.9026 H   0  0  0  0  0  0  0  0  0  0  0  0
    4.8754   -6.2221    3.7705 H   0  0  0  0  0  0  0  0  0  0  0  0
    6.0595   -4.9570    3.7141 H   0  0  0  0  0  0  0  0  0  0  0  0
    7.1660   -8.6772    5.0105 H   0  0  0  0  0  0  0  0  0  0  0  0
    6.8265   -7.9275    3.4569 H   0  0  0  0  0  0  0  0  0  0  0  0
    5.5022   -8.4036    4.5114 H   0  0  0  0  0  0  0  0  0  0  0  0
    8.6777   -6.8058    5.5582 H   0  0  0  0  0  0  0  0  0  0  0  0
    8.1423   -5.1475    5.6521 H   0  0  0  0  0  0  0  0  0  0  0  0
    8.3376   -5.9161    4.0838 H   0  0  0  0  0  0  0  0  0  0  0  0
    6.0120   -7.6580    7.0337 H   0  0  0  0  0  0  0  0  0  0  0  0
    6.6307   -6.0317    7.3043 H   0  0  0  0  0  0  0  0  0  0  0  0
    4.2347   -6.8806    5.8444 H   0  0  0  0  0  0  0  0  0  0  0  0
    4.8258   -5.3273    9.1779 H   0  0  0  0  0  0  0  0  0  0  0  0
    4.2581   -6.9772    9.1597 H   0  0  0  0  0  0  0  0  0  0  0  0
    3.1711   -5.7011    9.6684 H   0  0  0  0  0  0  0  0  0  0  0  0
    3.4232   -2.5896    7.4855 H   0  0  0  0  0  0  0  0  0  0  0  0
    1.5276   -3.8358    8.5674 H   0  0  0  0  0  0  0  0  0  0  0  0
    1.4929   -2.4657    6.1028 H   0  0  0  0  0  0  0  0  0  0  0  0
    2.3536    0.7299    2.0544 H   0  0  0  0  0  0  0  0  0  0  0  0
  1  2  1  0
  1 38  1  0
  1 39  1  0
  1 40  1  0
  2  3  1  0
  3  4  1  0
  3 41  1  0
  3 42  1  0
  4 36  1  0
  4  5  2  0
  5  6  1  0
  5 43  1  0
  6 32  1  0
  6  7  1  0
  6 44  1  6
  7  8  1  0
  7 45  1  0
  7 46  1  0
  8 34  1  0
  8  9  1  6
  8 22  1  0
  9 10  1  0
 10 21  1  0
 10 11  2  0
 11 12  1  0
 11 47  1  0
 12 13  1  0
 12 14  2  0
 13 48  1  0
 13 72  1  0
 14 20  1  0
 14 15  1  0
 15 16  2  0
 15 49  1  0
 16 17  1  0
 16 18  1  0
 18 19  2  0
 18 50  1  0
 19 20  1  0
 19 51  1  0
 20 21  2  0
 22 29  1  0
 22 23  1  1
 22 24  1  0
 23 52  1  0
 23 53  1  0
 23 54  1  0
 24 25  1  0
 24 55  1  0
 24 56  1  0
 25 26  1  0
 25 27  1  0
 25 28  1  0
 26 57  1  0
 26 58  1  0
 26 59  1  0
 27 60  1  0
 27 61  1  0
 27 62  1  0
 28 29  1  0
 28 63  1  0
 28 64  1  0
 29 30  1  0
 29 65  1  6
 30 31  1  1
 30 32  1  0
 30 34  1  0
 31 66  1  0
 31 67  1  0
 31 68  1  0
 32 33  2  0
 34 35  1  1
 34 36  1  0
 35 69  1  0
 36 37  1  0
 36 70  1  1
 37 71  1  0
M  END
>  <i_m_ct_stereo_status>  (226) 
1

>  <s_m_source_file>  (226) 
/var/tmp/pbs.5083856.sched01/tmpmci7z13a/90fdrtcq7s.sdf

>  <i_m_source_file_index>  (226) 
4

>  <i_lp_mmshare_version>  (226) 
48012

>  <i_f3d_flags>  (226) 
0

>  <s_epik_input>  (226) 
Tz1DMVtDQEhdKFtDSDJdMilbQ0hdPUMoW0NIMl1PW0NIM10pW0NASF0oW09IXSlbQ0BAXTMoW09IXSlbQ0BdMShbQ0gzXSlbQ0BIXShbQ0gyXUMoW0NIMl00KShbQ0gzXSlbQ0gzXSlbQ0BdNChbQ0gzXSlbQ0BAXTIzT2MoW2NIXS9jNT1OL1tIXSlbbkhdYyhjNTYpW2NIXVtjSF1jKEJyKVtjSF02

>  <s_epik_cmdline>  (226) 
J2VwaWtfcHl0aG9uJywgJy1waHQnLCAnMi4wJywgJy1waCcsICc3LjAnLCAnLXRuJywgJzgnLCAnLW1hJywgJzIwMCcsICctaW1hZScsICc8aW5maWxlLm1hZT4nLCAnLW9tYWUnLCAnPG91dGZpbGUubWFlPic=

>  <r_epik_Ionization_Penalty>  (226) 
0.0257796

>  <r_epik_Ionization_Penalty_Charging>  (226) 
0

>  <r_epik_Ionization_Penalty_Neutral>  (226) 
0.0257796

>  <r_epik_State_Penalty>  (226) 
0.194574

>  <r_epik_Charging_Adjusted_Penalty>  (226) 
0.194574

>  <i_epik_Tot_Q>  (226) 
0

>  <i_epik_Tot_abs_Q>  (226) 
0

>  <s_lp_Force_Field>  (226) 
OPLS3e

>  <r_lp_Energy>  (226) 
98.9212

>  <b_lp_Chiralities_Consistent>  (226) 
1

>  <s_lp_Variant>  (226) 
69:0-1

>  <s_i_glide_gridfile>  (226) 
pfpi4k_grid

>  <i_i_glide_lignum>  (226) 
4

>  <i_i_glide_rotatable_bonds>  (226) 
6

>  <r_i_docking_score>  (226) 
-2.41404

>  <r_i_glide_ligand_efficiency>  (226) 
-0.0652444

>  <r_i_glide_ligand_efficiency_sa>  (226) 
-0.217409

>  <r_i_glide_ligand_efficiency_ln>  (226) 
-0.523549

>  <r_i_glide_gscore>  (226) 
-2.41404

>  <r_i_glide_lipo>  (226) 
-0.186164

>  <r_i_glide_hbond>  (226) 
-0.135342

>  <r_i_glide_metal>  (226) 
-0

>  <r_i_glide_rewards>  (226) 
-0.5

>  <r_i_glide_evdw>  (226) 
-24.9937

>  <r_i_glide_ecoul>  (226) 
-2.83874

>  <r_i_glide_erotb>  (226) 
0.100227

>  <r_i_glide_esite>  (226) 
-0.0172664

>  <r_i_glide_emodel>  (226) 
-37.2746

>  <r_i_glide_energy>  (226) 
-27.8325

>  <r_i_glide_einternal>  (226) 
0.958217

>  <r_i_glide_intrahb_reward>  (226) 
-0.5

>  <i_i_glide_confnum>  (226) 
2

>  <i_i_glide_posenum>  (226) 
11

>  <r_i_glide_eff_state_penalty>  (226) 
0

>  <ligand_id>  (226) 
69

>  <original_smiles>  (226) 
COCC1=CC2CC3(Oc4cc(=N)c5cc(Br)ccc5[nH]4)C4(C)CC(C)(C)CC4C(C)(C2=O)C3(O)C1O

>  <smiles>  (226) 
[H]OC1([H])C(C([H])([H])OC([H])([H])[H])=C([H])C2([H])C(=O)C3(C([H])([H])[H])C4([H])C([H])([H])C(C([H])([H])[H])(C([H])([H])[H])C([H])([H])C4(C([H])([H])[H])C(Oc4nc5c([H])c([H])c(Br)c([H])c5c(N([H])[H])c4[H])(C2([H])[H])C13O[H]

$$$$
69:1:0
     RDKit          3D

 73 78  0  0  1  0  0  0  0  0999 V2000
    0.3852   -0.6627   11.6017 C   0  0  0  0  0  0  0  0  0  0  0  0
    0.8665   -1.6521   10.6998 O   0  0  0  0  0  0  0  0  0  0  0  0
    1.9686   -1.2309    9.9077 C   0  0  0  0  0  0  0  0  0  0  0  0
    1.5913   -0.1550    8.8880 C   0  0  0  0  0  0  0  0  0  0  0  0
    2.4000    0.8956    8.6893 C   0  0  0  0  0  0  0  0  0  0  0  0
    2.0812    2.0226    7.7475 C   0  0  1  0  0  0  0  0  0  0  0  0
    2.0053    1.5010    6.2791 C   0  0  0  0  0  0  0  0  0  0  0  0
    0.6064    0.9479    5.8154 C   0  0  2  0  0  0  0  0  0  0  0  0
    0.7373   -0.3528    5.2445 O   0  0  0  0  0  0  0  0  0  0  0  0
    1.4625   -0.5802    4.1170 C   0  0  0  0  0  0  0  0  0  0  0  0
    2.0833    0.3438    3.3393 C   0  0  0  0  0  0  0  0  0  0  0  0
    2.8085   -0.0459    2.1943 C   0  0  0  0  0  0  0  0  0  0  0  0
    3.4046    0.8101    1.4484 N   0  0  0  0  0  0  0  0  0  0  0  0
    2.9014   -1.4845    1.8506 C   0  0  0  0  0  0  0  0  0  0  0  0
    3.6199   -1.9640    0.7371 C   0  0  0  0  0  0  0  0  0  0  0  0
    3.6920   -3.3533    0.4964 C   0  0  0  0  0  0  0  0  0  0  0  0
    4.6783   -3.9892   -0.9892 Br  0  0  0  0  0  0  0  0  0  0  0  0
    3.0455   -4.2579    1.3735 C   0  0  0  0  0  0  0  0  0  0  0  0
    2.3369   -3.7772    2.4893 C   0  0  0  0  0  0  0  0  0  0  0  0
    2.2559   -2.4009    2.7234 C   0  0  0  0  0  0  0  0  0  0  0  0
    1.5348   -1.9329    3.8270 N   0  0  0  0  0  0  0  0  0  0  0  0
   -0.2706    1.9780    4.9980 C   0  0  2  0  0  0  0  0  0  0  0  0
   -1.5425    1.3152    4.3709 C   0  0  0  0  0  0  0  0  0  0  0  0
    0.1918    3.0343    3.9609 C   0  0  0  0  0  0  0  0  0  0  0  0
   -0.7417    4.2782    4.1859 C   0  0  0  0  0  0  0  0  0  0  0  0
    0.1312    5.5526    4.1483 C   0  0  0  0  0  0  0  0  0  0  0  0
   -1.8387    4.4017    3.1052 C   0  0  0  0  0  0  0  0  0  0  0  0
   -1.3829    4.0614    5.5945 C   0  0  0  0  0  0  0  0  0  0  0  0
   -0.4905    2.9608    6.1376 C   0  0  1  0  0  0  0  0  0  0  0  0
   -0.5097    2.2272    7.5250 C   0  0  2  0  0  0  0  0  0  0  0  0
   -1.7810    2.5369    8.3554 C   0  0  0  0  0  0  0  0  0  0  0  0
    0.7727    2.6499    8.2752 C   0  0  0  0  0  0  0  0  0  0  0  0
    0.7605    3.4218    9.2264 O   0  0  0  0  0  0  0  0  0  0  0  0
   -0.2679    0.7332    7.1188 C   0  0  1  0  0  0  0  0  0  0  0  0
   -1.5620    0.2477    6.8428 O   0  0  0  0  0  0  0  0  0  0  0  0
    0.2402   -0.3300    8.1823 C   0  0  1  0  0  0  0  0  0  0  0  0
    0.1993   -1.6370    7.6371 O   0  0  0  0  0  0  0  0  0  0  0  0
    1.1016   -2.5921    4.4532 H   0  0  0  0  0  0  0  0  0  0  0  0
   -0.4742   -1.0558   12.1448 H   0  0  0  0  0  0  0  0  0  0  0  0
    0.0555    0.2354   11.0817 H   0  0  0  0  0  0  0  0  0  0  0  0
    1.1575   -0.3719   12.3136 H   0  0  0  0  0  0  0  0  0  0  0  0
    2.7877   -0.8873   10.5487 H   0  0  0  0  0  0  0  0  0  0  0  0
    2.3500   -2.1035    9.3708 H   0  0  0  0  0  0  0  0  0  0  0  0
    3.3327    0.9936    9.2249 H   0  0  0  0  0  0  0  0  0  0  0  0
    2.8877    2.7532    7.8402 H   0  0  0  0  0  0  0  0  0  0  0  0
    2.3699    2.2792    5.6058 H   0  0  0  0  0  0  0  0  0  0  0  0
    2.7347    0.6915    6.2003 H   0  0  0  0  0  0  0  0  0  0  0  0
    2.0672    1.3963    3.5643 H   0  0  0  0  0  0  0  0  0  0  0  0
    3.3694    1.7935    1.6923 H   0  0  0  0  0  0  0  0  0  0  0  0
    4.1307   -1.3066    0.0475 H   0  0  0  0  0  0  0  0  0  0  0  0
    3.0901   -5.3179    1.1968 H   0  0  0  0  0  0  0  0  0  0  0  0
    1.8480   -4.4545    3.1743 H   0  0  0  0  0  0  0  0  0  0  0  0
   -1.6842    1.5773    3.3260 H   0  0  0  0  0  0  0  0  0  0  0  0
   -2.4647    1.5999    4.8780 H   0  0  0  0  0  0  0  0  0  0  0  0
   -1.4785    0.2265    4.3486 H   0  0  0  0  0  0  0  0  0  0  0  0
    1.2258    3.3425    4.1164 H   0  0  0  0  0  0  0  0  0  0  0  0
    0.1387    2.6691    2.9351 H   0  0  0  0  0  0  0  0  0  0  0  0
   -0.4509    6.4539    4.3155 H   0  0  0  0  0  0  0  0  0  0  0  0
    0.6169    5.6628    3.1759 H   0  0  0  0  0  0  0  0  0  0  0  0
    0.9177    5.5281    4.9060 H   0  0  0  0  0  0  0  0  0  0  0  0
   -2.4098    5.3174    3.1968 H   0  0  0  0  0  0  0  0  0  0  0  0
   -2.5465    3.5732    3.1203 H   0  0  0  0  0  0  0  0  0  0  0  0
   -1.4046    4.4335    2.1130 H   0  0  0  0  0  0  0  0  0  0  0  0
   -1.3298    4.9419    6.2321 H   0  0  0  0  0  0  0  0  0  0  0  0
   -2.4243    3.7423    5.5239 H   0  0  0  0  0  0  0  0  0  0  0  0
    0.4271    3.5532    6.1949 H   0  0  0  0  0  0  0  0  0  0  0  0
   -2.7005    2.3345    7.8054 H   0  0  0  0  0  0  0  0  0  0  0  0
   -1.8096    3.5922    8.6243 H   0  0  0  0  0  0  0  0  0  0  0  0
   -1.8044    1.9693    9.2866 H   0  0  0  0  0  0  0  0  0  0  0  0
   -1.8202    0.7022    6.0493 H   0  0  0  0  0  0  0  0  0  0  0  0
   -0.5045   -0.3315    8.9719 H   0  0  0  0  0  0  0  0  0  0  0  0
    0.8453   -1.6872    6.9493 H   0  0  0  0  0  0  0  0  0  0  0  0
    3.9163    0.5305    0.6092 H   0  0  0  0  0  0  0  0  0  0  0  0
  1  2  1  0
  1 39  1  0
  1 40  1  0
  1 41  1  0
  2  3  1  0
  3  4  1  0
  3 42  1  0
  3 43  1  0
  4 36  1  0
  4  5  2  0
  5  6  1  0
  5 44  1  0
  6 32  1  0
  6  7  1  0
  6 45  1  6
  7  8  1  0
  7 46  1  0
  7 47  1  0
  8 34  1  0
  8  9  1  6
  8 22  1  0
  9 10  1  0
 10 21  1  0
 10 11  2  0
 11 12  1  0
 11 48  1  0
 12 13  2  3
 12 14  1  0
 13 49  1  0
 13 73  1  0
 14 20  2  0
 14 15  1  0
 15 16  2  0
 15 50  1  0
 16 17  1  0
 16 18  1  0
 18 19  2  0
 18 51  1  0
 19 20  1  0
 19 52  1  0
 20 21  1  0
 21 38  1  0
 22 29  1  0
 22 23  1  6
 22 24  1  0
 23 53  1  0
 23 54  1  0
 23 55  1  0
 24 25  1  0
 24 56  1  0
 24 57  1  0
 25 26  1  0
 25 27  1  0
 25 28  1  0
 26 58  1  0
 26 59  1  0
 26 60  1  0
 27 61  1  0
 27 62  1  0
 27 63  1  0
 28 29  1  0
 28 64  1  0
 28 65  1  0
 29 30  1  0
 29 66  1  1
 30 31  1  1
 30 32  1  0
 30 34  1  0
 31 67  1  0
 31 68  1  0
 31 69  1  0
 32 33  2  0
 34 35  1  6
 34 36  1  0
 35 70  1  0
 36 37  1  0
 36 71  1  1
 37 72  1  0
M  CHG  1  13   1
M  END
>  <i_m_ct_stereo_status>  (227) 
1

>  <s_m_source_file>  (227) 
/var/tmp/pbs.5083856.sched01/tmpmci7z13a/90fdrtcq7s.sdf

>  <i_m_source_file_index>  (227) 
5

>  <i_lp_mmshare_version>  (227) 
48012

>  <i_f3d_flags>  (227) 
0

>  <s_epik_input>  (227) 
Tz1DMVtDQEhdKFtDSDJdMilbQ0hdPUMoW0NIMl1PW0NIM10pW0NASF0oW09IXSlbQ0BAXTMoW09IXSlbQ0BdMShbQ0gzXSlbQ0BIXShbQ0gyXUMoW0NIMl00KShbQ0gzXSlbQ0gzXSlbQ0BdNChbQ0gzXSlbQ0BAXTIzT2MoW2NIXS9jNT1OL1tIXSlbbkhdYyhjNTYpW2NIXVtjSF1jKEJyKVtjSF02

>  <s_epik_cmdline>  (227) 
J2VwaWtfcHl0aG9uJywgJy1waHQnLCAnMi4wJywgJy1waCcsICc3LjAnLCAnLXRuJywgJzgnLCAnLW1hJywgJzIwMCcsICctaW1hZScsICc8aW5maWxlLm1hZT4nLCAnLW9tYWUnLCAnPG91dGZpbGUubWFlPic=

>  <r_epik_Ionization_Penalty>  (227) 
0.137544

>  <r_epik_Ionization_Penalty_Charging>  (227) 
1.38673e-05

>  <r_epik_Ionization_Penalty_Neutral>  (227) 
0.137531

>  <r_epik_State_Penalty>  (227) 
0.754368

>  <r_epik_Charging_Adjusted_Penalty>  (227) 
0.754382

>  <i_epik_Tot_Q>  (227) 
1

>  <i_epik_Tot_abs_Q>  (227) 
1

>  <s_epik_Chemistry_Notes>  (227) 
This compound has an imine and may undergo hydrolysis.

>  <s_lp_Force_Field>  (227) 
OPLS3e

>  <r_lp_Energy>  (227) 
99.9725

>  <b_lp_Chiralities_Consistent>  (227) 
1

>  <s_lp_Variant>  (227) 
69:0-2

>  <s_i_glide_gridfile>  (227) 
pfpi4k_grid

>  <i_i_glide_lignum>  (227) 
5

>  <i_i_glide_rotatable_bonds>  (227) 
6

>  <r_i_docking_score>  (227) 
-2.93478

>  <r_i_glide_ligand_efficiency>  (227) 
-0.0793185

>  <r_i_glide_ligand_efficiency_sa>  (227) 
-0.264307

>  <r_i_glide_ligand_efficiency_ln>  (227) 
-0.636486

>  <r_i_glide_gscore>  (227) 
-2.93478

>  <r_i_glide_lipo>  (227) 
0

>  <r_i_glide_hbond>  (227) 
0

>  <r_i_glide_metal>  (227) 
-0

>  <r_i_glide_rewards>  (227) 
-0.5

>  <r_i_glide_evdw>  (227) 
-18.9115

>  <r_i_glide_ecoul>  (227) 
-10.5855

>  <r_i_glide_erotb>  (227) 
0.098618

>  <r_i_glide_esite>  (227) 
0

>  <r_i_glide_emodel>  (227) 
-40.1883

>  <r_i_glide_energy>  (227) 
-29.497

>  <r_i_glide_einternal>  (227) 
1.25841

>  <r_i_glide_intrahb_reward>  (227) 
-0.5

>  <i_i_glide_confnum>  (227) 
1

>  <i_i_glide_posenum>  (227) 
28

>  <r_i_glide_eff_state_penalty>  (227) 
0

>  <ligand_id>  (227) 
69

>  <original_smiles>  (227) 
COCC1=CC2CC3(Oc4cc(=N)c5cc(Br)ccc5[nH]4)C4(C)CC(C)(C)CC4C(C)(C2=O)C3(O)C1O

>  <smiles>  (227) 
[H]OC1([H])C(C([H])([H])OC([H])([H])[H])=C([H])C2([H])C(=O)C3(C([H])([H])[H])C4([H])C([H])([H])C(C([H])([H])[H])(C([H])([H])[H])C([H])([H])C4(C([H])([H])[H])C(Oc4c([H])c(=[N+]([H])[H])c5c([H])c(Br)c([H])c([H])c5n4[H])(C2([H])[H])C13O[H]

$$$$
69:1:1
     RDKit          3D

 73 78  0  0  1  0  0  0  0  0999 V2000
    8.5264   -9.7817    4.4196 C   0  0  0  0  0  0  0  0  0  0  0  0
    9.0734   -8.4675    4.6246 O   0  0  0  0  0  0  0  0  0  0  0  0
    8.5096   -7.4446    3.8051 C   0  0  0  0  0  0  0  0  0  0  0  0
    7.0220   -7.1947    4.0544 C   0  0  0  0  0  0  0  0  0  0  0  0
    6.6365   -6.3058    4.9945 C   0  0  0  0  0  0  0  0  0  0  0  0
    5.1983   -6.0623    5.3454 C   0  0  1  0  0  0  0  0  0  0  0  0
    4.4215   -5.5038    4.1197 C   0  0  0  0  0  0  0  0  0  0  0  0
    3.7991   -6.5659    3.1349 C   0  0  2  0  0  0  0  0  0  0  0  0
    4.1490   -6.3035    1.7816 O   0  0  0  0  0  0  0  0  0  0  0  0
    3.8904   -5.1021    1.1777 C   0  0  0  0  0  0  0  0  0  0  0  0
    3.2051   -4.0631    1.6931 C   0  0  0  0  0  0  0  0  0  0  0  0
    3.0128   -2.8638    0.9506 C   0  0  0  0  0  0  0  0  0  0  0  0
    2.3771   -1.8555    1.3980 N   0  0  0  0  0  0  0  0  0  0  0  0
    3.5753   -2.8016   -0.4342 C   0  0  0  0  0  0  0  0  0  0  0  0
    3.4239   -1.6854   -1.2888 C   0  0  0  0  0  0  0  0  0  0  0  0
    3.9697   -1.7138   -2.5937 C   0  0  0  0  0  0  0  0  0  0  0  0
    3.7646   -0.2538   -3.7875 Br  0  0  0  0  0  0  0  0  0  0  0  0
    4.6893   -2.8367   -3.0290 C   0  0  0  0  0  0  0  0  0  0  0  0
    4.8811   -3.9233   -2.1739 C   0  0  0  0  0  0  0  0  0  0  0  0
    4.3082   -3.9231   -0.8872 C   0  0  0  0  0  0  0  0  0  0  0  0
    4.4557   -5.0447   -0.0797 N   0  0  0  0  0  0  0  0  0  0  0  0
    2.2772   -6.8735    3.3603 C   0  0  2  0  0  0  0  0  0  0  0  0
    1.6775   -7.7673    2.2173 C   0  0  0  0  0  0  0  0  0  0  0  0
    1.1455   -5.8863    3.7379 C   0  0  0  0  0  0  0  0  0  0  0  0
    0.1990   -6.7054    4.6995 C   0  0  0  0  0  0  0  0  0  0  0  0
   -0.1701   -5.8073    5.8978 C   0  0  0  0  0  0  0  0  0  0  0  0
   -1.1042   -7.1689    4.0150 C   0  0  0  0  0  0  0  0  0  0  0  0
    1.0369   -7.9465    5.1609 C   0  0  0  0  0  0  0  0  0  0  0  0
    2.4352   -7.5064    4.7373 C   0  0  1  0  0  0  0  0  0  0  0  0
    3.8310   -8.2261    4.8572 C   0  0  2  0  0  0  0  0  0  0  0  0
    3.6985   -9.7029    5.3210 C   0  0  0  0  0  0  0  0  0  0  0  0
    4.6562   -7.4032    5.8686 C   0  0  0  0  0  0  0  0  0  0  0  0
    4.8903   -7.7813    7.0092 O   0  0  0  0  0  0  0  0  0  0  0  0
    4.4575   -7.9341    3.4456 C   0  0  1  0  0  0  0  0  0  0  0  0
    4.0407   -9.0208    2.6266 O   0  0  0  0  0  0  0  0  0  0  0  0
    6.0275   -8.0581    3.2256 C   0  0  1  0  0  0  0  0  0  0  0  0
    6.3741   -7.9276    1.8280 O   0  0  0  0  0  0  0  0  0  0  0  0
    4.9511   -5.8586   -0.4233 H   0  0  0  0  0  0  0  0  0  0  0  0
    9.1049  -10.5503    4.9539 H   0  0  0  0  0  0  0  0  0  0  0  0
    8.5264  -10.0220    3.3533 H   0  0  0  0  0  0  0  0  0  0  0  0
    7.5359   -9.8436    4.8305 H   0  0  0  0  0  0  0  0  0  0  0  0
    9.0451   -6.5308    4.0673 H   0  0  0  0  0  0  0  0  0  0  0  0
    8.7467   -7.5953    2.7494 H   0  0  0  0  0  0  0  0  0  0  0  0
    7.3589   -5.7468    5.5429 H   0  0  0  0  0  0  0  0  0  0  0  0
    5.1830   -5.3281    6.1592 H   0  0  0  0  0  0  0  0  0  0  0  0
    3.6708   -4.8085    4.4968 H   0  0  0  0  0  0  0  0  0  0  0  0
    5.1347   -4.8859    3.5754 H   0  0  0  0  0  0  0  0  0  0  0  0
    2.7684   -4.0755    2.6741 H   0  0  0  0  0  0  0  0  0  0  0  0
    1.9736   -1.8845    2.3349 H   0  0  0  0  0  0  0  0  0  0  0  0
    2.8961   -0.8027   -0.9702 H   0  0  0  0  0  0  0  0  0  0  0  0
    5.0825   -2.8797   -4.0260 H   0  0  0  0  0  0  0  0  0  0  0  0
    5.4024   -4.7951   -2.5344 H   0  0  0  0  0  0  0  0  0  0  0  0
    0.7279   -7.4089    1.8313 H   0  0  0  0  0  0  0  0  0  0  0  0
    1.5203   -8.8036    2.5272 H   0  0  0  0  0  0  0  0  0  0  0  0
    2.3186   -7.8012    1.3374 H   0  0  0  0  0  0  0  0  0  0  0  0
    1.5349   -5.0200    4.2689 H   0  0  0  0  0  0  0  0  0  0  0  0
    0.6256   -5.4903    2.8689 H   0  0  0  0  0  0  0  0  0  0  0  0
   -0.8102   -6.3093    6.6138 H   0  0  0  0  0  0  0  0  0  0  0  0
   -0.7092   -4.9158    5.5842 H   0  0  0  0  0  0  0  0  0  0  0  0
    0.7100   -5.4823    6.4491 H   0  0  0  0  0  0  0  0  0  0  0  0
   -1.7655   -7.6700    4.7204 H   0  0  0  0  0  0  0  0  0  0  0  0
   -0.9294   -7.8763    3.2058 H   0  0  0  0  0  0  0  0  0  0  0  0
   -1.6621   -6.3292    3.6076 H   0  0  0  0  0  0  0  0  0  0  0  0
    0.9617   -8.1356    6.2309 H   0  0  0  0  0  0  0  0  0  0  0  0
    0.7423   -8.8627    4.6486 H   0  0  0  0  0  0  0  0  0  0  0  0
    2.5219   -6.6719    5.4431 H   0  0  0  0  0  0  0  0  0  0  0  0
    3.0348  -10.2728    4.6722 H   0  0  0  0  0  0  0  0  0  0  0  0
    3.2709   -9.7638    6.3208 H   0  0  0  0  0  0  0  0  0  0  0  0
    4.6639  -10.1981    5.3555 H   0  0  0  0  0  0  0  0  0  0  0  0
    4.5154   -9.8016    2.8629 H   0  0  0  0  0  0  0  0  0  0  0  0
    6.2306   -9.0803    3.3971 H   0  0  0  0  0  0  0  0  0  0  0  0
    6.2634   -8.7966    1.4767 H   0  0  0  0  0  0  0  0  0  0  0  0
    2.1183   -1.0662    0.7936 H   0  0  0  0  0  0  0  0  0  0  0  0
  1  2  1  0
  1 39  1  0
  1 40  1  0
  1 41  1  0
  2  3  1  0
  3  4  1  0
  3 42  1  0
  3 43  1  0
  4 36  1  0
  4  5  2  0
  5  6  1  0
  5 44  1  0
  6 32  1  0
  6  7  1  0
  6 45  1  1
  7  8  1  0
  7 46  1  0
  7 47  1  0
  8 34  1  0
  8  9  1  6
  8 22  1  0
  9 10  1  0
 10 21  1  0
 10 11  2  0
 11 12  1  0
 11 48  1  0
 12 13  2  3
 12 14  1  0
 13 49  1  0
 13 73  1  0
 14 20  2  0
 14 15  1  0
 15 16  2  0
 15 50  1  0
 16 17  1  0
 16 18  1  0
 18 19  2  0
 18 51  1  0
 19 20  1  0
 19 52  1  0
 20 21  1  0
 21 38  1  0
 22 29  1  0
 22 23  1  6
 22 24  1  0
 23 53  1  0
 23 54  1  0
 23 55  1  0
 24 25  1  0
 24 56  1  0
 24 57  1  0
 25 26  1  0
 25 27  1  0
 25 28  1  0
 26 58  1  0
 26 59  1  0
 26 60  1  0
 27 61  1  0
 27 62  1  0
 27 63  1  0
 28 29  1  0
 28 64  1  0
 28 65  1  0
 29 30  1  0
 29 66  1  1
 30 31  1  1
 30 32  1  0
 30 34  1  0
 31 67  1  0
 31 68  1  0
 31 69  1  0
 32 33  2  0
 34 35  1  6
 34 36  1  0
 35 70  1  0
 36 37  1  0
 36 71  1  1
 37 72  1  0
M  CHG  1  13   1
M  END
>  <i_m_ct_stereo_status>  (228) 
1

>  <s_m_source_file>  (228) 
/var/tmp/pbs.5083856.sched01/tmpmci7z13a/90fdrtcq7s.sdf

>  <i_m_source_file_index>  (228) 
5

>  <i_lp_mmshare_version>  (228) 
48012

>  <i_f3d_flags>  (228) 
0

>  <s_epik_input>  (228) 
Tz1DMVtDQEhdKFtDSDJdMilbQ0hdPUMoW0NIMl1PW0NIM10pW0NASF0oW09IXSlbQ0BAXTMoW09IXSlbQ0BdMShbQ0gzXSlbQ0BIXShbQ0gyXUMoW0NIMl00KShbQ0gzXSlbQ0gzXSlbQ0BdNChbQ0gzXSlbQ0BAXTIzT2MoW2NIXS9jNT1OL1tIXSlbbkhdYyhjNTYpW2NIXVtjSF1jKEJyKVtjSF02

>  <s_epik_cmdline>  (228) 
J2VwaWtfcHl0aG9uJywgJy1waHQnLCAnMi4wJywgJy1waCcsICc3LjAnLCAnLXRuJywgJzgnLCAnLW1hJywgJzIwMCcsICctaW1hZScsICc8aW5maWxlLm1hZT4nLCAnLW9tYWUnLCAnPG91dGZpbGUubWFlPic=

>  <r_epik_Ionization_Penalty>  (228) 
0.137544

>  <r_epik_Ionization_Penalty_Charging>  (228) 
1.38673e-05

>  <r_epik_Ionization_Penalty_Neutral>  (228) 
0.137531

>  <r_epik_State_Penalty>  (228) 
0.754368

>  <r_epik_Charging_Adjusted_Penalty>  (228) 
0.754382

>  <i_epik_Tot_Q>  (228) 
1

>  <i_epik_Tot_abs_Q>  (228) 
1

>  <s_epik_Chemistry_Notes>  (228) 
This compound has an imine and may undergo hydrolysis.

>  <s_lp_Force_Field>  (228) 
OPLS3e

>  <r_lp_Energy>  (228) 
99.9725

>  <b_lp_Chiralities_Consistent>  (228) 
1

>  <s_lp_Variant>  (228) 
69:0-2

>  <s_i_glide_gridfile>  (228) 
pfpi4k_grid

>  <i_i_glide_lignum>  (228) 
5

>  <i_i_glide_rotatable_bonds>  (228) 
6

>  <r_i_docking_score>  (228) 
-2.72492

>  <r_i_glide_ligand_efficiency>  (228) 
-0.0736464

>  <r_i_glide_ligand_efficiency_sa>  (228) 
-0.245406

>  <r_i_glide_ligand_efficiency_ln>  (228) 
-0.59097

>  <r_i_glide_gscore>  (228) 
-2.72492

>  <r_i_glide_lipo>  (228) 
-0.402115

>  <r_i_glide_hbond>  (228) 
-0.094867

>  <r_i_glide_metal>  (228) 
-0

>  <r_i_glide_rewards>  (228) 
0

>  <r_i_glide_evdw>  (228) 
-28.8471

>  <r_i_glide_ecoul>  (228) 
-5.41883

>  <r_i_glide_erotb>  (228) 
0.098618

>  <r_i_glide_esite>  (228) 
-0.0713713

>  <r_i_glide_emodel>  (228) 
-37.8497

>  <r_i_glide_energy>  (228) 
-34.2659

>  <r_i_glide_einternal>  (228) 
2.89592

>  <r_i_glide_intrahb_reward>  (228) 
-0

>  <i_i_glide_confnum>  (228) 
1

>  <i_i_glide_posenum>  (228) 
32

>  <r_i_glide_eff_state_penalty>  (228) 
0

>  <ligand_id>  (228) 
69

>  <original_smiles>  (228) 
COCC1=CC2CC3(Oc4cc(=N)c5cc(Br)ccc5[nH]4)C4(C)CC(C)(C)CC4C(C)(C2=O)C3(O)C1O

>  <smiles>  (228) 
[H]OC1([H])C(C([H])([H])OC([H])([H])[H])=C([H])C2([H])C(=O)C3(C([H])([H])[H])C4([H])C([H])([H])C(C([H])([H])[H])(C([H])([H])[H])C([H])([H])C4(C([H])([H])[H])C(Oc4c([H])c(=[N+]([H])[H])c5c([H])c(Br)c([H])c([H])c5n4[H])(C2([H])[H])C13O[H]

$$$$
69:1:2
     RDKit          3D

 73 78  0  0  1  0  0  0  0  0999 V2000
   -0.1526    0.7663    9.6429 C   0  0  0  0  0  0  0  0  0  0  0  0
    0.4315    0.4239    8.3970 O   0  0  0  0  0  0  0  0  0  0  0  0
    1.4934   -0.5132    8.5118 C   0  0  0  0  0  0  0  0  0  0  0  0
    2.2315   -0.7032    7.1873 C   0  0  0  0  0  0  0  0  0  0  0  0
    3.5659   -0.8236    7.1708 C   0  0  0  0  0  0  0  0  0  0  0  0
    4.3804   -0.9791    5.9157 C   0  0  1  0  0  0  0  0  0  0  0  0
    4.0179   -2.3192    5.1964 C   0  0  0  0  0  0  0  0  0  0  0  0
    2.8107   -2.2533    4.1943 C   0  0  2  0  0  0  0  0  0  0  0  0
    1.8876   -3.2978    4.5054 O   0  0  0  0  0  0  0  0  0  0  0  0
    2.1302   -4.6057    4.1906 C   0  0  0  0  0  0  0  0  0  0  0  0
    3.2815   -5.1398    3.7147 C   0  0  0  0  0  0  0  0  0  0  0  0
    3.3828   -6.5242    3.4148 C   0  0  0  0  0  0  0  0  0  0  0  0
    4.4570   -7.0528    2.9264 N   0  0  0  0  0  0  0  0  0  0  0  0
    2.2035   -7.3864    3.6828 C   0  0  0  0  0  0  0  0  0  0  0  0
    2.1943   -8.7809    3.4391 C   0  0  0  0  0  0  0  0  0  0  0  0
    1.0371   -9.5302    3.7267 C   0  0  0  0  0  0  0  0  0  0  0  0
    1.0134  -11.4010    3.4135 Br  0  0  0  0  0  0  0  0  0  0  0  0
   -0.1035   -8.8918    4.2514 C   0  0  0  0  0  0  0  0  0  0  0  0
   -0.1084   -7.5103    4.4936 C   0  0  0  0  0  0  0  0  0  0  0  0
    1.0359   -6.7641    4.2055 C   0  0  0  0  0  0  0  0  0  0  0  0
    1.0187   -5.3849    4.4315 N   0  0  0  0  0  0  0  0  0  0  0  0
    3.2323   -2.0844    2.6755 C   0  0  2  0  0  0  0  0  0  0  0  0
    2.0182   -2.2543    1.7095 C   0  0  0  0  0  0  0  0  0  0  0  0
    4.4339   -2.7153    1.9203 C   0  0  0  0  0  0  0  0  0  0  0  0
    4.9125   -1.6208    0.8987 C   0  0  0  0  0  0  0  0  0  0  0  0
    6.4524   -1.5409    0.9393 C   0  0  0  0  0  0  0  0  0  0  0  0
    4.4875   -1.9318   -0.5520 C   0  0  0  0  0  0  0  0  0  0  0  0
    4.2634   -0.2848    1.3959 C   0  0  0  0  0  0  0  0  0  0  0  0
    3.8317   -0.6916    2.8018 C   0  0  1  0  0  0  0  0  0  0  0  0
    3.0990    0.1208    3.9299 C   0  0  2  0  0  0  0  0  0  0  0  0
    2.5750    1.4892    3.4361 C   0  0  0  0  0  0  0  0  0  0  0  0
    4.1150    0.2880    5.0824 C   0  0  0  0  0  0  0  0  0  0  0  0
    4.6787    1.3510    5.3302 O   0  0  0  0  0  0  0  0  0  0  0  0
    2.0273   -0.8989    4.4756 C   0  0  1  0  0  0  0  0  0  0  0  0
    0.8794   -0.7141    3.6546 O   0  0  0  0  0  0  0  0  0  0  0  0
    1.3668   -0.6982    5.9188 C   0  0  1  0  0  0  0  0  0  0  0  0
    0.3280   -1.6520    6.1161 O   0  0  0  0  0  0  0  0  0  0  0  0
    0.1984   -4.9508    4.8354 H   0  0  0  0  0  0  0  0  0  0  0  0
   -0.9564    1.4825    9.4757 H   0  0  0  0  0  0  0  0  0  0  0  0
    0.5765    1.2313   10.3065 H   0  0  0  0  0  0  0  0  0  0  0  0
   -0.5748   -0.1067   10.1424 H   0  0  0  0  0  0  0  0  0  0  0  0
    2.2030   -0.1815    9.2718 H   0  0  0  0  0  0  0  0  0  0  0  0
    1.0960   -1.4741    8.8439 H   0  0  0  0  0  0  0  0  0  0  0  0
    4.1313   -0.8007    8.0914 H   0  0  0  0  0  0  0  0  0  0  0  0
    5.4303   -0.9949    6.2094 H   0  0  0  0  0  0  0  0  0  0  0  0
    4.9106   -2.7151    4.7128 H   0  0  0  0  0  0  0  0  0  0  0  0
    3.7809   -3.0552    5.9669 H   0  0  0  0  0  0  0  0  0  0  0  0
    4.1706   -4.5579    3.5686 H   0  0  0  0  0  0  0  0  0  0  0  0
    5.2674   -6.4715    2.7368 H   0  0  0  0  0  0  0  0  0  0  0  0
    3.0528   -9.2998    3.0356 H   0  0  0  0  0  0  0  0  0  0  0  0
   -0.9898   -9.4536    4.4764 H   0  0  0  0  0  0  0  0  0  0  0  0
   -0.9864   -7.0316    4.9026 H   0  0  0  0  0  0  0  0  0  0  0  0
    2.2181   -2.9195    0.8706 H   0  0  0  0  0  0  0  0  0  0  0  0
    1.6645   -1.3123    1.2881 H   0  0  0  0  0  0  0  0  0  0  0  0
    1.1752   -2.7070    2.2244 H   0  0  0  0  0  0  0  0  0  0  0  0
    5.2594   -2.9490    2.5928 H   0  0  0  0  0  0  0  0  0  0  0  0
    4.1847   -3.6484    1.4145 H   0  0  0  0  0  0  0  0  0  0  0  0
    6.8276   -0.7698    0.2697 H   0  0  0  0  0  0  0  0  0  0  0  0
    6.9052   -2.4889    0.6481 H   0  0  0  0  0  0  0  0  0  0  0  0
    6.8098   -1.3009    1.9400 H   0  0  0  0  0  0  0  0  0  0  0  0
    4.8931   -1.1927   -1.2421 H   0  0  0  0  0  0  0  0  0  0  0  0
    3.4064   -1.9161   -0.6830 H   0  0  0  0  0  0  0  0  0  0  0  0
    4.8424   -2.9126   -0.8745 H   0  0  0  0  0  0  0  0  0  0  0  0
    4.9651    0.5471    1.3885 H   0  0  0  0  0  0  0  0  0  0  0  0
    3.4044    0.0044    0.7909 H   0  0  0  0  0  0  0  0  0  0  0  0
    4.8337   -0.8399    3.2113 H   0  0  0  0  0  0  0  0  0  0  0  0
    1.9306    1.3903    2.5609 H   0  0  0  0  0  0  0  0  0  0  0  0
    3.4033    2.1312    3.1352 H   0  0  0  0  0  0  0  0  0  0  0  0
    2.0234    2.0161    4.2168 H   0  0  0  0  0  0  0  0  0  0  0  0
    0.6388    0.1983    3.6829 H   0  0  0  0  0  0  0  0  0  0  0  0
    0.8837    0.2789    5.9204 H   0  0  0  0  0  0  0  0  0  0  0  0
    0.6945   -2.5073    5.9468 H   0  0  0  0  0  0  0  0  0  0  0  0
    4.5347   -8.0510    2.7370 H   0  0  0  0  0  0  0  0  0  0  0  0
  1  2  1  0
  1 39  1  0
  1 40  1  0
  1 41  1  0
  2  3  1  0
  3  4  1  0
  3 42  1  0
  3 43  1  0
  4 36  1  0
  4  5  2  0
  5  6  1  0
  5 44  1  0
  6 32  1  0
  6  7  1  0
  6 45  1  1
  7  8  1  0
  7 46  1  0
  7 47  1  0
  8 34  1  0
  8  9  1  6
  8 22  1  0
  9 10  1  0
 10 21  1  0
 10 11  2  0
 11 12  1  0
 11 48  1  0
 12 13  2  3
 12 14  1  0
 13 49  1  0
 13 73  1  0
 14 20  2  0
 14 15  1  0
 15 16  2  0
 15 50  1  0
 16 17  1  0
 16 18  1  0
 18 19  2  0
 18 51  1  0
 19 20  1  0
 19 52  1  0
 20 21  1  0
 21 38  1  0
 22 29  1  0
 22 23  1  6
 22 24  1  0
 23 53  1  0
 23 54  1  0
 23 55  1  0
 24 25  1  0
 24 56  1  0
 24 57  1  0
 25 26  1  0
 25 27  1  0
 25 28  1  0
 26 58  1  0
 26 59  1  0
 26 60  1  0
 27 61  1  0
 27 62  1  0
 27 63  1  0
 28 29  1  0
 28 64  1  0
 28 65  1  0
 29 30  1  0
 29 66  1  1
 30 31  1  6
 30 32  1  0
 30 34  1  0
 31 67  1  0
 31 68  1  0
 31 69  1  0
 32 33  2  0
 34 35  1  6
 34 36  1  0
 35 70  1  0
 36 37  1  0
 36 71  1  6
 37 72  1  0
M  CHG  1  13   1
M  END
>  <i_m_ct_stereo_status>  (229) 
1

>  <s_m_source_file>  (229) 
/var/tmp/pbs.5083856.sched01/tmpmci7z13a/90fdrtcq7s.sdf

>  <i_m_source_file_index>  (229) 
5

>  <i_lp_mmshare_version>  (229) 
48012

>  <i_f3d_flags>  (229) 
0

>  <s_epik_input>  (229) 
Tz1DMVtDQEhdKFtDSDJdMilbQ0hdPUMoW0NIMl1PW0NIM10pW0NASF0oW09IXSlbQ0BAXTMoW09IXSlbQ0BdMShbQ0gzXSlbQ0BIXShbQ0gyXUMoW0NIMl00KShbQ0gzXSlbQ0gzXSlbQ0BdNChbQ0gzXSlbQ0BAXTIzT2MoW2NIXS9jNT1OL1tIXSlbbkhdYyhjNTYpW2NIXVtjSF1jKEJyKVtjSF02

>  <s_epik_cmdline>  (229) 
J2VwaWtfcHl0aG9uJywgJy1waHQnLCAnMi4wJywgJy1waCcsICc3LjAnLCAnLXRuJywgJzgnLCAnLW1hJywgJzIwMCcsICctaW1hZScsICc8aW5maWxlLm1hZT4nLCAnLW9tYWUnLCAnPG91dGZpbGUubWFlPic=

>  <r_epik_Ionization_Penalty>  (229) 
0.137544

>  <r_epik_Ionization_Penalty_Charging>  (229) 
1.38673e-05

>  <r_epik_Ionization_Penalty_Neutral>  (229) 
0.137531

>  <r_epik_State_Penalty>  (229) 
0.754368

>  <r_epik_Charging_Adjusted_Penalty>  (229) 
0.754382

>  <i_epik_Tot_Q>  (229) 
1

>  <i_epik_Tot_abs_Q>  (229) 
1

>  <s_epik_Chemistry_Notes>  (229) 
This compound has an imine and may undergo hydrolysis.

>  <s_lp_Force_Field>  (229) 
OPLS3e

>  <r_lp_Energy>  (229) 
99.9725

>  <b_lp_Chiralities_Consistent>  (229) 
1

>  <s_lp_Variant>  (229) 
69:0-2

>  <s_i_glide_gridfile>  (229) 
pfpi4k_grid

>  <i_i_glide_lignum>  (229) 
5

>  <i_i_glide_rotatable_bonds>  (229) 
6

>  <r_i_docking_score>  (229) 
-2.5026

>  <r_i_glide_ligand_efficiency>  (229) 
-0.0676379

>  <r_i_glide_ligand_efficiency_sa>  (229) 
-0.225385

>  <r_i_glide_ligand_efficiency_ln>  (229) 
-0.542756

>  <r_i_glide_gscore>  (229) 
-2.5026

>  <r_i_glide_lipo>  (229) 
-0.496675

>  <r_i_glide_hbond>  (229) 
0

>  <r_i_glide_metal>  (229) 
-0

>  <r_i_glide_rewards>  (229) 
-0.50239

>  <r_i_glide_evdw>  (229) 
-26.393

>  <r_i_glide_ecoul>  (229) 
-1.84014

>  <r_i_glide_erotb>  (229) 
0.098618

>  <r_i_glide_esite>  (229) 
-0.00648386

>  <r_i_glide_emodel>  (229) 
-37.8013

>  <r_i_glide_energy>  (229) 
-28.2332

>  <r_i_glide_einternal>  (229) 
1.64819

>  <r_i_glide_intrahb_reward>  (229) 
-0.5

>  <i_i_glide_confnum>  (229) 
2

>  <i_i_glide_posenum>  (229) 
5

>  <r_i_glide_eff_state_penalty>  (229) 
0

>  <ligand_id>  (229) 
69

>  <original_smiles>  (229) 
COCC1=CC2CC3(Oc4cc(=N)c5cc(Br)ccc5[nH]4)C4(C)CC(C)(C)CC4C(C)(C2=O)C3(O)C1O

>  <smiles>  (229) 
[H]OC1([H])C(C([H])([H])OC([H])([H])[H])=C([H])C2([H])C(=O)C3(C([H])([H])[H])C4([H])C([H])([H])C(C([H])([H])[H])(C([H])([H])[H])C([H])([H])C4(C([H])([H])[H])C(Oc4c([H])c(=[N+]([H])[H])c5c([H])c(Br)c([H])c([H])c5n4[H])(C2([H])[H])C13O[H]

$$$$
70:0:0
     RDKit          3D

 81 87  0  0  1  0  0  0  0  0999 V2000
    0.4126   -5.8824    4.6452 C   0  0  0  0  0  0  0  0  0  0  0  0
    0.6283   -7.1852    4.4194 C   0  0  0  0  0  0  0  0  0  0  0  0
    1.7547   -7.9844    5.0212 C   0  0  0  0  0  0  0  0  0  0  0  0
    1.1616   -9.4198    5.1481 C   0  0  1  0  0  0  0  0  0  0  0  0
    0.3455   -9.5586    6.4518 C   0  0  0  0  0  0  0  0  0  0  0  0
    0.2508   -9.4904    3.9037 C   0  0  2  0  0  0  0  0  0  0  0  0
    1.1138  -10.1363    2.8045 C   0  0  0  0  0  0  0  0  0  0  0  0
    2.0929  -11.0409    3.5388 C   0  0  1  0  0  0  0  0  0  0  0  0
    1.5618  -12.0049    4.5997 C   0  0  0  0  0  0  0  0  0  0  0  0
    2.0906  -10.6336    4.9880 C   0  0  2  0  0  0  0  0  0  0  0  0
    3.6102  -10.5136    4.9603 C   0  0  2  0  0  0  0  0  0  0  0  0
    4.4746   -9.4932    5.6684 C   0  0  0  0  0  0  0  0  0  0  0  0
    6.0122   -9.8301    5.6931 C   0  0  1  0  0  0  0  0  0  0  0  0
    6.4864  -11.2474    6.2122 C   0  0  1  0  0  0  0  0  0  0  0  0
    6.0297  -11.5240    7.6520 C   0  0  0  0  0  0  0  0  0  0  0  0
    6.4898  -10.6389    8.7787 C   0  0  0  0  0  0  0  0  0  0  0  0
    5.8748  -11.2132    9.9200 O   0  0  0  0  0  0  0  0  0  0  0  0
    5.1384  -12.2903    9.5955 C   0  0  0  0  0  0  0  0  0  0  0  0
    4.4962  -12.9888   10.3832 O   0  0  0  0  0  0  0  0  0  0  0  0
    5.2392  -12.4976    8.1537 C   0  0  0  0  0  0  0  0  0  0  0  0
    6.5193  -12.4801    5.2296 C   0  0  1  0  0  0  0  0  0  0  0  0
    5.3199  -13.2192    5.1880 O   0  0  0  0  0  0  0  0  0  0  0  0
    6.9176  -12.2222    3.7471 C   0  0  1  0  0  0  0  0  0  0  0  0
    7.0517  -13.4939    3.1203 O   0  0  0  0  0  0  0  0  0  0  0  0
    5.9979  -11.2685    2.8894 C   0  0  1  0  0  0  0  0  0  0  0  0
    6.3502  -11.5535    1.5367 O   0  0  0  0  0  0  0  0  0  0  0  0
    4.5469  -11.6547    2.9545 N   0  0  0  0  0  0  0  0  0  0  0  0
    3.5715  -10.6455    3.4501 C   0  0  1  0  0  0  0  0  0  0  0  0
    6.2455   -9.7459    3.1192 C   0  0  0  0  0  0  0  0  0  0  0  0
    5.9267   -8.8970    2.1121 C   0  0  0  0  0  0  0  0  0  0  0  0
    6.8797   -9.3204    4.4753 C   0  0  1  0  0  0  0  0  0  0  0  0
    7.4963   -7.8451    4.6191 C   0  0  0  0  0  0  0  0  0  0  0  0
    8.4863   -7.4991    3.4451 C   0  0  0  0  0  0  0  0  0  0  0  0
    6.3493   -6.7943    4.6987 C   0  0  0  0  0  0  0  0  0  0  0  0
    8.4169   -7.7706    5.9201 C   0  0  0  0  0  0  0  0  0  0  0  0
    9.0382   -6.4147    6.3127 C   0  0  0  0  0  0  0  0  0  0  0  0
   10.2492   -6.4238    6.5979 O   0  0  0  0  0  0  0  0  0  0  0  0
    8.2795   -5.4153    6.4088 O   0  0  0  0  0  0  0  0  0  0  0  0
   -0.2416   -8.0801    3.7018 C   0  0  0  0  0  0  0  0  0  0  0  0
   -1.4304   -7.7467    3.1771 C   0  0  0  0  0  0  0  0  0  0  0  0
   -0.4485   -5.3377    4.2873 H   0  0  0  0  0  0  0  0  0  0  0  0
    1.0948   -5.3162    5.2597 H   0  0  0  0  0  0  0  0  0  0  0  0
    2.5387   -7.9205    4.2695 H   0  0  0  0  0  0  0  0  0  0  0  0
    2.1040   -7.5552    5.9602 H   0  0  0  0  0  0  0  0  0  0  0  0
   -0.1803  -10.5173    6.4829 H   0  0  0  0  0  0  0  0  0  0  0  0
   -0.4079   -8.7757    6.5074 H   0  0  0  0  0  0  0  0  0  0  0  0
    0.9792   -9.4909    7.3422 H   0  0  0  0  0  0  0  0  0  0  0  0
   -0.5704  -10.1587    4.0913 H   0  0  0  0  0  0  0  0  0  0  0  0
    0.4701  -10.7581    2.1952 H   0  0  0  0  0  0  0  0  0  0  0  0
    1.6015   -9.4240    2.1515 H   0  0  0  0  0  0  0  0  0  0  0  0
    0.4938  -12.1681    4.6743 H   0  0  0  0  0  0  0  0  0  0  0  0
    2.1510  -12.8811    4.8929 H   0  0  0  0  0  0  0  0  0  0  0  0
    3.9201  -11.4543    5.3806 H   0  0  0  0  0  0  0  0  0  0  0  0
    4.3643   -8.5049    5.2315 H   0  0  0  0  0  0  0  0  0  0  0  0
    4.1308   -9.4010    6.6967 H   0  0  0  0  0  0  0  0  0  0  0  0
    6.2961   -9.1895    6.5167 H   0  0  0  0  0  0  0  0  0  0  0  0
    7.5552  -11.0971    6.3773 H   0  0  0  0  0  0  0  0  0  0  0  0
    6.1550   -9.6110    8.6457 H   0  0  0  0  0  0  0  0  0  0  0  0
    7.5761  -10.6462    8.8744 H   0  0  0  0  0  0  0  0  0  0  0  0
    4.7386  -13.2977    7.6492 H   0  0  0  0  0  0  0  0  0  0  0  0
    7.2684  -13.1716    5.6369 H   0  0  0  0  0  0  0  0  0  0  0  0
    5.0876  -13.4505    6.0750 H   0  0  0  0  0  0  0  0  0  0  0  0
    7.9403  -11.8569    3.7313 H   0  0  0  0  0  0  0  0  0  0  0  0
    6.1985  -13.8881    3.0337 H   0  0  0  0  0  0  0  0  0  0  0  0
    5.5850  -11.7990    0.9941 H   0  0  0  0  0  0  0  0  0  0  0  0
    4.2656  -11.8561    1.9720 H   0  0  0  0  0  0  0  0  0  0  0  0
    3.6429   -9.6614    2.9756 H   0  0  0  0  0  0  0  0  0  0  0  0
    5.5048   -9.2741    1.1907 H   0  0  0  0  0  0  0  0  0  0  0  0
    6.0454   -7.8224    2.1765 H   0  0  0  0  0  0  0  0  0  0  0  0
    7.8039   -9.8912    4.5136 H   0  0  0  0  0  0  0  0  0  0  0  0
    8.7203   -6.4282    3.4732 H   0  0  0  0  0  0  0  0  0  0  0  0
    8.1589   -7.7067    2.4252 H   0  0  0  0  0  0  0  0  0  0  0  0
    9.4383   -8.0337    3.5681 H   0  0  0  0  0  0  0  0  0  0  0  0
    6.7417   -5.8022    4.4763 H   0  0  0  0  0  0  0  0  0  0  0  0
    5.9180   -6.7655    5.7052 H   0  0  0  0  0  0  0  0  0  0  0  0
    5.5213   -6.9307    4.0017 H   0  0  0  0  0  0  0  0  0  0  0  0
    7.9329   -8.0559    6.8480 H   0  0  0  0  0  0  0  0  0  0  0  0
    9.2388   -8.4809    5.7960 H   0  0  0  0  0  0  0  0  0  0  0  0
   -1.8126   -6.7418    3.2100 H   0  0  0  0  0  0  0  0  0  0  0  0
   -2.1004   -8.4873    2.7667 H   0  0  0  0  0  0  0  0  0  0  0  0
    4.4797  -12.5269    3.4751 H   0  0  0  0  0  0  0  0  0  0  0  0
  1  2  2  0
  1 41  1  0
  1 42  1  0
  2 39  1  0
  2  3  1  0
  3  4  1  0
  3 43  1  0
  3 44  1  0
  4 10  1  0
  4  5  1  1
  4  6  1  0
  5 45  1  0
  5 46  1  0
  5 47  1  0
  6  7  1  0
  6 39  1  0
  6 48  1  1
  8  7  1  6
  7 49  1  0
  7 50  1  0
  8 10  1  0
  8 28  1  0
  8  9  1  0
 10  9  1  1
  9 51  1  0
  9 52  1  0
 10 11  1  0
 11 28  1  0
 11 12  1  0
 11 53  1  1
 12 13  1  0
 12 54  1  0
 12 55  1  0
 13 31  1  0
 13 14  1  0
 13 56  1  1
 14 21  1  0
 14 57  1  1
 14 15  1  0
 15 20  2  0
 15 16  1  0
 16 17  1  0
 16 58  1  0
 16 59  1  0
 17 18  1  0
 18 20  1  0
 18 19  2  0
 20 60  1  0
 21 22  1  0
 21 23  1  0
 21 61  1  1
 22 62  1  0
 23 24  1  0
 23 25  1  0
 23 63  1  1
 24 64  1  0
 25 26  1  6
 25 27  1  0
 25 29  1  0
 26 65  1  0
 27 28  1  0
 27 66  1  0
 27 81  1  0
 28 67  1  6
 29 30  2  0
 29 31  1  0
 30 68  1  0
 30 69  1  0
 31 32  1  0
 31 70  1  1
 32 33  1  0
 32 34  1  0
 32 35  1  0
 33 71  1  0
 33 72  1  0
 33 73  1  0
 34 74  1  0
 34 75  1  0
 34 76  1  0
 35 36  1  0
 35 77  1  0
 35 78  1  0
 36 37  2  0
 36 38  1  0
 39 40  2  0
 40 79  1  0
 40 80  1  0
M  CHG  2  27   1  38  -1
M  END
>  <i_m_ct_stereo_status>  (230) 
1

>  <s_m_source_file>  (230) 
/var/tmp/pbs.5083856.sched01/tmpulh63j03/95gpwz8mf4.sdf

>  <i_m_source_file_index>  (230) 
1

>  <i_lp_mmshare_version>  (230) 
48012

>  <i_f3d_flags>  (230) 
0

>  <s_epik_input>  (230) 
W0NIMl09QyhbQ0gyXTEpQyg9W0NIMl0pW0NAQEhdKFtDSDJdMilbQ0BAXTEoW0NIM10pW0NAXShbQ0BdMjM0KShbQ0gyXTMpW0NASF01W0NASF00W05IXVtDQF02KFtPSF0pW0NASF0oW09IXSlbQ0BIXShbT0hdKVtDQEhdKGM3W2NIXW9jKFtPSF0pW2NIXTcpW0NASF0oW0NIMl01KVtDQEBIXShDNj1bQ0gyXSlDKFtDSDNdKShbQ0gzXSlbQ0gyXUMoPU8pW09IXQ==

>  <s_epik_cmdline>  (230) 
J2VwaWtfcHl0aG9uJywgJy1waHQnLCAnMi4wJywgJy1waCcsICc3LjAnLCAnLXRuJywgJzgnLCAnLW1hJywgJzIwMCcsICctaW1hZScsICc8aW5maWxlLm1hZT4nLCAnLW9tYWUnLCAnPG91dGZpbGUubWFlPic=

>  <r_lp_tautomer_probability>  (230) 
0.999841

>  <r_epik_Ionization_Penalty>  (230) 
0.234055

>  <r_epik_Ionization_Penalty_Charging>  (230) 
0.230631

>  <r_epik_Ionization_Penalty_Neutral>  (230) 
0.00342431

>  <r_epik_State_Penalty>  (230) 
0.218073

>  <r_epik_Charging_Adjusted_Penalty>  (230) 
0.448704

>  <i_epik_Tot_Q>  (230) 
0

>  <i_epik_Tot_abs_Q>  (230) 
2

>  <s_epik_Chemistry_Notes>  (230) 
This compound has an ester and may undergo hydrolysis at high or low pH.

>  <s_lp_Force_Field>  (230) 
OPLS3e

>  <r_lp_Energy>  (230) 
87.5807

>  <b_lp_Chiralities_Consistent>  (230) 
1

>  <s_lp_Variant>  (230) 
70:0-1

>  <s_i_glide_gridfile>  (230) 
pfpi4k_grid

>  <i_i_glide_lignum>  (230) 
1

>  <i_i_glide_rotatable_bonds>  (230) 
7

>  <r_i_docking_score>  (230) 
-4.04494

>  <r_i_glide_ligand_efficiency>  (230) 
-0.101124

>  <r_i_glide_ligand_efficiency_sa>  (230) 
-0.345838

>  <r_i_glide_ligand_efficiency_ln>  (230) 
-0.862667

>  <r_i_glide_gscore>  (230) 
-4.04494

>  <r_i_glide_lipo>  (230) 
-0.235642

>  <r_i_glide_hbond>  (230) 
-0.2

>  <r_i_glide_metal>  (230) 
-0

>  <r_i_glide_rewards>  (230) 
-0.523481

>  <r_i_glide_evdw>  (230) 
-24.5446

>  <r_i_glide_ecoul>  (230) 
-12.2627

>  <r_i_glide_erotb>  (230) 
0.134021

>  <r_i_glide_esite>  (230) 
-0.153202

>  <r_i_glide_emodel>  (230) 
-50.7317

>  <r_i_glide_energy>  (230) 
-36.8073

>  <r_i_glide_einternal>  (230) 
6.94446

>  <r_i_glide_intrahb_reward>  (230) 
-0.5

>  <i_i_glide_confnum>  (230) 
3

>  <i_i_glide_posenum>  (230) 
12

>  <r_i_glide_eff_state_penalty>  (230) 
0

>  <ligand_id>  (230) 
70

>  <original_smiles>  (230) 
C=C1CC2(C)C(CC34CC23C2CC3C(c5coc(O)c5)C(O)C(O)C(O)(NC24)C(=C)C3C(C)(C)CC(=O)O)C1=C

>  <smiles>  (230) 
[H]OC1([H])C([H])(O[H])C2(O[H])C(=C([H])[H])C([H])(C(C([H])([H])[H])(C([H])([H])[H])C([H])([H])C(=O)[O-])C([H])(C([H])([H])C3([H])C45C([H])([H])C4(C([H])([H])C4([H])C(=C([H])[H])C(=C([H])[H])C([H])([H])C45C([H])([H])[H])C3([H])[N+]2([H])[H])C1([H])C1=C([H])C(=O)OC1([H])[H]

$$$$
70:0:1
     RDKit          3D

 81 87  0  0  1  0  0  0  0  0999 V2000
    0.0577   -6.2250    4.1917 C   0  0  0  0  0  0  0  0  0  0  0  0
    0.4863   -7.4953    4.1249 C   0  0  0  0  0  0  0  0  0  0  0  0
    1.8228   -7.9840    4.6272 C   0  0  0  0  0  0  0  0  0  0  0  0
    1.5275   -9.4454    5.0830 C   0  0  1  0  0  0  0  0  0  0  0  0
    0.9545   -9.4617    6.4995 C   0  0  0  0  0  0  0  0  0  0  0  0
    0.4948   -9.9040    4.0317 C   0  0  2  0  0  0  0  0  0  0  0  0
    1.3053  -10.5929    2.9338 C   0  0  0  0  0  0  0  0  0  0  0  0
    2.5491  -11.1549    3.5946 C   0  0  1  0  0  0  0  0  0  0  0  0
    2.3854  -11.9850    4.8618 C   0  0  0  0  0  0  0  0  0  0  0  0
    2.6675  -10.4968    4.9443 C   0  0  2  0  0  0  0  0  0  0  0  0
    4.1229  -10.1607    4.6490 C   0  0  2  0  0  0  0  0  0  0  0  0
    4.8809   -8.8744    5.0231 C   0  0  0  0  0  0  0  0  0  0  0  0
    6.4410   -8.9151    4.8880 C   0  0  1  0  0  0  0  0  0  0  0  0
    7.2252  -10.1654    5.4852 C   0  0  1  0  0  0  0  0  0  0  0  0
    7.0433  -10.2279    7.0063 C   0  0  0  0  0  0  0  0  0  0  0  0
    7.3383   -9.0334    7.8740 C   0  0  0  0  0  0  0  0  0  0  0  0
    7.0613   -9.4889    9.1781 O   0  0  0  0  0  0  0  0  0  0  0  0
    6.6342  -10.7716    9.1707 C   0  0  0  0  0  0  0  0  0  0  0  0
    6.3190  -11.4280   10.1656 O   0  0  0  0  0  0  0  0  0  0  0  0
    6.6329  -11.2318    7.7999 C   0  0  0  0  0  0  0  0  0  0  0  0
    7.3799  -11.5268    4.7125 C   0  0  1  0  0  0  0  0  0  0  0  0
    6.3681  -12.4774    5.0093 O   0  0  0  0  0  0  0  0  0  0  0  0
    7.4988  -11.4726    3.1656 C   0  0  1  0  0  0  0  0  0  0  0  0
    7.7894  -12.8002    2.7322 O   0  0  0  0  0  0  0  0  0  0  0  0
    6.3251  -10.8387    2.3171 C   0  0  1  0  0  0  0  0  0  0  0  0
    6.5655  -11.3178    0.9996 O   0  0  0  0  0  0  0  0  0  0  0  0
    4.9810  -11.4518    2.6565 N   0  0  0  0  0  0  0  0  0  0  0  0
    3.8997  -10.5382    3.2078 C   0  0  1  0  0  0  0  0  0  0  0  0
    6.2915   -9.2753    2.2968 C   0  0  0  0  0  0  0  0  0  0  0  0
    5.6662   -8.6637    1.2540 C   0  0  0  0  0  0  0  0  0  0  0  0
    6.9891   -8.5224    3.4450 C   0  0  1  0  0  0  0  0  0  0  0  0
    7.2911   -6.9442    3.3147 C   0  0  0  0  0  0  0  0  0  0  0  0
    7.9728   -6.6448    1.9252 C   0  0  0  0  0  0  0  0  0  0  0  0
    6.0045   -6.0583    3.3201 C   0  0  0  0  0  0  0  0  0  0  0  0
    8.3443   -6.4497    4.3862 C   0  0  0  0  0  0  0  0  0  0  0  0
    8.0158   -6.2252    5.8739 C   0  0  0  0  0  0  0  0  0  0  0  0
    8.9627   -6.1513    6.6623 O   0  0  0  0  0  0  0  0  0  0  0  0
    6.7779   -6.1590    6.1868 O   0  0  0  0  0  0  0  0  0  0  0  0
   -0.2908   -8.6505    3.7149 C   0  0  0  0  0  0  0  0  0  0  0  0
   -1.5764   -8.6046    3.3296 C   0  0  0  0  0  0  0  0  0  0  0  0
   -0.9387   -5.8774    3.9310 H   0  0  0  0  0  0  0  0  0  0  0  0
    0.7011   -5.4515    4.5722 H   0  0  0  0  0  0  0  0  0  0  0  0
    2.4588   -7.9217    3.7534 H   0  0  0  0  0  0  0  0  0  0  0  0
    2.2198   -7.3343    5.4264 H   0  0  0  0  0  0  0  0  0  0  0  0
    0.6013  -10.4587    6.7572 H   0  0  0  0  0  0  0  0  0  0  0  0
    0.0730   -8.8128    6.5816 H   0  0  0  0  0  0  0  0  0  0  0  0
    1.6817   -9.1440    7.2544 H   0  0  0  0  0  0  0  0  0  0  0  0
   -0.1572  -10.6632    4.5192 H   0  0  0  0  0  0  0  0  0  0  0  0
    0.7317  -11.3969    2.5387 H   0  0  0  0  0  0  0  0  0  0  0  0
    1.5487   -9.9320    2.0684 H   0  0  0  0  0  0  0  0  0  0  0  0
    1.3588  -12.3052    5.1495 H   0  0  0  0  0  0  0  0  0  0  0  0
    3.1593  -12.6898    5.1634 H   0  0  0  0  0  0  0  0  0  0  0  0
    4.6506  -10.9239    5.1702 H   0  0  0  0  0  0  0  0  0  0  0  0
    4.5009   -8.0432    4.4592 H   0  0  0  0  0  0  0  0  0  0  0  0
    4.6800   -8.6576    6.0706 H   0  0  0  0  0  0  0  0  0  0  0  0
    6.7074   -8.1496    5.4866 H   0  0  0  0  0  0  0  0  0  0  0  0
    8.2478   -9.7962    5.4203 H   0  0  0  0  0  0  0  0  0  0  0  0
    6.6859   -8.1845    7.6540 H   0  0  0  0  0  0  0  0  0  0  0  0
    8.3799   -8.7107    7.7940 H   0  0  0  0  0  0  0  0  0  0  0  0
    6.3478  -12.2380    7.5206 H   0  0  0  0  0  0  0  0  0  0  0  0
    8.3264  -11.9849    5.0769 H   0  0  0  0  0  0  0  0  0  0  0  0
    6.4633  -12.6751    5.9350 H   0  0  0  0  0  0  0  0  0  0  0  0
    8.4216  -10.9408    2.9317 H   0  0  0  0  0  0  0  0  0  0  0  0
    7.0382  -13.3457    2.9499 H   0  0  0  0  0  0  0  0  0  0  0  0
    5.7336  -11.5447    0.5790 H   0  0  0  0  0  0  0  0  0  0  0  0
    4.6125  -11.8409    1.7952 H   0  0  0  0  0  0  0  0  0  0  0  0
    3.7291   -9.6550    2.5896 H   0  0  0  0  0  0  0  0  0  0  0  0
    5.1677   -9.2660    0.4692 H   0  0  0  0  0  0  0  0  0  0  0  0
    5.5693   -7.5999    1.1414 H   0  0  0  0  0  0  0  0  0  0  0  0
    8.0154   -8.9127    3.3832 H   0  0  0  0  0  0  0  0  0  0  0  0
    8.0212   -5.5775    1.7162 H   0  0  0  0  0  0  0  0  0  0  0  0
    7.5484   -7.1081    1.0307 H   0  0  0  0  0  0  0  0  0  0  0  0
    9.0024   -6.9923    1.9252 H   0  0  0  0  0  0  0  0  0  0  0  0
    6.2405   -5.0671    2.9123 H   0  0  0  0  0  0  0  0  0  0  0  0
    5.5712   -5.9179    4.3121 H   0  0  0  0  0  0  0  0  0  0  0  0
    5.1755   -6.4676    2.7469 H   0  0  0  0  0  0  0  0  0  0  0  0
    9.1690   -7.1478    4.4062 H   0  0  0  0  0  0  0  0  0  0  0  0
    8.7943   -5.5241    4.0515 H   0  0  0  0  0  0  0  0  0  0  0  0
   -2.1596   -7.6851    3.2716 H   0  0  0  0  0  0  0  0  0  0  0  0
   -2.1437   -9.5018    3.1682 H   0  0  0  0  0  0  0  0  0  0  0  0
    5.1727  -12.1954    3.3194 H   0  0  0  0  0  0  0  0  0  0  0  0
  1  2  2  0
  1 41  1  0
  1 42  1  0
  2 39  1  0
  2  3  1  0
  3  4  1  0
  3 43  1  0
  3 44  1  0
  4 10  1  0
  4  5  1  1
  4  6  1  0
  5 45  1  0
  5 46  1  0
  5 47  1  0
  6  7  1  0
  6 39  1  0
  6 48  1  1
  8  7  1  6
  7 49  1  0
  7 50  1  0
  8 10  1  0
  8 28  1  0
  8  9  1  0
 10  9  1  1
  9 51  1  0
  9 52  1  0
 10 11  1  0
 11 28  1  0
 11 12  1  0
 11 53  1  1
 12 13  1  0
 12 54  1  0
 12 55  1  0
 13 31  1  0
 13 14  1  0
 13 56  1  1
 14 21  1  0
 14 57  1  1
 14 15  1  0
 15 20  2  0
 15 16  1  0
 16 17  1  0
 16 58  1  0
 16 59  1  0
 17 18  1  0
 18 20  1  0
 18 19  2  0
 20 60  1  0
 21 22  1  0
 21 23  1  0
 21 61  1  1
 22 62  1  0
 23 24  1  0
 23 25  1  0
 23 63  1  1
 24 64  1  0
 25 26  1  6
 25 27  1  0
 25 29  1  0
 26 65  1  0
 27 28  1  0
 27 66  1  0
 27 81  1  0
 28 67  1  6
 29 30  2  0
 29 31  1  0
 30 68  1  0
 30 69  1  0
 31 32  1  0
 31 70  1  1
 32 33  1  0
 32 34  1  0
 32 35  1  0
 33 71  1  0
 33 72  1  0
 33 73  1  0
 34 74  1  0
 34 75  1  0
 34 76  1  0
 35 36  1  0
 35 77  1  0
 35 78  1  0
 36 37  2  0
 36 38  1  0
 39 40  2  0
 40 79  1  0
 40 80  1  0
M  CHG  2  27   1  38  -1
M  END
>  <i_m_ct_stereo_status>  (231) 
1

>  <s_m_source_file>  (231) 
/var/tmp/pbs.5083856.sched01/tmpulh63j03/95gpwz8mf4.sdf

>  <i_m_source_file_index>  (231) 
1

>  <i_lp_mmshare_version>  (231) 
48012

>  <i_f3d_flags>  (231) 
0

>  <s_epik_input>  (231) 
W0NIMl09QyhbQ0gyXTEpQyg9W0NIMl0pW0NAQEhdKFtDSDJdMilbQ0BAXTEoW0NIM10pW0NAXShbQ0BdMjM0KShbQ0gyXTMpW0NASF01W0NASF00W05IXVtDQF02KFtPSF0pW0NASF0oW09IXSlbQ0BIXShbT0hdKVtDQEhdKGM3W2NIXW9jKFtPSF0pW2NIXTcpW0NASF0oW0NIMl01KVtDQEBIXShDNj1bQ0gyXSlDKFtDSDNdKShbQ0gzXSlbQ0gyXUMoPU8pW09IXQ==

>  <s_epik_cmdline>  (231) 
J2VwaWtfcHl0aG9uJywgJy1waHQnLCAnMi4wJywgJy1waCcsICc3LjAnLCAnLXRuJywgJzgnLCAnLW1hJywgJzIwMCcsICctaW1hZScsICc8aW5maWxlLm1hZT4nLCAnLW9tYWUnLCAnPG91dGZpbGUubWFlPic=

>  <r_lp_tautomer_probability>  (231) 
0.999841

>  <r_epik_Ionization_Penalty>  (231) 
0.234055

>  <r_epik_Ionization_Penalty_Charging>  (231) 
0.230631

>  <r_epik_Ionization_Penalty_Neutral>  (231) 
0.00342431

>  <r_epik_State_Penalty>  (231) 
0.218073

>  <r_epik_Charging_Adjusted_Penalty>  (231) 
0.448704

>  <i_epik_Tot_Q>  (231) 
0

>  <i_epik_Tot_abs_Q>  (231) 
2

>  <s_epik_Chemistry_Notes>  (231) 
This compound has an ester and may undergo hydrolysis at high or low pH.

>  <s_lp_Force_Field>  (231) 
OPLS3e

>  <r_lp_Energy>  (231) 
87.5807

>  <b_lp_Chiralities_Consistent>  (231) 
1

>  <s_lp_Variant>  (231) 
70:0-1

>  <s_i_glide_gridfile>  (231) 
pfpi4k_grid

>  <i_i_glide_lignum>  (231) 
1

>  <i_i_glide_rotatable_bonds>  (231) 
7

>  <r_i_docking_score>  (231) 
-3.93291

>  <r_i_glide_ligand_efficiency>  (231) 
-0.0983228

>  <r_i_glide_ligand_efficiency_sa>  (231) 
-0.336259

>  <r_i_glide_ligand_efficiency_ln>  (231) 
-0.838774

>  <r_i_glide_gscore>  (231) 
-3.93291

>  <r_i_glide_lipo>  (231) 
-0.268788

>  <r_i_glide_hbond>  (231) 
-0.2

>  <r_i_glide_metal>  (231) 
-0

>  <r_i_glide_rewards>  (231) 
-0.514455

>  <r_i_glide_evdw>  (231) 
-22.3204

>  <r_i_glide_ecoul>  (231) 
-12.126

>  <r_i_glide_erotb>  (231) 
0.134021

>  <r_i_glide_esite>  (231) 
-0.148762

>  <r_i_glide_emodel>  (231) 
-46.9452

>  <r_i_glide_energy>  (231) 
-34.4465

>  <r_i_glide_einternal>  (231) 
6.1259

>  <r_i_glide_intrahb_reward>  (231) 
-0.5

>  <i_i_glide_confnum>  (231) 
3

>  <i_i_glide_posenum>  (231) 
25

>  <r_i_glide_eff_state_penalty>  (231) 
0

>  <ligand_id>  (231) 
70

>  <original_smiles>  (231) 
C=C1CC2(C)C(CC34CC23C2CC3C(c5coc(O)c5)C(O)C(O)C(O)(NC24)C(=C)C3C(C)(C)CC(=O)O)C1=C

>  <smiles>  (231) 
[H]OC1([H])C([H])(O[H])C2(O[H])C(=C([H])[H])C([H])(C(C([H])([H])[H])(C([H])([H])[H])C([H])([H])C(=O)[O-])C([H])(C([H])([H])C3([H])C45C([H])([H])C4(C([H])([H])C4([H])C(=C([H])[H])C(=C([H])[H])C([H])([H])C45C([H])([H])[H])C3([H])[N+]2([H])[H])C1([H])C1=C([H])C(=O)OC1([H])[H]

$$$$
70:0:2
     RDKit          3D

 81 87  0  0  1  0  0  0  0  0999 V2000
   -0.0315   -6.2859    4.0645 C   0  0  0  0  0  0  0  0  0  0  0  0
    0.3755   -7.5687    3.9614 C   0  0  0  0  0  0  0  0  0  0  0  0
    1.6596   -8.0791    4.5368 C   0  0  0  0  0  0  0  0  0  0  0  0
    1.3176   -9.5608    4.8875 C   0  0  1  0  0  0  0  0  0  0  0  0
    0.6382   -9.6470    6.2736 C   0  0  0  0  0  0  0  0  0  0  0  0
    0.3272   -9.9317    3.7626 C   0  0  2  0  0  0  0  0  0  0  0  0
    1.2067  -10.5599    2.6721 C   0  0  0  0  0  0  0  0  0  0  0  0
    2.3942  -11.2016    3.3963 C   0  0  1  0  0  0  0  0  0  0  0  0
    2.1240  -12.0957    4.6080 C   0  0  0  0  0  0  0  0  0  0  0  0
    2.4281  -10.6215    4.7909 C   0  0  2  0  0  0  0  0  0  0  0  0
    3.9013  -10.2536    4.6045 C   0  0  2  0  0  0  0  0  0  0  0  0
    4.6198   -9.0183    5.1113 C   0  0  0  0  0  0  0  0  0  0  0  0
    6.1801   -9.1157    4.9907 C   0  0  1  0  0  0  0  0  0  0  0  0
    6.9230  -10.3545    5.6299 C   0  0  1  0  0  0  0  0  0  0  0  0
    6.6352  -10.5077    7.1377 C   0  0  0  0  0  0  0  0  0  0  0  0
    6.8767   -9.3483    8.0766 C   0  0  0  0  0  0  0  0  0  0  0  0
    6.5148   -9.8887    9.3344 O   0  0  0  0  0  0  0  0  0  0  0  0
    6.1222  -11.1757    9.2417 C   0  0  0  0  0  0  0  0  0  0  0  0
    5.7529  -11.8815   10.1676 O   0  0  0  0  0  0  0  0  0  0  0  0
    6.2224  -11.5602    7.8243 C   0  0  0  0  0  0  0  0  0  0  0  0
    7.0984  -11.6913    4.8060 C   0  0  1  0  0  0  0  0  0  0  0  0
    6.0509  -12.6353    4.9076 O   0  0  0  0  0  0  0  0  0  0  0  0
    7.3624  -11.5697    3.2826 C   0  0  1  0  0  0  0  0  0  0  0  0
    7.6669  -12.8992    2.8474 O   0  0  0  0  0  0  0  0  0  0  0  0
    6.2377  -10.8787    2.4011 C   0  0  1  0  0  0  0  0  0  0  0  0
    6.6136  -11.3013    1.0901 O   0  0  0  0  0  0  0  0  0  0  0  0
    4.8774  -11.4763    2.6178 N   0  0  0  0  0  0  0  0  0  0  0  0
    3.7749  -10.5801    3.1190 C   0  0  1  0  0  0  0  0  0  0  0  0
    6.1896   -9.3266    2.3870 C   0  0  0  0  0  0  0  0  0  0  0  0
    5.6492   -8.6765    1.3328 C   0  0  0  0  0  0  0  0  0  0  0  0
    6.8436   -8.6542    3.6274 C   0  0  1  0  0  0  0  0  0  0  0  0
    7.2736   -7.1211    3.5598 C   0  0  0  0  0  0  0  0  0  0  0  0
    8.0341   -6.7350    2.2537 C   0  0  0  0  0  0  0  0  0  0  0  0
    6.0212   -6.1946    3.6765 C   0  0  0  0  0  0  0  0  0  0  0  0
    8.2622   -6.7429    4.7487 C   0  0  0  0  0  0  0  0  0  0  0  0
    9.6448   -7.4118    4.9125 C   0  0  0  0  0  0  0  0  0  0  0  0
    9.7257   -8.6561    4.6554 O   0  0  0  0  0  0  0  0  0  0  0  0
   10.5571   -6.6915    5.3172 O   0  0  0  0  0  0  0  0  0  0  0  0
   -0.3834   -8.6518    3.4403 C   0  0  0  0  0  0  0  0  0  0  0  0
   -1.6570   -8.5806    2.9891 C   0  0  0  0  0  0  0  0  0  0  0  0
   -1.0058   -5.9748    3.7484 H   0  0  0  0  0  0  0  0  0  0  0  0
    0.5844   -5.5478    4.5393 H   0  0  0  0  0  0  0  0  0  0  0  0
    2.3639   -7.9885    3.7110 H   0  0  0  0  0  0  0  0  0  0  0  0
    1.9960   -7.4789    5.3778 H   0  0  0  0  0  0  0  0  0  0  0  0
    0.2675  -10.6621    6.4677 H   0  0  0  0  0  0  0  0  0  0  0  0
   -0.2241   -8.9835    6.3072 H   0  0  0  0  0  0  0  0  0  0  0  0
    1.3236   -9.3644    7.0859 H   0  0  0  0  0  0  0  0  0  0  0  0
   -0.3793  -10.6781    4.0589 H   0  0  0  0  0  0  0  0  0  0  0  0
    0.6064  -11.3456    2.2330 H   0  0  0  0  0  0  0  0  0  0  0  0
    1.5204   -9.8727    1.8973 H   0  0  0  0  0  0  0  0  0  0  0  0
    1.1154  -12.4074    4.8046 H   0  0  0  0  0  0  0  0  0  0  0  0
    2.8660  -12.8402    4.9236 H   0  0  0  0  0  0  0  0  0  0  0  0
    4.4106  -11.0728    5.0872 H   0  0  0  0  0  0  0  0  0  0  0  0
    4.3086   -8.1287    4.5664 H   0  0  0  0  0  0  0  0  0  0  0  0
    4.3403   -8.8494    6.1491 H   0  0  0  0  0  0  0  0  0  0  0  0
    6.4513   -8.3280    5.6778 H   0  0  0  0  0  0  0  0  0  0  0  0
    7.9550  -10.0192    5.6954 H   0  0  0  0  0  0  0  0  0  0  0  0
    6.2459   -8.5027    7.8330 H   0  0  0  0  0  0  0  0  0  0  0  0
    7.9154   -9.0304    8.0671 H   0  0  0  0  0  0  0  0  0  0  0  0
    5.9852  -12.5490    7.4584 H   0  0  0  0  0  0  0  0  0  0  0  0
    7.9886  -12.1759    5.2245 H   0  0  0  0  0  0  0  0  0  0  0  0
    6.4242  -13.4834    4.7284 H   0  0  0  0  0  0  0  0  0  0  0  0
    8.3139  -11.0663    3.1369 H   0  0  0  0  0  0  0  0  0  0  0  0
    6.8747  -13.4006    2.7718 H   0  0  0  0  0  0  0  0  0  0  0  0
    5.8152  -11.5641    0.5841 H   0  0  0  0  0  0  0  0  0  0  0  0
    4.5503  -11.8458    1.7061 H   0  0  0  0  0  0  0  0  0  0  0  0
    3.6275   -9.6704    2.5287 H   0  0  0  0  0  0  0  0  0  0  0  0
    5.2626   -9.2332    0.4838 H   0  0  0  0  0  0  0  0  0  0  0  0
    5.5862   -7.5914    1.2846 H   0  0  0  0  0  0  0  0  0  0  0  0
    7.8119   -9.1078    3.5597 H   0  0  0  0  0  0  0  0  0  0  0  0
    8.0976   -5.6432    2.1712 H   0  0  0  0  0  0  0  0  0  0  0  0
    7.6424   -7.1221    1.3084 H   0  0  0  0  0  0  0  0  0  0  0  0
    9.0557   -7.0853    2.3320 H   0  0  0  0  0  0  0  0  0  0  0  0
    6.2383   -5.1739    3.3429 H   0  0  0  0  0  0  0  0  0  0  0  0
    5.6328   -6.1179    4.7022 H   0  0  0  0  0  0  0  0  0  0  0  0
    5.1692   -6.5145    3.0624 H   0  0  0  0  0  0  0  0  0  0  0  0
    8.4929   -5.6941    4.6347 H   0  0  0  0  0  0  0  0  0  0  0  0
    7.8099   -6.7670    5.7291 H   0  0  0  0  0  0  0  0  0  0  0  0
   -2.1902   -7.6496    2.9203 H   0  0  0  0  0  0  0  0  0  0  0  0
   -2.2153   -9.4654    2.7423 H   0  0  0  0  0  0  0  0  0  0  0  0
    5.0004  -12.2526    3.2667 H   0  0  0  0  0  0  0  0  0  0  0  0
  1  2  2  0
  1 41  1  0
  1 42  1  0
  2 39  1  0
  2  3  1  0
  3  4  1  0
  3 43  1  0
  3 44  1  0
  4 10  1  0
  4  5  1  1
  4  6  1  0
  5 45  1  0
  5 46  1  0
  5 47  1  0
  6  7  1  0
  6 39  1  0
  6 48  1  1
  8  7  1  6
  7 49  1  0
  7 50  1  0
  8 10  1  0
  8 28  1  0
  8  9  1  0
 10  9  1  1
  9 51  1  0
  9 52  1  0
 10 11  1  0
 11 28  1  0
 11 12  1  0
 11 53  1  1
 12 13  1  0
 12 54  1  0
 12 55  1  0
 13 31  1  0
 13 14  1  0
 13 56  1  1
 14 21  1  0
 14 57  1  1
 14 15  1  0
 15 20  2  0
 15 16  1  0
 16 17  1  0
 16 58  1  0
 16 59  1  0
 17 18  1  0
 18 20  1  0
 18 19  2  0
 20 60  1  0
 21 22  1  0
 21 23  1  0
 21 61  1  1
 22 62  1  0
 23 24  1  0
 23 25  1  0
 23 63  1  1
 24 64  1  0
 25 26  1  6
 25 27  1  0
 25 29  1  0
 26 65  1  0
 27 28  1  0
 27 66  1  0
 27 81  1  0
 28 67  1  6
 29 30  2  0
 29 31  1  0
 30 68  1  0
 30 69  1  0
 31 32  1  0
 31 70  1  1
 32 33  1  0
 32 34  1  0
 32 35  1  0
 33 71  1  0
 33 72  1  0
 33 73  1  0
 34 74  1  0
 34 75  1  0
 34 76  1  0
 35 36  1  0
 35 77  1  0
 35 78  1  0
 36 37  2  0
 36 38  1  0
 39 40  2  0
 40 79  1  0
 40 80  1  0
M  CHG  2  27   1  38  -1
M  END
>  <i_m_ct_stereo_status>  (232) 
1

>  <s_m_source_file>  (232) 
/var/tmp/pbs.5083856.sched01/tmpulh63j03/95gpwz8mf4.sdf

>  <i_m_source_file_index>  (232) 
1

>  <i_lp_mmshare_version>  (232) 
48012

>  <i_f3d_flags>  (232) 
0

>  <s_epik_input>  (232) 
W0NIMl09QyhbQ0gyXTEpQyg9W0NIMl0pW0NAQEhdKFtDSDJdMilbQ0BAXTEoW0NIM10pW0NAXShbQ0BdMjM0KShbQ0gyXTMpW0NASF01W0NASF00W05IXVtDQF02KFtPSF0pW0NASF0oW09IXSlbQ0BIXShbT0hdKVtDQEhdKGM3W2NIXW9jKFtPSF0pW2NIXTcpW0NASF0oW0NIMl01KVtDQEBIXShDNj1bQ0gyXSlDKFtDSDNdKShbQ0gzXSlbQ0gyXUMoPU8pW09IXQ==

>  <s_epik_cmdline>  (232) 
J2VwaWtfcHl0aG9uJywgJy1waHQnLCAnMi4wJywgJy1waCcsICc3LjAnLCAnLXRuJywgJzgnLCAnLW1hJywgJzIwMCcsICctaW1hZScsICc8aW5maWxlLm1hZT4nLCAnLW9tYWUnLCAnPG91dGZpbGUubWFlPic=

>  <r_lp_tautomer_probability>  (232) 
0.999841

>  <r_epik_Ionization_Penalty>  (232) 
0.234055

>  <r_epik_Ionization_Penalty_Charging>  (232) 
0.230631

>  <r_epik_Ionization_Penalty_Neutral>  (232) 
0.00342431

>  <r_epik_State_Penalty>  (232) 
0.218073

>  <r_epik_Charging_Adjusted_Penalty>  (232) 
0.448704

>  <i_epik_Tot_Q>  (232) 
0

>  <i_epik_Tot_abs_Q>  (232) 
2

>  <s_epik_Chemistry_Notes>  (232) 
This compound has an ester and may undergo hydrolysis at high or low pH.

>  <s_lp_Force_Field>  (232) 
OPLS3e

>  <r_lp_Energy>  (232) 
87.5807

>  <b_lp_Chiralities_Consistent>  (232) 
1

>  <s_lp_Variant>  (232) 
70:0-1

>  <s_i_glide_gridfile>  (232) 
pfpi4k_grid

>  <i_i_glide_lignum>  (232) 
1

>  <i_i_glide_rotatable_bonds>  (232) 
7

>  <r_i_docking_score>  (232) 
-3.90025

>  <r_i_glide_ligand_efficiency>  (232) 
-0.0975062

>  <r_i_glide_ligand_efficiency_sa>  (232) 
-0.333467

>  <r_i_glide_ligand_efficiency_ln>  (232) 
-0.831808

>  <r_i_glide_gscore>  (232) 
-3.90025

>  <r_i_glide_lipo>  (232) 
-0.301239

>  <r_i_glide_hbond>  (232) 
-0.181699

>  <r_i_glide_metal>  (232) 
-0

>  <r_i_glide_rewards>  (232) 
-0.5

>  <r_i_glide_evdw>  (232) 
-24.5929

>  <r_i_glide_ecoul>  (232) 
-11.1177

>  <r_i_glide_erotb>  (232) 
0.134021

>  <r_i_glide_esite>  (232) 
-0.154035

>  <r_i_glide_emodel>  (232) 
-47.9652

>  <r_i_glide_energy>  (232) 
-35.7106

>  <r_i_glide_einternal>  (232) 
6.37003

>  <r_i_glide_intrahb_reward>  (232) 
-0.5

>  <i_i_glide_confnum>  (232) 
3

>  <i_i_glide_posenum>  (232) 
30

>  <r_i_glide_eff_state_penalty>  (232) 
0

>  <ligand_id>  (232) 
70

>  <original_smiles>  (232) 
C=C1CC2(C)C(CC34CC23C2CC3C(c5coc(O)c5)C(O)C(O)C(O)(NC24)C(=C)C3C(C)(C)CC(=O)O)C1=C

>  <smiles>  (232) 
[H]OC1([H])C([H])(O[H])C2(O[H])C(=C([H])[H])C([H])(C(C([H])([H])[H])(C([H])([H])[H])C([H])([H])C(=O)[O-])C([H])(C([H])([H])C3([H])C45C([H])([H])C4(C([H])([H])C4([H])C(=C([H])[H])C(=C([H])[H])C([H])([H])C45C([H])([H])[H])C3([H])[N+]2([H])[H])C1([H])C1=C([H])C(=O)OC1([H])[H]

$$$$
70:1:0
     RDKit          3D

 80 86  0  0  1  0  0  0  0  0999 V2000
    4.8689   -1.5934    4.6528 C   0  0  0  0  0  0  0  0  0  0  0  0
    3.6455   -2.1382    4.8311 C   0  0  0  0  0  0  0  0  0  0  0  0
    3.4123   -3.5908    5.1298 C   0  0  0  0  0  0  0  0  0  0  0  0
    2.1012   -3.5892    5.9864 C   0  0  1  0  0  0  0  0  0  0  0  0
    2.4231   -3.3098    7.4669 C   0  0  0  0  0  0  0  0  0  0  0  0
    1.3299   -2.3856    5.3806 C   0  0  2  0  0  0  0  0  0  0  0  0
    0.4381   -3.0469    4.2949 C   0  0  0  0  0  0  0  0  0  0  0  0
    0.1351   -4.4685    4.7981 C   0  0  1  0  0  0  0  0  0  0  0  0
   -0.3440   -4.6429    6.2358 C   0  0  0  0  0  0  0  0  0  0  0  0
    1.1334   -4.7836    5.8927 C   0  0  2  0  0  0  0  0  0  0  0  0
    1.5058   -6.0838    5.1886 C   0  0  2  0  0  0  0  0  0  0  0  0
    2.8763   -6.7310    5.0699 C   0  0  0  0  0  0  0  0  0  0  0  0
    2.8334   -8.2044    4.5219 C   0  0  1  0  0  0  0  0  0  0  0  0
    1.8690   -9.2519    5.1885 C   0  0  1  0  0  0  0  0  0  0  0  0
    2.1623   -9.4458    6.6813 C   0  0  0  0  0  0  0  0  0  0  0  0
    3.4148  -10.1561    7.1280 C   0  0  0  0  0  0  0  0  0  0  0  0
    3.3285  -10.0910    8.5413 O   0  0  0  0  0  0  0  0  0  0  0  0
    2.1940   -9.4802    8.9487 C   0  0  0  0  0  0  0  0  0  0  0  0
    1.8468   -9.3053   10.1121 O   0  0  0  0  0  0  0  0  0  0  0  0
    1.4603   -9.0667    7.7491 C   0  0  0  0  0  0  0  0  0  0  0  0
    0.3610   -9.3555    4.7419 C   0  0  1  0  0  0  0  0  0  0  0  0
   -0.5777   -8.6605    5.5400 O   0  0  0  0  0  0  0  0  0  0  0  0
    0.0156   -9.1255    3.2337 C   0  0  1  0  0  0  0  0  0  0  0  0
   -1.3779   -9.3908    3.1131 O   0  0  0  0  0  0  0  0  0  0  0  0
    0.3522   -7.7245    2.5752 C   0  0  1  0  0  0  0  0  0  0  0  0
   -0.3356   -7.7060    1.3359 O   0  0  0  0  0  0  0  0  0  0  0  0
   -0.2248   -6.6135    3.3791 N   0  0  0  0  0  0  0  0  0  0  0  0
    0.7233   -5.6409    3.9785 C   0  0  1  0  0  0  0  0  0  0  0  0
    1.8612   -7.5166    2.2316 C   0  0  0  0  0  0  0  0  0  0  0  0
    2.1820   -6.6276    1.2796 C   0  0  0  0  0  0  0  0  0  0  0  0
    2.9031   -8.4012    2.9678 C   0  0  1  0  0  0  0  0  0  0  0  0
    4.3700   -8.5626    2.3527 C   0  0  0  0  0  0  0  0  0  0  0  0
    5.0595   -9.7837    3.0341 C   0  0  0  0  0  0  0  0  0  0  0  0
    4.2743   -8.9530    0.8493 C   0  0  0  0  0  0  0  0  0  0  0  0
    5.2611   -7.2907    2.5969 C   0  0  0  0  0  0  0  0  0  0  0  0
    6.6651   -7.2068    1.9611 C   0  0  0  0  0  0  0  0  0  0  0  0
    7.1814   -8.1957    1.4025 O   0  0  0  0  0  0  0  0  0  0  0  0
    7.2150   -6.0843    2.0612 O   0  0  0  0  0  0  0  0  0  0  0  0
    2.4020   -1.4402    4.8961 C   0  0  0  0  0  0  0  0  0  0  0  0
    2.2635   -0.1013    4.8370 C   0  0  0  0  0  0  0  0  0  0  0  0
    5.0281   -0.5402    4.5238 H   0  0  0  0  0  0  0  0  0  0  0  0
    5.7470   -2.2097    4.6931 H   0  0  0  0  0  0  0  0  0  0  0  0
    3.2640   -4.0438    4.1529 H   0  0  0  0  0  0  0  0  0  0  0  0
    4.2586   -4.0664    5.6199 H   0  0  0  0  0  0  0  0  0  0  0  0
    1.5033   -3.1636    8.0509 H   0  0  0  0  0  0  0  0  0  0  0  0
    3.0228   -2.4006    7.5697 H   0  0  0  0  0  0  0  0  0  0  0  0
    2.9833   -4.1403    7.9134 H   0  0  0  0  0  0  0  0  0  0  0  0
    0.7025   -1.8953    6.1258 H   0  0  0  0  0  0  0  0  0  0  0  0
   -0.5085   -2.5177    4.2260 H   0  0  0  0  0  0  0  0  0  0  0  0
    0.8750   -3.0618    3.2929 H   0  0  0  0  0  0  0  0  0  0  0  0
   -0.6622   -3.7709    6.7806 H   0  0  0  0  0  0  0  0  0  0  0  0
   -0.9108   -5.5355    6.4778 H   0  0  0  0  0  0  0  0  0  0  0  0
    0.8985   -6.8177    5.6880 H   0  0  0  0  0  0  0  0  0  0  0  0
    3.5306   -6.1562    4.4234 H   0  0  0  0  0  0  0  0  0  0  0  0
    3.3437   -6.7391    6.0468 H   0  0  0  0  0  0  0  0  0  0  0  0
    3.7877   -8.5597    4.8807 H   0  0  0  0  0  0  0  0  0  0  0  0
    2.2350  -10.2058    4.8050 H   0  0  0  0  0  0  0  0  0  0  0  0
    4.3050   -9.6429    6.7759 H   0  0  0  0  0  0  0  0  0  0  0  0
    3.4324  -11.1844    6.7733 H   0  0  0  0  0  0  0  0  0  0  0  0
    0.5192   -8.5408    7.7755 H   0  0  0  0  0  0  0  0  0  0  0  0
    0.0999  -10.3978    4.9498 H   0  0  0  0  0  0  0  0  0  0  0  0
   -1.3223   -9.2414    5.6292 H   0  0  0  0  0  0  0  0  0  0  0  0
    0.4859   -9.9267    2.6578 H   0  0  0  0  0  0  0  0  0  0  0  0
   -1.6276  -10.0463    3.7653 H   0  0  0  0  0  0  0  0  0  0  0  0
   -0.2418   -8.5639    0.9370 H   0  0  0  0  0  0  0  0  0  0  0  0
   -0.7693   -7.0632    4.1162 H   0  0  0  0  0  0  0  0  0  0  0  0
    1.4022   -5.2238    3.2244 H   0  0  0  0  0  0  0  0  0  0  0  0
    1.4204   -6.0388    0.7894 H   0  0  0  0  0  0  0  0  0  0  0  0
    3.1865   -6.4260    0.9555 H   0  0  0  0  0  0  0  0  0  0  0  0
    2.5261   -9.4035    2.7706 H   0  0  0  0  0  0  0  0  0  0  0  0
    5.9484  -10.1064    2.4937 H   0  0  0  0  0  0  0  0  0  0  0  0
    4.4049  -10.6563    3.0798 H   0  0  0  0  0  0  0  0  0  0  0  0
    5.4126   -9.5663    4.0423 H   0  0  0  0  0  0  0  0  0  0  0  0
    5.1881   -9.4315    0.5064 H   0  0  0  0  0  0  0  0  0  0  0  0
    4.1415   -8.1032    0.1869 H   0  0  0  0  0  0  0  0  0  0  0  0
    3.4860   -9.6827    0.6552 H   0  0  0  0  0  0  0  0  0  0  0  0
    4.7564   -6.3776    2.3042 H   0  0  0  0  0  0  0  0  0  0  0  0
    5.4193   -7.1757    3.6651 H   0  0  0  0  0  0  0  0  0  0  0  0
    3.1006    0.5481    4.6446 H   0  0  0  0  0  0  0  0  0  0  0  0
    1.3146    0.3732    5.0173 H   0  0  0  0  0  0  0  0  0  0  0  0
  1  2  2  0
  1 41  1  0
  1 42  1  0
  2 39  1  0
  2  3  1  0
  3  4  1  0
  3 43  1  0
  3 44  1  0
  4 10  1  0
  4  5  1  1
  4  6  1  0
  5 45  1  0
  5 46  1  0
  5 47  1  0
  6  7  1  0
  6 39  1  0
  6 48  1  1
  8  7  1  6
  7 49  1  0
  7 50  1  0
  8 10  1  0
  8 28  1  0
  8  9  1  0
 10  9  1  1
  9 51  1  0
  9 52  1  0
 10 11  1  0
 11 28  1  0
 11 12  1  0
 11 53  1  1
 12 13  1  0
 12 54  1  0
 12 55  1  0
 13 31  1  0
 13 14  1  0
 13 56  1  1
 14 21  1  0
 14 57  1  6
 14 15  1  0
 15 20  2  0
 15 16  1  0
 16 17  1  0
 16 58  1  0
 16 59  1  0
 17 18  1  0
 18 20  1  0
 18 19  2  0
 20 60  1  0
 21 22  1  0
 21 23  1  0
 21 61  1  1
 22 62  1  0
 23 24  1  0
 23 25  1  0
 23 63  1  6
 24 64  1  0
 25 26  1  6
 25 27  1  0
 25 29  1  0
 26 65  1  0
 27 28  1  0
 27 66  1  0
 28 67  1  6
 29 30  2  0
 29 31  1  0
 30 68  1  0
 30 69  1  0
 31 32  1  0
 31 70  1  1
 32 33  1  0
 32 34  1  0
 32 35  1  0
 33 71  1  0
 33 72  1  0
 33 73  1  0
 34 74  1  0
 34 75  1  0
 34 76  1  0
 35 36  1  0
 35 77  1  0
 35 78  1  0
 36 37  2  0
 36 38  1  0
 39 40  2  0
 40 79  1  0
 40 80  1  0
M  CHG  1  38  -1
M  END
>  <i_m_ct_stereo_status>  (233) 
1

>  <s_m_source_file>  (233) 
/var/tmp/pbs.5083856.sched01/tmpulh63j03/95gpwz8mf4.sdf

>  <i_m_source_file_index>  (233) 
2

>  <i_lp_mmshare_version>  (233) 
48012

>  <i_f3d_flags>  (233) 
0

>  <s_epik_input>  (233) 
W0NIMl09QyhbQ0gyXTEpQyg9W0NIMl0pW0NAQEhdKFtDSDJdMilbQ0BAXTEoW0NIM10pW0NAXShbQ0BdMjM0KShbQ0gyXTMpW0NASF01W0NASF00W05IXVtDQF02KFtPSF0pW0NASF0oW09IXSlbQ0BIXShbT0hdKVtDQEhdKGM3W2NIXW9jKFtPSF0pW2NIXTcpW0NASF0oW0NIMl01KVtDQEBIXShDNj1bQ0gyXSlDKFtDSDNdKShbQ0gzXSlbQ0gyXUMoPU8pW09IXQ==

>  <s_epik_cmdline>  (233) 
J2VwaWtfcHl0aG9uJywgJy1waHQnLCAnMi4wJywgJy1waCcsICc3LjAnLCAnLXRuJywgJzgnLCAnLW1hJywgJzIwMCcsICctaW1hZScsICc8aW5maWxlLm1hZT4nLCAnLW9tYWUnLCAnPG91dGZpbGUubWFlPic=

>  <r_lp_tautomer_probability>  (233) 
0.999841

>  <r_epik_Ionization_Penalty>  (233) 
0.681733

>  <r_epik_Ionization_Penalty_Charging>  (233) 
0.00455821

>  <r_epik_Ionization_Penalty_Neutral>  (233) 
0.677175

>  <r_epik_State_Penalty>  (233) 
0.697884

>  <r_epik_Charging_Adjusted_Penalty>  (233) 
0.702442

>  <i_epik_Tot_Q>  (233) 
-1

>  <i_epik_Tot_abs_Q>  (233) 
1

>  <s_epik_Chemistry_Notes>  (233) 
This compound has an ester and may undergo hydrolysis at high or low pH.

>  <s_lp_Force_Field>  (233) 
OPLS3e

>  <r_lp_Energy>  (233) 
83.6914

>  <b_lp_Chiralities_Consistent>  (233) 
1

>  <s_lp_Variant>  (233) 
70:0-2

>  <s_i_glide_gridfile>  (233) 
pfpi4k_grid

>  <i_i_glide_lignum>  (233) 
2

>  <i_i_glide_rotatable_bonds>  (233) 
7

>  <r_i_docking_score>  (233) 
-3.79746

>  <r_i_glide_ligand_efficiency>  (233) 
-0.0949365

>  <r_i_glide_ligand_efficiency_sa>  (233) 
-0.324678

>  <r_i_glide_ligand_efficiency_ln>  (233) 
-0.809886

>  <r_i_glide_gscore>  (233) 
-3.79746

>  <r_i_glide_lipo>  (233) 
-0.0709164

>  <r_i_glide_hbond>  (233) 
-0.0969295

>  <r_i_glide_metal>  (233) 
-0

>  <r_i_glide_rewards>  (233) 
-0.575453

>  <r_i_glide_evdw>  (233) 
-24.2178

>  <r_i_glide_ecoul>  (233) 
-12.502

>  <r_i_glide_erotb>  (233) 
0.135853

>  <r_i_glide_esite>  (233) 
-0.103821

>  <r_i_glide_emodel>  (233) 
-49.8437

>  <r_i_glide_energy>  (233) 
-36.7198

>  <r_i_glide_einternal>  (233) 
3.18155

>  <r_i_glide_intrahb_reward>  (233) 
-0.5

>  <i_i_glide_confnum>  (233) 
3

>  <i_i_glide_posenum>  (233) 
6

>  <r_i_glide_eff_state_penalty>  (233) 
0

>  <ligand_id>  (233) 
70

>  <original_smiles>  (233) 
C=C1CC2(C)C(CC34CC23C2CC3C(c5coc(O)c5)C(O)C(O)C(O)(NC24)C(=C)C3C(C)(C)CC(=O)O)C1=C

>  <smiles>  (233) 
[H]OC12C(=C([H])[H])C([H])(C(C([H])([H])[H])(C([H])([H])[H])C([H])([H])C(=O)[O-])C([H])(C([H])([H])C3([H])C([H])(N1[H])C14C([H])([H])C5([H])C(=C([H])[H])C(=C([H])[H])C([H])([H])C5(C([H])([H])[H])C31C4([H])[H])C([H])(C1=C([H])C(=O)OC1([H])[H])C([H])(O[H])C2([H])O[H]

$$$$
70:1:1
     RDKit          3D

 80 86  0  0  1  0  0  0  0  0999 V2000
    1.0184   -2.8350    6.3039 C   0  0  0  0  0  0  0  0  0  0  0  0
    1.4209   -4.1143    6.3267 C   0  0  0  0  0  0  0  0  0  0  0  0
    2.7636   -4.5788    5.8336 C   0  0  0  0  0  0  0  0  0  0  0  0
    3.0729   -5.8270    6.7195 C   0  0  1  0  0  0  0  0  0  0  0  0
    3.6985   -5.3972    8.0657 C   0  0  0  0  0  0  0  0  0  0  0  0
    1.6564   -6.4143    6.9640 C   0  0  2  0  0  0  0  0  0  0  0  0
    1.5005   -7.4627    5.8154 C   0  0  0  0  0  0  0  0  0  0  0  0
    2.9227   -7.9832    5.5310 C   0  0  1  0  0  0  0  0  0  0  0  0
    3.8040   -8.3984    6.6993 C   0  0  0  0  0  0  0  0  0  0  0  0
    3.8927   -6.9884    6.1282 C   0  0  2  0  0  0  0  0  0  0  0  0
    4.6258   -6.8572    4.7894 C   0  0  2  0  0  0  0  0  0  0  0  0
    5.1927   -5.6092    4.1399 C   0  0  0  0  0  0  0  0  0  0  0  0
    6.1583   -5.9302    2.9306 C   0  0  1  0  0  0  0  0  0  0  0  0
    7.3018   -7.0278    3.0679 C   0  0  1  0  0  0  0  0  0  0  0  0
    8.3450   -6.7999    4.1927 C   0  0  0  0  0  0  0  0  0  0  0  0
    9.7953   -7.1838    4.0159 C   0  0  0  0  0  0  0  0  0  0  0  0
   10.3991   -6.7109    5.2168 O   0  0  0  0  0  0  0  0  0  0  0  0
    9.5036   -6.1298    6.0283 C   0  0  0  0  0  0  0  0  0  0  0  0
    9.7359   -5.5869    7.1104 O   0  0  0  0  0  0  0  0  0  0  0  0
    8.1923   -6.1868    5.3773 C   0  0  0  0  0  0  0  0  0  0  0  0
    6.9652   -8.5560    2.8470 C   0  0  1  0  0  0  0  0  0  0  0  0
    6.8045   -9.2579    4.0698 O   0  0  0  0  0  0  0  0  0  0  0  0
    5.8931   -8.9731    1.7670 C   0  0  1  0  0  0  0  0  0  0  0  0
    5.9331  -10.4044    1.7515 O   0  0  0  0  0  0  0  0  0  0  0  0
    4.4131   -8.4369    1.8899 C   0  0  1  0  0  0  0  0  0  0  0  0
    3.6788   -9.1339    0.8906 O   0  0  0  0  0  0  0  0  0  0  0  0
    3.8241   -8.7761    3.2268 N   0  0  0  0  0  0  0  0  0  0  0  0
    3.5081   -7.6496    4.1431 C   0  0  1  0  0  0  0  0  0  0  0  0
    4.2233   -6.9312    1.5311 C   0  0  0  0  0  0  0  0  0  0  0  0
    2.9638   -6.5347    1.2392 C   0  0  0  0  0  0  0  0  0  0  0  0
    5.4798   -5.9903    1.5060 C   0  0  1  0  0  0  0  0  0  0  0  0
    5.3831   -4.5993    0.7051 C   0  0  0  0  0  0  0  0  0  0  0  0
    4.7311   -4.8229   -0.6918 C   0  0  0  0  0  0  0  0  0  0  0  0
    4.5778   -3.5551    1.5093 C   0  0  0  0  0  0  0  0  0  0  0  0
    6.8510   -4.0215    0.4595 C   0  0  0  0  0  0  0  0  0  0  0  0
    7.0813   -2.7421   -0.3900 C   0  0  0  0  0  0  0  0  0  0  0  0
    6.5725   -2.6737   -1.5568 O   0  0  0  0  0  0  0  0  0  0  0  0
    7.7947   -1.8542    0.0947 O   0  0  0  0  0  0  0  0  0  0  0  0
    0.7326   -5.2194    6.9197 C   0  0  0  0  0  0  0  0  0  0  0  0
   -0.4188   -5.1347    7.5989 C   0  0  0  0  0  0  0  0  0  0  0  0
    0.0928   -2.5068    6.7401 H   0  0  0  0  0  0  0  0  0  0  0  0
    1.6517   -2.0665    5.8967 H   0  0  0  0  0  0  0  0  0  0  0  0
    2.5836   -4.8534    4.7960 H   0  0  0  0  0  0  0  0  0  0  0  0
    3.5196   -3.8063    5.8774 H   0  0  0  0  0  0  0  0  0  0  0  0
    3.7925   -6.2520    8.7511 H   0  0  0  0  0  0  0  0  0  0  0  0
    3.0712   -4.6506    8.5554 H   0  0  0  0  0  0  0  0  0  0  0  0
    4.6955   -4.9664    7.9162 H   0  0  0  0  0  0  0  0  0  0  0  0
    1.5919   -6.9108    7.9195 H   0  0  0  0  0  0  0  0  0  0  0  0
    0.9158   -8.3154    6.1729 H   0  0  0  0  0  0  0  0  0  0  0  0
    1.0314   -7.0787    4.9190 H   0  0  0  0  0  0  0  0  0  0  0  0
    3.3436   -8.5469    7.6542 H   0  0  0  0  0  0  0  0  0  0  0  0
    4.6101   -9.1047    6.5026 H   0  0  0  0  0  0  0  0  0  0  0  0
    5.4601   -7.5363    4.9130 H   0  0  0  0  0  0  0  0  0  0  0  0
    4.3927   -4.9743    3.7411 H   0  0  0  0  0  0  0  0  0  0  0  0
    5.6871   -4.9855    4.8710 H   0  0  0  0  0  0  0  0  0  0  0  0
    6.7787   -5.0440    2.9223 H   0  0  0  0  0  0  0  0  0  0  0  0
    7.9198   -6.8219    2.1914 H   0  0  0  0  0  0  0  0  0  0  0  0
   10.2284   -6.6775    3.1574 H   0  0  0  0  0  0  0  0  0  0  0  0
    9.9127   -8.2558    3.9124 H   0  0  0  0  0  0  0  0  0  0  0  0
    7.3128   -5.7709    5.8268 H   0  0  0  0  0  0  0  0  0  0  0  0
    7.8904   -8.9990    2.4748 H   0  0  0  0  0  0  0  0  0  0  0  0
    5.9672   -9.0478    4.4399 H   0  0  0  0  0  0  0  0  0  0  0  0
    6.2812   -8.6695    0.7928 H   0  0  0  0  0  0  0  0  0  0  0  0
    5.3120  -10.7919    1.1495 H   0  0  0  0  0  0  0  0  0  0  0  0
    3.8547  -10.0557    0.9057 H   0  0  0  0  0  0  0  0  0  0  0  0
    4.4094   -9.4827    3.6706 H   0  0  0  0  0  0  0  0  0  0  0  0
    2.8211   -6.9342    3.6675 H   0  0  0  0  0  0  0  0  0  0  0  0
    2.1545   -7.2476    1.2683 H   0  0  0  0  0  0  0  0  0  0  0  0
    2.6972   -5.5143    0.9748 H   0  0  0  0  0  0  0  0  0  0  0  0
    6.1610   -6.5300    0.8586 H   0  0  0  0  0  0  0  0  0  0  0  0
    4.4560   -3.8586   -1.1321 H   0  0  0  0  0  0  0  0  0  0  0  0
    3.8546   -5.4412   -0.7302 H   0  0  0  0  0  0  0  0  0  0  0  0
    5.4327   -5.2771   -1.3828 H   0  0  0  0  0  0  0  0  0  0  0  0
    4.3108   -2.7229    0.8643 H   0  0  0  0  0  0  0  0  0  0  0  0
    5.1622   -3.1491    2.3379 H   0  0  0  0  0  0  0  0  0  0  0  0
    3.6448   -3.9271    1.9331 H   0  0  0  0  0  0  0  0  0  0  0  0
    7.3337   -3.7759    1.4013 H   0  0  0  0  0  0  0  0  0  0  0  0
    7.4783   -4.8000    0.0380 H   0  0  0  0  0  0  0  0  0  0  0  0
   -0.9646   -4.2117    7.6720 H   0  0  0  0  0  0  0  0  0  0  0  0
   -0.8205   -5.9831    8.1253 H   0  0  0  0  0  0  0  0  0  0  0  0
  1  2  2  0
  1 41  1  0
  1 42  1  0
  2 39  1  0
  2  3  1  0
  3  4  1  0
  3 43  1  0
  3 44  1  0
  4 10  1  0
  4  5  1  1
  4  6  1  0
  5 45  1  0
  5 46  1  0
  5 47  1  0
  6  7  1  0
  6 39  1  0
  6 48  1  1
  8  7  1  6
  7 49  1  0
  7 50  1  0
  8 10  1  0
  8 28  1  0
  8  9  1  0
 10  9  1  1
  9 51  1  0
  9 52  1  0
 10 11  1  0
 11 28  1  0
 11 12  1  0
 11 53  1  1
 12 13  1  0
 12 54  1  0
 12 55  1  0
 13 31  1  0
 13 14  1  0
 13 56  1  6
 14 21  1  0
 14 57  1  6
 14 15  1  0
 15 20  2  0
 15 16  1  0
 16 17  1  0
 16 58  1  0
 16 59  1  0
 17 18  1  0
 18 20  1  0
 18 19  2  0
 20 60  1  0
 21 22  1  0
 21 23  1  0
 21 61  1  6
 22 62  1  0
 23 24  1  0
 23 25  1  0
 23 63  1  6
 24 64  1  0
 25 26  1  6
 25 27  1  0
 25 29  1  0
 26 65  1  0
 27 28  1  0
 27 66  1  0
 28 67  1  6
 29 30  2  0
 29 31  1  0
 30 68  1  0
 30 69  1  0
 31 32  1  0
 31 70  1  6
 32 33  1  0
 32 34  1  0
 32 35  1  0
 33 71  1  0
 33 72  1  0
 33 73  1  0
 34 74  1  0
 34 75  1  0
 34 76  1  0
 35 36  1  0
 35 77  1  0
 35 78  1  0
 36 37  2  0
 36 38  1  0
 39 40  2  0
 40 79  1  0
 40 80  1  0
M  CHG  1  38  -1
M  END
>  <i_m_ct_stereo_status>  (234) 
1

>  <s_m_source_file>  (234) 
/var/tmp/pbs.5083856.sched01/tmpulh63j03/95gpwz8mf4.sdf

>  <i_m_source_file_index>  (234) 
2

>  <i_lp_mmshare_version>  (234) 
48012

>  <i_f3d_flags>  (234) 
0

>  <s_epik_input>  (234) 
W0NIMl09QyhbQ0gyXTEpQyg9W0NIMl0pW0NAQEhdKFtDSDJdMilbQ0BAXTEoW0NIM10pW0NAXShbQ0BdMjM0KShbQ0gyXTMpW0NASF01W0NASF00W05IXVtDQF02KFtPSF0pW0NASF0oW09IXSlbQ0BIXShbT0hdKVtDQEhdKGM3W2NIXW9jKFtPSF0pW2NIXTcpW0NASF0oW0NIMl01KVtDQEBIXShDNj1bQ0gyXSlDKFtDSDNdKShbQ0gzXSlbQ0gyXUMoPU8pW09IXQ==

>  <s_epik_cmdline>  (234) 
J2VwaWtfcHl0aG9uJywgJy1waHQnLCAnMi4wJywgJy1waCcsICc3LjAnLCAnLXRuJywgJzgnLCAnLW1hJywgJzIwMCcsICctaW1hZScsICc8aW5maWxlLm1hZT4nLCAnLW9tYWUnLCAnPG91dGZpbGUubWFlPic=

>  <r_lp_tautomer_probability>  (234) 
0.999841

>  <r_epik_Ionization_Penalty>  (234) 
0.681733

>  <r_epik_Ionization_Penalty_Charging>  (234) 
0.00455821

>  <r_epik_Ionization_Penalty_Neutral>  (234) 
0.677175

>  <r_epik_State_Penalty>  (234) 
0.697884

>  <r_epik_Charging_Adjusted_Penalty>  (234) 
0.702442

>  <i_epik_Tot_Q>  (234) 
-1

>  <i_epik_Tot_abs_Q>  (234) 
1

>  <s_epik_Chemistry_Notes>  (234) 
This compound has an ester and may undergo hydrolysis at high or low pH.

>  <s_lp_Force_Field>  (234) 
OPLS3e

>  <r_lp_Energy>  (234) 
83.6914

>  <b_lp_Chiralities_Consistent>  (234) 
1

>  <s_lp_Variant>  (234) 
70:0-2

>  <s_i_glide_gridfile>  (234) 
pfpi4k_grid

>  <i_i_glide_lignum>  (234) 
2

>  <i_i_glide_rotatable_bonds>  (234) 
7

>  <r_i_docking_score>  (234) 
-2.48916

>  <r_i_glide_ligand_efficiency>  (234) 
-0.0622289

>  <r_i_glide_ligand_efficiency_sa>  (234) 
-0.21282

>  <r_i_glide_ligand_efficiency_ln>  (234) 
-0.530864

>  <r_i_glide_gscore>  (234) 
-2.48916

>  <r_i_glide_lipo>  (234) 
-0.546161

>  <r_i_glide_hbond>  (234) 
-0.127504

>  <r_i_glide_metal>  (234) 
-0

>  <r_i_glide_rewards>  (234) 
-0.0473211

>  <r_i_glide_evdw>  (234) 
-24.2122

>  <r_i_glide_ecoul>  (234) 
-4.56613

>  <r_i_glide_erotb>  (234) 
0.135853

>  <r_i_glide_esite>  (234) 
-0.00849459

>  <r_i_glide_emodel>  (234) 
-30.3084

>  <r_i_glide_energy>  (234) 
-28.7783

>  <r_i_glide_einternal>  (234) 
7.96815

>  <r_i_glide_intrahb_reward>  (234) 
-0

>  <i_i_glide_confnum>  (234) 
1

>  <i_i_glide_posenum>  (234) 
13

>  <r_i_glide_eff_state_penalty>  (234) 
0

>  <ligand_id>  (234) 
70

>  <original_smiles>  (234) 
C=C1CC2(C)C(CC34CC23C2CC3C(c5coc(O)c5)C(O)C(O)C(O)(NC24)C(=C)C3C(C)(C)CC(=O)O)C1=C

>  <smiles>  (234) 
[H]OC12C(=C([H])[H])C([H])(C(C([H])([H])[H])(C([H])([H])[H])C([H])([H])C(=O)[O-])C([H])(C([H])([H])C3([H])C([H])(N1[H])C14C([H])([H])C5([H])C(=C([H])[H])C(=C([H])[H])C([H])([H])C5(C([H])([H])[H])C31C4([H])[H])C([H])(C1=C([H])C(=O)OC1([H])[H])C([H])(O[H])C2([H])O[H]

$$$$
70:1:2
     RDKit          3D

 80 86  0  0  1  0  0  0  0  0999 V2000
    2.0221   -1.7069    4.2591 C   0  0  0  0  0  0  0  0  0  0  0  0
    1.5239   -2.7903    4.8881 C   0  0  0  0  0  0  0  0  0  0  0  0
    2.3079   -4.0397    5.1830 C   0  0  0  0  0  0  0  0  0  0  0  0
    1.6385   -4.5777    6.4768 C   0  0  1  0  0  0  0  0  0  0  0  0
    2.2375   -3.8993    7.7330 C   0  0  0  0  0  0  0  0  0  0  0  0
    0.1562   -4.1927    6.2743 C   0  0  2  0  0  0  0  0  0  0  0  0
   -0.4767   -5.4479    5.6216 C   0  0  0  0  0  0  0  0  0  0  0  0
    0.3345   -6.6408    6.1263 C   0  0  1  0  0  0  0  0  0  0  0  0
    0.5996   -6.7764    7.6175 C   0  0  0  0  0  0  0  0  0  0  0  0
    1.6121   -6.1036    6.6976 C   0  0  2  0  0  0  0  0  0  0  0  0
    2.4182   -7.1130    5.8774 C   0  0  2  0  0  0  0  0  0  0  0  0
    3.7337   -6.9002    5.1824 C   0  0  0  0  0  0  0  0  0  0  0  0
    4.3694   -8.2144    4.6252 C   0  0  1  0  0  0  0  0  0  0  0  0
    4.5581   -9.4637    5.5722 C   0  0  1  0  0  0  0  0  0  0  0  0
    5.4063   -9.1308    6.8379 C   0  0  0  0  0  0  0  0  0  0  0  0
    6.7598   -8.4611    6.6879 C   0  0  0  0  0  0  0  0  0  0  0  0
    7.1820   -8.3218    8.0290 O   0  0  0  0  0  0  0  0  0  0  0  0
    6.3109   -8.8503    8.9087 C   0  0  0  0  0  0  0  0  0  0  0  0
    6.4467   -8.8957   10.1113 O   0  0  0  0  0  0  0  0  0  0  0  0
    5.1804   -9.3659    8.1063 C   0  0  0  0  0  0  0  0  0  0  0  0
    3.3922  -10.5103    5.7556 C   0  0  1  0  0  0  0  0  0  0  0  0
    2.5710  -10.2302    6.8758 O   0  0  0  0  0  0  0  0  0  0  0  0
    2.4817  -10.7684    4.4923 C   0  0  1  0  0  0  0  0  0  0  0  0
    1.5976  -11.8557    4.8497 O   0  0  0  0  0  0  0  0  0  0  0  0
    1.6505   -9.5863    3.8313 C   0  0  1  0  0  0  0  0  0  0  0  0
    0.7468  -10.2648    2.9542 O   0  0  0  0  0  0  0  0  0  0  0  0
    0.8367   -8.8525    4.8576 N   0  0  0  0  0  0  0  0  0  0  0  0
    1.1675   -7.4305    5.0926 C   0  0  1  0  0  0  0  0  0  0  0  0
    2.4884   -8.6511    2.9132 C   0  0  0  0  0  0  0  0  0  0  0  0
    1.8286   -7.9361    1.9753 C   0  0  0  0  0  0  0  0  0  0  0  0
    4.0314   -8.6014    3.1412 C   0  0  1  0  0  0  0  0  0  0  0  0
    4.9786   -7.9616    2.0262 C   0  0  0  0  0  0  0  0  0  0  0  0
    4.6126   -8.6265    0.6566 C   0  0  0  0  0  0  0  0  0  0  0  0
    4.8146   -6.4201    1.8810 C   0  0  0  0  0  0  0  0  0  0  0  0
    6.5046   -8.3579    2.2044 C   0  0  0  0  0  0  0  0  0  0  0  0
    7.3925   -7.8567    3.3703 C   0  0  0  0  0  0  0  0  0  0  0  0
    8.1832   -8.6328    3.8526 O   0  0  0  0  0  0  0  0  0  0  0  0
    7.2087   -6.6278    3.7134 O   0  0  0  0  0  0  0  0  0  0  0  0
    0.2287   -2.9048    5.4848 C   0  0  0  0  0  0  0  0  0  0  0  0
   -0.6983   -1.9407    5.5376 C   0  0  0  0  0  0  0  0  0  0  0  0
    1.4695   -0.7880    4.1347 H   0  0  0  0  0  0  0  0  0  0  0  0
    3.0403   -1.6927    3.9122 H   0  0  0  0  0  0  0  0  0  0  0  0
    2.1354   -4.6822    4.3168 H   0  0  0  0  0  0  0  0  0  0  0  0
    3.3782   -3.8533    5.2668 H   0  0  0  0  0  0  0  0  0  0  0  0
    1.6870   -4.1963    8.6331 H   0  0  0  0  0  0  0  0  0  0  0  0
    2.1710   -2.8158    7.6365 H   0  0  0  0  0  0  0  0  0  0  0  0
    3.2948   -4.1727    7.8664 H   0  0  0  0  0  0  0  0  0  0  0  0
   -0.3117   -4.0143    7.2300 H   0  0  0  0  0  0  0  0  0  0  0  0
   -1.4868   -5.5839    5.9805 H   0  0  0  0  0  0  0  0  0  0  0  0
   -0.4758   -5.4303    4.5374 H   0  0  0  0  0  0  0  0  0  0  0  0
    0.0392   -6.1568    8.3049 H   0  0  0  0  0  0  0  0  0  0  0  0
    0.8158   -7.7742    8.0229 H   0  0  0  0  0  0  0  0  0  0  0  0
    2.6036   -7.9188    6.5741 H   0  0  0  0  0  0  0  0  0  0  0  0
    3.6494   -6.1941    4.3594 H   0  0  0  0  0  0  0  0  0  0  0  0
    4.4232   -6.4507    5.8889 H   0  0  0  0  0  0  0  0  0  0  0  0
    5.3896   -7.8522    4.5791 H   0  0  0  0  0  0  0  0  0  0  0  0
    5.2761  -10.0537    5.0095 H   0  0  0  0  0  0  0  0  0  0  0  0
    6.7039   -7.4873    6.2254 H   0  0  0  0  0  0  0  0  0  0  0  0
    7.4595   -9.0916    6.1468 H   0  0  0  0  0  0  0  0  0  0  0  0
    4.3299   -9.8598    8.5690 H   0  0  0  0  0  0  0  0  0  0  0  0
    3.8754  -11.4695    5.9922 H   0  0  0  0  0  0  0  0  0  0  0  0
    2.1525  -11.0278    7.2101 H   0  0  0  0  0  0  0  0  0  0  0  0
    3.1094  -11.2250    3.7278 H   0  0  0  0  0  0  0  0  0  0  0  0
    1.5658  -11.9493    5.7665 H   0  0  0  0  0  0  0  0  0  0  0  0
    1.0187  -11.1661    2.9467 H   0  0  0  0  0  0  0  0  0  0  0  0
    0.9476   -9.3691    5.7276 H   0  0  0  0  0  0  0  0  0  0  0  0
    1.1724   -6.8614    4.1564 H   0  0  0  0  0  0  0  0  0  0  0  0
    0.7349   -8.0058    1.9079 H   0  0  0  0  0  0  0  0  0  0  0  0
    2.3029   -7.2428    1.2952 H   0  0  0  0  0  0  0  0  0  0  0  0
    4.3086   -9.6492    3.0423 H   0  0  0  0  0  0  0  0  0  0  0  0
    5.0111   -8.0505   -0.1904 H   0  0  0  0  0  0  0  0  0  0  0  0
    3.5568   -8.6620    0.4353 H   0  0  0  0  0  0  0  0  0  0  0  0
    4.9715   -9.6602    0.5664 H   0  0  0  0  0  0  0  0  0  0  0  0
    5.2220   -6.1032    0.9198 H   0  0  0  0  0  0  0  0  0  0  0  0
    5.3349   -5.8618    2.6605 H   0  0  0  0  0  0  0  0  0  0  0  0
    3.7733   -6.0868    1.9152 H   0  0  0  0  0  0  0  0  0  0  0  0
    6.5745   -9.4398    2.2646 H   0  0  0  0  0  0  0  0  0  0  0  0
    7.0568   -8.1172    1.2994 H   0  0  0  0  0  0  0  0  0  0  0  0
   -0.5424   -0.9781    5.0751 H   0  0  0  0  0  0  0  0  0  0  0  0
   -1.6120   -2.0650    6.0884 H   0  0  0  0  0  0  0  0  0  0  0  0
  1  2  2  0
  1 41  1  0
  1 42  1  0
  2 39  1  0
  2  3  1  0
  3  4  1  0
  3 43  1  0
  3 44  1  0
  4 10  1  0
  4  5  1  1
  4  6  1  0
  5 45  1  0
  5 46  1  0
  5 47  1  0
  6  7  1  0
  6 39  1  0
  6 48  1  1
  8  7  1  1
  7 49  1  0
  7 50  1  0
  8 10  1  0
  8 28  1  0
  8  9  1  0
 10  9  1  1
  9 51  1  0
  9 52  1  0
 10 11  1  0
 11 28  1  0
 11 12  1  0
 11 53  1  1
 12 13  1  0
 12 54  1  0
 12 55  1  0
 13 31  1  0
 13 14  1  0
 13 56  1  6
 14 21  1  0
 14 57  1  6
 14 15  1  0
 15 20  2  0
 15 16  1  0
 16 17  1  0
 16 58  1  0
 16 59  1  0
 17 18  1  0
 18 20  1  0
 18 19  2  0
 20 60  1  0
 21 22  1  0
 21 23  1  0
 21 61  1  1
 22 62  1  0
 23 24  1  0
 23 25  1  0
 23 63  1  6
 24 64  1  0
 25 26  1  6
 25 27  1  0
 25 29  1  0
 26 65  1  0
 27 28  1  0
 27 66  1  0
 28 67  1  6
 29 30  2  0
 29 31  1  0
 30 68  1  0
 30 69  1  0
 31 32  1  0
 31 70  1  1
 32 33  1  0
 32 34  1  0
 32 35  1  0
 33 71  1  0
 33 72  1  0
 33 73  1  0
 34 74  1  0
 34 75  1  0
 34 76  1  0
 35 36  1  0
 35 77  1  0
 35 78  1  0
 36 37  2  0
 36 38  1  0
 39 40  2  0
 40 79  1  0
 40 80  1  0
M  CHG  1  38  -1
M  END
>  <i_m_ct_stereo_status>  (235) 
1

>  <s_m_source_file>  (235) 
/var/tmp/pbs.5083856.sched01/tmpulh63j03/95gpwz8mf4.sdf

>  <i_m_source_file_index>  (235) 
2

>  <i_lp_mmshare_version>  (235) 
48012

>  <i_f3d_flags>  (235) 
0

>  <s_epik_input>  (235) 
W0NIMl09QyhbQ0gyXTEpQyg9W0NIMl0pW0NAQEhdKFtDSDJdMilbQ0BAXTEoW0NIM10pW0NAXShbQ0BdMjM0KShbQ0gyXTMpW0NASF01W0NASF00W05IXVtDQF02KFtPSF0pW0NASF0oW09IXSlbQ0BIXShbT0hdKVtDQEhdKGM3W2NIXW9jKFtPSF0pW2NIXTcpW0NASF0oW0NIMl01KVtDQEBIXShDNj1bQ0gyXSlDKFtDSDNdKShbQ0gzXSlbQ0gyXUMoPU8pW09IXQ==

>  <s_epik_cmdline>  (235) 
J2VwaWtfcHl0aG9uJywgJy1waHQnLCAnMi4wJywgJy1waCcsICc3LjAnLCAnLXRuJywgJzgnLCAnLW1hJywgJzIwMCcsICctaW1hZScsICc8aW5maWxlLm1hZT4nLCAnLW9tYWUnLCAnPG91dGZpbGUubWFlPic=

>  <r_lp_tautomer_probability>  (235) 
0.999841

>  <r_epik_Ionization_Penalty>  (235) 
0.681733

>  <r_epik_Ionization_Penalty_Charging>  (235) 
0.00455821

>  <r_epik_Ionization_Penalty_Neutral>  (235) 
0.677175

>  <r_epik_State_Penalty>  (235) 
0.697884

>  <r_epik_Charging_Adjusted_Penalty>  (235) 
0.702442

>  <i_epik_Tot_Q>  (235) 
-1

>  <i_epik_Tot_abs_Q>  (235) 
1

>  <s_epik_Chemistry_Notes>  (235) 
This compound has an ester and may undergo hydrolysis at high or low pH.

>  <s_lp_Force_Field>  (235) 
OPLS3e

>  <r_lp_Energy>  (235) 
83.6914

>  <b_lp_Chiralities_Consistent>  (235) 
1

>  <s_lp_Variant>  (235) 
70:0-2

>  <s_i_glide_gridfile>  (235) 
pfpi4k_grid

>  <i_i_glide_lignum>  (235) 
2

>  <i_i_glide_rotatable_bonds>  (235) 
7

>  <r_i_docking_score>  (235) 
-2.26067

>  <r_i_glide_ligand_efficiency>  (235) 
-0.0565167

>  <r_i_glide_ligand_efficiency_sa>  (235) 
-0.193284

>  <r_i_glide_ligand_efficiency_ln>  (235) 
-0.482134

>  <r_i_glide_gscore>  (235) 
-2.26067

>  <r_i_glide_lipo>  (235) 
-0.139235

>  <r_i_glide_hbond>  (235) 
0

>  <r_i_glide_metal>  (235) 
-0

>  <r_i_glide_rewards>  (235) 
-0.5

>  <r_i_glide_evdw>  (235) 
-19.758

>  <r_i_glide_ecoul>  (235) 
-5.05952

>  <r_i_glide_erotb>  (235) 
0.135853

>  <r_i_glide_esite>  (235) 
-0.0104583

>  <r_i_glide_emodel>  (235) 
-30.4318

>  <r_i_glide_energy>  (235) 
-24.8175

>  <r_i_glide_einternal>  (235) 
6.05827

>  <r_i_glide_intrahb_reward>  (235) 
-0.5

>  <i_i_glide_confnum>  (235) 
1

>  <i_i_glide_posenum>  (235) 
17

>  <r_i_glide_eff_state_penalty>  (235) 
0

>  <ligand_id>  (235) 
70

>  <original_smiles>  (235) 
C=C1CC2(C)C(CC34CC23C2CC3C(c5coc(O)c5)C(O)C(O)C(O)(NC24)C(=C)C3C(C)(C)CC(=O)O)C1=C

>  <smiles>  (235) 
[H]OC12C(=C([H])[H])C([H])(C(C([H])([H])[H])(C([H])([H])[H])C([H])([H])C(=O)[O-])C([H])(C([H])([H])C3([H])C([H])(N1[H])C14C([H])([H])C5([H])C(=C([H])[H])C(=C([H])[H])C([H])([H])C5(C([H])([H])[H])C31C4([H])[H])C([H])(C1=C([H])C(=O)OC1([H])[H])C([H])(O[H])C2([H])O[H]

$$$$
71:0:0
     RDKit          3D

 41 45  0  0  1  0  0  0  0  0999 V2000
    4.1322   -6.7700    0.5737 N   0  0  0  0  0  0  0  0  0  0  0  0
    4.2430   -5.6153    0.5585 C   0  0  0  0  0  0  0  0  0  0  0  0
    4.3888   -4.1512    0.5348 C   0  0  2  0  0  0  0  0  0  0  0  0
    5.8138   -3.7454    0.9125 C   0  0  1  0  0  0  0  0  0  0  0  0
    6.0542   -2.3865    0.2027 C   0  0  0  0  0  0  0  0  0  0  0  0
    4.7403   -2.1155   -0.5605 C   0  0  2  0  0  0  0  0  0  0  0  0
    3.8210   -1.3337    0.2735 N   0  0  0  0  0  0  0  0  0  0  0  0
    3.4937   -1.9378    1.5619 C   0  0  0  0  0  0  0  0  0  0  0  0
    3.5793   -3.4973    1.6867 C   0  0  2  0  0  0  0  0  0  0  0  0
    4.4118   -3.8201    2.9236 C   0  0  0  0  0  0  0  0  0  0  0  0
    5.8332   -3.6807    2.4393 C   0  0  0  0  0  0  0  0  0  0  0  0
    4.2016   -5.1280    3.3172 O   0  0  0  0  0  0  0  0  0  0  0  0
    3.2853   -5.0816    4.3896 C   0  0  0  0  0  0  0  0  0  0  0  0
    3.0350   -3.5873    4.6060 C   0  0  0  0  0  0  0  0  0  0  0  0
    4.1427   -2.9720    3.9882 O   0  0  0  0  0  0  0  0  0  0  0  0
    4.1641   -3.5084   -0.8594 C   0  0  1  0  0  0  0  0  0  0  0  0
    4.9855   -4.2140   -1.9796 C   0  0  0  0  0  0  0  0  0  0  0  0
    4.5844   -3.8113   -3.3935 C   0  0  0  0  0  0  0  0  0  0  0  0
    5.3926   -3.8753   -4.2883 O   0  0  0  0  0  0  0  0  0  0  0  0
    3.2016   -3.3916   -3.6926 C   0  0  0  0  0  0  0  0  0  0  0  0
    2.3056   -3.2300   -2.7026 C   0  0  0  0  0  0  0  0  0  0  0  0
    2.6882   -3.4560   -1.3262 C   0  0  0  0  0  0  0  0  0  0  0  0
    1.8121   -3.7212   -0.5209 O   0  0  0  0  0  0  0  0  0  0  0  0
    6.5280   -4.4906    0.5528 H   0  0  0  0  0  0  0  0  0  0  0  0
    6.3270   -1.5523    0.8611 H   0  0  0  0  0  0  0  0  0  0  0  0
    6.8519   -2.5123   -0.5301 H   0  0  0  0  0  0  0  0  0  0  0  0
    4.9018   -1.5848   -1.4959 H   0  0  0  0  0  0  0  0  0  0  0  0
    2.9309   -1.2293   -0.2072 H   0  0  0  0  0  0  0  0  0  0  0  0
    4.0603   -1.4057    2.3249 H   0  0  0  0  0  0  0  0  0  0  0  0
    2.4596   -1.6839    1.7432 H   0  0  0  0  0  0  0  0  0  0  0  0
    2.6105   -3.9823    1.8333 H   0  0  0  0  0  0  0  0  0  0  0  0
    6.4751   -4.4510    2.8727 H   0  0  0  0  0  0  0  0  0  0  0  0
    6.1486   -2.6924    2.7407 H   0  0  0  0  0  0  0  0  0  0  0  0
    2.3815   -5.6461    4.1485 H   0  0  0  0  0  0  0  0  0  0  0  0
    3.7317   -5.5464    5.2671 H   0  0  0  0  0  0  0  0  0  0  0  0
    2.1480   -3.2868    4.0602 H   0  0  0  0  0  0  0  0  0  0  0  0
    2.8892   -3.3225    5.6497 H   0  0  0  0  0  0  0  0  0  0  0  0
    6.0560   -4.0653   -1.8805 H   0  0  0  0  0  0  0  0  0  0  0  0
    4.8911   -5.3055   -1.8833 H   0  0  0  0  0  0  0  0  0  0  0  0
    2.8870   -3.2941   -4.7125 H   0  0  0  0  0  0  0  0  0  0  0  0
    1.2615   -3.0313   -2.9058 H   0  0  0  0  0  0  0  0  0  0  0  0
  1  2  3  0
  3  2  1  6
  3  9  1  0
  3 16  1  0
  3  4  1  0
  4 11  1  0
  4  5  1  0
  4 24  1  6
  5  6  1  0
  5 25  1  0
  5 26  1  0
  6  7  1  0
  6 16  1  0
  6 27  1  6
  7  8  1  0
  7 28  1  0
  8  9  1  0
  8 29  1  0
  8 30  1  0
  9 10  1  0
  9 31  1  1
 10 15  1  0
 10 11  1  0
 10 12  1  0
 11 32  1  0
 11 33  1  0
 12 13  1  0
 13 14  1  0
 13 34  1  0
 13 35  1  0
 14 15  1  0
 14 36  1  0
 14 37  1  0
 16 22  1  0
 16 17  1  6
 17 18  1  0
 17 38  1  0
 17 39  1  0
 18 19  2  0
 18 20  1  0
 20 21  2  0
 20 40  1  0
 21 22  1  0
 21 41  1  0
 22 23  2  0
M  END
>  <i_m_ct_stereo_status>  (236) 
1

>  <s_m_source_file>  (236) 
/var/tmp/pbs.5083856.sched01/tmpulh63j03/95gpwz8mf4.sdf

>  <i_m_source_file_index>  (236) 
3

>  <i_lp_mmshare_version>  (236) 
48012

>  <i_f3d_flags>  (236) 
0

>  <s_epik_input>  (236) 
TzFbQ0gyXVtDSDJdT0MxMltDQEBIXTNbQ0BAXTQoQyNOKVtDQEBdNShbQ0BASF0oW05IXVtDSDJdMylbQ0gyXVtDQEhdNFtDSDJdMilbQ0gyXUMoPU8pW0NIXT1bQ0hdQzU9Tw==

>  <s_epik_cmdline>  (236) 
J2VwaWtfcHl0aG9uJywgJy1waHQnLCAnMi4wJywgJy1waCcsICc3LjAnLCAnLXRuJywgJzgnLCAnLW1hJywgJzIwMCcsICctaW1hZScsICc8aW5maWxlLm1hZT4nLCAnLW9tYWUnLCAnPG91dGZpbGUubWFlPic=

>  <r_lp_tautomer_probability>  (236) 
1

>  <r_epik_Ionization_Penalty>  (236) 
0.0490625

>  <r_epik_Ionization_Penalty_Charging>  (236) 
0

>  <r_epik_Ionization_Penalty_Neutral>  (236) 
0.0490625

>  <r_epik_State_Penalty>  (236) 
0.0418844

>  <r_epik_Charging_Adjusted_Penalty>  (236) 
0.0418844

>  <i_epik_Tot_Q>  (236) 
0

>  <i_epik_Tot_abs_Q>  (236) 
0

>  <s_lp_Force_Field>  (236) 
OPLS3e

>  <r_lp_Energy>  (236) 
23.188

>  <b_lp_Chiralities_Consistent>  (236) 
1

>  <s_lp_Variant>  (236) 
71:0-1

>  <s_i_glide_gridfile>  (236) 
pfpi4k_grid

>  <i_i_glide_lignum>  (236) 
3

>  <i_i_glide_rotatable_bonds>  (236) 
1

>  <r_i_docking_score>  (236) 
-3.4778

>  <r_i_glide_ligand_efficiency>  (236) 
-0.151209

>  <r_i_glide_ligand_efficiency_sa>  (236) 
-0.430017

>  <r_i_glide_ligand_efficiency_ln>  (236) 
-0.840963

>  <r_i_glide_gscore>  (236) 
-3.4778

>  <r_i_glide_lipo>  (236) 
-0.521614

>  <r_i_glide_hbond>  (236) 
-0.0756238

>  <r_i_glide_metal>  (236) 
-0

>  <r_i_glide_rewards>  (236) 
-1.49106

>  <r_i_glide_evdw>  (236) 
-10.2192

>  <r_i_glide_ecoul>  (236) 
-5.85691

>  <r_i_glide_erotb>  (236) 
0

>  <r_i_glide_esite>  (236) 
0

>  <r_i_glide_emodel>  (236) 
-19.8664

>  <r_i_glide_energy>  (236) 
-16.0761

>  <r_i_glide_einternal>  (236) 
0.292427

>  <r_i_glide_intrahb_reward>  (236) 
-0

>  <i_i_glide_confnum>  (236) 
4

>  <i_i_glide_posenum>  (236) 
10

>  <r_i_glide_eff_state_penalty>  (236) 
0

>  <ligand_id>  (236) 
71

>  <original_smiles>  (236) 
N#CC12C3CC(NCC1C1(C3)OCCO1)C21CC(=O)C=CC1=O

>  <smiles>  (236) 
[H]C1=C([H])C(=O)C2(C([H])([H])C1=O)C1([H])N([H])C([H])([H])C3([H])C4(OC([H])([H])C([H])([H])O4)C([H])([H])C([H])(C1([H])[H])C32C#N

$$$$
71:0:1
     RDKit          3D

 41 45  0  0  1  0  0  0  0  0999 V2000
    6.2225   -0.6879    0.4793 N   0  0  0  0  0  0  0  0  0  0  0  0
    5.5623   -1.6309    0.3561 C   0  0  0  0  0  0  0  0  0  0  0  0
    4.7368   -2.8205    0.1876 C   0  0  2  0  0  0  0  0  0  0  0  0
    5.5169   -3.9536   -0.5092 C   0  0  1  0  0  0  0  0  0  0  0  0
    4.8650   -5.2522    0.0143 C   0  0  0  0  0  0  0  0  0  0  0  0
    3.7687   -4.7722    0.9897 C   0  0  2  0  0  0  0  0  0  0  0  0
    2.4981   -4.6153    0.2941 N   0  0  0  0  0  0  0  0  0  0  0  0
    2.5184   -3.6794   -0.8422 C   0  0  0  0  0  0  0  0  0  0  0  0
    3.6187   -2.5781   -0.8430 C   0  0  2  0  0  0  0  0  0  0  0  0
    4.3839   -2.5998   -2.1849 C   0  0  0  0  0  0  0  0  0  0  0  0
    5.3979   -3.7371   -2.0413 C   0  0  0  0  0  0  0  0  0  0  0  0
    5.0281   -1.3909   -2.3678 O   0  0  0  0  0  0  0  0  0  0  0  0
    4.1968   -0.6135   -3.2038 C   0  0  0  0  0  0  0  0  0  0  0  0
    3.0121   -1.5227   -3.5148 C   0  0  0  0  0  0  0  0  0  0  0  0
    3.5461   -2.8021   -3.2785 O   0  0  0  0  0  0  0  0  0  0  0  0
    4.2402   -3.4021    1.5365 C   0  0  1  0  0  0  0  0  0  0  0  0
    5.4296   -3.6296    2.5269 C   0  0  0  0  0  0  0  0  0  0  0  0
    5.0148   -4.0512    3.9428 C   0  0  0  0  0  0  0  0  0  0  0  0
    5.7528   -4.7909    4.5975 O   0  0  0  0  0  0  0  0  0  0  0  0
    3.7507   -3.5259    4.4727 C   0  0  0  0  0  0  0  0  0  0  0  0
    2.8849   -2.8386    3.6990 C   0  0  0  0  0  0  0  0  0  0  0  0
    3.1291   -2.5666    2.2752 C   0  0  0  0  0  0  0  0  0  0  0  0
    2.4166   -1.7492    1.6987 O   0  0  0  0  0  0  0  0  0  0  0  0
    6.5687   -3.9334   -0.2168 H   0  0  0  0  0  0  0  0  0  0  0  0
    4.4728   -5.9077   -0.7591 H   0  0  0  0  0  0  0  0  0  0  0  0
    5.6039   -5.8388    0.5533 H   0  0  0  0  0  0  0  0  0  0  0  0
    3.6243   -5.4943    1.7910 H   0  0  0  0  0  0  0  0  0  0  0  0
    1.8629   -4.2235    0.9680 H   0  0  0  0  0  0  0  0  0  0  0  0
    2.5301   -4.2544   -1.7724 H   0  0  0  0  0  0  0  0  0  0  0  0
    1.5531   -3.1723   -0.8537 H   0  0  0  0  0  0  0  0  0  0  0  0
    3.1714   -1.5907   -0.7020 H   0  0  0  0  0  0  0  0  0  0  0  0
    6.3433   -3.4559   -2.5176 H   0  0  0  0  0  0  0  0  0  0  0  0
    5.0220   -4.6311   -2.5364 H   0  0  0  0  0  0  0  0  0  0  0  0
    3.8921    0.3139   -2.7236 H   0  0  0  0  0  0  0  0  0  0  0  0
    4.6687   -0.3645   -4.1440 H   0  0  0  0  0  0  0  0  0  0  0  0
    2.2115   -1.3270   -2.8089 H   0  0  0  0  0  0  0  0  0  0  0  0
    2.6323   -1.3936   -4.5326 H   0  0  0  0  0  0  0  0  0  0  0  0
    6.1060   -4.4066    2.1728 H   0  0  0  0  0  0  0  0  0  0  0  0
    6.0565   -2.7373    2.6120 H   0  0  0  0  0  0  0  0  0  0  0  0
    3.5227   -3.7034    5.5084 H   0  0  0  0  0  0  0  0  0  0  0  0
    1.9710   -2.4475    4.1175 H   0  0  0  0  0  0  0  0  0  0  0  0
  1  2  3  0
  3  2  1  1
  3  9  1  0
  3 16  1  0
  3  4  1  0
  4 11  1  0
  4  5  1  0
  4 24  1  1
  5  6  1  0
  5 25  1  0
  5 26  1  0
  6  7  1  0
  6 16  1  0
  6 27  1  1
  7  8  1  0
  7 28  1  0
  8  9  1  0
  8 29  1  0
  8 30  1  0
  9 10  1  0
  9 31  1  1
 10 15  1  0
 10 11  1  0
 10 12  1  0
 11 32  1  0
 11 33  1  0
 12 13  1  0
 13 14  1  0
 13 34  1  0
 13 35  1  0
 14 15  1  0
 14 36  1  0
 14 37  1  0
 16 22  1  0
 16 17  1  1
 17 18  1  0
 17 38  1  0
 17 39  1  0
 18 19  2  0
 18 20  1  0
 20 21  2  0
 20 40  1  0
 21 22  1  0
 21 41  1  0
 22 23  2  0
M  END
>  <i_m_ct_stereo_status>  (237) 
1

>  <s_m_source_file>  (237) 
/var/tmp/pbs.5083856.sched01/tmpulh63j03/95gpwz8mf4.sdf

>  <i_m_source_file_index>  (237) 
3

>  <i_lp_mmshare_version>  (237) 
48012

>  <i_f3d_flags>  (237) 
0

>  <s_epik_input>  (237) 
TzFbQ0gyXVtDSDJdT0MxMltDQEBIXTNbQ0BAXTQoQyNOKVtDQEBdNShbQ0BASF0oW05IXVtDSDJdMylbQ0gyXVtDQEhdNFtDSDJdMilbQ0gyXUMoPU8pW0NIXT1bQ0hdQzU9Tw==

>  <s_epik_cmdline>  (237) 
J2VwaWtfcHl0aG9uJywgJy1waHQnLCAnMi4wJywgJy1waCcsICc3LjAnLCAnLXRuJywgJzgnLCAnLW1hJywgJzIwMCcsICctaW1hZScsICc8aW5maWxlLm1hZT4nLCAnLW9tYWUnLCAnPG91dGZpbGUubWFlPic=

>  <r_lp_tautomer_probability>  (237) 
1

>  <r_epik_Ionization_Penalty>  (237) 
0.0490625

>  <r_epik_Ionization_Penalty_Charging>  (237) 
0

>  <r_epik_Ionization_Penalty_Neutral>  (237) 
0.0490625

>  <r_epik_State_Penalty>  (237) 
0.0418844

>  <r_epik_Charging_Adjusted_Penalty>  (237) 
0.0418844

>  <i_epik_Tot_Q>  (237) 
0

>  <i_epik_Tot_abs_Q>  (237) 
0

>  <s_lp_Force_Field>  (237) 
OPLS3e

>  <r_lp_Energy>  (237) 
23.188

>  <b_lp_Chiralities_Consistent>  (237) 
1

>  <s_lp_Variant>  (237) 
71:0-1

>  <s_i_glide_gridfile>  (237) 
pfpi4k_grid

>  <i_i_glide_lignum>  (237) 
3

>  <i_i_glide_rotatable_bonds>  (237) 
1

>  <r_i_docking_score>  (237) 
-3.31137

>  <r_i_glide_ligand_efficiency>  (237) 
-0.143973

>  <r_i_glide_ligand_efficiency_sa>  (237) 
-0.409439

>  <r_i_glide_ligand_efficiency_ln>  (237) 
-0.80072

>  <r_i_glide_gscore>  (237) 
-3.31137

>  <r_i_glide_lipo>  (237) 
-0.55627

>  <r_i_glide_hbond>  (237) 
0

>  <r_i_glide_metal>  (237) 
-0

>  <r_i_glide_rewards>  (237) 
-1.40928

>  <r_i_glide_evdw>  (237) 
-24.9155

>  <r_i_glide_ecoul>  (237) 
-0.65895

>  <r_i_glide_erotb>  (237) 
0

>  <r_i_glide_esite>  (237) 
-0.0012061

>  <r_i_glide_emodel>  (237) 
-29.5749

>  <r_i_glide_energy>  (237) 
-25.5744

>  <r_i_glide_einternal>  (237) 
0.29255

>  <r_i_glide_intrahb_reward>  (237) 
-0

>  <i_i_glide_confnum>  (237) 
4

>  <i_i_glide_posenum>  (237) 
13

>  <r_i_glide_eff_state_penalty>  (237) 
0

>  <ligand_id>  (237) 
71

>  <original_smiles>  (237) 
N#CC12C3CC(NCC1C1(C3)OCCO1)C21CC(=O)C=CC1=O

>  <smiles>  (237) 
[H]C1=C([H])C(=O)C2(C([H])([H])C1=O)C1([H])N([H])C([H])([H])C3([H])C4(OC([H])([H])C([H])([H])O4)C([H])([H])C([H])(C1([H])[H])C32C#N

$$$$
71:0:2
     RDKit          3D

 41 45  0  0  1  0  0  0  0  0999 V2000
    2.0099    3.7872    4.6723 N   0  0  0  0  0  0  0  0  0  0  0  0
    1.4607    2.8463    5.0411 C   0  0  0  0  0  0  0  0  0  0  0  0
    0.7662    1.6455    5.5229 C   0  0  2  0  0  0  0  0  0  0  0  0
    1.6822    0.7710    6.4141 C   0  0  1  0  0  0  0  0  0  0  0  0
    0.7157    0.0458    7.3664 C   0  0  0  0  0  0  0  0  0  0  0  0
   -0.6840    0.5856    6.9737 C   0  0  2  0  0  0  0  0  0  0  0  0
   -1.3007   -0.2955    5.9904 N   0  0  0  0  0  0  0  0  0  0  0  0
   -0.5010   -0.5127    4.7897 C   0  0  0  0  0  0  0  0  0  0  0  0
    0.4786    0.6380    4.3858 C   0  0  2  0  0  0  0  0  0  0  0  0
    1.8652    0.0186    4.1109 C   0  0  0  0  0  0  0  0  0  0  0  0
    2.4910   -0.1860    5.5018 C   0  0  0  0  0  0  0  0  0  0  0  0
    2.6251    0.9082    3.3796 O   0  0  0  0  0  0  0  0  0  0  0  0
    2.5410    0.4968    2.0345 C   0  0  0  0  0  0  0  0  0  0  0  0
    1.6663   -0.7683    2.0726 C   0  0  0  0  0  0  0  0  0  0  0  0
    1.7623   -1.1762    3.4114 O   0  0  0  0  0  0  0  0  0  0  0  0
   -0.4803    2.0044    6.3688 C   0  0  1  0  0  0  0  0  0  0  0  0
   -0.1052    3.0215    7.5016 C   0  0  0  0  0  0  0  0  0  0  0  0
   -1.2944    3.5387    8.3281 C   0  0  0  0  0  0  0  0  0  0  0  0
   -1.1410    3.8028    9.5083 O   0  0  0  0  0  0  0  0  0  0  0  0
   -2.5865    3.6916    7.6332 C   0  0  0  0  0  0  0  0  0  0  0  0
   -2.7739    3.2605    6.3687 C   0  0  0  0  0  0  0  0  0  0  0  0
   -1.7154    2.6045    5.5848 C   0  0  0  0  0  0  0  0  0  0  0  0
   -1.8541    2.5199    4.3534 O   0  0  0  0  0  0  0  0  0  0  0  0
    2.3616    1.3928    6.9938 H   0  0  0  0  0  0  0  0  0  0  0  0
    0.7856   -1.0418    7.3456 H   0  0  0  0  0  0  0  0  0  0  0  0
    0.9417    0.3204    8.3926 H   0  0  0  0  0  0  0  0  0  0  0  0
   -1.3185    0.6281    7.8529 H   0  0  0  0  0  0  0  0  0  0  0  0
   -2.1396    0.1147    5.6305 H   0  0  0  0  0  0  0  0  0  0  0  0
    0.0052   -1.4874    4.8632 H   0  0  0  0  0  0  0  0  0  0  0  0
   -1.2222   -0.6095    3.9828 H   0  0  0  0  0  0  0  0  0  0  0  0
    0.1345    1.1689    3.4980 H   0  0  0  0  0  0  0  0  0  0  0  0
    3.5547    0.0550    5.4542 H   0  0  0  0  0  0  0  0  0  0  0  0
    2.4012   -1.2243    5.8082 H   0  0  0  0  0  0  0  0  0  0  0  0
    2.1059    1.2771    1.4022 H   0  0  0  0  0  0  0  0  0  0  0  0
    3.5454    0.2911    1.6678 H   0  0  0  0  0  0  0  0  0  0  0  0
    0.6320   -0.5037    1.8316 H   0  0  0  0  0  0  0  0  0  0  0  0
    1.9924   -1.5249    1.3511 H   0  0  0  0  0  0  0  0  0  0  0  0
    0.5579    2.5842    8.2367 H   0  0  0  0  0  0  0  0  0  0  0  0
    0.4291    3.8929    7.1144 H   0  0  0  0  0  0  0  0  0  0  0  0
   -3.3923    4.1509    8.1874 H   0  0  0  0  0  0  0  0  0  0  0  0
   -3.7241    3.4150    5.8809 H   0  0  0  0  0  0  0  0  0  0  0  0
  1  2  3  0
  3  2  1  6
  3  9  1  0
  3 16  1  0
  3  4  1  0
  4 11  1  0
  4  5  1  0
  4 24  1  1
  5  6  1  0
  5 25  1  0
  5 26  1  0
  6  7  1  0
  6 16  1  0
  6 27  1  1
  7  8  1  0
  7 28  1  0
  8  9  1  0
  8 29  1  0
  8 30  1  0
  9 10  1  0
  9 31  1  6
 10 15  1  0
 10 11  1  0
 10 12  1  0
 11 32  1  0
 11 33  1  0
 12 13  1  0
 13 14  1  0
 13 34  1  0
 13 35  1  0
 14 15  1  0
 14 36  1  0
 14 37  1  0
 16 22  1  0
 16 17  1  1
 17 18  1  0
 17 38  1  0
 17 39  1  0
 18 19  2  0
 18 20  1  0
 20 21  2  0
 20 40  1  0
 21 22  1  0
 21 41  1  0
 22 23  2  0
M  END
>  <i_m_ct_stereo_status>  (238) 
1

>  <s_m_source_file>  (238) 
/var/tmp/pbs.5083856.sched01/tmpulh63j03/95gpwz8mf4.sdf

>  <i_m_source_file_index>  (238) 
3

>  <i_lp_mmshare_version>  (238) 
48012

>  <i_f3d_flags>  (238) 
0

>  <s_epik_input>  (238) 
TzFbQ0gyXVtDSDJdT0MxMltDQEBIXTNbQ0BAXTQoQyNOKVtDQEBdNShbQ0BASF0oW05IXVtDSDJdMylbQ0gyXVtDQEhdNFtDSDJdMilbQ0gyXUMoPU8pW0NIXT1bQ0hdQzU9Tw==

>  <s_epik_cmdline>  (238) 
J2VwaWtfcHl0aG9uJywgJy1waHQnLCAnMi4wJywgJy1waCcsICc3LjAnLCAnLXRuJywgJzgnLCAnLW1hJywgJzIwMCcsICctaW1hZScsICc8aW5maWxlLm1hZT4nLCAnLW9tYWUnLCAnPG91dGZpbGUubWFlPic=

>  <r_lp_tautomer_probability>  (238) 
1

>  <r_epik_Ionization_Penalty>  (238) 
0.0490625

>  <r_epik_Ionization_Penalty_Charging>  (238) 
0

>  <r_epik_Ionization_Penalty_Neutral>  (238) 
0.0490625

>  <r_epik_State_Penalty>  (238) 
0.0418844

>  <r_epik_Charging_Adjusted_Penalty>  (238) 
0.0418844

>  <i_epik_Tot_Q>  (238) 
0

>  <i_epik_Tot_abs_Q>  (238) 
0

>  <s_lp_Force_Field>  (238) 
OPLS3e

>  <r_lp_Energy>  (238) 
23.188

>  <b_lp_Chiralities_Consistent>  (238) 
1

>  <s_lp_Variant>  (238) 
71:0-1

>  <s_i_glide_gridfile>  (238) 
pfpi4k_grid

>  <i_i_glide_lignum>  (238) 
3

>  <i_i_glide_rotatable_bonds>  (238) 
1

>  <r_i_docking_score>  (238) 
-2.51686

>  <r_i_glide_ligand_efficiency>  (238) 
-0.109429

>  <r_i_glide_ligand_efficiency_sa>  (238) 
-0.311201

>  <r_i_glide_ligand_efficiency_ln>  (238) 
-0.6086

>  <r_i_glide_gscore>  (238) 
-2.51686

>  <r_i_glide_lipo>  (238) 
-0.239596

>  <r_i_glide_hbond>  (238) 
-0.0572852

>  <r_i_glide_metal>  (238) 
-0

>  <r_i_glide_rewards>  (238) 
-1.32563

>  <r_i_glide_evdw>  (238) 
-18.9941

>  <r_i_glide_ecoul>  (238) 
0.426294

>  <r_i_glide_erotb>  (238) 
0

>  <r_i_glide_esite>  (238) 
-0.00859185

>  <r_i_glide_emodel>  (238) 
-21.5215

>  <r_i_glide_energy>  (238) 
-18.5678

>  <r_i_glide_einternal>  (238) 
0.290987

>  <r_i_glide_intrahb_reward>  (238) 
-0

>  <i_i_glide_confnum>  (238) 
4

>  <i_i_glide_posenum>  (238) 
8

>  <r_i_glide_eff_state_penalty>  (238) 
0

>  <ligand_id>  (238) 
71

>  <original_smiles>  (238) 
N#CC12C3CC(NCC1C1(C3)OCCO1)C21CC(=O)C=CC1=O

>  <smiles>  (238) 
[H]C1=C([H])C(=O)C2(C([H])([H])C1=O)C1([H])N([H])C([H])([H])C3([H])C4(OC([H])([H])C([H])([H])O4)C([H])([H])C([H])(C1([H])[H])C32C#N

$$$$
71:1:0
     RDKit          3D

 42 46  0  0  1  0  0  0  0  0999 V2000
    2.0471   -4.2106   -0.7287 N   0  0  0  0  0  0  0  0  0  0  0  0
    3.0821   -3.8814   -0.3159 C   0  0  0  0  0  0  0  0  0  0  0  0
    4.3711   -3.4785    0.2492 C   0  0  2  0  0  0  0  0  0  0  0  0
    5.2568   -4.6744    0.6604 C   0  0  1  0  0  0  0  0  0  0  0  0
    6.7016   -4.1212    0.5632 C   0  0  0  0  0  0  0  0  0  0  0  0
    6.5539   -2.6593    0.0958 C   0  0  2  0  0  0  0  0  0  0  0  0
    6.4553   -1.7692    1.2632 N   0  0  0  0  0  0  0  0  0  0  0  0
    5.4115   -2.1283    2.2406 C   0  0  0  0  0  0  0  0  0  0  0  0
    4.1493   -2.8009    1.6254 C   0  0  2  0  0  0  0  0  0  0  0  0
    3.8013   -4.0323    2.5043 C   0  0  0  0  0  0  0  0  0  0  0  0
    4.8043   -5.1171    2.0672 C   0  0  0  0  0  0  0  0  0  0  0  0
    2.5076   -4.4701    2.2511 O   0  0  0  0  0  0  0  0  0  0  0  0
    1.6942   -3.9649    3.2896 C   0  0  0  0  0  0  0  0  0  0  0  0
    2.6551   -3.2214    4.2088 C   0  0  0  0  0  0  0  0  0  0  0  0
    3.9125   -3.7552    3.8601 O   0  0  0  0  0  0  0  0  0  0  0  0
    5.2402   -2.6563   -0.7376 C   0  0  1  0  0  0  0  0  0  0  0  0
    5.5064   -3.4098   -2.0926 C   0  0  0  0  0  0  0  0  0  0  0  0
    4.4483   -3.2437   -3.2047 C   0  0  0  0  0  0  0  0  0  0  0  0
    4.3335   -4.1024   -4.0952 O   0  0  0  0  0  0  0  0  0  0  0  0
    3.6613   -2.0205   -3.2149 C   0  0  0  0  0  0  0  0  0  0  0  0
    3.7794   -1.1042   -2.2433 C   0  0  0  0  0  0  0  0  0  0  0  0
    4.5971   -1.2646   -1.0253 C   0  0  0  0  0  0  0  0  0  0  0  0
    4.7005   -0.3613   -0.2241 O   0  0  0  0  0  0  0  0  0  0  0  0
    5.1253   -5.4906   -0.0503 H   0  0  0  0  0  0  0  0  0  0  0  0
    7.2854   -4.2459    1.4804 H   0  0  0  0  0  0  0  0  0  0  0  0
    7.2258   -4.6600   -0.2192 H   0  0  0  0  0  0  0  0  0  0  0  0
    7.4091   -2.3634   -0.5120 H   0  0  0  0  0  0  0  0  0  0  0  0
    7.3381   -1.7073    1.7423 H   0  0  0  0  0  0  0  0  0  0  0  0
    5.8570   -2.7497    3.0193 H   0  0  0  0  0  0  0  0  0  0  0  0
    5.0940   -1.2148    2.7440 H   0  0  0  0  0  0  0  0  0  0  0  0
    3.3089   -2.1020    1.5885 H   0  0  0  0  0  0  0  0  0  0  0  0
    4.3288   -6.0967    2.0597 H   0  0  0  0  0  0  0  0  0  0  0  0
    5.6511   -5.1663    2.7483 H   0  0  0  0  0  0  0  0  0  0  0  0
    0.9362   -3.2912    2.8957 H   0  0  0  0  0  0  0  0  0  0  0  0
    1.1917   -4.7995    3.7756 H   0  0  0  0  0  0  0  0  0  0  0  0
    2.6542   -2.1562    3.9771 H   0  0  0  0  0  0  0  0  0  0  0  0
    2.4068   -3.3506    5.2605 H   0  0  0  0  0  0  0  0  0  0  0  0
    6.4512   -3.0268   -2.4858 H   0  0  0  0  0  0  0  0  0  0  0  0
    5.6697   -4.4804   -1.9680 H   0  0  0  0  0  0  0  0  0  0  0  0
    3.0014   -1.8341   -4.0508 H   0  0  0  0  0  0  0  0  0  0  0  0
    3.1930   -0.2156   -2.3543 H   0  0  0  0  0  0  0  0  0  0  0  0
    6.1852   -0.8647    0.9111 H   0  0  0  0  0  0  0  0  0  0  0  0
  1  2  3  0
  3  2  1  6
  3  9  1  0
  3 16  1  0
  3  4  1  0
  4 11  1  0
  4  5  1  0
  4 24  1  6
  5  6  1  0
  5 25  1  0
  5 26  1  0
  6  7  1  0
  6 16  1  0
  6 27  1  6
  7  8  1  0
  7 28  1  0
  7 42  1  0
  8  9  1  0
  8 29  1  0
  8 30  1  0
  9 10  1  0
  9 31  1  6
 10 15  1  0
 10 11  1  0
 10 12  1  0
 11 32  1  0
 11 33  1  0
 12 13  1  0
 13 14  1  0
 13 34  1  0
 13 35  1  0
 14 15  1  0
 14 36  1  0
 14 37  1  0
 16 22  1  0
 16 17  1  6
 17 18  1  0
 17 38  1  0
 17 39  1  0
 18 19  2  0
 18 20  1  0
 20 21  2  0
 20 40  1  0
 21 22  1  0
 21 41  1  0
 22 23  2  0
M  CHG  1   7   1
M  END
>  <i_m_ct_stereo_status>  (239) 
1

>  <s_m_source_file>  (239) 
/var/tmp/pbs.5083856.sched01/tmpulh63j03/95gpwz8mf4.sdf

>  <i_m_source_file_index>  (239) 
4

>  <i_lp_mmshare_version>  (239) 
48012

>  <i_f3d_flags>  (239) 
0

>  <s_epik_input>  (239) 
TzFbQ0gyXVtDSDJdT0MxMltDQEBIXTNbQ0BAXTQoQyNOKVtDQEBdNShbQ0BASF0oW05IXVtDSDJdMylbQ0gyXVtDQEhdNFtDSDJdMilbQ0gyXUMoPU8pW0NIXT1bQ0hdQzU9Tw==

>  <s_epik_cmdline>  (239) 
J2VwaWtfcHl0aG9uJywgJy1waHQnLCAnMi4wJywgJy1waCcsICc3LjAnLCAnLXRuJywgJzgnLCAnLW1hJywgJzIwMCcsICctaW1hZScsICc8aW5maWxlLm1hZT4nLCAnLW9tYWUnLCAnPG91dGZpbGUubWFlPic=

>  <r_lp_tautomer_probability>  (239) 
1

>  <r_epik_Ionization_Penalty>  (239) 
1.50038

>  <r_epik_Ionization_Penalty_Charging>  (239) 
1.50038

>  <r_epik_Ionization_Penalty_Neutral>  (239) 
1.31558e-15

>  <r_epik_State_Penalty>  (239) 
1.59056

>  <r_epik_Charging_Adjusted_Penalty>  (239) 
3.09094

>  <i_epik_Tot_Q>  (239) 
1

>  <i_epik_Tot_abs_Q>  (239) 
1

>  <s_lp_Force_Field>  (239) 
OPLS3e

>  <r_lp_Energy>  (239) 
30.3419

>  <b_lp_Chiralities_Consistent>  (239) 
1

>  <s_lp_Variant>  (239) 
71:0-2

>  <s_i_glide_gridfile>  (239) 
pfpi4k_grid

>  <i_i_glide_lignum>  (239) 
4

>  <i_i_glide_rotatable_bonds>  (239) 
1

>  <r_i_docking_score>  (239) 
-4.05617

>  <r_i_glide_ligand_efficiency>  (239) 
-0.176355

>  <r_i_glide_ligand_efficiency_sa>  (239) 
-0.501531

>  <r_i_glide_ligand_efficiency_ln>  (239) 
-0.980818

>  <r_i_glide_gscore>  (239) 
-4.05617

>  <r_i_glide_lipo>  (239) 
-0.639736

>  <r_i_glide_hbond>  (239) 
0

>  <r_i_glide_metal>  (239) 
-0

>  <r_i_glide_rewards>  (239) 
-1.94533

>  <r_i_glide_evdw>  (239) 
-24.1538

>  <r_i_glide_ecoul>  (239) 
-1.36947

>  <r_i_glide_erotb>  (239) 
0

>  <r_i_glide_esite>  (239) 
-0.0579926

>  <r_i_glide_emodel>  (239) 
-38.3629

>  <r_i_glide_energy>  (239) 
-25.5233

>  <r_i_glide_einternal>  (239) 
1.18771

>  <r_i_glide_intrahb_reward>  (239) 
-0.5

>  <i_i_glide_confnum>  (239) 
4

>  <i_i_glide_posenum>  (239) 
29

>  <r_i_glide_eff_state_penalty>  (239) 
0

>  <ligand_id>  (239) 
71

>  <original_smiles>  (239) 
N#CC12C3CC(NCC1C1(C3)OCCO1)C21CC(=O)C=CC1=O

>  <smiles>  (239) 
[H]C1=C([H])C(=O)C2(C([H])([H])C1=O)C1(C#N)C3([H])C([H])([H])C4(OC([H])([H])C([H])([H])O4)C1([H])C([H])([H])[N+]([H])([H])C2([H])C3([H])[H]

$$$$
71:1:1
     RDKit          3D

 42 46  0  0  1  0  0  0  0  0999 V2000
   -1.1468   -0.3760    6.0779 N   0  0  0  0  0  0  0  0  0  0  0  0
   -0.2746    0.1915    5.5664 C   0  0  0  0  0  0  0  0  0  0  0  0
    0.8375    0.9157    4.9133 C   0  0  2  0  0  0  0  0  0  0  0  0
    1.4510    1.9771    5.8475 C   0  0  1  0  0  0  0  0  0  0  0  0
    2.9210    2.0973    5.3723 C   0  0  0  0  0  0  0  0  0  0  0  0
    3.0495    1.1019    4.1893 C   0  0  2  0  0  0  0  0  0  0  0  0
    2.7328    1.7662    2.9012 N   0  0  0  0  0  0  0  0  0  0  0  0
    1.4269    2.4679    2.8597 C   0  0  0  0  0  0  0  0  0  0  0  0
    0.3147    1.8318    3.7665 C   0  0  2  0  0  0  0  0  0  0  0  0
   -0.3724    2.9597    4.5827 C   0  0  0  0  0  0  0  0  0  0  0  0
    0.6085    3.2654    5.7222 C   0  0  0  0  0  0  0  0  0  0  0  0
   -1.5703    2.5027    5.1061 O   0  0  0  0  0  0  0  0  0  0  0  0
   -2.5848    2.9630    4.2360 C   0  0  0  0  0  0  0  0  0  0  0  0
   -1.8511    3.7964    3.1865 C   0  0  0  0  0  0  0  0  0  0  0  0
   -0.6339    4.0914    3.8299 O   0  0  0  0  0  0  0  0  0  0  0  0
    2.0201   -0.0144    4.5199 C   0  0  1  0  0  0  0  0  0  0  0  0
    2.5680   -0.8382    5.7364 C   0  0  0  0  0  0  0  0  0  0  0  0
    1.8143   -2.1342    6.0549 C   0  0  0  0  0  0  0  0  0  0  0  0
    1.7340   -2.5160    7.2197 O   0  0  0  0  0  0  0  0  0  0  0  0
    1.2251   -2.8658    4.9282 C   0  0  0  0  0  0  0  0  0  0  0  0
    1.1665   -2.3432    3.6879 C   0  0  0  0  0  0  0  0  0  0  0  0
    1.6443   -0.9881    3.3558 C   0  0  0  0  0  0  0  0  0  0  0  0
    1.7163   -0.6318    2.1843 O   0  0  0  0  0  0  0  0  0  0  0  0
    1.4319    1.6337    6.8824 H   0  0  0  0  0  0  0  0  0  0  0  0
    3.2264    3.1150    5.1149 H   0  0  0  0  0  0  0  0  0  0  0  0
    3.5790    1.7761    6.1814 H   0  0  0  0  0  0  0  0  0  0  0  0
    4.0660    0.7043    4.1187 H   0  0  0  0  0  0  0  0  0  0  0  0
    3.4784    2.4032    2.6374 H   0  0  0  0  0  0  0  0  0  0  0  0
    1.6150    3.5151    3.1041 H   0  0  0  0  0  0  0  0  0  0  0  0
    1.0816    2.4683    1.8217 H   0  0  0  0  0  0  0  0  0  0  0  0
   -0.4194    1.3086    3.1510 H   0  0  0  0  0  0  0  0  0  0  0  0
    0.0610    3.4998    6.6348 H   0  0  0  0  0  0  0  0  0  0  0  0
    1.2252    4.1289    5.4727 H   0  0  0  0  0  0  0  0  0  0  0  0
   -3.1363    2.1459    3.7838 H   0  0  0  0  0  0  0  0  0  0  0  0
   -3.2767    3.5612    4.8215 H   0  0  0  0  0  0  0  0  0  0  0  0
   -1.6475    3.1987    2.2974 H   0  0  0  0  0  0  0  0  0  0  0  0
   -2.3976    4.6882    2.8804 H   0  0  0  0  0  0  0  0  0  0  0  0
    3.6119   -1.0983    5.5567 H   0  0  0  0  0  0  0  0  0  0  0  0
    2.5764   -0.2475    6.6514 H   0  0  0  0  0  0  0  0  0  0  0  0
    0.8552   -3.8601    5.1204 H   0  0  0  0  0  0  0  0  0  0  0  0
    0.7537   -2.9314    2.8832 H   0  0  0  0  0  0  0  0  0  0  0  0
    2.6833    1.0294    2.2082 H   0  0  0  0  0  0  0  0  0  0  0  0
  1  2  3  0
  3  2  1  1
  3  9  1  0
  3 16  1  0
  3  4  1  0
  4 11  1  0
  4  5  1  0
  4 24  1  1
  5  6  1  0
  5 25  1  0
  5 26  1  0
  6  7  1  0
  6 16  1  0
  6 27  1  6
  7  8  1  0
  7 28  1  0
  7 42  1  0
  8  9  1  0
  8 29  1  0
  8 30  1  0
  9 10  1  0
  9 31  1  6
 10 15  1  0
 10 11  1  0
 10 12  1  0
 11 32  1  0
 11 33  1  0
 12 13  1  0
 13 14  1  0
 13 34  1  0
 13 35  1  0
 14 15  1  0
 14 36  1  0
 14 37  1  0
 16 22  1  0
 16 17  1  1
 17 18  1  0
 17 38  1  0
 17 39  1  0
 18 19  2  0
 18 20  1  0
 20 21  2  0
 20 40  1  0
 21 22  1  0
 21 41  1  0
 22 23  2  0
M  CHG  1   7   1
M  END
>  <i_m_ct_stereo_status>  (240) 
1

>  <s_m_source_file>  (240) 
/var/tmp/pbs.5083856.sched01/tmpulh63j03/95gpwz8mf4.sdf

>  <i_m_source_file_index>  (240) 
4

>  <i_lp_mmshare_version>  (240) 
48012

>  <i_f3d_flags>  (240) 
0

>  <s_epik_input>  (240) 
TzFbQ0gyXVtDSDJdT0MxMltDQEBIXTNbQ0BAXTQoQyNOKVtDQEBdNShbQ0BASF0oW05IXVtDSDJdMylbQ0gyXVtDQEhdNFtDSDJdMilbQ0gyXUMoPU8pW0NIXT1bQ0hdQzU9Tw==

>  <s_epik_cmdline>  (240) 
J2VwaWtfcHl0aG9uJywgJy1waHQnLCAnMi4wJywgJy1waCcsICc3LjAnLCAnLXRuJywgJzgnLCAnLW1hJywgJzIwMCcsICctaW1hZScsICc8aW5maWxlLm1hZT4nLCAnLW9tYWUnLCAnPG91dGZpbGUubWFlPic=

>  <r_lp_tautomer_probability>  (240) 
1

>  <r_epik_Ionization_Penalty>  (240) 
1.50038

>  <r_epik_Ionization_Penalty_Charging>  (240) 
1.50038

>  <r_epik_Ionization_Penalty_Neutral>  (240) 
1.31558e-15

>  <r_epik_State_Penalty>  (240) 
1.59056

>  <r_epik_Charging_Adjusted_Penalty>  (240) 
3.09094

>  <i_epik_Tot_Q>  (240) 
1

>  <i_epik_Tot_abs_Q>  (240) 
1

>  <s_lp_Force_Field>  (240) 
OPLS3e

>  <r_lp_Energy>  (240) 
30.3419

>  <b_lp_Chiralities_Consistent>  (240) 
1

>  <s_lp_Variant>  (240) 
71:0-2

>  <s_i_glide_gridfile>  (240) 
pfpi4k_grid

>  <i_i_glide_lignum>  (240) 
4

>  <i_i_glide_rotatable_bonds>  (240) 
1

>  <r_i_docking_score>  (240) 
-3.94817

>  <r_i_glide_ligand_efficiency>  (240) 
-0.17166

>  <r_i_glide_ligand_efficiency_sa>  (240) 
-0.488177

>  <r_i_glide_ligand_efficiency_ln>  (240) 
-0.954703

>  <r_i_glide_gscore>  (240) 
-3.94817

>  <r_i_glide_lipo>  (240) 
-0.053195

>  <r_i_glide_hbond>  (240) 
-0.0486721

>  <r_i_glide_metal>  (240) 
-0

>  <r_i_glide_rewards>  (240) 
-1.75902

>  <r_i_glide_evdw>  (240) 
-18.1488

>  <r_i_glide_ecoul>  (240) 
-7.46258

>  <r_i_glide_erotb>  (240) 
0

>  <r_i_glide_esite>  (240) 
-0.0604533

>  <r_i_glide_emodel>  (240) 
-38.3426

>  <r_i_glide_energy>  (240) 
-25.6114

>  <r_i_glide_einternal>  (240) 
1.18787

>  <r_i_glide_intrahb_reward>  (240) 
-0.5

>  <i_i_glide_confnum>  (240) 
4

>  <i_i_glide_posenum>  (240) 
39

>  <r_i_glide_eff_state_penalty>  (240) 
0

>  <ligand_id>  (240) 
71

>  <original_smiles>  (240) 
N#CC12C3CC(NCC1C1(C3)OCCO1)C21CC(=O)C=CC1=O

>  <smiles>  (240) 
[H]C1=C([H])C(=O)C2(C([H])([H])C1=O)C1(C#N)C3([H])C([H])([H])C4(OC([H])([H])C([H])([H])O4)C1([H])C([H])([H])[N+]([H])([H])C2([H])C3([H])[H]

$$$$
71:1:2
     RDKit          3D

 42 46  0  0  1  0  0  0  0  0999 V2000
    4.1723    0.1260    0.9551 N   0  0  0  0  0  0  0  0  0  0  0  0
    4.3712   -1.0097    0.9237 C   0  0  0  0  0  0  0  0  0  0  0  0
    4.6252   -2.4623    0.8877 C   0  0  2  0  0  0  0  0  0  0  0  0
    6.0841   -2.7754    0.5068 C   0  0  1  0  0  0  0  0  0  0  0  0
    6.3714   -4.1327    1.1961 C   0  0  0  0  0  0  0  0  0  0  0  0
    5.0578   -4.5081    1.9238 C   0  0  2  0  0  0  0  0  0  0  0  0
    4.1824   -5.3086    1.0353 N   0  0  0  0  0  0  0  0  0  0  0  0
    3.9017   -4.6937   -0.2863 C   0  0  0  0  0  0  0  0  0  0  0  0
    3.8808   -3.1298   -0.3001 C   0  0  2  0  0  0  0  0  0  0  0  0
    4.7265   -2.6384   -1.5053 C   0  0  0  0  0  0  0  0  0  0  0  0
    6.1803   -2.7843   -1.0356 C   0  0  0  0  0  0  0  0  0  0  0  0
    4.4618   -1.3064   -1.7801 O   0  0  0  0  0  0  0  0  0  0  0  0
    3.5342   -1.2937   -2.8487 C   0  0  0  0  0  0  0  0  0  0  0  0
    3.3460   -2.7673   -3.2180 C   0  0  0  0  0  0  0  0  0  0  0  0
    4.4914   -3.3719   -2.6570 O   0  0  0  0  0  0  0  0  0  0  0  0
    4.3987   -3.1420    2.2672 C   0  0  1  0  0  0  0  0  0  0  0  0
    5.2321   -2.4736    3.4089 C   0  0  0  0  0  0  0  0  0  0  0  0
    4.6221   -1.2320    4.0602 C   0  0  0  0  0  0  0  0  0  0  0  0
    5.3619   -0.3457    4.4823 O   0  0  0  0  0  0  0  0  0  0  0  0
    3.1630   -1.1841    4.1594 C   0  0  0  0  0  0  0  0  0  0  0  0
    2.3721   -2.0855    3.5422 C   0  0  0  0  0  0  0  0  0  0  0  0
    2.8958   -3.1717    2.6879 C   0  0  0  0  0  0  0  0  0  0  0  0
    2.1564   -4.0737    2.3109 O   0  0  0  0  0  0  0  0  0  0  0  0
    6.7529   -2.0148    0.9112 H   0  0  0  0  0  0  0  0  0  0  0  0
    6.7296   -4.9114    0.5168 H   0  0  0  0  0  0  0  0  0  0  0  0
    7.1539   -3.9923    1.9382 H   0  0  0  0  0  0  0  0  0  0  0  0
    5.2552   -5.0967    2.8226 H   0  0  0  0  0  0  0  0  0  0  0  0
    4.5635   -6.2363    0.8998 H   0  0  0  0  0  0  0  0  0  0  0  0
    4.6287   -5.1100   -0.9870 H   0  0  0  0  0  0  0  0  0  0  0  0
    2.9241   -5.0505   -0.6138 H   0  0  0  0  0  0  0  0  0  0  0  0
    2.8542   -2.7651   -0.3804 H   0  0  0  0  0  0  0  0  0  0  0  0
    6.7792   -1.9611   -1.4202 H   0  0  0  0  0  0  0  0  0  0  0  0
    6.6132   -3.7127   -1.4061 H   0  0  0  0  0  0  0  0  0  0  0  0
    2.6016   -0.8222   -2.5455 H   0  0  0  0  0  0  0  0  0  0  0  0
    3.9545   -0.7191   -3.6731 H   0  0  0  0  0  0  0  0  0  0  0  0
    2.4587   -3.1824   -2.7380 H   0  0  0  0  0  0  0  0  0  0  0  0
    3.2633   -2.9319   -4.2923 H   0  0  0  0  0  0  0  0  0  0  0  0
    5.4250   -3.2077    4.1929 H   0  0  0  0  0  0  0  0  0  0  0  0
    6.2126   -2.1769    3.0438 H   0  0  0  0  0  0  0  0  0  0  0  0
    2.7317   -0.4067    4.7732 H   0  0  0  0  0  0  0  0  0  0  0  0
    1.3040   -2.0288    3.6722 H   0  0  0  0  0  0  0  0  0  0  0  0
    3.2954   -5.3860    1.5168 H   0  0  0  0  0  0  0  0  0  0  0  0
  1  2  3  0
  3  2  1  1
  3  9  1  0
  3 16  1  0
  3  4  1  0
  4 11  1  0
  4  5  1  0
  4 24  1  1
  5  6  1  0
  5 25  1  0
  5 26  1  0
  6  7  1  0
  6 16  1  0
  6 27  1  1
  7  8  1  0
  7 28  1  0
  7 42  1  0
  8  9  1  0
  8 29  1  0
  8 30  1  0
  9 10  1  0
  9 31  1  6
 10 15  1  0
 10 11  1  0
 10 12  1  0
 11 32  1  0
 11 33  1  0
 12 13  1  0
 13 14  1  0
 13 34  1  0
 13 35  1  0
 14 15  1  0
 14 36  1  0
 14 37  1  0
 16 22  1  0
 16 17  1  1
 17 18  1  0
 17 38  1  0
 17 39  1  0
 18 19  2  0
 18 20  1  0
 20 21  2  0
 20 40  1  0
 21 22  1  0
 21 41  1  0
 22 23  2  0
M  CHG  1   7   1
M  END
>  <i_m_ct_stereo_status>  (241) 
1

>  <s_m_source_file>  (241) 
/var/tmp/pbs.5083856.sched01/tmpulh63j03/95gpwz8mf4.sdf

>  <i_m_source_file_index>  (241) 
4

>  <i_lp_mmshare_version>  (241) 
48012

>  <i_f3d_flags>  (241) 
0

>  <s_epik_input>  (241) 
TzFbQ0gyXVtDSDJdT0MxMltDQEBIXTNbQ0BAXTQoQyNOKVtDQEBdNShbQ0BASF0oW05IXVtDSDJdMylbQ0gyXVtDQEhdNFtDSDJdMilbQ0gyXUMoPU8pW0NIXT1bQ0hdQzU9Tw==

>  <s_epik_cmdline>  (241) 
J2VwaWtfcHl0aG9uJywgJy1waHQnLCAnMi4wJywgJy1waCcsICc3LjAnLCAnLXRuJywgJzgnLCAnLW1hJywgJzIwMCcsICctaW1hZScsICc8aW5maWxlLm1hZT4nLCAnLW9tYWUnLCAnPG91dGZpbGUubWFlPic=

>  <r_lp_tautomer_probability>  (241) 
1

>  <r_epik_Ionization_Penalty>  (241) 
1.50038

>  <r_epik_Ionization_Penalty_Charging>  (241) 
1.50038

>  <r_epik_Ionization_Penalty_Neutral>  (241) 
1.31558e-15

>  <r_epik_State_Penalty>  (241) 
1.59056

>  <r_epik_Charging_Adjusted_Penalty>  (241) 
3.09094

>  <i_epik_Tot_Q>  (241) 
1

>  <i_epik_Tot_abs_Q>  (241) 
1

>  <s_lp_Force_Field>  (241) 
OPLS3e

>  <r_lp_Energy>  (241) 
30.3419

>  <b_lp_Chiralities_Consistent>  (241) 
1

>  <s_lp_Variant>  (241) 
71:0-2

>  <s_i_glide_gridfile>  (241) 
pfpi4k_grid

>  <i_i_glide_lignum>  (241) 
4

>  <i_i_glide_rotatable_bonds>  (241) 
1

>  <r_i_docking_score>  (241) 
-3.79596

>  <r_i_glide_ligand_efficiency>  (241) 
-0.165042

>  <r_i_glide_ligand_efficiency_sa>  (241) 
-0.469357

>  <r_i_glide_ligand_efficiency_ln>  (241) 
-0.917898

>  <r_i_glide_gscore>  (241) 
-3.79596

>  <r_i_glide_lipo>  (241) 
-0.380256

>  <r_i_glide_hbond>  (241) 
0

>  <r_i_glide_metal>  (241) 
-0

>  <r_i_glide_rewards>  (241) 
-1.85981

>  <r_i_glide_evdw>  (241) 
-24.4966

>  <r_i_glide_ecoul>  (241) 
-2.1139

>  <r_i_glide_erotb>  (241) 
0

>  <r_i_glide_esite>  (241) 
-0.0139869

>  <r_i_glide_emodel>  (241) 
-39.002

>  <r_i_glide_energy>  (241) 
-26.6105

>  <r_i_glide_einternal>  (241) 
1.18743

>  <r_i_glide_intrahb_reward>  (241) 
-0.5

>  <i_i_glide_confnum>  (241) 
4

>  <i_i_glide_posenum>  (241) 
2

>  <r_i_glide_eff_state_penalty>  (241) 
0

>  <ligand_id>  (241) 
71

>  <original_smiles>  (241) 
N#CC12C3CC(NCC1C1(C3)OCCO1)C21CC(=O)C=CC1=O

>  <smiles>  (241) 
[H]C1=C([H])C(=O)C2(C([H])([H])C1=O)C1(C#N)C3([H])C([H])([H])C4(OC([H])([H])C([H])([H])O4)C1([H])C([H])([H])[N+]([H])([H])C2([H])C3([H])[H]

$$$$
72:0:0
     RDKit          3D

 29 32  0  0  1  0  0  0  0  0999 V2000
    6.9551   -5.2303    1.2630 S   0  0  0  0  0  0  0  0  0  0  0  0
    5.5744   -4.3135    1.0957 C   0  0  0  0  0  0  0  0  0  0  0  0
    5.5030   -3.3098    0.1849 N   0  0  0  0  0  0  0  0  0  0  0  0
    4.2775   -2.5821   -0.0948 C   0  0  2  0  0  0  0  0  0  0  0  0
    3.3871   -3.3566   -1.1033 C   0  0  0  0  0  0  0  0  0  0  0  0
    3.2962   -2.4041   -2.2215 C   0  0  0  0  0  0  0  0  0  0  0  0
    2.7253   -2.3752   -3.4250 N   0  0  0  0  0  0  0  0  0  0  0  0
    3.0157   -1.1667   -4.0155 C   0  0  0  0  0  0  0  0  0  0  0  0
    3.8035   -0.4591   -3.1352 C   0  0  0  0  0  0  0  0  0  0  0  0
    3.9440   -1.2726   -2.0486 N   0  0  0  0  0  0  0  0  0  0  0  0
    4.6120   -1.2100   -0.7598 C   0  0  0  0  0  0  0  0  0  0  0  0
    3.5611   -2.3267    1.0797 O   0  0  0  0  0  0  0  0  0  0  0  0
    3.3769   -3.4247    1.8909 C   0  0  0  0  0  0  0  0  0  0  0  0
    2.2214   -3.5316    2.6895 C   0  0  0  0  0  0  0  0  0  0  0  0
    2.0511   -4.6841    3.4787 C   0  0  0  0  0  0  0  0  0  0  0  0
    3.0612   -5.6657    3.4525 C   0  0  0  0  0  0  0  0  0  0  0  0
    4.1727   -5.5631    2.6935 N   0  0  0  0  0  0  0  0  0  0  0  0
    4.3370   -4.4658    1.9188 C   0  0  0  0  0  0  0  0  0  0  0  0
    6.3458   -3.0165   -0.2878 H   0  0  0  0  0  0  0  0  0  0  0  0
    3.8659   -4.2652   -1.4648 H   0  0  0  0  0  0  0  0  0  0  0  0
    2.3843   -3.5482   -0.7134 H   0  0  0  0  0  0  0  0  0  0  0  0
    2.6393   -0.9067   -4.9934 H   0  0  0  0  0  0  0  0  0  0  0  0
    4.2272    0.5346   -3.1943 H   0  0  0  0  0  0  0  0  0  0  0  0
    4.2022   -0.3729   -0.1872 H   0  0  0  0  0  0  0  0  0  0  0  0
    5.6832   -1.0692   -0.9207 H   0  0  0  0  0  0  0  0  0  0  0  0
    1.4647   -2.7621    2.6673 H   0  0  0  0  0  0  0  0  0  0  0  0
    1.1721   -4.8149    4.0886 H   0  0  0  0  0  0  0  0  0  0  0  0
    2.9718   -6.5554    4.0593 H   0  0  0  0  0  0  0  0  0  0  0  0
    2.1450   -3.1122   -3.8058 H   0  0  0  0  0  0  0  0  0  0  0  0
  1  2  2  0
  2 18  1  0
  2  3  1  0
  3  4  1  0
  3 19  1  0
  4 11  1  0
  4  5  1  0
  4 12  1  1
  5  6  1  0
  5 20  1  0
  5 21  1  0
  6 10  1  0
  6  7  2  0
  7  8  1  0
  7 29  1  0
  8  9  2  0
  8 22  1  0
  9 10  1  0
  9 23  1  0
 10 11  1  0
 11 24  1  0
 11 25  1  0
 12 13  1  0
 13 18  2  0
 13 14  1  0
 14 15  2  0
 14 26  1  0
 15 16  1  0
 15 27  1  0
 16 17  2  0
 16 28  1  0
 17 18  1  0
M  CHG  1   7   1
M  END
>  <i_m_ct_stereo_status>  (242) 
1

>  <s_m_source_file>  (242) 
/var/tmp/pbs.5083856.sched01/tmpulh63j03/95gpwz8mf4.sdf

>  <i_m_source_file_index>  (242) 
5

>  <i_lp_mmshare_version>  (242) 
48012

>  <i_f3d_flags>  (242) 
0

>  <s_epik_input>  (242) 
bjFbY0hdW2NIXVtjSF1jKE8yKWMxQyg9UylbTkhdW0NAQF0yM1tDSDJdYzRuKFtDSDJdMylbY0hdW2NIXW40

>  <s_epik_cmdline>  (242) 
J2VwaWtfcHl0aG9uJywgJy1waHQnLCAnMi4wJywgJy1waCcsICc3LjAnLCAnLXRuJywgJzgnLCAnLW1hJywgJzIwMCcsICctaW1hZScsICc8aW5maWxlLm1hZT4nLCAnLW9tYWUnLCAnPG91dGZpbGUubWFlPic=

>  <r_lp_tautomer_probability>  (242) 
1

>  <r_epik_Ionization_Penalty>  (242) 
0.187658

>  <r_epik_Ionization_Penalty_Charging>  (242) 
0

>  <r_epik_Ionization_Penalty_Neutral>  (242) 
0.187658

>  <r_epik_State_Penalty>  (242) 
0.182099

>  <r_epik_Charging_Adjusted_Penalty>  (242) 
0.182099

>  <i_epik_Tot_Q>  (242) 
1

>  <i_epik_Tot_abs_Q>  (242) 
1

>  <s_lp_Force_Field>  (242) 
OPLS3e

>  <r_lp_Energy>  (242) 
38.7913

>  <b_lp_Chiralities_Consistent>  (242) 
1

>  <s_lp_Variant>  (242) 
72:0-1

>  <s_i_glide_gridfile>  (242) 
pfpi4k_grid

>  <i_i_glide_lignum>  (242) 
5

>  <i_i_glide_rotatable_bonds>  (242) 
0

>  <r_i_docking_score>  (242) 
-4.14079

>  <r_i_glide_ligand_efficiency>  (242) 
-0.230044

>  <r_i_glide_ligand_efficiency_sa>  (242) 
-0.602885

>  <r_i_glide_ligand_efficiency_ln>  (242) 
-1.06437

>  <r_i_glide_gscore>  (242) 
-4.14079

>  <r_i_glide_lipo>  (242) 
-0.358324

>  <r_i_glide_hbond>  (242) 
0

>  <r_i_glide_metal>  (242) 
-0

>  <r_i_glide_rewards>  (242) 
-1.86128

>  <r_i_glide_evdw>  (242) 
-22.6701

>  <r_i_glide_ecoul>  (242) 
-4.60563

>  <r_i_glide_erotb>  (242) 
0

>  <r_i_glide_esite>  (242) 
-0.0968285

>  <r_i_glide_emodel>  (242) 
-36.7196

>  <r_i_glide_energy>  (242) 
-27.2758

>  <r_i_glide_einternal>  (242) 
0

>  <r_i_glide_intrahb_reward>  (242) 
-0

>  <i_i_glide_confnum>  (242) 
2

>  <i_i_glide_posenum>  (242) 
21

>  <r_i_glide_eff_state_penalty>  (242) 
0

>  <ligand_id>  (242) 
72

>  <original_smiles>  (242) 
S=C1NC2(Cc3nccn3C2)Oc2cccnc21

>  <smiles>  (242) 
[H]c1nc2c(c([H])c1[H])OC1(N([H])C2=S)C([H])([H])c2n(c([H])c([H])[n+]2[H])C1([H])[H]

$$$$
72:0:1
     RDKit          3D

 29 32  0  0  1  0  0  0  0  0999 V2000
    8.2051   -4.9819    0.9112 S   0  0  0  0  0  0  0  0  0  0  0  0
    6.6604   -4.3541    0.9399 C   0  0  0  0  0  0  0  0  0  0  0  0
    6.2958   -3.3706    0.0832 N   0  0  0  0  0  0  0  0  0  0  0  0
    4.9262   -2.9164   -0.0583 C   0  0  2  0  0  0  0  0  0  0  0  0
    4.1194   -3.8531   -1.0002 C   0  0  0  0  0  0  0  0  0  0  0  0
    3.7199   -2.9195   -2.0651 C   0  0  0  0  0  0  0  0  0  0  0  0
    3.0355   -2.9988   -3.2054 N   0  0  0  0  0  0  0  0  0  0  0  0
    3.0082   -1.7481   -3.7880 C   0  0  0  0  0  0  0  0  0  0  0  0
    3.7251   -0.9005   -2.9659 C   0  0  0  0  0  0  0  0  0  0  0  0
    4.1336   -1.6786   -1.9221 N   0  0  0  0  0  0  0  0  0  0  0  0
    4.9027   -1.4960   -0.7043 C   0  0  0  0  0  0  0  0  0  0  0  0
    4.2890   -2.8252    1.1840 O   0  0  0  0  0  0  0  0  0  0  0  0
    4.4160   -3.9421    1.9771 C   0  0  0  0  0  0  0  0  0  0  0  0
    3.3904   -4.2953    2.8759 C   0  0  0  0  0  0  0  0  0  0  0  0
    3.5398   -5.4627    3.6451 C   0  0  0  0  0  0  0  0  0  0  0  0
    4.7192   -6.2145    3.4949 C   0  0  0  0  0  0  0  0  0  0  0  0
    5.7093   -5.8778    2.6405 N   0  0  0  0  0  0  0  0  0  0  0  0
    5.5704   -4.7609    1.8829 C   0  0  0  0  0  0  0  0  0  0  0  0
    7.0082   -2.9108   -0.4612 H   0  0  0  0  0  0  0  0  0  0  0  0
    4.7310   -4.6456   -1.4315 H   0  0  0  0  0  0  0  0  0  0  0  0
    3.2209   -4.2456   -0.5207 H   0  0  0  0  0  0  0  0  0  0  0  0
    2.4859   -1.5611   -4.7128 H   0  0  0  0  0  0  0  0  0  0  0  0
    3.9280    0.1572   -3.0472 H   0  0  0  0  0  0  0  0  0  0  0  0
    4.3879   -0.7670   -0.0739 H   0  0  0  0  0  0  0  0  0  0  0  0
    5.8960   -1.1353   -0.9696 H   0  0  0  0  0  0  0  0  0  0  0  0
    2.4910   -3.6998    2.9475 H   0  0  0  0  0  0  0  0  0  0  0  0
    2.7679   -5.7808    4.3287 H   0  0  0  0  0  0  0  0  0  0  0  0
    4.8730   -7.1076    4.0803 H   0  0  0  0  0  0  0  0  0  0  0  0
    2.5873   -3.8396   -3.5465 H   0  0  0  0  0  0  0  0  0  0  0  0
  1  2  2  0
  2 18  1  0
  2  3  1  0
  3  4  1  0
  3 19  1  0
  4 11  1  0
  4  5  1  0
  4 12  1  1
  5  6  1  0
  5 20  1  0
  5 21  1  0
  6 10  1  0
  6  7  2  0
  7  8  1  0
  7 29  1  0
  8  9  2  0
  8 22  1  0
  9 10  1  0
  9 23  1  0
 10 11  1  0
 11 24  1  0
 11 25  1  0
 12 13  1  0
 13 18  2  0
 13 14  1  0
 14 15  2  0
 14 26  1  0
 15 16  1  0
 15 27  1  0
 16 17  2  0
 16 28  1  0
 17 18  1  0
M  CHG  1   7   1
M  END
>  <i_m_ct_stereo_status>  (243) 
1

>  <s_m_source_file>  (243) 
/var/tmp/pbs.5083856.sched01/tmpulh63j03/95gpwz8mf4.sdf

>  <i_m_source_file_index>  (243) 
5

>  <i_lp_mmshare_version>  (243) 
48012

>  <i_f3d_flags>  (243) 
0

>  <s_epik_input>  (243) 
bjFbY0hdW2NIXVtjSF1jKE8yKWMxQyg9UylbTkhdW0NAQF0yM1tDSDJdYzRuKFtDSDJdMylbY0hdW2NIXW40

>  <s_epik_cmdline>  (243) 
J2VwaWtfcHl0aG9uJywgJy1waHQnLCAnMi4wJywgJy1waCcsICc3LjAnLCAnLXRuJywgJzgnLCAnLW1hJywgJzIwMCcsICctaW1hZScsICc8aW5maWxlLm1hZT4nLCAnLW9tYWUnLCAnPG91dGZpbGUubWFlPic=

>  <r_lp_tautomer_probability>  (243) 
1

>  <r_epik_Ionization_Penalty>  (243) 
0.187658

>  <r_epik_Ionization_Penalty_Charging>  (243) 
0

>  <r_epik_Ionization_Penalty_Neutral>  (243) 
0.187658

>  <r_epik_State_Penalty>  (243) 
0.182099

>  <r_epik_Charging_Adjusted_Penalty>  (243) 
0.182099

>  <i_epik_Tot_Q>  (243) 
1

>  <i_epik_Tot_abs_Q>  (243) 
1

>  <s_lp_Force_Field>  (243) 
OPLS3e

>  <r_lp_Energy>  (243) 
38.7913

>  <b_lp_Chiralities_Consistent>  (243) 
1

>  <s_lp_Variant>  (243) 
72:0-1

>  <s_i_glide_gridfile>  (243) 
pfpi4k_grid

>  <i_i_glide_lignum>  (243) 
5

>  <i_i_glide_rotatable_bonds>  (243) 
0

>  <r_i_docking_score>  (243) 
-4.08307

>  <r_i_glide_ligand_efficiency>  (243) 
-0.226837

>  <r_i_glide_ligand_efficiency_sa>  (243) 
-0.594481

>  <r_i_glide_ligand_efficiency_ln>  (243) 
-1.04953

>  <r_i_glide_gscore>  (243) 
-4.08307

>  <r_i_glide_lipo>  (243) 
-0.258118

>  <r_i_glide_hbond>  (243) 
0

>  <r_i_glide_metal>  (243) 
-0

>  <r_i_glide_rewards>  (243) 
-1.96662

>  <r_i_glide_evdw>  (243) 
-23.0947

>  <r_i_glide_ecoul>  (243) 
-4.34316

>  <r_i_glide_erotb>  (243) 
0

>  <r_i_glide_esite>  (243) 
-0.0521162

>  <r_i_glide_emodel>  (243) 
-36.7328

>  <r_i_glide_energy>  (243) 
-27.4379

>  <r_i_glide_einternal>  (243) 
0

>  <r_i_glide_intrahb_reward>  (243) 
-0

>  <i_i_glide_confnum>  (243) 
1

>  <i_i_glide_posenum>  (243) 
3

>  <r_i_glide_eff_state_penalty>  (243) 
0

>  <ligand_id>  (243) 
72

>  <original_smiles>  (243) 
S=C1NC2(Cc3nccn3C2)Oc2cccnc21

>  <smiles>  (243) 
[H]c1nc2c(c([H])c1[H])OC1(N([H])C2=S)C([H])([H])c2n(c([H])c([H])[n+]2[H])C1([H])[H]

$$$$
72:0:2
     RDKit          3D

 29 32  0  0  1  0  0  0  0  0999 V2000
   -0.7265   -1.5489    5.6755 S   0  0  0  0  0  0  0  0  0  0  0  0
    0.1504   -0.4435    4.7846 C   0  0  0  0  0  0  0  0  0  0  0  0
    1.4126   -0.7152    4.3658 N   0  0  0  0  0  0  0  0  0  0  0  0
    2.1402    0.1461    3.4544 C   0  0  2  0  0  0  0  0  0  0  0  0
    1.7375   -0.1384    1.9830 C   0  0  0  0  0  0  0  0  0  0  0  0
    3.0250   -0.5376    1.3919 C   0  0  0  0  0  0  0  0  0  0  0  0
    3.4464   -0.9559    0.2019 N   0  0  0  0  0  0  0  0  0  0  0  0
    4.8014   -1.1979    0.2773 C   0  0  0  0  0  0  0  0  0  0  0  0
    5.1907   -0.9350    1.5748 C   0  0  0  0  0  0  0  0  0  0  0  0
    4.0518   -0.5367    2.2148 N   0  0  0  0  0  0  0  0  0  0  0  0
    3.6740   -0.1321    3.5588 C   0  0  0  0  0  0  0  0  0  0  0  0
    1.9290    1.4956    3.7546 O   0  0  0  0  0  0  0  0  0  0  0  0
    0.6080    1.8508    3.9150 C   0  0  0  0  0  0  0  0  0  0  0  0
    0.1733    3.1446    3.5731 C   0  0  0  0  0  0  0  0  0  0  0  0
   -1.1894    3.4603    3.7180 C   0  0  0  0  0  0  0  0  0  0  0  0
   -2.0539    2.4703    4.2174 C   0  0  0  0  0  0  0  0  0  0  0  0
   -1.6412    1.2335    4.5647 N   0  0  0  0  0  0  0  0  0  0  0  0
   -0.3342    0.9154    4.4028 C   0  0  0  0  0  0  0  0  0  0  0  0
    1.8934   -1.5239    4.7344 H   0  0  0  0  0  0  0  0  0  0  0  0
    1.0316   -0.9645    1.8876 H   0  0  0  0  0  0  0  0  0  0  0  0
    1.3777    0.7553    1.4676 H   0  0  0  0  0  0  0  0  0  0  0  0
    5.3673   -1.5399   -0.5763 H   0  0  0  0  0  0  0  0  0  0  0  0
    6.1538   -1.0043    2.0700 H   0  0  0  0  0  0  0  0  0  0  0  0
    4.2277    0.7723    3.8238 H   0  0  0  0  0  0  0  0  0  0  0  0
    3.9056   -0.9391    4.2577 H   0  0  0  0  0  0  0  0  0  0  0  0
    0.8614    3.8694    3.1639 H   0  0  0  0  0  0  0  0  0  0  0  0
   -1.5582    4.4287    3.4222 H   0  0  0  0  0  0  0  0  0  0  0  0
   -3.1062    2.6811    4.3448 H   0  0  0  0  0  0  0  0  0  0  0  0
    2.8305   -1.0620   -0.6004 H   0  0  0  0  0  0  0  0  0  0  0  0
  1  2  2  0
  2 18  1  0
  2  3  1  0
  3  4  1  0
  3 19  1  0
  4 11  1  0
  4  5  1  0
  4 12  1  1
  5  6  1  0
  5 20  1  0
  5 21  1  0
  6 10  1  0
  6  7  2  0
  7  8  1  0
  7 29  1  0
  8  9  2  0
  8 22  1  0
  9 10  1  0
  9 23  1  0
 10 11  1  0
 11 24  1  0
 11 25  1  0
 12 13  1  0
 13 18  2  0
 13 14  1  0
 14 15  2  0
 14 26  1  0
 15 16  1  0
 15 27  1  0
 16 17  2  0
 16 28  1  0
 17 18  1  0
M  CHG  1   7   1
M  END
>  <i_m_ct_stereo_status>  (244) 
1

>  <s_m_source_file>  (244) 
/var/tmp/pbs.5083856.sched01/tmpulh63j03/95gpwz8mf4.sdf

>  <i_m_source_file_index>  (244) 
5

>  <i_lp_mmshare_version>  (244) 
48012

>  <i_f3d_flags>  (244) 
0

>  <s_epik_input>  (244) 
bjFbY0hdW2NIXVtjSF1jKE8yKWMxQyg9UylbTkhdW0NAQF0yM1tDSDJdYzRuKFtDSDJdMylbY0hdW2NIXW40

>  <s_epik_cmdline>  (244) 
J2VwaWtfcHl0aG9uJywgJy1waHQnLCAnMi4wJywgJy1waCcsICc3LjAnLCAnLXRuJywgJzgnLCAnLW1hJywgJzIwMCcsICctaW1hZScsICc8aW5maWxlLm1hZT4nLCAnLW9tYWUnLCAnPG91dGZpbGUubWFlPic=

>  <r_lp_tautomer_probability>  (244) 
1

>  <r_epik_Ionization_Penalty>  (244) 
0.187658

>  <r_epik_Ionization_Penalty_Charging>  (244) 
0

>  <r_epik_Ionization_Penalty_Neutral>  (244) 
0.187658

>  <r_epik_State_Penalty>  (244) 
0.182099

>  <r_epik_Charging_Adjusted_Penalty>  (244) 
0.182099

>  <i_epik_Tot_Q>  (244) 
1

>  <i_epik_Tot_abs_Q>  (244) 
1

>  <s_lp_Force_Field>  (244) 
OPLS3e

>  <r_lp_Energy>  (244) 
38.7913

>  <b_lp_Chiralities_Consistent>  (244) 
1

>  <s_lp_Variant>  (244) 
72:0-1

>  <s_i_glide_gridfile>  (244) 
pfpi4k_grid

>  <i_i_glide_lignum>  (244) 
5

>  <i_i_glide_rotatable_bonds>  (244) 
0

>  <r_i_docking_score>  (244) 
-3.95433

>  <r_i_glide_ligand_efficiency>  (244) 
-0.219685

>  <r_i_glide_ligand_efficiency_sa>  (244) 
-0.575737

>  <r_i_glide_ligand_efficiency_ln>  (244) 
-1.01644

>  <r_i_glide_gscore>  (244) 
-3.95433

>  <r_i_glide_lipo>  (244) 
-0.158224

>  <r_i_glide_hbond>  (244) 
-0.104356

>  <r_i_glide_metal>  (244) 
-0

>  <r_i_glide_rewards>  (244) 
-1.70822

>  <r_i_glide_evdw>  (244) 
-20.5131

>  <r_i_glide_ecoul>  (244) 
-5.30443

>  <r_i_glide_erotb>  (244) 
0

>  <r_i_glide_esite>  (244) 
-0.162204

>  <r_i_glide_emodel>  (244) 
-34.7814

>  <r_i_glide_energy>  (244) 
-25.8176

>  <r_i_glide_einternal>  (244) 
0

>  <r_i_glide_intrahb_reward>  (244) 
-0

>  <i_i_glide_confnum>  (244) 
1

>  <i_i_glide_posenum>  (244) 
6

>  <r_i_glide_eff_state_penalty>  (244) 
0

>  <ligand_id>  (244) 
72

>  <original_smiles>  (244) 
S=C1NC2(Cc3nccn3C2)Oc2cccnc21

>  <smiles>  (244) 
[H]c1nc2c(c([H])c1[H])OC1(N([H])C2=S)C([H])([H])c2n(c([H])c([H])[n+]2[H])C1([H])[H]

$$$$
72:1:0
     RDKit          3D

 28 31  0  0  1  0  0  0  0  0999 V2000
   -2.6220    3.5984    3.0279 S   0  0  0  0  0  0  0  0  0  0  0  0
   -1.2843    2.8728    3.6812 C   0  0  0  0  0  0  0  0  0  0  0  0
   -0.2234    2.5483    2.9102 N   0  0  0  0  0  0  0  0  0  0  0  0
    0.8986    1.7905    3.4212 C   0  0  2  0  0  0  0  0  0  0  0  0
    2.1447    2.0100    2.5290 C   0  0  0  0  0  0  0  0  0  0  0  0
    2.4984    0.6373    2.0826 C   0  0  0  0  0  0  0  0  0  0  0  0
    3.4552    0.1378    1.3092 N   0  0  0  0  0  0  0  0  0  0  0  0
    3.1462   -1.2285    1.2955 C   0  0  0  0  0  0  0  0  0  0  0  0
    2.0445   -1.4866    2.0844 C   0  0  0  0  0  0  0  0  0  0  0  0
    1.6579   -0.2499    2.5624 N   0  0  0  0  0  0  0  0  0  0  0  0
    0.6095    0.2518    3.4029 C   0  0  0  0  0  0  0  0  0  0  0  0
    1.2333    2.1915    4.7198 O   0  0  0  0  0  0  0  0  0  0  0  0
    0.1651    2.2470    5.5923 C   0  0  0  0  0  0  0  0  0  0  0  0
    0.3401    2.0260    6.9696 C   0  0  0  0  0  0  0  0  0  0  0  0
   -0.7714    2.0936    7.8238 C   0  0  0  0  0  0  0  0  0  0  0  0
   -2.0190    2.4217    7.2611 C   0  0  0  0  0  0  0  0  0  0  0  0
   -2.1891    2.6558    5.9493 N   0  0  0  0  0  0  0  0  0  0  0  0
   -1.1293    2.5574    5.1205 C   0  0  0  0  0  0  0  0  0  0  0  0
   -0.1155    3.0110    1.9990 H   0  0  0  0  0  0  0  0  0  0  0  0
    1.9347    2.6498    1.6767 H   0  0  0  0  0  0  0  0  0  0  0  0
    2.9641    2.4388    3.1094 H   0  0  0  0  0  0  0  0  0  0  0  0
    3.7354   -1.9122    0.7140 H   0  0  0  0  0  0  0  0  0  0  0  0
    1.5075   -2.3902    2.3210 H   0  0  0  0  0  0  0  0  0  0  0  0
    0.7032   -0.1809    4.3987 H   0  0  0  0  0  0  0  0  0  0  0  0
   -0.3613    0.0103    2.9735 H   0  0  0  0  0  0  0  0  0  0  0  0
    1.3125    1.7779    7.3827 H   0  0  0  0  0  0  0  0  0  0  0  0
   -0.7007    1.8848    8.8908 H   0  0  0  0  0  0  0  0  0  0  0  0
   -2.9090    2.4901    7.8746 H   0  0  0  0  0  0  0  0  0  0  0  0
  1  2  2  0
  2 18  1  0
  2  3  1  0
  3  4  1  0
  3 19  1  0
  4 11  1  0
  4  5  1  0
  4 12  1  1
  5  6  1  0
  5 20  1  0
  5 21  1  0
  6 10  1  0
  6  7  2  0
  7  8  1  0
  8  9  2  0
  8 22  1  0
  9 10  1  0
  9 23  1  0
 10 11  1  0
 11 24  1  0
 11 25  1  0
 12 13  1  0
 13 18  2  0
 13 14  1  0
 14 15  2  0
 14 26  1  0
 15 16  1  0
 15 27  1  0
 16 17  2  0
 16 28  1  0
 17 18  1  0
M  END
>  <i_m_ct_stereo_status>  (245) 
1

>  <s_m_source_file>  (245) 
/var/tmp/pbs.5083856.sched01/tmpajd0ugep/100oyr4iqks.sdf

>  <i_m_source_file_index>  (245) 
1

>  <i_lp_mmshare_version>  (245) 
48012

>  <i_f3d_flags>  (245) 
0

>  <s_epik_input>  (245) 
bjFbY0hdW2NIXVtjSF1jKE8yKWMxQyg9UylbTkhdW0NAQF0yM1tDSDJdYzRuKFtDSDJdMylbY0hdW2NIXW40

>  <s_epik_cmdline>  (245) 
J2VwaWtfcHl0aG9uJywgJy1waHQnLCAnMi4wJywgJy1waCcsICc3LjAnLCAnLXRuJywgJzgnLCAnLW1hJywgJzIwMCcsICctaW1hZScsICc8aW5maWxlLm1hZT4nLCAnLW9tYWUnLCAnPG91dGZpbGUubWFlPic=

>  <r_lp_tautomer_probability>  (245) 
1

>  <r_epik_Ionization_Penalty>  (245) 
0.879537

>  <r_epik_Ionization_Penalty_Charging>  (245) 
0.842202

>  <r_epik_Ionization_Penalty_Neutral>  (245) 
0.0373348

>  <r_epik_State_Penalty>  (245) 
0.875182

>  <r_epik_Charging_Adjusted_Penalty>  (245) 
1.71738

>  <i_epik_Tot_Q>  (245) 
0

>  <i_epik_Tot_abs_Q>  (245) 
0

>  <s_lp_Force_Field>  (245) 
OPLS3e

>  <r_lp_Energy>  (245) 
34.6679

>  <b_lp_Chiralities_Consistent>  (245) 
1

>  <s_lp_Variant>  (245) 
72:0-2

>  <s_i_glide_gridfile>  (245) 
pfpi4k_grid

>  <i_i_glide_lignum>  (245) 
1

>  <i_i_glide_rotatable_bonds>  (245) 
0

>  <r_i_docking_score>  (245) 
-3.92498

>  <r_i_glide_ligand_efficiency>  (245) 
-0.218054

>  <r_i_glide_ligand_efficiency_sa>  (245) 
-0.571464

>  <r_i_glide_ligand_efficiency_ln>  (245) 
-1.0089

>  <r_i_glide_gscore>  (245) 
-3.92498

>  <r_i_glide_lipo>  (245) 
-0.0137833

>  <r_i_glide_hbond>  (245) 
-0.16

>  <r_i_glide_metal>  (245) 
-0

>  <r_i_glide_rewards>  (245) 
-1.64795

>  <r_i_glide_evdw>  (245) 
-20.9174

>  <r_i_glide_ecoul>  (245) 
-5.2598

>  <r_i_glide_erotb>  (245) 
0

>  <r_i_glide_esite>  (245) 
-0.268399

>  <r_i_glide_emodel>  (245) 
-33.1746

>  <r_i_glide_energy>  (245) 
-26.1772

>  <r_i_glide_einternal>  (245) 
0

>  <r_i_glide_intrahb_reward>  (245) 
-0

>  <i_i_glide_confnum>  (245) 
2

>  <i_i_glide_posenum>  (245) 
2

>  <r_i_glide_eff_state_penalty>  (245) 
0

>  <ligand_id>  (245) 
72

>  <original_smiles>  (245) 
S=C1NC2(Cc3nccn3C2)Oc2cccnc21

>  <smiles>  (245) 
[H]c1nc2c(c([H])c1[H])OC1(N([H])C2=S)C([H])([H])c2nc([H])c([H])n2C1([H])[H]

$$$$
72:1:1
     RDKit          3D

 28 31  0  0  1  0  0  0  0  0999 V2000
    2.0003   -2.3395    3.1828 S   0  0  0  0  0  0  0  0  0  0  0  0
    2.9947   -2.8112    1.9310 C   0  0  0  0  0  0  0  0  0  0  0  0
    3.2947   -1.9721    0.9065 N   0  0  0  0  0  0  0  0  0  0  0  0
    4.0448   -2.3895   -0.2605 C   0  0  2  0  0  0  0  0  0  0  0  0
    4.6731   -1.1459   -0.9576 C   0  0  0  0  0  0  0  0  0  0  0  0
    4.1029   -1.1966   -2.3227 C   0  0  0  0  0  0  0  0  0  0  0  0
    4.2121   -0.4261   -3.3914 N   0  0  0  0  0  0  0  0  0  0  0  0
    3.3722   -1.0562   -4.3138 C   0  0  0  0  0  0  0  0  0  0  0  0
    2.7980   -2.1819   -3.7535 C   0  0  0  0  0  0  0  0  0  0  0  0
    3.2960   -2.2247   -2.4695 N   0  0  0  0  0  0  0  0  0  0  0  0
    3.1227   -3.0667   -1.3239 C   0  0  0  0  0  0  0  0  0  0  0  0
    5.0890   -3.2563    0.0844 O   0  0  0  0  0  0  0  0  0  0  0  0
    4.7199   -4.2977    0.9063 C   0  0  0  0  0  0  0  0  0  0  0  0
    5.3856   -5.5383    0.8328 C   0  0  0  0  0  0  0  0  0  0  0  0
    4.9644   -6.5850    1.6708 C   0  0  0  0  0  0  0  0  0  0  0  0
    3.8996   -6.3426    2.5569 C   0  0  0  0  0  0  0  0  0  0  0  0
    3.2582   -5.1589    2.6377 N   0  0  0  0  0  0  0  0  0  0  0  0
    3.6549   -4.1452    1.8280 C   0  0  0  0  0  0  0  0  0  0  0  0
    3.0118   -1.0041    0.9561 H   0  0  0  0  0  0  0  0  0  0  0  0
    4.4047   -0.2167   -0.4574 H   0  0  0  0  0  0  0  0  0  0  0  0
    5.7584   -1.2345   -1.0069 H   0  0  0  0  0  0  0  0  0  0  0  0
    3.2328   -0.6457   -5.3013 H   0  0  0  0  0  0  0  0  0  0  0  0
    2.0896   -2.9029   -4.1340 H   0  0  0  0  0  0  0  0  0  0  0  0
    3.4609   -4.0774   -1.5488 H   0  0  0  0  0  0  0  0  0  0  0  0
    2.0770   -3.0667   -1.0145 H   0  0  0  0  0  0  0  0  0  0  0  0
    6.1891   -5.6913    0.1279 H   0  0  0  0  0  0  0  0  0  0  0  0
    5.4344   -7.5578    1.6291 H   0  0  0  0  0  0  0  0  0  0  0  0
    3.5562   -7.1213    3.2232 H   0  0  0  0  0  0  0  0  0  0  0  0
  1  2  2  0
  2 18  1  0
  2  3  1  0
  3  4  1  0
  3 19  1  0
  4 11  1  0
  4  5  1  0
  4 12  1  1
  5  6  1  0
  5 20  1  0
  5 21  1  0
  6 10  1  0
  6  7  2  0
  7  8  1  0
  8  9  2  0
  8 22  1  0
  9 10  1  0
  9 23  1  0
 10 11  1  0
 11 24  1  0
 11 25  1  0
 12 13  1  0
 13 18  2  0
 13 14  1  0
 14 15  2  0
 14 26  1  0
 15 16  1  0
 15 27  1  0
 16 17  2  0
 16 28  1  0
 17 18  1  0
M  END
>  <i_m_ct_stereo_status>  (246) 
1

>  <s_m_source_file>  (246) 
/var/tmp/pbs.5083856.sched01/tmpajd0ugep/100oyr4iqks.sdf

>  <i_m_source_file_index>  (246) 
1

>  <i_lp_mmshare_version>  (246) 
48012

>  <i_f3d_flags>  (246) 
0

>  <s_epik_input>  (246) 
bjFbY0hdW2NIXVtjSF1jKE8yKWMxQyg9UylbTkhdW0NAQF0yM1tDSDJdYzRuKFtDSDJdMylbY0hdW2NIXW40

>  <s_epik_cmdline>  (246) 
J2VwaWtfcHl0aG9uJywgJy1waHQnLCAnMi4wJywgJy1waCcsICc3LjAnLCAnLXRuJywgJzgnLCAnLW1hJywgJzIwMCcsICctaW1hZScsICc8aW5maWxlLm1hZT4nLCAnLW9tYWUnLCAnPG91dGZpbGUubWFlPic=

>  <r_lp_tautomer_probability>  (246) 
1

>  <r_epik_Ionization_Penalty>  (246) 
0.879537

>  <r_epik_Ionization_Penalty_Charging>  (246) 
0.842202

>  <r_epik_Ionization_Penalty_Neutral>  (246) 
0.0373348

>  <r_epik_State_Penalty>  (246) 
0.875182

>  <r_epik_Charging_Adjusted_Penalty>  (246) 
1.71738

>  <i_epik_Tot_Q>  (246) 
0

>  <i_epik_Tot_abs_Q>  (246) 
0

>  <s_lp_Force_Field>  (246) 
OPLS3e

>  <r_lp_Energy>  (246) 
34.6679

>  <b_lp_Chiralities_Consistent>  (246) 
1

>  <s_lp_Variant>  (246) 
72:0-2

>  <s_i_glide_gridfile>  (246) 
pfpi4k_grid

>  <i_i_glide_lignum>  (246) 
1

>  <i_i_glide_rotatable_bonds>  (246) 
0

>  <r_i_docking_score>  (246) 
-3.75332

>  <r_i_glide_ligand_efficiency>  (246) 
-0.208518

>  <r_i_glide_ligand_efficiency_sa>  (246) 
-0.546471

>  <r_i_glide_ligand_efficiency_ln>  (246) 
-0.964771

>  <r_i_glide_gscore>  (246) 
-3.75332

>  <r_i_glide_lipo>  (246) 
-0.449346

>  <r_i_glide_hbond>  (246) 
0

>  <r_i_glide_metal>  (246) 
-0

>  <r_i_glide_rewards>  (246) 
-1.64795

>  <r_i_glide_evdw>  (246) 
-24.9667

>  <r_i_glide_ecoul>  (246) 
-1.83771

>  <r_i_glide_erotb>  (246) 
0

>  <r_i_glide_esite>  (246) 
-0.132026

>  <r_i_glide_emodel>  (246) 
-33.4761

>  <r_i_glide_energy>  (246) 
-26.8044

>  <r_i_glide_einternal>  (246) 
0

>  <r_i_glide_intrahb_reward>  (246) 
-0

>  <i_i_glide_confnum>  (246) 
1

>  <i_i_glide_posenum>  (246) 
28

>  <r_i_glide_eff_state_penalty>  (246) 
0

>  <ligand_id>  (246) 
72

>  <original_smiles>  (246) 
S=C1NC2(Cc3nccn3C2)Oc2cccnc21

>  <smiles>  (246) 
[H]c1nc2c(c([H])c1[H])OC1(N([H])C2=S)C([H])([H])c2nc([H])c([H])n2C1([H])[H]

$$$$
72:1:2
     RDKit          3D

 28 31  0  0  1  0  0  0  0  0999 V2000
    5.2815   -1.0562    0.7502 S   0  0  0  0  0  0  0  0  0  0  0  0
    4.8633   -0.4209    2.2361 C   0  0  0  0  0  0  0  0  0  0  0  0
    5.7751   -0.3060    3.2336 N   0  0  0  0  0  0  0  0  0  0  0  0
    5.4209    0.0966    4.5825 C   0  0  2  0  0  0  0  0  0  0  0  0
    6.6815    0.6174    5.3319 C   0  0  0  0  0  0  0  0  0  0  0  0
    6.7701   -0.2781    6.5047 C   0  0  0  0  0  0  0  0  0  0  0  0
    7.6253   -0.3871    7.5128 N   0  0  0  0  0  0  0  0  0  0  0  0
    7.1136   -1.4801    8.2258 C   0  0  0  0  0  0  0  0  0  0  0  0
    5.9829   -1.9773    7.6072 C   0  0  0  0  0  0  0  0  0  0  0  0
    5.8062   -1.1707    6.5017 N   0  0  0  0  0  0  0  0  0  0  0  0
    4.8775   -1.1072    5.4120 C   0  0  0  0  0  0  0  0  0  0  0  0
    4.4739    1.1270    4.5720 O   0  0  0  0  0  0  0  0  0  0  0  0
    3.3899    0.9085    3.7534 C   0  0  0  0  0  0  0  0  0  0  0  0
    2.1379    1.4664    4.0627 C   0  0  0  0  0  0  0  0  0  0  0  0
    1.0474    1.2019    3.2161 C   0  0  0  0  0  0  0  0  0  0  0  0
    1.2714    0.4163    2.0718 C   0  0  0  0  0  0  0  0  0  0  0  0
    2.4718   -0.1116    1.7617 N   0  0  0  0  0  0  0  0  0  0  0  0
    3.5199    0.1186    2.5836 C   0  0  0  0  0  0  0  0  0  0  0  0
    6.7584   -0.4226    3.0235 H   0  0  0  0  0  0  0  0  0  0  0  0
    7.5841    0.5447    4.7263 H   0  0  0  0  0  0  0  0  0  0  0  0
    6.5452    1.6485    5.6627 H   0  0  0  0  0  0  0  0  0  0  0  0
    7.5998   -1.8254    9.1238 H   0  0  0  0  0  0  0  0  0  0  0  0
    5.3274   -2.8012    7.8423 H   0  0  0  0  0  0  0  0  0  0  0  0
    3.8756   -0.9078    5.7922 H   0  0  0  0  0  0  0  0  0  0  0  0
    4.8957   -2.0380    4.8454 H   0  0  0  0  0  0  0  0  0  0  0  0
    2.0017    2.0594    4.9567 H   0  0  0  0  0  0  0  0  0  0  0  0
    0.0575    1.5814    3.4320 H   0  0  0  0  0  0  0  0  0  0  0  0
    0.4622    0.1975    1.3900 H   0  0  0  0  0  0  0  0  0  0  0  0
  1  2  2  0
  2 18  1  0
  2  3  1  0
  3  4  1  0
  3 19  1  0
  4 11  1  0
  4  5  1  0
  4 12  1  6
  5  6  1  0
  5 20  1  0
  5 21  1  0
  6 10  1  0
  6  7  2  0
  7  8  1  0
  8  9  2  0
  8 22  1  0
  9 10  1  0
  9 23  1  0
 10 11  1  0
 11 24  1  0
 11 25  1  0
 12 13  1  0
 13 18  2  0
 13 14  1  0
 14 15  2  0
 14 26  1  0
 15 16  1  0
 15 27  1  0
 16 17  2  0
 16 28  1  0
 17 18  1  0
M  END
>  <i_m_ct_stereo_status>  (247) 
1

>  <s_m_source_file>  (247) 
/var/tmp/pbs.5083856.sched01/tmpajd0ugep/100oyr4iqks.sdf

>  <i_m_source_file_index>  (247) 
1

>  <i_lp_mmshare_version>  (247) 
48012

>  <i_f3d_flags>  (247) 
0

>  <s_epik_input>  (247) 
bjFbY0hdW2NIXVtjSF1jKE8yKWMxQyg9UylbTkhdW0NAQF0yM1tDSDJdYzRuKFtDSDJdMylbY0hdW2NIXW40

>  <s_epik_cmdline>  (247) 
J2VwaWtfcHl0aG9uJywgJy1waHQnLCAnMi4wJywgJy1waCcsICc3LjAnLCAnLXRuJywgJzgnLCAnLW1hJywgJzIwMCcsICctaW1hZScsICc8aW5maWxlLm1hZT4nLCAnLW9tYWUnLCAnPG91dGZpbGUubWFlPic=

>  <r_lp_tautomer_probability>  (247) 
1

>  <r_epik_Ionization_Penalty>  (247) 
0.879537

>  <r_epik_Ionization_Penalty_Charging>  (247) 
0.842202

>  <r_epik_Ionization_Penalty_Neutral>  (247) 
0.0373348

>  <r_epik_State_Penalty>  (247) 
0.875182

>  <r_epik_Charging_Adjusted_Penalty>  (247) 
1.71738

>  <i_epik_Tot_Q>  (247) 
0

>  <i_epik_Tot_abs_Q>  (247) 
0

>  <s_lp_Force_Field>  (247) 
OPLS3e

>  <r_lp_Energy>  (247) 
34.6679

>  <b_lp_Chiralities_Consistent>  (247) 
1

>  <s_lp_Variant>  (247) 
72:0-2

>  <s_i_glide_gridfile>  (247) 
pfpi4k_grid

>  <i_i_glide_lignum>  (247) 
1

>  <i_i_glide_rotatable_bonds>  (247) 
0

>  <r_i_docking_score>  (247) 
-3.48637

>  <r_i_glide_ligand_efficiency>  (247) 
-0.193687

>  <r_i_glide_ligand_efficiency_sa>  (247) 
-0.507604

>  <r_i_glide_ligand_efficiency_ln>  (247) 
-0.896153

>  <r_i_glide_gscore>  (247) 
-3.48637

>  <r_i_glide_lipo>  (247) 
-0.293221

>  <r_i_glide_hbond>  (247) 
-0.00557705

>  <r_i_glide_metal>  (247) 
-0

>  <r_i_glide_rewards>  (247) 
-2.25718

>  <r_i_glide_evdw>  (247) 
-19.6098

>  <r_i_glide_ecoul>  (247) 
0.334007

>  <r_i_glide_erotb>  (247) 
0

>  <r_i_glide_esite>  (247) 
0

>  <r_i_glide_emodel>  (247) 
-25.4853

>  <r_i_glide_energy>  (247) 
-19.2758

>  <r_i_glide_einternal>  (247) 
0

>  <r_i_glide_intrahb_reward>  (247) 
-0

>  <i_i_glide_confnum>  (247) 
2

>  <i_i_glide_posenum>  (247) 
7

>  <r_i_glide_eff_state_penalty>  (247) 
0

>  <ligand_id>  (247) 
72

>  <original_smiles>  (247) 
S=C1NC2(Cc3nccn3C2)Oc2cccnc21

>  <smiles>  (247) 
[H]c1nc2c(c([H])c1[H])OC1(N([H])C2=S)C([H])([H])c2nc([H])c([H])n2C1([H])[H]

$$$$
72:2:0
     RDKit          3D

 30 33  0  0  1  0  0  0  0  0999 V2000
    2.6950   -4.5892    2.5804 S   0  0  0  0  0  0  0  0  0  0  0  0
    3.8331   -4.0121    1.5098 C   0  0  0  0  0  0  0  0  0  0  0  0
    3.6020   -2.9438    0.7076 N   0  0  0  0  0  0  0  0  0  0  0  0
    4.5039   -2.5503   -0.3608 C   0  0  2  0  0  0  0  0  0  0  0  0
    4.2596   -1.0583   -0.7279 C   0  0  0  0  0  0  0  0  0  0  0  0
    3.9108   -1.1512   -2.1575 C   0  0  0  0  0  0  0  0  0  0  0  0
    3.5700   -0.3123   -3.1387 N   0  0  0  0  0  0  0  0  0  0  0  0
    3.3284   -1.0466   -4.2721 C   0  0  0  0  0  0  0  0  0  0  0  0
    3.5153   -2.3737   -3.9469 C   0  0  0  0  0  0  0  0  0  0  0  0
    3.8877   -2.3741   -2.6404 N   0  0  0  0  0  0  0  0  0  0  0  0
    4.2364   -3.3785   -1.6552 C   0  0  0  0  0  0  0  0  0  0  0  0
    5.8486   -2.6827    0.0160 O   0  0  0  0  0  0  0  0  0  0  0  0
    6.1750   -3.8738    0.6200 C   0  0  0  0  0  0  0  0  0  0  0  0
    7.4811   -4.3928    0.5035 C   0  0  0  0  0  0  0  0  0  0  0  0
    7.7907   -5.6218    1.1211 C   0  0  0  0  0  0  0  0  0  0  0  0
    6.7919   -6.2843    1.8646 C   0  0  0  0  0  0  0  0  0  0  0  0
    5.5546   -5.7444    1.9627 N   0  0  0  0  0  0  0  0  0  0  0  0
    5.1998   -4.5804    1.3650 C   0  0  0  0  0  0  0  0  0  0  0  0
    2.7787   -2.3702    0.8497 H   0  0  0  0  0  0  0  0  0  0  0  0
    3.4257   -0.6235   -0.1792 H   0  0  0  0  0  0  0  0  0  0  0  0
    5.1636   -0.4598   -0.6327 H   0  0  0  0  0  0  0  0  0  0  0  0
    3.0180   -0.5653   -5.1861 H   0  0  0  0  0  0  0  0  0  0  0  0
    3.4041   -3.2893   -4.5132 H   0  0  0  0  0  0  0  0  0  0  0  0
    5.1317   -3.9065   -1.9930 H   0  0  0  0  0  0  0  0  0  0  0  0
    3.4010   -4.0699   -1.5305 H   0  0  0  0  0  0  0  0  0  0  0  0
    8.2234   -3.8674   -0.0819 H   0  0  0  0  0  0  0  0  0  0  0  0
    8.7733   -6.0600    1.0281 H   0  0  0  0  0  0  0  0  0  0  0  0
    6.9544   -7.2214    2.3813 H   0  0  0  0  0  0  0  0  0  0  0  0
    3.4337    0.6902   -3.0414 H   0  0  0  0  0  0  0  0  0  0  0  0
    4.8476   -6.2326    2.5173 H   0  0  0  0  0  0  0  0  0  0  0  0
  1  2  2  0
  2 18  1  0
  2  3  1  0
  3  4  1  0
  3 19  1  0
  4 11  1  0
  4  5  1  0
  4 12  1  1
  5  6  1  0
  5 20  1  0
  5 21  1  0
  6 10  1  0
  6  7  2  0
  7  8  1  0
  7 29  1  0
  8  9  2  0
  8 22  1  0
  9 10  1  0
  9 23  1  0
 10 11  1  0
 11 24  1  0
 11 25  1  0
 12 13  1  0
 13 18  2  0
 13 14  1  0
 14 15  2  0
 14 26  1  0
 15 16  1  0
 15 27  1  0
 16 17  2  0
 16 28  1  0
 17 18  1  0
 17 30  1  0
M  CHG  2   7   1  17   1
M  END
>  <i_m_ct_stereo_status>  (248) 
1

>  <s_m_source_file>  (248) 
/var/tmp/pbs.5083856.sched01/tmpajd0ugep/100oyr4iqks.sdf

>  <i_m_source_file_index>  (248) 
2

>  <i_lp_mmshare_version>  (248) 
48012

>  <i_f3d_flags>  (248) 
0

>  <s_epik_input>  (248) 
bjFbY0hdW2NIXVtjSF1jKE8yKWMxQyg9UylbTkhdW0NAQF0yM1tDSDJdYzRuKFtDSDJdMylbY0hdW2NIXW40

>  <s_epik_cmdline>  (248) 
J2VwaWtfcHl0aG9uJywgJy1waHQnLCAnMi4wJywgJy1waCcsICc3LjAnLCAnLXRuJywgJzgnLCAnLW1hJywgJzIwMCcsICctaW1hZScsICc8aW5maWxlLm1hZT4nLCAnLW9tYWUnLCAnPG91dGZpbGUubWFlPic=

>  <r_lp_tautomer_probability>  (248) 
1

>  <r_epik_Ionization_Penalty>  (248) 
2.19449

>  <r_epik_Ionization_Penalty_Charging>  (248) 
1.91184

>  <r_epik_Ionization_Penalty_Neutral>  (248) 
0.282652

>  <r_epik_State_Penalty>  (248) 
2.22756

>  <r_epik_Charging_Adjusted_Penalty>  (248) 
4.1394

>  <i_epik_Tot_Q>  (248) 
2

>  <i_epik_Tot_abs_Q>  (248) 
2

>  <s_lp_Force_Field>  (248) 
OPLS3e

>  <r_lp_Energy>  (248) 
43.4569

>  <b_lp_Chiralities_Consistent>  (248) 
1

>  <s_lp_Variant>  (248) 
72:0-3

>  <s_i_glide_gridfile>  (248) 
pfpi4k_grid

>  <i_i_glide_lignum>  (248) 
2

>  <i_i_glide_rotatable_bonds>  (248) 
0

>  <r_i_docking_score>  (248) 
-4.42798

>  <r_i_glide_ligand_efficiency>  (248) 
-0.245999

>  <r_i_glide_ligand_efficiency_sa>  (248) 
-0.6447

>  <r_i_glide_ligand_efficiency_ln>  (248) 
-1.13819

>  <r_i_glide_gscore>  (248) 
-4.42798

>  <r_i_glide_lipo>  (248) 
-0.536816

>  <r_i_glide_hbond>  (248) 
0

>  <r_i_glide_metal>  (248) 
-0

>  <r_i_glide_rewards>  (248) 
-1.72743

>  <r_i_glide_evdw>  (248) 
-24.554

>  <r_i_glide_ecoul>  (248) 
-5.8077

>  <r_i_glide_erotb>  (248) 
0

>  <r_i_glide_esite>  (248) 
-0.0648803

>  <r_i_glide_emodel>  (248) 
-40.4644

>  <r_i_glide_energy>  (248) 
-30.3617

>  <r_i_glide_einternal>  (248) 
0

>  <r_i_glide_intrahb_reward>  (248) 
-0

>  <i_i_glide_confnum>  (248) 
1

>  <i_i_glide_posenum>  (248) 
27

>  <r_i_glide_eff_state_penalty>  (248) 
0

>  <ligand_id>  (248) 
72

>  <original_smiles>  (248) 
S=C1NC2(Cc3nccn3C2)Oc2cccnc21

>  <smiles>  (248) 
[H]c1c([H])c([H])[n+]([H])c2c1OC1(N([H])C2=S)C([H])([H])c2n(c([H])c([H])[n+]2[H])C1([H])[H]

$$$$
72:2:1
     RDKit          3D

 30 33  0  0  1  0  0  0  0  0999 V2000
    2.1169   -3.0327    3.3471 S   0  0  0  0  0  0  0  0  0  0  0  0
    3.1839   -3.1842    2.0787 C   0  0  0  0  0  0  0  0  0  0  0  0
    3.3060   -2.2418    1.1130 N   0  0  0  0  0  0  0  0  0  0  0  0
    4.0965   -2.4390   -0.0902 C   0  0  2  0  0  0  0  0  0  0  0  0
    4.4745   -1.0643   -0.7052 C   0  0  0  0  0  0  0  0  0  0  0  0
    3.8854   -1.1645   -2.0533 C   0  0  0  0  0  0  0  0  0  0  0  0
    3.7834   -0.3880   -3.1321 N   0  0  0  0  0  0  0  0  0  0  0  0
    3.0538   -1.0545   -4.0846 C   0  0  0  0  0  0  0  0  0  0  0  0
    2.7120   -2.2821   -3.5541 C   0  0  0  0  0  0  0  0  0  0  0  0
    3.2520   -2.2900   -2.3046 N   0  0  0  0  0  0  0  0  0  0  0  0
    3.2838   -3.2071   -1.1804 C   0  0  0  0  0  0  0  0  0  0  0  0
    5.2900   -3.1251    0.1822 O   0  0  0  0  0  0  0  0  0  0  0  0
    5.1585   -4.2505    0.9632 C   0  0  0  0  0  0  0  0  0  0  0  0
    6.0663   -5.3190    0.8281 C   0  0  0  0  0  0  0  0  0  0  0  0
    5.9055   -6.4671    1.6254 C   0  0  0  0  0  0  0  0  0  0  0  0
    4.8563   -6.5035    2.5676 C   0  0  0  0  0  0  0  0  0  0  0  0
    4.0162   -5.4480    2.6807 N   0  0  0  0  0  0  0  0  0  0  0  0
    4.1128   -4.3339    1.9136 C   0  0  0  0  0  0  0  0  0  0  0  0
    2.8332   -1.3518    1.2157 H   0  0  0  0  0  0  0  0  0  0  0  0
    4.0297   -0.2258   -0.1688 H   0  0  0  0  0  0  0  0  0  0  0  0
    5.5533   -0.9399   -0.8086 H   0  0  0  0  0  0  0  0  0  0  0  0
    2.8244   -0.6003   -5.0360 H   0  0  0  0  0  0  0  0  0  0  0  0
    2.1286   -3.1059   -3.9489 H   0  0  0  0  0  0  0  0  0  0  0  0
    3.7916   -4.1240   -1.4917 H   0  0  0  0  0  0  0  0  0  0  0  0
    2.2607   -3.4185   -0.8592 H   0  0  0  0  0  0  0  0  0  0  0  0
    6.8617   -5.2660    0.0967 H   0  0  0  0  0  0  0  0  0  0  0  0
    6.5779   -7.3060    1.5185 H   0  0  0  0  0  0  0  0  0  0  0  0
    4.6782   -7.3402    3.2339 H   0  0  0  0  0  0  0  0  0  0  0  0
    4.1218    0.5645   -3.2002 H   0  0  0  0  0  0  0  0  0  0  0  0
    3.2746   -5.4852    3.3831 H   0  0  0  0  0  0  0  0  0  0  0  0
  1  2  2  0
  2 18  1  0
  2  3  1  0
  3  4  1  0
  3 19  1  0
  4 11  1  0
  4  5  1  0
  4 12  1  1
  5  6  1  0
  5 20  1  0
  5 21  1  0
  6 10  1  0
  6  7  2  0
  7  8  1  0
  7 29  1  0
  8  9  2  0
  8 22  1  0
  9 10  1  0
  9 23  1  0
 10 11  1  0
 11 24  1  0
 11 25  1  0
 12 13  1  0
 13 18  2  0
 13 14  1  0
 14 15  2  0
 14 26  1  0
 15 16  1  0
 15 27  1  0
 16 17  2  0
 16 28  1  0
 17 18  1  0
 17 30  1  0
M  CHG  2   7   1  17   1
M  END
>  <i_m_ct_stereo_status>  (249) 
1

>  <s_m_source_file>  (249) 
/var/tmp/pbs.5083856.sched01/tmpajd0ugep/100oyr4iqks.sdf

>  <i_m_source_file_index>  (249) 
2

>  <i_lp_mmshare_version>  (249) 
48012

>  <i_f3d_flags>  (249) 
0

>  <s_epik_input>  (249) 
bjFbY0hdW2NIXVtjSF1jKE8yKWMxQyg9UylbTkhdW0NAQF0yM1tDSDJdYzRuKFtDSDJdMylbY0hdW2NIXW40

>  <s_epik_cmdline>  (249) 
J2VwaWtfcHl0aG9uJywgJy1waHQnLCAnMi4wJywgJy1waCcsICc3LjAnLCAnLXRuJywgJzgnLCAnLW1hJywgJzIwMCcsICctaW1hZScsICc8aW5maWxlLm1hZT4nLCAnLW9tYWUnLCAnPG91dGZpbGUubWFlPic=

>  <r_lp_tautomer_probability>  (249) 
1

>  <r_epik_Ionization_Penalty>  (249) 
2.19449

>  <r_epik_Ionization_Penalty_Charging>  (249) 
1.91184

>  <r_epik_Ionization_Penalty_Neutral>  (249) 
0.282652

>  <r_epik_State_Penalty>  (249) 
2.22756

>  <r_epik_Charging_Adjusted_Penalty>  (249) 
4.1394

>  <i_epik_Tot_Q>  (249) 
2

>  <i_epik_Tot_abs_Q>  (249) 
2

>  <s_lp_Force_Field>  (249) 
OPLS3e

>  <r_lp_Energy>  (249) 
43.4569

>  <b_lp_Chiralities_Consistent>  (249) 
1

>  <s_lp_Variant>  (249) 
72:0-3

>  <s_i_glide_gridfile>  (249) 
pfpi4k_grid

>  <i_i_glide_lignum>  (249) 
2

>  <i_i_glide_rotatable_bonds>  (249) 
0

>  <r_i_docking_score>  (249) 
-4.38634

>  <r_i_glide_ligand_efficiency>  (249) 
-0.243686

>  <r_i_glide_ligand_efficiency_sa>  (249) 
-0.638637

>  <r_i_glide_ligand_efficiency_ln>  (249) 
-1.12749

>  <r_i_glide_gscore>  (249) 
-4.38634

>  <r_i_glide_lipo>  (249) 
-0.637441

>  <r_i_glide_hbond>  (249) 
0

>  <r_i_glide_metal>  (249) 
-0

>  <r_i_glide_rewards>  (249) 
-1.63695

>  <r_i_glide_evdw>  (249) 
-22.2994

>  <r_i_glide_ecoul>  (249) 
-5.79878

>  <r_i_glide_erotb>  (249) 
0

>  <r_i_glide_esite>  (249) 
-0.127163

>  <r_i_glide_emodel>  (249) 
-38.1115

>  <r_i_glide_energy>  (249) 
-28.0982

>  <r_i_glide_einternal>  (249) 
0

>  <r_i_glide_intrahb_reward>  (249) 
-0

>  <i_i_glide_confnum>  (249) 
1

>  <i_i_glide_posenum>  (249) 
38

>  <r_i_glide_eff_state_penalty>  (249) 
0

>  <ligand_id>  (249) 
72

>  <original_smiles>  (249) 
S=C1NC2(Cc3nccn3C2)Oc2cccnc21

>  <smiles>  (249) 
[H]c1c([H])c([H])[n+]([H])c2c1OC1(N([H])C2=S)C([H])([H])c2n(c([H])c([H])[n+]2[H])C1([H])[H]

$$$$
72:2:2
     RDKit          3D

 30 33  0  0  1  0  0  0  0  0999 V2000
    5.7885   -9.1624    1.6990 S   0  0  0  0  0  0  0  0  0  0  0  0
    4.3009   -8.4139    1.7123 C   0  0  0  0  0  0  0  0  0  0  0  0
    4.1112   -7.1682    1.2124 N   0  0  0  0  0  0  0  0  0  0  0  0
    2.8885   -6.4081    1.4115 C   0  0  2  0  0  0  0  0  0  0  0  0
    2.7798   -5.2908    0.3315 C   0  0  0  0  0  0  0  0  0  0  0  0
    2.7184   -4.0691    1.1530 C   0  0  0  0  0  0  0  0  0  0  0  0
    2.6160   -2.7510    0.9439 N   0  0  0  0  0  0  0  0  0  0  0  0
    2.6221   -2.1128    2.1629 C   0  0  0  0  0  0  0  0  0  0  0  0
    2.7222   -3.0867    3.1324 C   0  0  0  0  0  0  0  0  0  0  0  0
    2.7757   -4.2689    2.4513 N   0  0  0  0  0  0  0  0  0  0  0  0
    2.8890   -5.6768    2.7957 C   0  0  0  0  0  0  0  0  0  0  0  0
    1.7511   -7.2192    1.3110 O   0  0  0  0  0  0  0  0  0  0  0  0
    1.8101   -8.4053    2.0102 C   0  0  0  0  0  0  0  0  0  0  0  0
    0.6294   -9.0034    2.4946 C   0  0  0  0  0  0  0  0  0  0  0  0
    0.7144  -10.2022    3.2278 C   0  0  0  0  0  0  0  0  0  0  0  0
    1.9758  -10.8017    3.4238 C   0  0  0  0  0  0  0  0  0  0  0  0
    3.0847  -10.2078    2.9248 N   0  0  0  0  0  0  0  0  0  0  0  0
    3.0595   -9.0350    2.2434 C   0  0  0  0  0  0  0  0  0  0  0  0
    4.8456   -6.7373    0.6644 H   0  0  0  0  0  0  0  0  0  0  0  0
    3.6527   -5.2456   -0.3192 H   0  0  0  0  0  0  0  0  0  0  0  0
    1.8581   -5.3769   -0.2485 H   0  0  0  0  0  0  0  0  0  0  0  0
    2.5550   -1.0374    2.2339 H   0  0  0  0  0  0  0  0  0  0  0  0
    2.7629   -3.0255    4.2125 H   0  0  0  0  0  0  0  0  0  0  0  0
    2.0260   -5.9674    3.3994 H   0  0  0  0  0  0  0  0  0  0  0  0
    3.8164   -5.8411    3.3455 H   0  0  0  0  0  0  0  0  0  0  0  0
   -0.3301   -8.5341    2.3280 H   0  0  0  0  0  0  0  0  0  0  0  0
   -0.1795  -10.6547    3.6351 H   0  0  0  0  0  0  0  0  0  0  0  0
    2.1202  -11.7334    3.9574 H   0  0  0  0  0  0  0  0  0  0  0  0
    2.5250   -2.2958    0.0408 H   0  0  0  0  0  0  0  0  0  0  0  0
    3.9904  -10.6655    3.0576 H   0  0  0  0  0  0  0  0  0  0  0  0
  1  2  2  0
  2 18  1  0
  2  3  1  0
  3  4  1  0
  3 19  1  0
  4 11  1  0
  4  5  1  0
  4 12  1  1
  5  6  1  0
  5 20  1  0
  5 21  1  0
  6 10  1  0
  6  7  2  0
  7  8  1  0
  7 29  1  0
  8  9  2  0
  8 22  1  0
  9 10  1  0
  9 23  1  0
 10 11  1  0
 11 24  1  0
 11 25  1  0
 12 13  1  0
 13 18  2  0
 13 14  1  0
 14 15  2  0
 14 26  1  0
 15 16  1  0
 15 27  1  0
 16 17  2  0
 16 28  1  0
 17 18  1  0
 17 30  1  0
M  CHG  2   7   1  17   1
M  END
>  <i_m_ct_stereo_status>  (250) 
1

>  <s_m_source_file>  (250) 
/var/tmp/pbs.5083856.sched01/tmpajd0ugep/100oyr4iqks.sdf

>  <i_m_source_file_index>  (250) 
2

>  <i_lp_mmshare_version>  (250) 
48012

>  <i_f3d_flags>  (250) 
0

>  <s_epik_input>  (250) 
bjFbY0hdW2NIXVtjSF1jKE8yKWMxQyg9UylbTkhdW0NAQF0yM1tDSDJdYzRuKFtDSDJdMylbY0hdW2NIXW40

>  <s_epik_cmdline>  (250) 
J2VwaWtfcHl0aG9uJywgJy1waHQnLCAnMi4wJywgJy1waCcsICc3LjAnLCAnLXRuJywgJzgnLCAnLW1hJywgJzIwMCcsICctaW1hZScsICc8aW5maWxlLm1hZT4nLCAnLW9tYWUnLCAnPG91dGZpbGUubWFlPic=

>  <r_lp_tautomer_probability>  (250) 
1

>  <r_epik_Ionization_Penalty>  (250) 
2.19449

>  <r_epik_Ionization_Penalty_Charging>  (250) 
1.91184

>  <r_epik_Ionization_Penalty_Neutral>  (250) 
0.282652

>  <r_epik_State_Penalty>  (250) 
2.22756

>  <r_epik_Charging_Adjusted_Penalty>  (250) 
4.1394

>  <i_epik_Tot_Q>  (250) 
2

>  <i_epik_Tot_abs_Q>  (250) 
2

>  <s_lp_Force_Field>  (250) 
OPLS3e

>  <r_lp_Energy>  (250) 
43.4569

>  <b_lp_Chiralities_Consistent>  (250) 
1

>  <s_lp_Variant>  (250) 
72:0-3

>  <s_i_glide_gridfile>  (250) 
pfpi4k_grid

>  <i_i_glide_lignum>  (250) 
2

>  <i_i_glide_rotatable_bonds>  (250) 
0

>  <r_i_docking_score>  (250) 
-3.97516

>  <r_i_glide_ligand_efficiency>  (250) 
-0.220842

>  <r_i_glide_ligand_efficiency_sa>  (250) 
-0.578771

>  <r_i_glide_ligand_efficiency_ln>  (250) 
-1.0218

>  <r_i_glide_gscore>  (250) 
-3.97516

>  <r_i_glide_lipo>  (250) 
-0.131084

>  <r_i_glide_hbond>  (250) 
-0.0171766

>  <r_i_glide_metal>  (250) 
-0

>  <r_i_glide_rewards>  (250) 
-1.68486

>  <r_i_glide_evdw>  (250) 
-21.6094

>  <r_i_glide_ecoul>  (250) 
-6.38046

>  <r_i_glide_erotb>  (250) 
0

>  <r_i_glide_esite>  (250) 
-0.104502

>  <r_i_glide_emodel>  (250) 
-37.0596

>  <r_i_glide_energy>  (250) 
-27.9899

>  <r_i_glide_einternal>  (250) 
0

>  <r_i_glide_intrahb_reward>  (250) 
-0

>  <i_i_glide_confnum>  (250) 
2

>  <i_i_glide_posenum>  (250) 
17

>  <r_i_glide_eff_state_penalty>  (250) 
0

>  <ligand_id>  (250) 
72

>  <original_smiles>  (250) 
S=C1NC2(Cc3nccn3C2)Oc2cccnc21

>  <smiles>  (250) 
[H]c1c([H])c([H])[n+]([H])c2c1OC1(N([H])C2=S)C([H])([H])c2n(c([H])c([H])[n+]2[H])C1([H])[H]

$$$$
72:3:0
     RDKit          3D

 29 32  0  0  1  0  0  0  0  0999 V2000
    5.4028   -0.7156    1.0763 S   0  0  0  0  0  0  0  0  0  0  0  0
    4.8521   -1.9900    0.1741 C   0  0  0  0  0  0  0  0  0  0  0  0
    4.7848   -3.2531    0.6666 N   0  0  0  0  0  0  0  0  0  0  0  0
    4.1582   -4.3379   -0.0605 C   0  0  2  0  0  0  0  0  0  0  0  0
    2.6137   -4.3348    0.1673 C   0  0  0  0  0  0  0  0  0  0  0  0
    2.3491   -5.6567    0.7805 C   0  0  0  0  0  0  0  0  0  0  0  0
    1.2510   -6.2572    1.2204 N   0  0  0  0  0  0  0  0  0  0  0  0
    1.7511   -7.4792    1.7024 C   0  0  0  0  0  0  0  0  0  0  0  0
    3.1204   -7.5511    1.5205 C   0  0  0  0  0  0  0  0  0  0  0  0
    3.4588   -6.3486    0.9256 N   0  0  0  0  0  0  0  0  0  0  0  0
    4.6630   -5.7180    0.4592 C   0  0  0  0  0  0  0  0  0  0  0  0
    4.4562   -4.2601   -1.4321 O   0  0  0  0  0  0  0  0  0  0  0  0
    4.2355   -3.0326   -2.0126 C   0  0  0  0  0  0  0  0  0  0  0  0
    3.8361   -2.9375   -3.3613 C   0  0  0  0  0  0  0  0  0  0  0  0
    3.6339   -1.6588   -3.9211 C   0  0  0  0  0  0  0  0  0  0  0  0
    3.8594   -0.5193   -3.1278 C   0  0  0  0  0  0  0  0  0  0  0  0
    4.2572   -0.6630   -1.8397 N   0  0  0  0  0  0  0  0  0  0  0  0
    4.4232   -1.8677   -1.2427 C   0  0  0  0  0  0  0  0  0  0  0  0
    5.2378   -3.4897    1.5357 H   0  0  0  0  0  0  0  0  0  0  0  0
    2.3116   -3.5398    0.8490 H   0  0  0  0  0  0  0  0  0  0  0  0
    2.0706   -4.2475   -0.7740 H   0  0  0  0  0  0  0  0  0  0  0  0
    1.0943   -8.2140    2.1383 H   0  0  0  0  0  0  0  0  0  0  0  0
    3.8414   -8.3230    1.7463 H   0  0  0  0  0  0  0  0  0  0  0  0
    5.0886   -6.3091   -0.3528 H   0  0  0  0  0  0  0  0  0  0  0  0
    5.3792   -5.6210    1.2735 H   0  0  0  0  0  0  0  0  0  0  0  0
    3.6564   -3.8331   -3.9400 H   0  0  0  0  0  0  0  0  0  0  0  0
    3.2875   -1.5360   -4.9343 H   0  0  0  0  0  0  0  0  0  0  0  0
    3.7285    0.4986   -3.4743 H   0  0  0  0  0  0  0  0  0  0  0  0
    4.4239    0.1773   -1.2774 H   0  0  0  0  0  0  0  0  0  0  0  0
  1  2  2  0
  2 18  1  0
  2  3  1  0
  3  4  1  0
  3 19  1  0
  4 11  1  0
  4  5  1  0
  4 12  1  6
  5  6  1  0
  5 20  1  0
  5 21  1  0
  6 10  1  0
  6  7  2  0
  7  8  1  0
  8  9  2  0
  8 22  1  0
  9 10  1  0
  9 23  1  0
 10 11  1  0
 11 24  1  0
 11 25  1  0
 12 13  1  0
 13 18  2  0
 13 14  1  0
 14 15  2  0
 14 26  1  0
 15 16  1  0
 15 27  1  0
 16 17  2  0
 16 28  1  0
 17 18  1  0
 17 29  1  0
M  CHG  1  17   1
M  END
>  <i_m_ct_stereo_status>  (251) 
1

>  <s_m_source_file>  (251) 
/var/tmp/pbs.5083856.sched01/tmpajd0ugep/100oyr4iqks.sdf

>  <i_m_source_file_index>  (251) 
3

>  <i_lp_mmshare_version>  (251) 
48012

>  <i_f3d_flags>  (251) 
0

>  <s_epik_input>  (251) 
bjFbY0hdW2NIXVtjSF1jKE8yKWMxQyg9UylbTkhdW0NAQF0yM1tDSDJdYzRuKFtDSDJdMylbY0hdW2NIXW40

>  <s_epik_cmdline>  (251) 
J2VwaWtfcHl0aG9uJywgJy1waHQnLCAnMi4wJywgJy1waCcsICc3LjAnLCAnLXRuJywgJzgnLCAnLW1hJywgJzIwMCcsICctaW1hZScsICc8aW5maWxlLm1hZT4nLCAnLW9tYWUnLCAnPG91dGZpbGUubWFlPic=

>  <r_epik_Ionization_Penalty>  (251) 
2.23252

>  <r_epik_Ionization_Penalty_Charging>  (251) 
2.23206

>  <r_epik_Ionization_Penalty_Neutral>  (251) 
0.000461867

>  <r_epik_State_Penalty>  (251) 
2.57198

>  <r_epik_Charging_Adjusted_Penalty>  (251) 
4.80404

>  <i_epik_Tot_Q>  (251) 
1

>  <i_epik_Tot_abs_Q>  (251) 
1

>  <s_lp_Force_Field>  (251) 
OPLS3e

>  <r_lp_Energy>  (251) 
34.7782

>  <b_lp_Chiralities_Consistent>  (251) 
1

>  <s_lp_Variant>  (251) 
72:0-4

>  <s_i_glide_gridfile>  (251) 
pfpi4k_grid

>  <i_i_glide_lignum>  (251) 
3

>  <i_i_glide_rotatable_bonds>  (251) 
0

>  <r_i_docking_score>  (251) 
-4.68765

>  <r_i_glide_ligand_efficiency>  (251) 
-0.260425

>  <r_i_glide_ligand_efficiency_sa>  (251) 
-0.682507

>  <r_i_glide_ligand_efficiency_ln>  (251) 
-1.20494

>  <r_i_glide_gscore>  (251) 
-4.68765

>  <r_i_glide_lipo>  (251) 
-0.54348

>  <r_i_glide_hbond>  (251) 
-0.116013

>  <r_i_glide_metal>  (251) 
-0

>  <r_i_glide_rewards>  (251) 
-1.86705

>  <r_i_glide_evdw>  (251) 
-26.4654

>  <r_i_glide_ecoul>  (251) 
-5.09682

>  <r_i_glide_erotb>  (251) 
0

>  <r_i_glide_esite>  (251) 
-0.0733154

>  <r_i_glide_emodel>  (251) 
-41.7083

>  <r_i_glide_energy>  (251) 
-31.5622

>  <r_i_glide_einternal>  (251) 
0

>  <r_i_glide_intrahb_reward>  (251) 
-0

>  <i_i_glide_confnum>  (251) 
1

>  <i_i_glide_posenum>  (251) 
22

>  <r_i_glide_eff_state_penalty>  (251) 
0

>  <ligand_id>  (251) 
72

>  <original_smiles>  (251) 
S=C1NC2(Cc3nccn3C2)Oc2cccnc21

>  <smiles>  (251) 
[H]c1nc2n(c1[H])C([H])([H])C1(Oc3c([H])c([H])c([H])[n+]([H])c3C(=S)N1[H])C2([H])[H]

$$$$
72:3:1
     RDKit          3D

 29 32  0  0  1  0  0  0  0  0999 V2000
    1.1618    5.4159    3.6809 S   0  0  0  0  0  0  0  0  0  0  0  0
    0.6834    4.0447    4.4861 C   0  0  0  0  0  0  0  0  0  0  0  0
    0.4079    4.0414    5.8125 N   0  0  0  0  0  0  0  0  0  0  0  0
   -0.1676    2.8965    6.5019 C   0  0  2  0  0  0  0  0  0  0  0  0
   -1.7153    2.8719    6.3530 C   0  0  0  0  0  0  0  0  0  0  0  0
   -2.1819    2.9275    7.7509 C   0  0  0  0  0  0  0  0  0  0  0  0
   -3.3813    2.9464    8.3029 N   0  0  0  0  0  0  0  0  0  0  0  0
   -3.0834    3.0445    9.6708 C   0  0  0  0  0  0  0  0  0  0  0  0
   -1.7169    3.0617    9.8705 C   0  0  0  0  0  0  0  0  0  0  0  0
   -1.1797    2.9927    8.6000 N   0  0  0  0  0  0  0  0  0  0  0  0
    0.1362    2.9833    8.0310 C   0  0  0  0  0  0  0  0  0  0  0  0
    0.3683    1.6842    6.0257 O   0  0  0  0  0  0  0  0  0  0  0  0
    0.4368    1.5536    4.6590 C   0  0  0  0  0  0  0  0  0  0  0  0
    0.3474    0.2762    4.0647 C   0  0  0  0  0  0  0  0  0  0  0  0
    0.3791    0.1705    2.6606 C   0  0  0  0  0  0  0  0  0  0  0  0
    0.5140    1.3412    1.8834 C   0  0  0  0  0  0  0  0  0  0  0  0
    0.5986    2.5445    2.4843 N   0  0  0  0  0  0  0  0  0  0  0  0
    0.5742    2.7075    3.8401 C   0  0  0  0  0  0  0  0  0  0  0  0
    0.6654    4.8338    6.3826 H   0  0  0  0  0  0  0  0  0  0  0  0
   -2.0748    3.7305    5.7861 H   0  0  0  0  0  0  0  0  0  0  0  0
   -2.0458    1.9445    5.8807 H   0  0  0  0  0  0  0  0  0  0  0  0
   -3.8720    3.0874   10.4062 H   0  0  0  0  0  0  0  0  0  0  0  0
   -1.1269    3.1171   10.7724 H   0  0  0  0  0  0  0  0  0  0  0  0
    0.6850    2.1034    8.3771 H   0  0  0  0  0  0  0  0  0  0  0  0
    0.6793    3.8925    8.3011 H   0  0  0  0  0  0  0  0  0  0  0  0
    0.2140   -0.6016    4.6786 H   0  0  0  0  0  0  0  0  0  0  0  0
    0.2784   -0.7849    2.1712 H   0  0  0  0  0  0  0  0  0  0  0  0
    0.5107    1.3368    0.7988 H   0  0  0  0  0  0  0  0  0  0  0  0
    0.5992    3.3842    1.8697 H   0  0  0  0  0  0  0  0  0  0  0  0
  1  2  2  0
  2 18  1  0
  2  3  1  0
  3  4  1  0
  3 19  1  0
  4 11  1  0
  4  5  1  0
  4 12  1  6
  5  6  1  0
  5 20  1  0
  5 21  1  0
  6 10  1  0
  6  7  2  0
  7  8  1  0
  8  9  2  0
  8 22  1  0
  9 10  1  0
  9 23  1  0
 10 11  1  0
 11 24  1  0
 11 25  1  0
 12 13  1  0
 13 18  2  0
 13 14  1  0
 14 15  2  0
 14 26  1  0
 15 16  1  0
 15 27  1  0
 16 17  2  0
 16 28  1  0
 17 18  1  0
 17 29  1  0
M  CHG  1  17   1
M  END
>  <i_m_ct_stereo_status>  (252) 
1

>  <s_m_source_file>  (252) 
/var/tmp/pbs.5083856.sched01/tmpajd0ugep/100oyr4iqks.sdf

>  <i_m_source_file_index>  (252) 
3

>  <i_lp_mmshare_version>  (252) 
48012

>  <i_f3d_flags>  (252) 
0

>  <s_epik_input>  (252) 
bjFbY0hdW2NIXVtjSF1jKE8yKWMxQyg9UylbTkhdW0NAQF0yM1tDSDJdYzRuKFtDSDJdMylbY0hdW2NIXW40

>  <s_epik_cmdline>  (252) 
J2VwaWtfcHl0aG9uJywgJy1waHQnLCAnMi4wJywgJy1waCcsICc3LjAnLCAnLXRuJywgJzgnLCAnLW1hJywgJzIwMCcsICctaW1hZScsICc8aW5maWxlLm1hZT4nLCAnLW9tYWUnLCAnPG91dGZpbGUubWFlPic=

>  <r_epik_Ionization_Penalty>  (252) 
2.23252

>  <r_epik_Ionization_Penalty_Charging>  (252) 
2.23206

>  <r_epik_Ionization_Penalty_Neutral>  (252) 
0.000461867

>  <r_epik_State_Penalty>  (252) 
2.57198

>  <r_epik_Charging_Adjusted_Penalty>  (252) 
4.80404

>  <i_epik_Tot_Q>  (252) 
1

>  <i_epik_Tot_abs_Q>  (252) 
1

>  <s_lp_Force_Field>  (252) 
OPLS3e

>  <r_lp_Energy>  (252) 
34.7782

>  <b_lp_Chiralities_Consistent>  (252) 
1

>  <s_lp_Variant>  (252) 
72:0-4

>  <s_i_glide_gridfile>  (252) 
pfpi4k_grid

>  <i_i_glide_lignum>  (252) 
3

>  <i_i_glide_rotatable_bonds>  (252) 
0

>  <r_i_docking_score>  (252) 
-4.34004

>  <r_i_glide_ligand_efficiency>  (252) 
-0.241113

>  <r_i_glide_ligand_efficiency_sa>  (252) 
-0.631895

>  <r_i_glide_ligand_efficiency_ln>  (252) 
-1.11558

>  <r_i_glide_gscore>  (252) 
-4.34004

>  <r_i_glide_lipo>  (252) 
-0.0578685

>  <r_i_glide_hbond>  (252) 
-0.2

>  <r_i_glide_metal>  (252) 
-0

>  <r_i_glide_rewards>  (252) 
-1.71415

>  <r_i_glide_evdw>  (252) 
-18.9273

>  <r_i_glide_ecoul>  (252) 
-8.11077

>  <r_i_glide_erotb>  (252) 
0

>  <r_i_glide_esite>  (252) 
-0.205038

>  <r_i_glide_emodel>  (252) 
-36.4779

>  <r_i_glide_energy>  (252) 
-27.0381

>  <r_i_glide_einternal>  (252) 
0

>  <r_i_glide_intrahb_reward>  (252) 
-0

>  <i_i_glide_confnum>  (252) 
1

>  <i_i_glide_posenum>  (252) 
2

>  <r_i_glide_eff_state_penalty>  (252) 
0

>  <ligand_id>  (252) 
72

>  <original_smiles>  (252) 
S=C1NC2(Cc3nccn3C2)Oc2cccnc21

>  <smiles>  (252) 
[H]c1nc2n(c1[H])C([H])([H])C1(Oc3c([H])c([H])c([H])[n+]([H])c3C(=S)N1[H])C2([H])[H]

$$$$
72:3:2
     RDKit          3D

 29 32  0  0  1  0  0  0  0  0999 V2000
    1.5070   -3.4235    3.8444 S   0  0  0  0  0  0  0  0  0  0  0  0
    2.3828   -2.2820    3.0049 C   0  0  0  0  0  0  0  0  0  0  0  0
    3.6188   -2.5256    2.5053 N   0  0  0  0  0  0  0  0  0  0  0  0
    4.3150   -1.5959    1.6304 C   0  0  2  0  0  0  0  0  0  0  0  0
    3.8612   -1.7715    0.1485 C   0  0  0  0  0  0  0  0  0  0  0  0
    5.1214   -2.1133   -0.5480 C   0  0  0  0  0  0  0  0  0  0  0  0
    5.4184   -2.3950   -1.8068 N   0  0  0  0  0  0  0  0  0  0  0  0
    6.7889   -2.6755   -1.7403 C   0  0  0  0  0  0  0  0  0  0  0  0
    7.2580   -2.5200   -0.4496 C   0  0  0  0  0  0  0  0  0  0  0  0
    6.1401   -2.1663    0.2836 N   0  0  0  0  0  0  0  0  0  0  0  0
    5.8492   -1.8764    1.6593 C   0  0  0  0  0  0  0  0  0  0  0  0
    4.1173   -0.2675    2.0351 O   0  0  0  0  0  0  0  0  0  0  0  0
    2.8109    0.0759    2.2971 C   0  0  0  0  0  0  0  0  0  0  0  0
    2.3663    1.3955    2.1082 C   0  0  0  0  0  0  0  0  0  0  0  0
    1.0253    1.7263    2.3594 C   0  0  0  0  0  0  0  0  0  0  0  0
    0.1586    0.7252    2.8336 C   0  0  0  0  0  0  0  0  0  0  0  0
    0.6279   -0.5283    3.0270 N   0  0  0  0  0  0  0  0  0  0  0  0
    1.9046   -0.8992    2.7642 C   0  0  0  0  0  0  0  0  0  0  0  0
    4.1190   -3.3641    2.7797 H   0  0  0  0  0  0  0  0  0  0  0  0
    3.1302   -2.5746    0.0438 H   0  0  0  0  0  0  0  0  0  0  0  0
    3.4502   -0.8444   -0.2515 H   0  0  0  0  0  0  0  0  0  0  0  0
    7.3267   -2.9608   -2.6276 H   0  0  0  0  0  0  0  0  0  0  0  0
    8.2421   -2.6386   -0.0176 H   0  0  0  0  0  0  0  0  0  0  0  0
    6.4123   -0.9970    1.9766 H   0  0  0  0  0  0  0  0  0  0  0  0
    6.1072   -2.7314    2.2864 H   0  0  0  0  0  0  0  0  0  0  0  0
    3.0450    2.1421    1.7461 H   0  0  0  0  0  0  0  0  0  0  0  0
    0.6660    2.7277    2.1697 H   0  0  0  0  0  0  0  0  0  0  0  0
   -0.8883    0.8985    3.0548 H   0  0  0  0  0  0  0  0  0  0  0  0
   -0.0062   -1.2464    3.3768 H   0  0  0  0  0  0  0  0  0  0  0  0
  1  2  2  0
  2 18  1  0
  2  3  1  0
  3  4  1  0
  3 19  1  0
  4 11  1  0
  4  5  1  0
  4 12  1  1
  5  6  1  0
  5 20  1  0
  5 21  1  0
  6 10  1  0
  6  7  2  0
  7  8  1  0
  8  9  2  0
  8 22  1  0
  9 10  1  0
  9 23  1  0
 10 11  1  0
 11 24  1  0
 11 25  1  0
 12 13  1  0
 13 18  2  0
 13 14  1  0
 14 15  2  0
 14 26  1  0
 15 16  1  0
 15 27  1  0
 16 17  2  0
 16 28  1  0
 17 18  1  0
 17 29  1  0
M  CHG  1  17   1
M  END
>  <i_m_ct_stereo_status>  (253) 
1

>  <s_m_source_file>  (253) 
/var/tmp/pbs.5083856.sched01/tmpajd0ugep/100oyr4iqks.sdf

>  <i_m_source_file_index>  (253) 
3

>  <i_lp_mmshare_version>  (253) 
48012

>  <i_f3d_flags>  (253) 
0

>  <s_epik_input>  (253) 
bjFbY0hdW2NIXVtjSF1jKE8yKWMxQyg9UylbTkhdW0NAQF0yM1tDSDJdYzRuKFtDSDJdMylbY0hdW2NIXW40

>  <s_epik_cmdline>  (253) 
J2VwaWtfcHl0aG9uJywgJy1waHQnLCAnMi4wJywgJy1waCcsICc3LjAnLCAnLXRuJywgJzgnLCAnLW1hJywgJzIwMCcsICctaW1hZScsICc8aW5maWxlLm1hZT4nLCAnLW9tYWUnLCAnPG91dGZpbGUubWFlPic=

>  <r_epik_Ionization_Penalty>  (253) 
2.23252

>  <r_epik_Ionization_Penalty_Charging>  (253) 
2.23206

>  <r_epik_Ionization_Penalty_Neutral>  (253) 
0.000461867

>  <r_epik_State_Penalty>  (253) 
2.57198

>  <r_epik_Charging_Adjusted_Penalty>  (253) 
4.80404

>  <i_epik_Tot_Q>  (253) 
1

>  <i_epik_Tot_abs_Q>  (253) 
1

>  <s_lp_Force_Field>  (253) 
OPLS3e

>  <r_lp_Energy>  (253) 
34.7782

>  <b_lp_Chiralities_Consistent>  (253) 
1

>  <s_lp_Variant>  (253) 
72:0-4

>  <s_i_glide_gridfile>  (253) 
pfpi4k_grid

>  <i_i_glide_lignum>  (253) 
3

>  <i_i_glide_rotatable_bonds>  (253) 
0

>  <r_i_docking_score>  (253) 
-3.84514

>  <r_i_glide_ligand_efficiency>  (253) 
-0.213619

>  <r_i_glide_ligand_efficiency_sa>  (253) 
-0.559841

>  <r_i_glide_ligand_efficiency_ln>  (253) 
-0.988375

>  <r_i_glide_gscore>  (253) 
-3.84514

>  <r_i_glide_lipo>  (253) 
-0.137274

>  <r_i_glide_hbond>  (253) 
0

>  <r_i_glide_metal>  (253) 
-0

>  <r_i_glide_rewards>  (253) 
-1.75221

>  <r_i_glide_evdw>  (253) 
-21.2696

>  <r_i_glide_ecoul>  (253) 
-5.6698

>  <r_i_glide_erotb>  (253) 
0

>  <r_i_glide_esite>  (253) 
-0.0417128

>  <r_i_glide_emodel>  (253) 
-35.2935

>  <r_i_glide_energy>  (253) 
-26.9394

>  <r_i_glide_einternal>  (253) 
0

>  <r_i_glide_intrahb_reward>  (253) 
-0

>  <i_i_glide_confnum>  (253) 
1

>  <i_i_glide_posenum>  (253) 
7

>  <r_i_glide_eff_state_penalty>  (253) 
0

>  <ligand_id>  (253) 
72

>  <original_smiles>  (253) 
S=C1NC2(Cc3nccn3C2)Oc2cccnc21

>  <smiles>  (253) 
[H]c1nc2n(c1[H])C([H])([H])C1(Oc3c([H])c([H])c([H])[n+]([H])c3C(=S)N1[H])C2([H])[H]

$$$$
73:0:0
     RDKit          3D

 77 85  0  0  1  0  0  0  0  0999 V2000
    3.9808   -0.7643   -3.9831 N   0  0  0  0  0  0  0  0  0  0  0  0
    4.2205   -0.9555   -2.8947 N   0  0  0  0  0  0  0  0  0  0  0  0
    4.5835   -1.2813   -1.7503 N   0  0  0  0  0  0  0  0  0  0  0  0
    3.6307   -2.0617   -0.9542 C   0  0  2  0  0  0  0  0  0  0  0  0
    3.6646   -1.6440    0.5279 C   0  0  0  0  0  0  0  0  0  0  0  0
    2.7253   -2.4940    1.4049 C   0  0  0  0  0  0  0  0  0  0  0  0
    2.9938   -4.0204    1.2713 C   0  0  0  0  0  0  0  0  0  0  0  0
    2.9445   -4.4069   -0.2203 C   0  0  0  0  0  0  0  0  0  0  0  0
    3.9016   -3.5656   -1.0790 C   0  0  0  0  0  0  0  0  0  0  0  0
    1.9541   -4.7396    1.9585 O   0  0  0  0  0  0  0  0  0  0  0  0
    2.1990   -6.2227    1.8610 O   0  0  0  0  0  0  0  0  0  0  0  0
    3.4459   -6.5335    2.5255 C   0  0  1  0  0  0  0  0  0  0  0  0
    4.4898   -5.8399    1.7937 O   0  0  0  0  0  0  0  0  0  0  0  0
    4.2608   -4.3412    1.8855 O   0  0  0  0  0  0  0  0  0  0  0  0
    3.4579   -6.2879    4.0773 C   0  0  2  0  0  0  0  0  0  0  0  0
    2.0832   -5.9667    4.6625 C   0  0  0  0  0  0  0  0  0  0  0  0
    0.9876   -6.9804    4.1556 C   0  0  0  0  0  0  0  0  0  0  0  0
    1.3993   -8.4508    4.0177 N   0  0  2  0  0  0  0  0  0  0  0  0
    1.5534   -9.1409    5.3529 C   0  0  0  0  0  0  0  0  0  0  0  0
    0.4770   -8.8054    6.3807 C   0  0  0  0  0  0  0  0  0  0  0  0
    0.6813   -7.6995    7.3954 C   0  0  0  0  0  0  0  0  0  0  0  0
    0.6801   -9.1339    7.8416 C   0  0  0  0  0  0  0  0  0  0  0  0
    2.3338   -8.8781    2.8363 C   0  0  2  0  0  0  0  0  0  0  0  0
    2.7470  -10.3695    2.8302 C   0  0  0  0  0  0  0  0  0  0  0  0
    3.6961  -10.6630    3.9691 C   0  0  0  0  0  0  0  0  0  0  0  0
    3.5272  -11.8544    4.7135 C   0  0  0  0  0  0  0  0  0  0  0  0
    4.2049  -12.0189    5.9277 C   0  0  0  0  0  0  0  0  0  0  0  0
    5.0406  -10.9930    6.3956 C   0  0  0  0  0  0  0  0  0  0  0  0
    5.6409  -11.1085    7.6133 O   0  0  0  0  0  0  0  0  0  0  0  0
    5.2558   -9.8415    5.6205 C   0  0  0  0  0  0  0  0  0  0  0  0
    4.6275   -9.6712    4.3625 C   0  0  0  0  0  0  0  0  0  0  0  0
    4.9622   -8.5037    3.3756 C   0  0  2  0  0  0  0  0  0  0  0  0
    6.2477   -9.0023    2.6182 C   0  0  0  0  0  0  0  0  0  0  0  0
    7.3753   -8.6057    3.5703 C   0  0  0  0  0  0  0  0  0  0  0  0
    8.5721   -9.2274    3.6778 N   0  0  0  0  0  0  0  0  0  0  0  0
    9.3686   -8.7394    4.6635 C   0  0  0  0  0  0  0  0  0  0  0  0
    8.9454   -7.7005    5.5377 C   0  0  0  0  0  0  0  0  0  0  0  0
    7.7304   -7.1063    5.4373 N   0  0  0  0  0  0  0  0  0  0  0  0
    6.9791   -7.5868    4.4227 C   0  0  0  0  0  0  0  0  0  0  0  0
    5.5873   -7.2005    4.0354 C   0  0  2  0  0  0  0  0  0  0  0  0
    4.7222   -6.3182    4.7745 O   0  0  0  0  0  0  0  0  0  0  0  0
    3.6778   -8.0799    2.5007 C   0  0  2  0  0  0  0  0  0  0  0  0
    2.6205   -1.8855   -1.3177 H   0  0  0  0  0  0  0  0  0  0  0  0
    4.6869   -1.7184    0.9056 H   0  0  0  0  0  0  0  0  0  0  0  0
    3.3763   -0.5911    0.6072 H   0  0  0  0  0  0  0  0  0  0  0  0
    2.7917   -2.1794    2.4457 H   0  0  0  0  0  0  0  0  0  0  0  0
    1.7086   -2.2880    1.0954 H   0  0  0  0  0  0  0  0  0  0  0  0
    3.1777   -5.4691   -0.3399 H   0  0  0  0  0  0  0  0  0  0  0  0
    1.9276   -4.2832   -0.5900 H   0  0  0  0  0  0  0  0  0  0  0  0
    3.7977   -3.8572   -2.1256 H   0  0  0  0  0  0  0  0  0  0  0  0
    4.9328   -3.7789   -0.7882 H   0  0  0  0  0  0  0  0  0  0  0  0
    3.3380   -7.2334    4.5783 H   0  0  0  0  0  0  0  0  0  0  0  0
    2.1444   -5.9411    5.7566 H   0  0  0  0  0  0  0  0  0  0  0  0
    1.7723   -4.9593    4.4001 H   0  0  0  0  0  0  0  0  0  0  0  0
    0.1552   -6.9132    4.8435 H   0  0  0  0  0  0  0  0  0  0  0  0
    0.5234   -6.6734    3.2248 H   0  0  0  0  0  0  0  0  0  0  0  0
    1.4774  -10.2148    5.2068 H   0  0  0  0  0  0  0  0  0  0  0  0
    2.5257   -8.9281    5.7910 H   0  0  0  0  0  0  0  0  0  0  0  0
   -0.5428   -8.9606    6.0188 H   0  0  0  0  0  0  0  0  0  0  0  0
    1.6408   -7.1877    7.4269 H   0  0  0  0  0  0  0  0  0  0  0  0
   -0.1850   -7.0882    7.6438 H   0  0  0  0  0  0  0  0  0  0  0  0
   -0.1802   -9.4518    8.4242 H   0  0  0  0  0  0  0  0  0  0  0  0
    1.6363   -9.5527    8.1567 H   0  0  0  0  0  0  0  0  0  0  0  0
    1.6889   -8.7455    1.9711 H   0  0  0  0  0  0  0  0  0  0  0  0
    1.8879  -11.0381    2.8543 H   0  0  0  0  0  0  0  0  0  0  0  0
    3.2722  -10.5985    1.9089 H   0  0  0  0  0  0  0  0  0  0  0  0
    2.8222  -12.6105    4.4008 H   0  0  0  0  0  0  0  0  0  0  0  0
    4.0205  -12.8991    6.5235 H   0  0  0  0  0  0  0  0  0  0  0  0
    5.3667  -11.8778    8.0891 H   0  0  0  0  0  0  0  0  0  0  0  0
    5.9129   -9.0986    6.0344 H   0  0  0  0  0  0  0  0  0  0  0  0
    6.2447  -10.0646    2.3655 H   0  0  0  0  0  0  0  0  0  0  0  0
    6.4034   -8.4451    1.6961 H   0  0  0  0  0  0  0  0  0  0  0  0
   10.3495   -9.1764    4.7628 H   0  0  0  0  0  0  0  0  0  0  0  0
    9.5958   -7.3530    6.3241 H   0  0  0  0  0  0  0  0  0  0  0  0
    5.9244   -6.5416    3.2490 H   0  0  0  0  0  0  0  0  0  0  0  0
    3.8990   -8.3207    1.4620 H   0  0  0  0  0  0  0  0  0  0  0  0
    0.5297   -8.8823    3.7169 H   0  0  0  0  0  0  0  0  0  0  0  0
  1  2  2  0
  2  3  2  0
  3  4  1  0
  4  9  1  0
  4  5  1  0
  4 43  1  6
  5  6  1  0
  5 44  1  0
  5 45  1  0
  6  7  1  0
  6 46  1  0
  6 47  1  0
  7 14  1  0
  7  8  1  0
  7 10  1  0
  8  9  1  0
  8 48  1  0
  8 49  1  0
  9 50  1  0
  9 51  1  0
 10 11  1  0
 12 11  1  6
 12 42  1  0
 12 13  1  0
 12 15  1  0
 13 14  1  0
 15 41  1  0
 15 16  1  0
 15 52  1  1
 16 17  1  0
 16 53  1  0
 16 54  1  0
 17 18  1  0
 17 55  1  0
 17 56  1  0
 18 19  1  0
 18 23  1  0
 18 77  1  6
 19 20  1  0
 19 57  1  0
 19 58  1  0
 20 22  1  0
 20 21  1  0
 20 59  1  0
 21 22  1  0
 21 60  1  0
 21 61  1  0
 22 62  1  0
 22 63  1  0
 23 42  1  0
 23 24  1  0
 23 64  1  6
 24 25  1  0
 24 65  1  0
 24 66  1  0
 25 31  2  0
 25 26  1  0
 26 27  2  0
 26 67  1  0
 27 28  1  0
 27 68  1  0
 28 29  1  0
 28 30  2  0
 29 69  1  0
 30 31  1  0
 30 70  1  0
 31 32  1  0
 32 40  1  0
 32 33  1  6
 32 42  1  0
 33 34  1  0
 33 71  1  0
 33 72  1  0
 34 39  2  0
 34 35  1  0
 35 36  2  0
 36 37  1  0
 36 73  1  0
 37 38  2  0
 37 74  1  0
 38 39  1  0
 39 40  1  0
 40 41  1  0
 40 75  1  6
 42 76  1  6
M  CHG  3   1  -1   2   1  18   1
M  END
>  <i_m_ct_stereo_status>  (254) 
1

>  <s_m_source_file>  (254) 
/var/tmp/pbs.5083856.sched01/tmpajd0ugep/100oyr4iqks.sdf

>  <i_m_source_file_index>  (254) 
4

>  <i_lp_mmshare_version>  (254) 
48012

>  <i_f3d_flags>  (254) 
0

>  <s_epik_input>  (254) 
W04tXT1bTitdPU5bQ0hdKFtDSDJdW0NIMl0xKVtDSDJdW0NIMl1bQ0BAXTEyT09DMyhPTzIpW0NAQEhdNFtDSDJdW0NIMl1OKFtDSDJdW0NIXTVbQ0gyXVtDSDJdNSlbQ0BIXTZbQ0BASF0zW0NAXTcoYzhjKFtDSDJdNilbY0hdW2NIXWMoW09IXSlbY0hdOClbQ0BASF0oTzQpYzljKFtDSDJdNyluW2NIXVtjSF1uOQ==

>  <s_epik_cmdline>  (254) 
J2VwaWtfcHl0aG9uJywgJy1waHQnLCAnMi4wJywgJy1waCcsICc3LjAnLCAnLXRuJywgJzgnLCAnLW1hJywgJzIwMCcsICctaW1hZScsICc8aW5maWxlLm1hZT4nLCAnLW9tYWUnLCAnPG91dGZpbGUubWFlPic=

>  <r_lp_tautomer_probability>  (254) 
1

>  <r_epik_Ionization_Penalty>  (254) 
0.283956

>  <r_epik_Ionization_Penalty_Charging>  (254) 
0.282762

>  <r_epik_Ionization_Penalty_Neutral>  (254) 
0.00119429

>  <r_epik_State_Penalty>  (254) 
0.275422

>  <r_epik_Charging_Adjusted_Penalty>  (254) 
0.558183

>  <i_epik_Tot_Q>  (254) 
1

>  <i_epik_Tot_abs_Q>  (254) 
3

>  <s_lp_Force_Field>  (254) 
OPLS3e

>  <r_lp_Energy>  (254) 
142.133

>  <b_lp_Chiralities_Consistent>  (254) 
1

>  <s_lp_Variant>  (254) 
73:0-1

>  <s_i_glide_gridfile>  (254) 
pfpi4k_grid

>  <i_i_glide_lignum>  (254) 
4

>  <i_i_glide_rotatable_bonds>  (254) 
4

>  <r_i_docking_score>  (254) 
-2.6701

>  <r_i_glide_ligand_efficiency>  (254) 
-0.0635738

>  <r_i_glide_ligand_efficiency_sa>  (254) 
-0.220984

>  <r_i_glide_ligand_efficiency_ln>  (254) 
-0.563589

>  <r_i_glide_gscore>  (254) 
-2.6701

>  <r_i_glide_lipo>  (254) 
-0.0240913

>  <r_i_glide_hbond>  (254) 
-0.00588425

>  <r_i_glide_metal>  (254) 
-0

>  <r_i_glide_rewards>  (254) 
0

>  <r_i_glide_evdw>  (254) 
-36.9191

>  <r_i_glide_ecoul>  (254) 
-5.49222

>  <r_i_glide_erotb>  (254) 
0.0936918

>  <r_i_glide_esite>  (254) 
-0.0640292

>  <r_i_glide_emodel>  (254) 
-49.4862

>  <r_i_glide_energy>  (254) 
-42.4113

>  <r_i_glide_einternal>  (254) 
0.424314

>  <r_i_glide_intrahb_reward>  (254) 
-0

>  <i_i_glide_confnum>  (254) 
2

>  <i_i_glide_posenum>  (254) 
23

>  <r_i_glide_eff_state_penalty>  (254) 
0

>  <ligand_id>  (254) 
73

>  <original_smiles>  (254) 
[N-]=[N+]=NC1CCC2(CC1)OOC1(OO2)C2CCN(CC3CC3)C3Cc4ccc(O)cc4C4(Cc5nccnc5C4O2)C31

>  <smiles>  (254) 
[H]Oc1c([H])c([H])c2c(c1[H])C13C([H])([H])c4nc([H])c([H])nc4C1([H])OC1([H])C([H])([H])C([H])([H])[N+]([H])(C([H])([H])C4([H])C([H])([H])C4([H])[H])C([H])(C2([H])[H])C3([H])C12OOC1(OO2)C([H])([H])C([H])([H])C([H])(N=[N+]=[N-])C([H])([H])C1([H])[H]

$$$$
73:0:1
     RDKit          3D

 77 85  0  0  1  0  0  0  0  0999 V2000
    6.9652   -2.2582   -1.2984 N   0  0  0  0  0  0  0  0  0  0  0  0
    5.8830   -1.9663   -1.4737 N   0  0  0  0  0  0  0  0  0  0  0  0
    4.6954   -1.6065   -1.5044 N   0  0  0  0  0  0  0  0  0  0  0  0
    3.7344   -2.3701   -0.6873 C   0  0  2  0  0  0  0  0  0  0  0  0
    3.7782   -1.9266    0.7885 C   0  0  0  0  0  0  0  0  0  0  0  0
    2.8324   -2.7475    1.6816 C   0  0  0  0  0  0  0  0  0  0  0  0
    3.0722   -4.2844    1.5697 C   0  0  0  0  0  0  0  0  0  0  0  0
    2.9965   -4.7013    0.0855 C   0  0  0  0  0  0  0  0  0  0  0  0
    3.9594   -3.8929   -0.7855 C   0  0  0  0  0  0  0  0  0  0  0  0
    2.0299   -4.9757    2.2794 O   0  0  0  0  0  0  0  0  0  0  0  0
    2.2574   -6.4636    2.2080 O   0  0  0  0  0  0  0  0  0  0  0  0
    3.5096   -6.7802    2.8640 C   0  0  1  0  0  0  0  0  0  0  0  0
    4.5588   -6.1127    2.1137 O   0  0  0  0  0  0  0  0  0  0  0  0
    4.3438   -4.6088    2.1791 O   0  0  0  0  0  0  0  0  0  0  0  0
    3.5410   -6.5082    4.4103 C   0  0  2  0  0  0  0  0  0  0  0  0
    2.1770   -6.1489    4.9950 C   0  0  0  0  0  0  0  0  0  0  0  0
    1.0606   -7.1618    4.5224 C   0  0  0  0  0  0  0  0  0  0  0  0
    1.4502   -8.6419    4.4059 N   0  0  2  0  0  0  0  0  0  0  0  0
    1.6060   -9.3129    5.7534 C   0  0  0  0  0  0  0  0  0  0  0  0
    0.5502   -8.9346    6.7899 C   0  0  0  0  0  0  0  0  0  0  0  0
    0.7549   -7.7646    7.7315 C   0  0  0  0  0  0  0  0  0  0  0  0
    0.8009   -9.1681    8.2632 C   0  0  0  0  0  0  0  0  0  0  0  0
    2.3687   -9.1077    3.2227 C   0  0  2  0  0  0  0  0  0  0  0  0
    2.7629  -10.6062    3.2319 C   0  0  0  0  0  0  0  0  0  0  0  0
    3.7183  -10.8915    4.3693 C   0  0  0  0  0  0  0  0  0  0  0  0
    3.5473  -12.0640    5.1378 C   0  0  0  0  0  0  0  0  0  0  0  0
    4.2402  -12.2177    6.3454 C   0  0  0  0  0  0  0  0  0  0  0  0
    5.0877  -11.1959    6.7928 C   0  0  0  0  0  0  0  0  0  0  0  0
    5.6981  -11.3038    8.0051 O   0  0  0  0  0  0  0  0  0  0  0  0
    5.3008  -10.0566    5.9962 C   0  0  0  0  0  0  0  0  0  0  0  0
    4.6653   -9.9022    4.7413 C   0  0  0  0  0  0  0  0  0  0  0  0
    5.0060   -8.7588    3.7325 C   0  0  2  0  0  0  0  0  0  0  0  0
    6.2770   -9.2876    2.9718 C   0  0  0  0  0  0  0  0  0  0  0  0
    7.4198   -8.8936    3.9062 C   0  0  0  0  0  0  0  0  0  0  0  0
    8.6131   -9.5285    4.0090 N   0  0  0  0  0  0  0  0  0  0  0  0
    9.4214   -9.0427    4.9820 C   0  0  0  0  0  0  0  0  0  0  0  0
    9.0209   -7.9855    5.8500 C   0  0  0  0  0  0  0  0  0  0  0  0
    7.8128   -7.3774    5.7527 N   0  0  0  0  0  0  0  0  0  0  0  0
    7.0462   -7.8596    4.7493 C   0  0  0  0  0  0  0  0  0  0  0  0
    5.6578   -7.4556    4.3666 C   0  0  2  0  0  0  0  0  0  0  0  0
    4.8091   -6.5534    5.0996 O   0  0  0  0  0  0  0  0  0  0  0  0
    3.7207   -8.3318    2.8631 C   0  0  2  0  0  0  0  0  0  0  0  0
    2.7292   -2.1644   -1.0632 H   0  0  0  0  0  0  0  0  0  0  0  0
    4.7963   -2.0114    1.1680 H   0  0  0  0  0  0  0  0  0  0  0  0
    3.5113   -0.8667    0.8519 H   0  0  0  0  0  0  0  0  0  0  0  0
    2.9166   -2.4186    2.7182 H   0  0  0  0  0  0  0  0  0  0  0  0
    1.8172   -2.5318    1.3773 H   0  0  0  0  0  0  0  0  0  0  0  0
    3.2216   -5.7689   -0.0344 H   0  0  0  0  0  0  0  0  0  0  0  0
    1.9796   -4.5674   -0.2754 H   0  0  0  0  0  0  0  0  0  0  0  0
    3.8536   -4.2080   -1.8244 H   0  0  0  0  0  0  0  0  0  0  0  0
    4.9683   -4.1636   -0.4761 H   0  0  0  0  0  0  0  0  0  0  0  0
    3.4085   -7.4422    4.9287 H   0  0  0  0  0  0  0  0  0  0  0  0
    2.2581   -6.0917    6.0858 H   0  0  0  0  0  0  0  0  0  0  0  0
    1.8791   -5.1434    4.7118 H   0  0  0  0  0  0  0  0  0  0  0  0
    0.2321   -7.0710    5.2126 H   0  0  0  0  0  0  0  0  0  0  0  0
    0.5895   -6.8676    3.5910 H   0  0  0  0  0  0  0  0  0  0  0  0
    1.5076  -10.3876    5.6239 H   0  0  0  0  0  0  0  0  0  0  0  0
    2.5884   -9.1119    6.1735 H   0  0  0  0  0  0  0  0  0  0  0  0
   -0.4747   -9.1269    6.4629 H   0  0  0  0  0  0  0  0  0  0  0  0
    1.7061   -7.2376    7.7262 H   0  0  0  0  0  0  0  0  0  0  0  0
   -0.1202   -7.1558    7.9564 H   0  0  0  0  0  0  0  0  0  0  0  0
   -0.0302   -9.4573    8.8980 H   0  0  0  0  0  0  0  0  0  0  0  0
    1.7781   -9.5368    8.5762 H   0  0  0  0  0  0  0  0  0  0  0  0
    1.7162   -8.9785    2.3633 H   0  0  0  0  0  0  0  0  0  0  0  0
    1.8943  -11.2622    3.2739 H   0  0  0  0  0  0  0  0  0  0  0  0
    3.2763  -10.8580    2.3089 H   0  0  0  0  0  0  0  0  0  0  0  0
    2.8193  -12.8124    4.8583 H   0  0  0  0  0  0  0  0  0  0  0  0
    4.0477  -13.0768    6.9676 H   0  0  0  0  0  0  0  0  0  0  0  0
    6.2522  -10.5694    8.2217 H   0  0  0  0  0  0  0  0  0  0  0  0
    5.9672   -9.3121    6.3884 H   0  0  0  0  0  0  0  0  0  0  0  0
    6.2548  -10.3537    2.7383 H   0  0  0  0  0  0  0  0  0  0  0  0
    6.4313   -8.7480    2.0395 H   0  0  0  0  0  0  0  0  0  0  0  0
   10.3963   -9.4909    5.0855 H   0  0  0  0  0  0  0  0  0  0  0  0
    9.6824   -7.6346    6.6244 H   0  0  0  0  0  0  0  0  0  0  0  0
    5.9985   -6.8111    3.5698 H   0  0  0  0  0  0  0  0  0  0  0  0
    3.9304   -8.5952    1.8271 H   0  0  0  0  0  0  0  0  0  0  0  0
    0.5694   -9.0645    4.1212 H   0  0  0  0  0  0  0  0  0  0  0  0
  1  2  2  0
  2  3  2  0
  3  4  1  0
  4  9  1  0
  4  5  1  0
  4 43  1  6
  5  6  1  0
  5 44  1  0
  5 45  1  0
  6  7  1  0
  6 46  1  0
  6 47  1  0
  7 14  1  0
  7  8  1  0
  7 10  1  0
  8  9  1  0
  8 48  1  0
  8 49  1  0
  9 50  1  0
  9 51  1  0
 10 11  1  0
 12 11  1  6
 12 42  1  0
 12 13  1  0
 12 15  1  0
 13 14  1  0
 15 41  1  0
 15 16  1  0
 15 52  1  1
 16 17  1  0
 16 53  1  0
 16 54  1  0
 17 18  1  0
 17 55  1  0
 17 56  1  0
 18 19  1  0
 18 23  1  0
 18 77  1  6
 19 20  1  0
 19 57  1  0
 19 58  1  0
 20 22  1  0
 20 21  1  0
 20 59  1  0
 21 22  1  0
 21 60  1  0
 21 61  1  0
 22 62  1  0
 22 63  1  0
 23 42  1  0
 23 24  1  0
 23 64  1  6
 24 25  1  0
 24 65  1  0
 24 66  1  0
 25 31  2  0
 25 26  1  0
 26 27  2  0
 26 67  1  0
 27 28  1  0
 27 68  1  0
 28 29  1  0
 28 30  2  0
 29 69  1  0
 30 31  1  0
 30 70  1  0
 31 32  1  0
 32 40  1  0
 32 33  1  6
 32 42  1  0
 33 34  1  0
 33 71  1  0
 33 72  1  0
 34 39  2  0
 34 35  1  0
 35 36  2  0
 36 37  1  0
 36 73  1  0
 37 38  2  0
 37 74  1  0
 38 39  1  0
 39 40  1  0
 40 41  1  0
 40 75  1  6
 42 76  1  6
M  CHG  3   1  -1   2   1  18   1
M  END
>  <i_m_ct_stereo_status>  (255) 
1

>  <s_m_source_file>  (255) 
/var/tmp/pbs.5083856.sched01/tmpajd0ugep/100oyr4iqks.sdf

>  <i_m_source_file_index>  (255) 
4

>  <i_lp_mmshare_version>  (255) 
48012

>  <i_f3d_flags>  (255) 
0

>  <s_epik_input>  (255) 
W04tXT1bTitdPU5bQ0hdKFtDSDJdW0NIMl0xKVtDSDJdW0NIMl1bQ0BAXTEyT09DMyhPTzIpW0NAQEhdNFtDSDJdW0NIMl1OKFtDSDJdW0NIXTVbQ0gyXVtDSDJdNSlbQ0BIXTZbQ0BASF0zW0NAXTcoYzhjKFtDSDJdNilbY0hdW2NIXWMoW09IXSlbY0hdOClbQ0BASF0oTzQpYzljKFtDSDJdNyluW2NIXVtjSF1uOQ==

>  <s_epik_cmdline>  (255) 
J2VwaWtfcHl0aG9uJywgJy1waHQnLCAnMi4wJywgJy1waCcsICc3LjAnLCAnLXRuJywgJzgnLCAnLW1hJywgJzIwMCcsICctaW1hZScsICc8aW5maWxlLm1hZT4nLCAnLW9tYWUnLCAnPG91dGZpbGUubWFlPic=

>  <r_lp_tautomer_probability>  (255) 
1

>  <r_epik_Ionization_Penalty>  (255) 
0.283956

>  <r_epik_Ionization_Penalty_Charging>  (255) 
0.282762

>  <r_epik_Ionization_Penalty_Neutral>  (255) 
0.00119429

>  <r_epik_State_Penalty>  (255) 
0.275422

>  <r_epik_Charging_Adjusted_Penalty>  (255) 
0.558183

>  <i_epik_Tot_Q>  (255) 
1

>  <i_epik_Tot_abs_Q>  (255) 
3

>  <s_lp_Force_Field>  (255) 
OPLS3e

>  <r_lp_Energy>  (255) 
142.133

>  <b_lp_Chiralities_Consistent>  (255) 
1

>  <s_lp_Variant>  (255) 
73:0-1

>  <s_i_glide_gridfile>  (255) 
pfpi4k_grid

>  <i_i_glide_lignum>  (255) 
4

>  <i_i_glide_rotatable_bonds>  (255) 
4

>  <r_i_docking_score>  (255) 
-2.3936

>  <r_i_glide_ligand_efficiency>  (255) 
-0.0569906

>  <r_i_glide_ligand_efficiency_sa>  (255) 
-0.198101

>  <r_i_glide_ligand_efficiency_ln>  (255) 
-0.505228

>  <r_i_glide_gscore>  (255) 
-2.3936

>  <r_i_glide_lipo>  (255) 
-0.0203045

>  <r_i_glide_hbond>  (255) 
0

>  <r_i_glide_metal>  (255) 
-0

>  <r_i_glide_rewards>  (255) 
0

>  <r_i_glide_evdw>  (255) 
-32.7334

>  <r_i_glide_ecoul>  (255) 
-4.28581

>  <r_i_glide_erotb>  (255) 
0.0936918

>  <r_i_glide_esite>  (255) 
-0.187449

>  <r_i_glide_emodel>  (255) 
-41.8789

>  <r_i_glide_energy>  (255) 
-37.0192

>  <r_i_glide_einternal>  (255) 
2.62137

>  <r_i_glide_intrahb_reward>  (255) 
-0

>  <i_i_glide_confnum>  (255) 
2

>  <i_i_glide_posenum>  (255) 
17

>  <r_i_glide_eff_state_penalty>  (255) 
0

>  <ligand_id>  (255) 
73

>  <original_smiles>  (255) 
[N-]=[N+]=NC1CCC2(CC1)OOC1(OO2)C2CCN(CC3CC3)C3Cc4ccc(O)cc4C4(Cc5nccnc5C4O2)C31

>  <smiles>  (255) 
[H]Oc1c([H])c([H])c2c(c1[H])C13C([H])([H])c4nc([H])c([H])nc4C1([H])OC1([H])C([H])([H])C([H])([H])[N+]([H])(C([H])([H])C4([H])C([H])([H])C4([H])[H])C([H])(C2([H])[H])C3([H])C12OOC1(OO2)C([H])([H])C([H])([H])C([H])(N=[N+]=[N-])C([H])([H])C1([H])[H]

$$$$
73:0:2
     RDKit          3D

 77 85  0  0  1  0  0  0  0  0999 V2000
    4.2201   -0.6734   -2.2865 N   0  0  0  0  0  0  0  0  0  0  0  0
    5.1388   -1.2305   -1.9448 N   0  0  0  0  0  0  0  0  0  0  0  0
    6.1100   -1.9724   -1.7029 N   0  0  0  0  0  0  0  0  0  0  0  0
    5.8737   -3.1216   -0.8228 C   0  0  2  0  0  0  0  0  0  0  0  0
    4.4990   -3.8027   -1.0466 C   0  0  0  0  0  0  0  0  0  0  0  0
    4.2297   -4.9447   -0.0584 C   0  0  0  0  0  0  0  0  0  0  0  0
    4.3755   -4.4942    1.4251 C   0  0  0  0  0  0  0  0  0  0  0  0
    5.7689   -3.8544    1.6233 C   0  0  0  0  0  0  0  0  0  0  0  0
    6.0294   -2.7012    0.6460 C   0  0  0  0  0  0  0  0  0  0  0  0
    4.2848   -5.6594    2.2595 O   0  0  0  0  0  0  0  0  0  0  0  0
    4.3974   -5.2647    3.7094 O   0  0  0  0  0  0  0  0  0  0  0  0
    3.2878   -4.4025    4.0483 C   0  0  1  0  0  0  0  0  0  0  0  0
    3.4165   -3.2106    3.2307 O   0  0  0  0  0  0  0  0  0  0  0  0
    3.2990   -3.5905    1.7635 O   0  0  0  0  0  0  0  0  0  0  0  0
    1.8681   -5.0796    4.0018 C   0  0  0  0  0  0  0  0  0  0  0  0
    1.9097   -6.5983    3.8164 C   0  0  0  0  0  0  0  0  0  0  0  0
    2.9471   -7.2737    4.7890 C   0  0  0  0  0  0  0  0  0  0  0  0
    3.0437   -6.7107    6.2089 N   0  0  2  0  0  0  0  0  0  0  0  0
    1.8536   -7.0884    7.0578 C   0  0  0  0  0  0  0  0  0  0  0  0
    1.4511   -8.5564    6.9825 C   0  0  0  0  0  0  0  0  0  0  0  0
    0.2240   -8.9891    6.2125 C   0  0  0  0  0  0  0  0  0  0  0  0
    0.2226   -9.0423    7.7162 C   0  0  0  0  0  0  0  0  0  0  0  0
    3.7317   -5.3242    6.4527 C   0  0  2  0  0  0  0  0  0  0  0  0
    3.7104   -4.8127    7.9170 C   0  0  0  0  0  0  0  0  0  0  0  0
    2.3039   -4.4303    8.3241 C   0  0  0  0  0  0  0  0  0  0  0  0
    1.8280   -4.8020    9.6028 C   0  0  0  0  0  0  0  0  0  0  0  0
    0.4605   -4.7116    9.8949 C   0  0  0  0  0  0  0  0  0  0  0  0
   -0.4268   -4.2521    8.9068 C   0  0  0  0  0  0  0  0  0  0  0  0
   -1.7670   -4.2188    9.1540 O   0  0  0  0  0  0  0  0  0  0  0  0
    0.0613   -3.8224    7.6612 C   0  0  0  0  0  0  0  0  0  0  0  0
    1.4446   -3.8531    7.3548 C   0  0  0  0  0  0  0  0  0  0  0  0
    2.0656   -3.2294    6.0606 C   0  0  2  0  0  0  0  0  0  0  0  0
    2.2358   -1.7041    6.4113 C   0  0  0  0  0  0  0  0  0  0  0  0
    0.8584   -1.1253    6.1043 C   0  0  0  0  0  0  0  0  0  0  0  0
    0.3066   -0.0280    6.6790 N   0  0  0  0  0  0  0  0  0  0  0  0
   -0.9668    0.2268    6.2909 C   0  0  0  0  0  0  0  0  0  0  0  0
   -1.6772   -0.6326    5.4002 C   0  0  0  0  0  0  0  0  0  0  0  0
   -1.1247   -1.7511    4.8774 N   0  0  0  0  0  0  0  0  0  0  0  0
    0.1602   -1.9453    5.2303 C   0  0  0  0  0  0  0  0  0  0  0  0
    1.0729   -3.0619    4.8336 C   0  0  2  0  0  0  0  0  0  0  0  0
    0.6969   -4.2383    4.0917 O   0  0  0  0  0  0  0  0  0  0  0  0
    3.3639   -4.0443    5.5705 C   0  0  2  0  0  0  0  0  0  0  0  0
    6.6447   -3.8646   -1.0318 H   0  0  0  0  0  0  0  0  0  0  0  0
    3.6840   -3.0878   -0.9345 H   0  0  0  0  0  0  0  0  0  0  0  0
    4.4407   -4.1811   -2.0723 H   0  0  0  0  0  0  0  0  0  0  0  0
    3.2318   -5.3475   -0.2403 H   0  0  0  0  0  0  0  0  0  0  0  0
    4.9280   -5.7471   -0.2605 H   0  0  0  0  0  0  0  0  0  0  0  0
    5.8892   -3.4901    2.6502 H   0  0  0  0  0  0  0  0  0  0  0  0
    6.5251   -4.6242    1.4880 H   0  0  0  0  0  0  0  0  0  0  0  0
    7.0374   -2.3128    0.8096 H   0  0  0  0  0  0  0  0  0  0  0  0
    5.3386   -1.8853    0.8622 H   0  0  0  0  0  0  0  0  0  0  0  0
    1.5742   -5.3170    5.0079 H   0  0  0  0  0  0  0  0  0  0  0  0
    0.9080   -7.0298    3.9533 H   0  0  0  0  0  0  0  0  0  0  0  0
    2.1810   -6.8524    2.7952 H   0  0  0  0  0  0  0  0  0  0  0  0
    2.6770   -8.3215    4.8471 H   0  0  0  0  0  0  0  0  0  0  0  0
    3.9502   -7.3230    4.3774 H   0  0  0  0  0  0  0  0  0  0  0  0
    2.1010   -6.9377    8.1019 H   0  0  0  0  0  0  0  0  0  0  0  0
    0.9914   -6.4681    6.8178 H   0  0  0  0  0  0  0  0  0  0  0  0
    2.2920   -9.2558    7.0074 H   0  0  0  0  0  0  0  0  0  0  0  0
   -0.3813   -8.2217    5.7337 H   0  0  0  0  0  0  0  0  0  0  0  0
    0.2775   -9.9394    5.6861 H   0  0  0  0  0  0  0  0  0  0  0  0
    0.2538  -10.0369    8.1551 H   0  0  0  0  0  0  0  0  0  0  0  0
   -0.4043   -8.3211    8.2393 H   0  0  0  0  0  0  0  0  0  0  0  0
    4.7726   -5.5462    6.2320 H   0  0  0  0  0  0  0  0  0  0  0  0
    4.1315   -5.5385    8.6111 H   0  0  0  0  0  0  0  0  0  0  0  0
    4.3306   -3.9254    8.0087 H   0  0  0  0  0  0  0  0  0  0  0  0
    2.4957   -5.2273   10.3387 H   0  0  0  0  0  0  0  0  0  0  0  0
    0.0919   -5.0390   10.8531 H   0  0  0  0  0  0  0  0  0  0  0  0
   -2.0222   -4.6337    9.9657 H   0  0  0  0  0  0  0  0  0  0  0  0
   -0.6664   -3.4749    6.9514 H   0  0  0  0  0  0  0  0  0  0  0  0
    2.5660   -1.5075    7.4333 H   0  0  0  0  0  0  0  0  0  0  0  0
    2.9367   -1.2188    5.7343 H   0  0  0  0  0  0  0  0  0  0  0  0
   -1.4539    1.0931    6.7064 H   0  0  0  0  0  0  0  0  0  0  0  0
   -2.6979   -0.4266    5.1291 H   0  0  0  0  0  0  0  0  0  0  0  0
    1.5590   -2.4808    4.0627 H   0  0  0  0  0  0  0  0  0  0  0  0
    4.2197   -3.3778    5.6690 H   0  0  0  0  0  0  0  0  0  0  0  0
    3.7400   -7.3276    6.6189 H   0  0  0  0  0  0  0  0  0  0  0  0
  1  2  2  0
  2  3  2  0
  3  4  1  0
  4  9  1  0
  4  5  1  0
  4 43  1  6
  5  6  1  0
  5 44  1  0
  5 45  1  0
  6  7  1  0
  6 46  1  0
  6 47  1  0
  7 14  1  0
  7  8  1  0
  7 10  1  0
  8  9  1  0
  8 48  1  0
  8 49  1  0
  9 50  1  0
  9 51  1  0
 10 11  1  0
 12 11  1  6
 12 42  1  0
 12 13  1  0
 12 15  1  0
 13 14  1  0
 15 41  1  0
 15 16  1  0
 15 52  1  0
 16 17  1  0
 16 53  1  0
 16 54  1  0
 17 18  1  0
 17 55  1  0
 17 56  1  0
 18 19  1  0
 18 23  1  0
 18 77  1  1
 19 20  1  0
 19 57  1  0
 19 58  1  0
 20 22  1  0
 20 21  1  0
 20 59  1  0
 21 22  1  0
 21 60  1  0
 21 61  1  0
 22 62  1  0
 22 63  1  0
 23 42  1  0
 23 24  1  0
 23 64  1  6
 24 25  1  0
 24 65  1  0
 24 66  1  0
 25 31  2  0
 25 26  1  0
 26 27  2  0
 26 67  1  0
 27 28  1  0
 27 68  1  0
 28 29  1  0
 28 30  2  0
 29 69  1  0
 30 31  1  0
 30 70  1  0
 31 32  1  0
 32 40  1  0
 32 33  1  1
 32 42  1  0
 33 34  1  0
 33 71  1  0
 33 72  1  0
 34 39  2  0
 34 35  1  0
 35 36  2  0
 36 37  1  0
 36 73  1  0
 37 38  2  0
 37 74  1  0
 38 39  1  0
 39 40  1  0
 40 41  1  0
 40 75  1  6
 42 76  1  6
M  CHG  3   1  -1   2   1  18   1
M  END
>  <i_m_ct_stereo_status>  (256) 
1

>  <s_m_source_file>  (256) 
/var/tmp/pbs.5083856.sched01/tmpajd0ugep/100oyr4iqks.sdf

>  <i_m_source_file_index>  (256) 
4

>  <i_lp_mmshare_version>  (256) 
48012

>  <i_f3d_flags>  (256) 
0

>  <s_epik_input>  (256) 
W04tXT1bTitdPU5bQ0hdKFtDSDJdW0NIMl0xKVtDSDJdW0NIMl1bQ0BAXTEyT09DMyhPTzIpW0NAQEhdNFtDSDJdW0NIMl1OKFtDSDJdW0NIXTVbQ0gyXVtDSDJdNSlbQ0BIXTZbQ0BASF0zW0NAXTcoYzhjKFtDSDJdNilbY0hdW2NIXWMoW09IXSlbY0hdOClbQ0BASF0oTzQpYzljKFtDSDJdNyluW2NIXVtjSF1uOQ==

>  <s_epik_cmdline>  (256) 
J2VwaWtfcHl0aG9uJywgJy1waHQnLCAnMi4wJywgJy1waCcsICc3LjAnLCAnLXRuJywgJzgnLCAnLW1hJywgJzIwMCcsICctaW1hZScsICc8aW5maWxlLm1hZT4nLCAnLW9tYWUnLCAnPG91dGZpbGUubWFlPic=

>  <r_lp_tautomer_probability>  (256) 
1

>  <r_epik_Ionization_Penalty>  (256) 
0.283956

>  <r_epik_Ionization_Penalty_Charging>  (256) 
0.282762

>  <r_epik_Ionization_Penalty_Neutral>  (256) 
0.00119429

>  <r_epik_State_Penalty>  (256) 
0.275422

>  <r_epik_Charging_Adjusted_Penalty>  (256) 
0.558183

>  <i_epik_Tot_Q>  (256) 
1

>  <i_epik_Tot_abs_Q>  (256) 
3

>  <s_lp_Force_Field>  (256) 
OPLS3e

>  <r_lp_Energy>  (256) 
142.133

>  <b_lp_Chiralities_Consistent>  (256) 
1

>  <s_lp_Variant>  (256) 
73:0-1

>  <s_i_glide_gridfile>  (256) 
pfpi4k_grid

>  <i_i_glide_lignum>  (256) 
4

>  <i_i_glide_rotatable_bonds>  (256) 
4

>  <r_i_docking_score>  (256) 
-2.14992

>  <r_i_glide_ligand_efficiency>  (256) 
-0.0511885

>  <r_i_glide_ligand_efficiency_sa>  (256) 
-0.177933

>  <r_i_glide_ligand_efficiency_ln>  (256) 
-0.453792

>  <r_i_glide_gscore>  (256) 
-2.14992

>  <r_i_glide_lipo>  (256) 
-0.194398

>  <r_i_glide_hbond>  (256) 
-0.00942957

>  <r_i_glide_metal>  (256) 
-0

>  <r_i_glide_rewards>  (256) 
-0.0298053

>  <r_i_glide_evdw>  (256) 
-33.3316

>  <r_i_glide_ecoul>  (256) 
-1.53428

>  <r_i_glide_erotb>  (256) 
0.0936918

>  <r_i_glide_esite>  (256) 
-0.113252

>  <r_i_glide_emodel>  (256) 
-39.1269

>  <r_i_glide_energy>  (256) 
-34.8659

>  <r_i_glide_einternal>  (256) 
3.06814

>  <r_i_glide_intrahb_reward>  (256) 
-0

>  <i_i_glide_confnum>  (256) 
2

>  <i_i_glide_posenum>  (256) 
19

>  <r_i_glide_eff_state_penalty>  (256) 
0

>  <ligand_id>  (256) 
73

>  <original_smiles>  (256) 
[N-]=[N+]=NC1CCC2(CC1)OOC1(OO2)C2CCN(CC3CC3)C3Cc4ccc(O)cc4C4(Cc5nccnc5C4O2)C31

>  <smiles>  (256) 
[H]Oc1c([H])c([H])c2c(c1[H])C13C([H])([H])c4nc([H])c([H])nc4C1([H])OC1([H])C([H])([H])C([H])([H])[N+]([H])(C([H])([H])C4([H])C([H])([H])C4([H])[H])C([H])(C2([H])[H])C3([H])C12OOC1(OO2)C([H])([H])C([H])([H])C([H])(N=[N+]=[N-])C([H])([H])C1([H])[H]

$$$$
73:1:0
     RDKit          3D

 76 84  0  0  1  0  0  0  0  0999 V2000
   -1.4609    1.2302    4.9102 N   0  0  0  0  0  0  0  0  0  0  0  0
   -0.6475    1.9495    4.5639 N   0  0  0  0  0  0  0  0  0  0  0  0
    0.2479    2.6435    4.0570 N   0  0  0  0  0  0  0  0  0  0  0  0
    1.4565    1.9731    3.5405 C   0  0  2  0  0  0  0  0  0  0  0  0
    1.1288    0.9668    2.4160 C   0  0  0  0  0  0  0  0  0  0  0  0
    2.3684    0.2006    1.9240 C   0  0  0  0  0  0  0  0  0  0  0  0
    3.0839   -0.5335    3.0913 C   0  0  0  0  0  0  0  0  0  0  0  0
    3.4729    0.5088    4.1674 C   0  0  0  0  0  0  0  0  0  0  0  0
    2.2419    1.2792    4.6741 C   0  0  0  0  0  0  0  0  0  0  0  0
    4.2761   -1.1851    2.6469 O   0  0  0  0  0  0  0  0  0  0  0  0
    3.8924   -2.2065    1.5998 O   0  0  0  0  0  0  0  0  0  0  0  0
    3.0451   -3.2262    2.1775 C   0  0  1  0  0  0  0  0  0  0  0  0
    1.8576   -2.5660    2.6753 O   0  0  0  0  0  0  0  0  0  0  0  0
    2.2446   -1.5314    3.7009 O   0  0  0  0  0  0  0  0  0  0  0  0
    2.6742   -4.3138    1.0981 C   0  0  0  0  0  0  0  0  0  0  0  0
    3.4803   -4.1900   -0.1745 C   0  0  0  0  0  0  0  0  0  0  0  0
    5.0261   -4.1517    0.1069 C   0  0  0  0  0  0  0  0  0  0  0  0
    5.5548   -4.8469    1.3200 N   0  0  0  0  0  0  0  0  0  0  0  0
    6.9546   -5.2132    1.0477 C   0  0  0  0  0  0  0  0  0  0  0  0
    7.9223   -4.0380    0.9275 C   0  0  0  0  0  0  0  0  0  0  0  0
    8.9445   -3.9953   -0.1941 C   0  0  0  0  0  0  0  0  0  0  0  0
    9.3945   -4.2744    1.2093 C   0  0  0  0  0  0  0  0  0  0  0  0
    5.2754   -4.3744    2.7388 C   0  0  2  0  0  0  0  0  0  0  0  0
    5.8054   -5.3904    3.7882 C   0  0  0  0  0  0  0  0  0  0  0  0
    5.1676   -6.7314    3.5086 C   0  0  0  0  0  0  0  0  0  0  0  0
    5.9664   -7.8852    3.3831 C   0  0  0  0  0  0  0  0  0  0  0  0
    5.3919   -9.0802    2.9150 C   0  0  0  0  0  0  0  0  0  0  0  0
    4.0303   -9.1060    2.5654 C   0  0  0  0  0  0  0  0  0  0  0  0
    3.4506  -10.2334    2.0796 O   0  0  0  0  0  0  0  0  0  0  0  0
    3.2310   -7.9591    2.7245 C   0  0  0  0  0  0  0  0  0  0  0  0
    3.7802   -6.7550    3.2444 C   0  0  0  0  0  0  0  0  0  0  0  0
    2.9434   -5.4687    3.5628 C   0  0  2  0  0  0  0  0  0  0  0  0
    2.4151   -5.6841    5.0240 C   0  0  0  0  0  0  0  0  0  0  0  0
    1.1651   -6.5331    4.8216 C   0  0  0  0  0  0  0  0  0  0  0  0
    0.6442   -7.3876    5.7307 N   0  0  0  0  0  0  0  0  0  0  0  0
   -0.3896   -8.1320    5.2610 C   0  0  0  0  0  0  0  0  0  0  0  0
   -0.8883   -7.9965    3.9345 C   0  0  0  0  0  0  0  0  0  0  0  0
   -0.3691   -7.1101    3.0400 N   0  0  0  0  0  0  0  0  0  0  0  0
    0.6801   -6.4097    3.5279 C   0  0  0  0  0  0  0  0  0  0  0  0
    1.5497   -5.4063    2.8225 C   0  0  2  0  0  0  0  0  0  0  0  0
    1.6155   -5.2562    1.3946 O   0  0  0  0  0  0  0  0  0  0  0  0
    3.7774   -4.1181    3.2213 C   0  0  2  0  0  0  0  0  0  0  0  0
    2.1191    2.7305    3.1103 H   0  0  0  0  0  0  0  0  0  0  0  0
    0.4102    0.2300    2.7717 H   0  0  0  0  0  0  0  0  0  0  0  0
    0.6525    1.4888    1.5795 H   0  0  0  0  0  0  0  0  0  0  0  0
    2.0605   -0.4950    1.1300 H   0  0  0  0  0  0  0  0  0  0  0  0
    3.0531    0.9009    1.4474 H   0  0  0  0  0  0  0  0  0  0  0  0
    3.9701    0.0097    5.0019 H   0  0  0  0  0  0  0  0  0  0  0  0
    4.1916    1.2128    3.7570 H   0  0  0  0  0  0  0  0  0  0  0  0
    2.5540    2.0204    5.4189 H   0  0  0  0  0  0  0  0  0  0  0  0
    1.5984    0.5749    5.1999 H   0  0  0  0  0  0  0  0  0  0  0  0
    3.2603   -5.2068    1.2554 H   0  0  0  0  0  0  0  0  0  0  0  0
    3.2532   -5.0680   -0.7663 H   0  0  0  0  0  0  0  0  0  0  0  0
    3.1647   -3.3242   -0.7568 H   0  0  0  0  0  0  0  0  0  0  0  0
    5.4825   -4.6027   -0.7830 H   0  0  0  0  0  0  0  0  0  0  0  0
    5.3882   -3.1284    0.0924 H   0  0  0  0  0  0  0  0  0  0  0  0
    7.3360   -5.9004    1.7966 H   0  0  0  0  0  0  0  0  0  0  0  0
    6.9932   -5.7871    0.1228 H   0  0  0  0  0  0  0  0  0  0  0  0
    7.5389   -3.0765    1.2764 H   0  0  0  0  0  0  0  0  0  0  0  0
    9.0151   -4.8233   -0.8931 H   0  0  0  0  0  0  0  0  0  0  0  0
    9.2109   -3.0239   -0.5935 H   0  0  0  0  0  0  0  0  0  0  0  0
    9.9672   -3.4748    1.6730 H   0  0  0  0  0  0  0  0  0  0  0  0
    9.7157   -5.2910    1.4499 H   0  0  0  0  0  0  0  0  0  0  0  0
    5.8168   -3.4329    2.8720 H   0  0  0  0  0  0  0  0  0  0  0  0
    6.8906   -5.4711    3.8019 H   0  0  0  0  0  0  0  0  0  0  0  0
    5.5248   -5.0893    4.7969 H   0  0  0  0  0  0  0  0  0  0  0  0
    7.0252   -7.8541    3.6054 H   0  0  0  0  0  0  0  0  0  0  0  0
    5.9960   -9.9672    2.8013 H   0  0  0  0  0  0  0  0  0  0  0  0
    4.0060  -10.8425    1.5811 H   0  0  0  0  0  0  0  0  0  0  0  0
    2.1993   -8.0404    2.4300 H   0  0  0  0  0  0  0  0  0  0  0  0
    3.1444   -6.1338    5.6997 H   0  0  0  0  0  0  0  0  0  0  0  0
    2.0852   -4.7436    5.4567 H   0  0  0  0  0  0  0  0  0  0  0  0
   -0.8543   -8.8262    5.9447 H   0  0  0  0  0  0  0  0  0  0  0  0
   -1.7259   -8.5943    3.6094 H   0  0  0  0  0  0  0  0  0  0  0  0
    1.0003   -4.5349    3.1517 H   0  0  0  0  0  0  0  0  0  0  0  0
    3.8450   -3.5415    4.1446 H   0  0  0  0  0  0  0  0  0  0  0  0
  1  2  2  0
  2  3  2  0
  3  4  1  0
  4  9  1  0
  4  5  1  0
  4 43  1  6
  5  6  1  0
  5 44  1  0
  5 45  1  0
  6  7  1  0
  6 46  1  0
  6 47  1  0
  7 14  1  0
  7  8  1  0
  7 10  1  0
  8  9  1  0
  8 48  1  0
  8 49  1  0
  9 50  1  0
  9 51  1  0
 10 11  1  0
 12 11  1  6
 12 42  1  0
 12 13  1  0
 12 15  1  0
 13 14  1  0
 15 41  1  0
 15 16  1  0
 15 52  1  0
 16 17  1  0
 16 53  1  0
 16 54  1  0
 17 18  1  0
 17 55  1  0
 17 56  1  0
 18 19  1  0
 18 23  1  0
 19 20  1  0
 19 57  1  0
 19 58  1  0
 20 22  1  0
 20 21  1  0
 20 59  1  0
 21 22  1  0
 21 60  1  0
 21 61  1  0
 22 62  1  0
 22 63  1  0
 23 42  1  0
 23 24  1  0
 23 64  1  1
 24 25  1  0
 24 65  1  0
 24 66  1  0
 25 31  2  0
 25 26  1  0
 26 27  2  0
 26 67  1  0
 27 28  1  0
 27 68  1  0
 28 29  1  0
 28 30  2  0
 29 69  1  0
 30 31  1  0
 30 70  1  0
 31 32  1  0
 32 40  1  0
 32 33  1  1
 32 42  1  0
 33 34  1  0
 33 71  1  0
 33 72  1  0
 34 39  2  0
 34 35  1  0
 35 36  2  0
 36 37  1  0
 36 73  1  0
 37 38  2  0
 37 74  1  0
 38 39  1  0
 39 40  1  0
 40 41  1  0
 40 75  1  1
 42 76  1  1
M  CHG  2   1  -1   2   1
M  END
>  <i_m_ct_stereo_status>  (257) 
1

>  <s_m_source_file>  (257) 
/var/tmp/pbs.5083856.sched01/tmpajd0ugep/100oyr4iqks.sdf

>  <i_m_source_file_index>  (257) 
5

>  <i_lp_mmshare_version>  (257) 
48012

>  <i_f3d_flags>  (257) 
0

>  <s_epik_input>  (257) 
W04tXT1bTitdPU5bQ0hdKFtDSDJdW0NIMl0xKVtDSDJdW0NIMl1bQ0BAXTEyT09DMyhPTzIpW0NAQEhdNFtDSDJdW0NIMl1OKFtDSDJdW0NIXTVbQ0gyXVtDSDJdNSlbQ0BIXTZbQ0BASF0zW0NAXTcoYzhjKFtDSDJdNilbY0hdW2NIXWMoW09IXSlbY0hdOClbQ0BASF0oTzQpYzljKFtDSDJdNyluW2NIXVtjSF1uOQ==

>  <s_epik_cmdline>  (257) 
J2VwaWtfcHl0aG9uJywgJy1waHQnLCAnMi4wJywgJy1waCcsICc3LjAnLCAnLXRuJywgJzgnLCAnLW1hJywgJzIwMCcsICctaW1hZScsICc8aW5maWxlLm1hZT4nLCAnLW9tYWUnLCAnPG91dGZpbGUubWFlPic=

>  <r_lp_tautomer_probability>  (257) 
1

>  <r_epik_Ionization_Penalty>  (257) 
0.574469

>  <r_epik_Ionization_Penalty_Charging>  (257) 
0

>  <r_epik_Ionization_Penalty_Neutral>  (257) 
0.574469

>  <r_epik_State_Penalty>  (257) 
0.586243

>  <r_epik_Charging_Adjusted_Penalty>  (257) 
0.586243

>  <i_epik_Tot_Q>  (257) 
0

>  <i_epik_Tot_abs_Q>  (257) 
2

>  <s_lp_Force_Field>  (257) 
OPLS3e

>  <r_lp_Energy>  (257) 
132.398

>  <b_lp_Chiralities_Consistent>  (257) 
1

>  <s_lp_Variant>  (257) 
73:0-2

>  <s_i_glide_gridfile>  (257) 
pfpi4k_grid

>  <i_i_glide_lignum>  (257) 
5

>  <i_i_glide_rotatable_bonds>  (257) 
4

>  <r_i_docking_score>  (257) 
-3.10027

>  <r_i_glide_ligand_efficiency>  (257) 
-0.0738159

>  <r_i_glide_ligand_efficiency_sa>  (257) 
-0.256586

>  <r_i_glide_ligand_efficiency_ln>  (257) 
-0.654387

>  <r_i_glide_gscore>  (257) 
-3.10027

>  <r_i_glide_lipo>  (257) 
-0.31216

>  <r_i_glide_hbond>  (257) 
-0.285538

>  <r_i_glide_metal>  (257) 
-0

>  <r_i_glide_rewards>  (257) 
0

>  <r_i_glide_evdw>  (257) 
-29.4682

>  <r_i_glide_ecoul>  (257) 
-6.96071

>  <r_i_glide_erotb>  (257) 
0.0952704

>  <r_i_glide_esite>  (257) 
-0.0803216

>  <r_i_glide_emodel>  (257) 
-40.8737

>  <r_i_glide_energy>  (257) 
-36.4289

>  <r_i_glide_einternal>  (257) 
4.44351

>  <r_i_glide_intrahb_reward>  (257) 
-0

>  <i_i_glide_confnum>  (257) 
3

>  <i_i_glide_posenum>  (257) 
17

>  <r_i_glide_eff_state_penalty>  (257) 
0

>  <ligand_id>  (257) 
73

>  <original_smiles>  (257) 
[N-]=[N+]=NC1CCC2(CC1)OOC1(OO2)C2CCN(CC3CC3)C3Cc4ccc(O)cc4C4(Cc5nccnc5C4O2)C31

>  <smiles>  (257) 
[H]Oc1c([H])c([H])c2c(c1[H])C13C([H])([H])c4nc([H])c([H])nc4C1([H])OC1([H])C([H])([H])C([H])([H])N(C([H])([H])C4([H])C([H])([H])C4([H])[H])C([H])(C2([H])[H])C3([H])C12OOC1(OO2)C([H])([H])C([H])([H])C([H])(N=[N+]=[N-])C([H])([H])C1([H])[H]

$$$$
73:1:1
     RDKit          3D

 76 84  0  0  1  0  0  0  0  0999 V2000
   10.2519   -2.6566    0.8810 N   0  0  0  0  0  0  0  0  0  0  0  0
    9.2946   -2.3338    0.3706 N   0  0  0  0  0  0  0  0  0  0  0  0
    8.3660   -1.7777   -0.2461 N   0  0  0  0  0  0  0  0  0  0  0  0
    6.9810   -2.2135   -0.1611 C   0  0  2  0  0  0  0  0  0  0  0  0
    6.5662   -2.3760    1.2917 C   0  0  0  0  0  0  0  0  0  0  0  0
    5.2040   -3.0260    1.4750 C   0  0  0  0  0  0  0  0  0  0  0  0
    5.1717   -4.3897    0.7167 C   0  0  0  0  0  0  0  0  0  0  0  0
    5.4679   -4.1504   -0.7702 C   0  0  0  0  0  0  0  0  0  0  0  0
    6.8444   -3.5000   -0.9635 C   0  0  0  0  0  0  0  0  0  0  0  0
    3.9078   -4.9863    0.7975 O   0  0  0  0  0  0  0  0  0  0  0  0
    3.5992   -5.1619    2.2491 O   0  0  0  0  0  0  0  0  0  0  0  0
    4.4794   -6.1306    2.8225 C   0  0  1  0  0  0  0  0  0  0  0  0
    5.7916   -5.5826    2.6813 O   0  0  0  0  0  0  0  0  0  0  0  0
    6.1140   -5.3214    1.2197 O   0  0  0  0  0  0  0  0  0  0  0  0
    4.1406   -6.4262    4.3307 C   0  0  2  0  0  0  0  0  0  0  0  0
    2.8187   -5.8478    4.7802 C   0  0  0  0  0  0  0  0  0  0  0  0
    1.6686   -6.2929    3.8148 C   0  0  0  0  0  0  0  0  0  0  0  0
    1.7655   -7.6321    3.1446 N   0  0  0  0  0  0  0  0  0  0  0  0
    0.4037   -8.0822    2.8122 C   0  0  0  0  0  0  0  0  0  0  0  0
   -0.5220   -8.1245    4.0256 C   0  0  0  0  0  0  0  0  0  0  0  0
   -1.9851   -8.4719    3.8841 C   0  0  0  0  0  0  0  0  0  0  0  0
   -1.5777   -7.0687    4.2407 C   0  0  0  0  0  0  0  0  0  0  0  0
    2.7610   -7.8582    2.0076 C   0  0  2  0  0  0  0  0  0  0  0  0
    2.7768   -9.3480    1.5734 C   0  0  0  0  0  0  0  0  0  0  0  0
    3.0643  -10.1635    2.7982 C   0  0  0  0  0  0  0  0  0  0  0  0
    2.1914  -11.2160    3.1603 C   0  0  0  0  0  0  0  0  0  0  0  0
    2.3274  -11.8121    4.4089 C   0  0  0  0  0  0  0  0  0  0  0  0
    3.3260  -11.3723    5.2709 C   0  0  0  0  0  0  0  0  0  0  0  0
    3.4687  -11.8934    6.4873 O   0  0  0  0  0  0  0  0  0  0  0  0
    4.2219  -10.3520    4.9130 C   0  0  0  0  0  0  0  0  0  0  0  0
    4.1086   -9.7515    3.6433 C   0  0  0  0  0  0  0  0  0  0  0  0
    5.0915   -8.6649    3.1366 C   0  0  2  0  0  0  0  0  0  0  0  0
    6.2675   -9.4963    2.5058 C   0  0  0  0  0  0  0  0  0  0  0  0
    7.1561   -9.8095    3.6984 C   0  0  0  0  0  0  0  0  0  0  0  0
    7.9886  -10.8798    3.7739 N   0  0  0  0  0  0  0  0  0  0  0  0
    8.5715  -11.0190    4.9880 C   0  0  0  0  0  0  0  0  0  0  0  0
    8.3066  -10.1360    6.0740 C   0  0  0  0  0  0  0  0  0  0  0  0
    7.4693   -9.0729    5.9798 N   0  0  0  0  0  0  0  0  0  0  0  0
    6.9177   -8.9426    4.7468 C   0  0  0  0  0  0  0  0  0  0  0  0
    5.8922   -7.9344    4.2927 C   0  0  2  0  0  0  0  0  0  0  0  0
    5.1874   -6.9970    5.1451 O   0  0  0  0  0  0  0  0  0  0  0  0
    4.3158   -7.5562    2.2375 C   0  0  2  0  0  0  0  0  0  0  0  0
    6.3021   -1.4763   -0.6060 H   0  0  0  0  0  0  0  0  0  0  0  0
    7.2640   -3.0863    1.7110 H   0  0  0  0  0  0  0  0  0  0  0  0
    6.6266   -1.4165    1.8181 H   0  0  0  0  0  0  0  0  0  0  0  0
    5.0189   -3.1075    2.5546 H   0  0  0  0  0  0  0  0  0  0  0  0
    4.4487   -2.3475    1.0724 H   0  0  0  0  0  0  0  0  0  0  0  0
    5.3893   -5.0902   -1.3181 H   0  0  0  0  0  0  0  0  0  0  0  0
    4.7162   -3.4910   -1.2044 H   0  0  0  0  0  0  0  0  0  0  0  0
    7.0462   -3.3048   -2.0184 H   0  0  0  0  0  0  0  0  0  0  0  0
    7.6135   -4.1941   -0.6334 H   0  0  0  0  0  0  0  0  0  0  0  0
    3.6587   -7.3896    4.4551 H   0  0  0  0  0  0  0  0  0  0  0  0
    2.6006   -6.1856    5.7897 H   0  0  0  0  0  0  0  0  0  0  0  0
    2.8650   -4.7632    4.8366 H   0  0  0  0  0  0  0  0  0  0  0  0
    0.8120   -6.2110    4.4807 H   0  0  0  0  0  0  0  0  0  0  0  0
    1.4584   -5.5447    3.0594 H   0  0  0  0  0  0  0  0  0  0  0  0
   -0.0329   -7.4557    2.0390 H   0  0  0  0  0  0  0  0  0  0  0  0
    0.4148   -9.1003    2.4375 H   0  0  0  0  0  0  0  0  0  0  0  0
   -0.0578   -8.5356    4.9184 H   0  0  0  0  0  0  0  0  0  0  0  0
   -2.4002   -8.6378    2.8906 H   0  0  0  0  0  0  0  0  0  0  0  0
   -2.4385   -9.0437    4.6789 H   0  0  0  0  0  0  0  0  0  0  0  0
   -1.7363   -6.7237    5.2616 H   0  0  0  0  0  0  0  0  0  0  0  0
   -1.6932   -6.3047    3.4783 H   0  0  0  0  0  0  0  0  0  0  0  0
    2.4429   -7.2556    1.1492 H   0  0  0  0  0  0  0  0  0  0  0  0
    1.8574   -9.6811    1.1100 H   0  0  0  0  0  0  0  0  0  0  0  0
    3.5616   -9.5552    0.8473 H   0  0  0  0  0  0  0  0  0  0  0  0
    1.3912  -11.5712    2.5182 H   0  0  0  0  0  0  0  0  0  0  0  0
    1.6593  -12.6098    4.7071 H   0  0  0  0  0  0  0  0  0  0  0  0
    2.6424  -12.2557    6.8461 H   0  0  0  0  0  0  0  0  0  0  0  0
    4.9319  -10.0705    5.6720 H   0  0  0  0  0  0  0  0  0  0  0  0
    5.9604  -10.3807    1.9413 H   0  0  0  0  0  0  0  0  0  0  0  0
    6.8716   -8.8653    1.8629 H   0  0  0  0  0  0  0  0  0  0  0  0
    9.2643  -11.8391    5.1147 H   0  0  0  0  0  0  0  0  0  0  0  0
    8.7875  -10.2875    7.0278 H   0  0  0  0  0  0  0  0  0  0  0  0
    6.6096   -7.2789    3.8240 H   0  0  0  0  0  0  0  0  0  0  0  0
    4.7968   -7.5590    1.2592 H   0  0  0  0  0  0  0  0  0  0  0  0
  1  2  2  0
  2  3  2  0
  3  4  1  0
  4  9  1  0
  4  5  1  0
  4 43  1  6
  5  6  1  0
  5 44  1  0
  5 45  1  0
  6  7  1  0
  6 46  1  0
  6 47  1  0
  7 14  1  0
  7  8  1  0
  7 10  1  0
  8  9  1  0
  8 48  1  0
  8 49  1  0
  9 50  1  0
  9 51  1  0
 10 11  1  0
 12 11  1  6
 12 42  1  0
 12 13  1  0
 12 15  1  0
 13 14  1  0
 15 41  1  0
 15 16  1  0
 15 52  1  6
 16 17  1  0
 16 53  1  0
 16 54  1  0
 17 18  1  0
 17 55  1  0
 17 56  1  0
 18 19  1  0
 18 23  1  0
 19 20  1  0
 19 57  1  0
 19 58  1  0
 20 22  1  0
 20 21  1  0
 20 59  1  0
 21 22  1  0
 21 60  1  0
 21 61  1  0
 22 62  1  0
 22 63  1  0
 23 42  1  0
 23 24  1  0
 23 64  1  6
 24 25  1  0
 24 65  1  0
 24 66  1  0
 25 31  2  0
 25 26  1  0
 26 27  2  0
 26 67  1  0
 27 28  1  0
 27 68  1  0
 28 29  1  0
 28 30  2  0
 29 69  1  0
 30 31  1  0
 30 70  1  0
 31 32  1  0
 32 40  1  0
 32 33  1  6
 32 42  1  0
 33 34  1  0
 33 71  1  0
 33 72  1  0
 34 39  2  0
 34 35  1  0
 35 36  2  0
 36 37  1  0
 36 73  1  0
 37 38  2  0
 37 74  1  0
 38 39  1  0
 39 40  1  0
 40 41  1  0
 40 75  1  6
 42 76  1  6
M  CHG  2   1  -1   2   1
M  END
>  <i_m_ct_stereo_status>  (258) 
1

>  <s_m_source_file>  (258) 
/var/tmp/pbs.5083856.sched01/tmpajd0ugep/100oyr4iqks.sdf

>  <i_m_source_file_index>  (258) 
5

>  <i_lp_mmshare_version>  (258) 
48012

>  <i_f3d_flags>  (258) 
0

>  <s_epik_input>  (258) 
W04tXT1bTitdPU5bQ0hdKFtDSDJdW0NIMl0xKVtDSDJdW0NIMl1bQ0BAXTEyT09DMyhPTzIpW0NAQEhdNFtDSDJdW0NIMl1OKFtDSDJdW0NIXTVbQ0gyXVtDSDJdNSlbQ0BIXTZbQ0BASF0zW0NAXTcoYzhjKFtDSDJdNilbY0hdW2NIXWMoW09IXSlbY0hdOClbQ0BASF0oTzQpYzljKFtDSDJdNyluW2NIXVtjSF1uOQ==

>  <s_epik_cmdline>  (258) 
J2VwaWtfcHl0aG9uJywgJy1waHQnLCAnMi4wJywgJy1waCcsICc3LjAnLCAnLXRuJywgJzgnLCAnLW1hJywgJzIwMCcsICctaW1hZScsICc8aW5maWxlLm1hZT4nLCAnLW9tYWUnLCAnPG91dGZpbGUubWFlPic=

>  <r_lp_tautomer_probability>  (258) 
1

>  <r_epik_Ionization_Penalty>  (258) 
0.574469

>  <r_epik_Ionization_Penalty_Charging>  (258) 
0

>  <r_epik_Ionization_Penalty_Neutral>  (258) 
0.574469

>  <r_epik_State_Penalty>  (258) 
0.586243

>  <r_epik_Charging_Adjusted_Penalty>  (258) 
0.586243

>  <i_epik_Tot_Q>  (258) 
0

>  <i_epik_Tot_abs_Q>  (258) 
2

>  <s_lp_Force_Field>  (258) 
OPLS3e

>  <r_lp_Energy>  (258) 
132.398

>  <b_lp_Chiralities_Consistent>  (258) 
1

>  <s_lp_Variant>  (258) 
73:0-2

>  <s_i_glide_gridfile>  (258) 
pfpi4k_grid

>  <i_i_glide_lignum>  (258) 
5

>  <i_i_glide_rotatable_bonds>  (258) 
4

>  <r_i_docking_score>  (258) 
-2.89893

>  <r_i_glide_ligand_efficiency>  (258) 
-0.0690221

>  <r_i_glide_ligand_efficiency_sa>  (258) 
-0.239923

>  <r_i_glide_ligand_efficiency_ln>  (258) 
-0.611889

>  <r_i_glide_gscore>  (258) 
-2.89893

>  <r_i_glide_lipo>  (258) 
-0.394254

>  <r_i_glide_hbond>  (258) 
-0.222661

>  <r_i_glide_metal>  (258) 
-0

>  <r_i_glide_rewards>  (258) 
-0.0673886

>  <r_i_glide_evdw>  (258) 
-20.5024

>  <r_i_glide_ecoul>  (258) 
-7.52428

>  <r_i_glide_erotb>  (258) 
0.0952704

>  <r_i_glide_esite>  (258) 
-0.156132

>  <r_i_glide_emodel>  (258) 
-32.0708

>  <r_i_glide_energy>  (258) 
-28.0267

>  <r_i_glide_einternal>  (258) 
3.24376

>  <r_i_glide_intrahb_reward>  (258) 
-0

>  <i_i_glide_confnum>  (258) 
2

>  <i_i_glide_posenum>  (258) 
4

>  <r_i_glide_eff_state_penalty>  (258) 
0

>  <ligand_id>  (258) 
73

>  <original_smiles>  (258) 
[N-]=[N+]=NC1CCC2(CC1)OOC1(OO2)C2CCN(CC3CC3)C3Cc4ccc(O)cc4C4(Cc5nccnc5C4O2)C31

>  <smiles>  (258) 
[H]Oc1c([H])c([H])c2c(c1[H])C13C([H])([H])c4nc([H])c([H])nc4C1([H])OC1([H])C([H])([H])C([H])([H])N(C([H])([H])C4([H])C([H])([H])C4([H])[H])C([H])(C2([H])[H])C3([H])C12OOC1(OO2)C([H])([H])C([H])([H])C([H])(N=[N+]=[N-])C([H])([H])C1([H])[H]

$$$$
73:1:2
     RDKit          3D

 76 84  0  0  1  0  0  0  0  0999 V2000
   -1.2237    3.0857    3.3273 N   0  0  0  0  0  0  0  0  0  0  0  0
   -0.2166    2.6176    3.5848 N   0  0  0  0  0  0  0  0  0  0  0  0
    0.8049    2.0910    4.0486 N   0  0  0  0  0  0  0  0  0  0  0  0
    1.2135    0.8067    3.4758 C   0  0  2  0  0  0  0  0  0  0  0  0
    0.1698   -0.2800    3.7924 C   0  0  0  0  0  0  0  0  0  0  0  0
    0.5936   -1.6676    3.2964 C   0  0  0  0  0  0  0  0  0  0  0  0
    1.9543   -2.1029    3.8936 C   0  0  0  0  0  0  0  0  0  0  0  0
    3.0066   -1.0298    3.5249 C   0  0  0  0  0  0  0  0  0  0  0  0
    2.5897    0.3703    4.0193 C   0  0  0  0  0  0  0  0  0  0  0  0
    2.3717   -3.3587    3.3678 O   0  0  0  0  0  0  0  0  0  0  0  0
    1.3189   -4.3896    3.7159 O   0  0  0  0  0  0  0  0  0  0  0  0
    1.2450   -4.5527    5.1456 C   0  0  1  0  0  0  0  0  0  0  0  0
    0.8639   -3.2715    5.6876 O   0  0  0  0  0  0  0  0  0  0  0  0
    1.8965   -2.2277    5.3175 O   0  0  0  0  0  0  0  0  0  0  0  0
    0.1938   -5.6620    5.5389 C   0  0  2  0  0  0  0  0  0  0  0  0
   -0.2821   -6.4979    4.3675 C   0  0  0  0  0  0  0  0  0  0  0  0
    0.9317   -7.0807    3.5557 C   0  0  0  0  0  0  0  0  0  0  0  0
    2.2054   -7.3847    4.2800 N   0  0  0  0  0  0  0  0  0  0  0  0
    2.8945   -8.4243    3.4995 C   0  0  0  0  0  0  0  0  0  0  0  0
    2.2450   -9.7877    3.6911 C   0  0  0  0  0  0  0  0  0  0  0  0
    2.7374  -10.9806    2.9009 C   0  0  0  0  0  0  0  0  0  0  0  0
    1.3768  -10.4046    2.6193 C   0  0  0  0  0  0  0  0  0  0  0  0
    3.1189   -6.2874    4.8083 C   0  0  2  0  0  0  0  0  0  0  0  0
    4.2773   -6.8854    5.6603 C   0  0  0  0  0  0  0  0  0  0  0  0
    3.6705   -7.7360    6.7519 C   0  0  0  0  0  0  0  0  0  0  0  0
    4.0979   -9.0672    6.9393 C   0  0  0  0  0  0  0  0  0  0  0  0
    3.3846   -9.9050    7.8150 C   0  0  0  0  0  0  0  0  0  0  0  0
    2.2411   -9.4201    8.4815 C   0  0  0  0  0  0  0  0  0  0  0  0
    1.4942  -10.2561    9.2640 O   0  0  0  0  0  0  0  0  0  0  0  0
    1.8447   -8.0775    8.3147 C   0  0  0  0  0  0  0  0  0  0  0  0
    2.5789   -7.1988    7.4711 C   0  0  0  0  0  0  0  0  0  0  0  0
    2.2729   -5.6731    7.3050 C   0  0  2  0  0  0  0  0  0  0  0  0
    3.0735   -4.9854    8.4719 C   0  0  0  0  0  0  0  0  0  0  0  0
    2.1382   -5.1188    9.6659 C   0  0  0  0  0  0  0  0  0  0  0  0
    2.5234   -5.1529   10.9612 N   0  0  0  0  0  0  0  0  0  0  0  0
    1.5083   -5.4032   11.8333 C   0  0  0  0  0  0  0  0  0  0  0  0
    0.1763   -5.6299   11.4000 C   0  0  0  0  0  0  0  0  0  0  0  0
   -0.1869   -5.6040   10.0890 N   0  0  0  0  0  0  0  0  0  0  0  0
    0.8302   -5.3277    9.2497 C   0  0  0  0  0  0  0  0  0  0  0  0
    0.8103   -5.2518    7.7439 C   0  0  2  0  0  0  0  0  0  0  0  0
   -0.2919   -5.6603    6.8995 O   0  0  0  0  0  0  0  0  0  0  0  0
    2.5297   -5.1678    5.7821 C   0  0  2  0  0  0  0  0  0  0  0  0
    1.3104    0.8934    2.3920 H   0  0  0  0  0  0  0  0  0  0  0  0
    0.0030   -0.3245    4.8691 H   0  0  0  0  0  0  0  0  0  0  0  0
   -0.7897   -0.0292    3.3367 H   0  0  0  0  0  0  0  0  0  0  0  0
   -0.1958   -2.3889    3.5347 H   0  0  0  0  0  0  0  0  0  0  0  0
    0.6491   -1.6439    2.2103 H   0  0  0  0  0  0  0  0  0  0  0  0
    3.9747   -1.3130    3.9407 H   0  0  0  0  0  0  0  0  0  0  0  0
    3.1342   -1.0031    2.4447 H   0  0  0  0  0  0  0  0  0  0  0  0
    3.3536    1.0954    3.7286 H   0  0  0  0  0  0  0  0  0  0  0  0
    2.5723    0.3663    5.1086 H   0  0  0  0  0  0  0  0  0  0  0  0
    0.6903   -6.5694    5.8476 H   0  0  0  0  0  0  0  0  0  0  0  0
   -0.9161   -7.3084    4.7263 H   0  0  0  0  0  0  0  0  0  0  0  0
   -0.9181   -5.9044    3.7218 H   0  0  0  0  0  0  0  0  0  0  0  0
    0.5361   -7.9938    3.1044 H   0  0  0  0  0  0  0  0  0  0  0  0
    1.1567   -6.4618    2.6924 H   0  0  0  0  0  0  0  0  0  0  0  0
    2.9360   -8.1640    2.4425 H   0  0  0  0  0  0  0  0  0  0  0  0
    3.9236   -8.5564    3.8027 H   0  0  0  0  0  0  0  0  0  0  0  0
    1.9869  -10.0114    4.7250 H   0  0  0  0  0  0  0  0  0  0  0  0
    3.4935  -10.8368    2.1327 H   0  0  0  0  0  0  0  0  0  0  0  0
    2.7483  -11.9557    3.3809 H   0  0  0  0  0  0  0  0  0  0  0  0
    0.5132  -10.9742    2.9541 H   0  0  0  0  0  0  0  0  0  0  0  0
    1.2479   -9.8541    1.6889 H   0  0  0  0  0  0  0  0  0  0  0  0
    3.5496   -5.7725    3.9419 H   0  0  0  0  0  0  0  0  0  0  0  0
    5.0072   -7.4459    5.0823 H   0  0  0  0  0  0  0  0  0  0  0  0
    4.8641   -6.0923    6.1257 H   0  0  0  0  0  0  0  0  0  0  0  0
    4.9338   -9.4602    6.3833 H   0  0  0  0  0  0  0  0  0  0  0  0
    3.6821  -10.9365    7.9368 H   0  0  0  0  0  0  0  0  0  0  0  0
    1.4443  -11.1331    8.8625 H   0  0  0  0  0  0  0  0  0  0  0  0
    0.9536   -7.7636    8.8303 H   0  0  0  0  0  0  0  0  0  0  0  0
    4.0644   -5.4042    8.6496 H   0  0  0  0  0  0  0  0  0  0  0  0
    3.1809   -3.9182    8.2935 H   0  0  0  0  0  0  0  0  0  0  0  0
    1.7503   -5.4275   12.8846 H   0  0  0  0  0  0  0  0  0  0  0  0
   -0.6077   -5.8281   12.1156 H   0  0  0  0  0  0  0  0  0  0  0  0
    0.7260   -4.1746    7.6963 H   0  0  0  0  0  0  0  0  0  0  0  0
    3.2749   -4.3680    5.8303 H   0  0  0  0  0  0  0  0  0  0  0  0
  1  2  2  0
  2  3  2  0
  3  4  1  0
  4  9  1  0
  4  5  1  0
  4 43  1  6
  5  6  1  0
  5 44  1  0
  5 45  1  0
  6  7  1  0
  6 46  1  0
  6 47  1  0
  7 14  1  0
  7  8  1  0
  7 10  1  0
  8  9  1  0
  8 48  1  0
  8 49  1  0
  9 50  1  0
  9 51  1  0
 10 11  1  0
 12 11  1  6
 12 42  1  0
 12 13  1  0
 12 15  1  0
 13 14  1  0
 15 41  1  0
 15 16  1  0
 15 52  1  1
 16 17  1  0
 16 53  1  0
 16 54  1  0
 17 18  1  0
 17 55  1  0
 17 56  1  0
 18 19  1  0
 18 23  1  0
 19 20  1  0
 19 57  1  0
 19 58  1  0
 20 22  1  0
 20 21  1  0
 20 59  1  0
 21 22  1  0
 21 60  1  0
 21 61  1  0
 22 62  1  0
 22 63  1  0
 23 42  1  0
 23 24  1  0
 23 64  1  6
 24 25  1  0
 24 65  1  0
 24 66  1  0
 25 31  2  0
 25 26  1  0
 26 27  2  0
 26 67  1  0
 27 28  1  0
 27 68  1  0
 28 29  1  0
 28 30  2  0
 29 69  1  0
 30 31  1  0
 30 70  1  0
 31 32  1  0
 32 40  1  0
 32 33  1  1
 32 42  1  0
 33 34  1  0
 33 71  1  0
 33 72  1  0
 34 39  2  0
 34 35  1  0
 35 36  2  0
 36 37  1  0
 36 73  1  0
 37 38  2  0
 37 74  1  0
 38 39  1  0
 39 40  1  0
 40 41  1  0
 40 75  1  1
 42 76  1  1
M  CHG  2   1  -1   2   1
M  END
>  <i_m_ct_stereo_status>  (259) 
1

>  <s_m_source_file>  (259) 
/var/tmp/pbs.5083856.sched01/tmpajd0ugep/100oyr4iqks.sdf

>  <i_m_source_file_index>  (259) 
5

>  <i_lp_mmshare_version>  (259) 
48012

>  <i_f3d_flags>  (259) 
0

>  <s_epik_input>  (259) 
W04tXT1bTitdPU5bQ0hdKFtDSDJdW0NIMl0xKVtDSDJdW0NIMl1bQ0BAXTEyT09DMyhPTzIpW0NAQEhdNFtDSDJdW0NIMl1OKFtDSDJdW0NIXTVbQ0gyXVtDSDJdNSlbQ0BIXTZbQ0BASF0zW0NAXTcoYzhjKFtDSDJdNilbY0hdW2NIXWMoW09IXSlbY0hdOClbQ0BASF0oTzQpYzljKFtDSDJdNyluW2NIXVtjSF1uOQ==

>  <s_epik_cmdline>  (259) 
J2VwaWtfcHl0aG9uJywgJy1waHQnLCAnMi4wJywgJy1waCcsICc3LjAnLCAnLXRuJywgJzgnLCAnLW1hJywgJzIwMCcsICctaW1hZScsICc8aW5maWxlLm1hZT4nLCAnLW9tYWUnLCAnPG91dGZpbGUubWFlPic=

>  <r_lp_tautomer_probability>  (259) 
1

>  <r_epik_Ionization_Penalty>  (259) 
0.574469

>  <r_epik_Ionization_Penalty_Charging>  (259) 
0

>  <r_epik_Ionization_Penalty_Neutral>  (259) 
0.574469

>  <r_epik_State_Penalty>  (259) 
0.586243

>  <r_epik_Charging_Adjusted_Penalty>  (259) 
0.586243

>  <i_epik_Tot_Q>  (259) 
0

>  <i_epik_Tot_abs_Q>  (259) 
2

>  <s_lp_Force_Field>  (259) 
OPLS3e

>  <r_lp_Energy>  (259) 
132.398

>  <b_lp_Chiralities_Consistent>  (259) 
1

>  <s_lp_Variant>  (259) 
73:0-2

>  <s_i_glide_gridfile>  (259) 
pfpi4k_grid

>  <i_i_glide_lignum>  (259) 
5

>  <i_i_glide_rotatable_bonds>  (259) 
4

>  <r_i_docking_score>  (259) 
-2.89792

>  <r_i_glide_ligand_efficiency>  (259) 
-0.0689982

>  <r_i_glide_ligand_efficiency_sa>  (259) 
-0.23984

>  <r_i_glide_ligand_efficiency_ln>  (259) 
-0.611677

>  <r_i_glide_gscore>  (259) 
-2.89792

>  <r_i_glide_lipo>  (259) 
-0.155435

>  <r_i_glide_hbond>  (259) 
-0.319424

>  <r_i_glide_metal>  (259) 
-0

>  <r_i_glide_rewards>  (259) 
-0.00555719

>  <r_i_glide_evdw>  (259) 
-21.7748

>  <r_i_glide_ecoul>  (259) 
-8.50943

>  <r_i_glide_erotb>  (259) 
0.0952704

>  <r_i_glide_esite>  (259) 
-0.147623

>  <r_i_glide_emodel>  (259) 
-35.0893

>  <r_i_glide_energy>  (259) 
-30.2842

>  <r_i_glide_einternal>  (259) 
2.49969

>  <r_i_glide_intrahb_reward>  (259) 
-0

>  <i_i_glide_confnum>  (259) 
2

>  <i_i_glide_posenum>  (259) 
28

>  <r_i_glide_eff_state_penalty>  (259) 
0

>  <ligand_id>  (259) 
73

>  <original_smiles>  (259) 
[N-]=[N+]=NC1CCC2(CC1)OOC1(OO2)C2CCN(CC3CC3)C3Cc4ccc(O)cc4C4(Cc5nccnc5C4O2)C31

>  <smiles>  (259) 
[H]Oc1c([H])c([H])c2c(c1[H])C13C([H])([H])c4nc([H])c([H])nc4C1([H])OC1([H])C([H])([H])C([H])([H])N(C([H])([H])C4([H])C([H])([H])C4([H])[H])C([H])(C2([H])[H])C3([H])C12OOC1(OO2)C([H])([H])C([H])([H])C([H])(N=[N+]=[N-])C([H])([H])C1([H])[H]

$$$$
74:0:0
     RDKit          3D

 63 69  0  0  1  0  0  0  0  0999 V2000
    1.8438   -2.5502    2.9411 C   0  0  0  0  0  0  0  0  0  0  0  0
    2.1953   -3.8286    3.7328 C   0  0  2  0  0  0  0  0  0  0  0  0
    3.7512   -3.9097    4.1004 C   0  0  0  0  0  0  0  0  0  0  0  0
    4.7019   -4.8500    3.2661 C   0  0  2  0  0  0  0  0  0  0  0  0
    3.9940   -4.9845    1.8861 C   0  0  1  0  0  0  0  0  0  0  0  0
    4.8632   -5.5602    0.7373 C   0  0  0  0  0  0  0  0  0  0  0  0
    6.3793   -4.6048    0.4845 S   0  0  0  0  0  0  0  0  0  0  0  0
    5.8090   -3.0750   -0.1431 C   0  0  0  0  0  0  0  0  0  0  0  0
    5.8198   -1.8566    0.4634 C   0  0  0  0  0  0  0  0  0  0  0  0
    5.2205   -0.9013   -0.3718 N   0  0  0  0  0  0  0  0  0  0  0  0
    4.8387   -1.5315   -1.4703 C   0  0  0  0  0  0  0  0  0  0  0  0
    4.1803   -1.1182   -2.6691 C   0  0  0  0  0  0  0  0  0  0  0  0
    3.9386   -1.9391   -3.6372 N   0  0  0  0  0  0  0  0  0  0  0  0
    4.2861   -3.2596   -3.4847 C   0  0  0  0  0  0  0  0  0  0  0  0
    4.9241   -3.7658   -2.3858 C   0  0  0  0  0  0  0  0  0  0  0  0
    5.1922   -2.9003   -1.3832 N   0  0  0  0  0  0  0  0  0  0  0  0
    2.5991   -5.7143    2.0373 C   0  0  2  0  0  0  0  0  0  0  0  0
    1.5252   -5.1005    3.0828 C   0  0  1  0  0  0  0  0  0  0  0  0
    0.9363   -6.1788    4.1474 C   0  0  1  0  0  0  0  0  0  0  0  0
    0.5432   -7.6705    3.6663 C   0  0  0  0  0  0  0  0  0  0  0  0
    1.6285   -8.8723    3.4343 C   0  0  0  0  0  0  0  0  0  0  0  0
    3.0309   -8.5770    2.6744 C   0  0  2  0  0  0  0  0  0  0  0  0
    3.2300   -9.6450    1.5848 C   0  0  0  0  0  0  0  0  0  0  0  0
    4.3641   -8.6311    3.3468 O   0  0  0  0  0  0  0  0  0  0  0  0
    5.3218   -7.3788    3.0613 O   0  0  0  0  0  0  0  0  0  0  0  0
    5.1878   -6.2209    3.9943 C   0  0  1  0  0  0  0  0  0  0  0  0
    6.5817   -6.0293    4.6142 C   0  0  0  0  0  0  0  0  0  0  0  0
    4.3278   -6.4592    5.1288 O   0  0  0  0  0  0  0  0  0  0  0  0
    3.1201   -6.9850    4.7240 C   0  0  1  0  0  0  0  0  0  0  0  0
    1.8998   -6.3139    5.3381 C   0  0  0  0  0  0  0  0  0  0  0  0
    3.0470   -6.7444    3.3019 O   0  0  0  0  0  0  0  0  0  0  0  0
    2.7499   -7.2745    1.9874 C   0  0  0  0  0  0  0  0  0  0  0  0
    2.1831   -2.5865    1.9084 H   0  0  0  0  0  0  0  0  0  0  0  0
    2.2763   -1.6616    3.4023 H   0  0  0  0  0  0  0  0  0  0  0  0
    0.7641   -2.3942    2.9113 H   0  0  0  0  0  0  0  0  0  0  0  0
    1.6773   -3.6406    4.6716 H   0  0  0  0  0  0  0  0  0  0  0  0
    4.1550   -2.9020    3.9938 H   0  0  0  0  0  0  0  0  0  0  0  0
    3.8737   -4.1211    5.1617 H   0  0  0  0  0  0  0  0  0  0  0  0
    5.6073   -4.2760    3.0925 H   0  0  0  0  0  0  0  0  0  0  0  0
    3.7782   -3.9715    1.5511 H   0  0  0  0  0  0  0  0  0  0  0  0
    5.1362   -6.6037    0.8614 H   0  0  0  0  0  0  0  0  0  0  0  0
    4.2980   -5.5122   -0.1942 H   0  0  0  0  0  0  0  0  0  0  0  0
    6.1935   -1.5780    1.4445 H   0  0  0  0  0  0  0  0  0  0  0  0
    3.9030   -0.0783   -2.7527 H   0  0  0  0  0  0  0  0  0  0  0  0
    4.0183   -3.9102   -4.3154 H   0  0  0  0  0  0  0  0  0  0  0  0
    5.1741   -4.8187   -2.2718 H   0  0  0  0  0  0  0  0  0  0  0  0
    2.1383   -5.4883    1.0715 H   0  0  0  0  0  0  0  0  0  0  0  0
    0.6578   -4.7741    2.5179 H   0  0  0  0  0  0  0  0  0  0  0  0
    0.0234   -5.7338    4.5374 H   0  0  0  0  0  0  0  0  0  0  0  0
   -0.1576   -8.0606    4.4076 H   0  0  0  0  0  0  0  0  0  0  0  0
   -0.0687   -7.5776    2.7687 H   0  0  0  0  0  0  0  0  0  0  0  0
    1.8125   -9.4105    4.3639 H   0  0  0  0  0  0  0  0  0  0  0  0
    1.0894   -9.6196    2.8497 H   0  0  0  0  0  0  0  0  0  0  0  0
    2.3739   -9.7126    0.9128 H   0  0  0  0  0  0  0  0  0  0  0  0
    3.3815  -10.6334    2.0216 H   0  0  0  0  0  0  0  0  0  0  0  0
    4.1005   -9.4299    0.9632 H   0  0  0  0  0  0  0  0  0  0  0  0
    6.8938   -6.9142    5.1720 H   0  0  0  0  0  0  0  0  0  0  0  0
    6.5894   -5.1893    5.3113 H   0  0  0  0  0  0  0  0  0  0  0  0
    7.3490   -5.8401    3.8595 H   0  0  0  0  0  0  0  0  0  0  0  0
    3.1793   -7.9984    5.1190 H   0  0  0  0  0  0  0  0  0  0  0  0
    2.1588   -5.3799    5.8340 H   0  0  0  0  0  0  0  0  0  0  0  0
    1.4807   -6.9621    6.1111 H   0  0  0  0  0  0  0  0  0  0  0  0
    1.7636   -7.4650    1.5697 H   0  0  0  0  0  0  0  0  0  0  0  0
  1  2  1  0
  1 33  1  0
  1 34  1  0
  1 35  1  0
  2 18  1  0
  2  3  1  0
  2 36  1  1
  3  4  1  0
  3 37  1  0
  3 38  1  0
  4 26  1  0
  4  5  1  0
  4 39  1  6
  5  6  1  0
  5 17  1  0
  5 40  1  6
  6  7  1  0
  6 41  1  0
  6 42  1  0
  7  8  1  0
  8 16  1  0
  8  9  2  0
  9 10  1  0
  9 43  1  0
 10 11  2  0
 11 16  1  0
 11 12  1  0
 12 13  2  0
 12 44  1  0
 13 14  1  0
 14 15  2  0
 14 45  1  0
 15 16  1  0
 15 46  1  0
 17 32  1  0
 17 18  1  0
 17 47  1  6
 18 19  1  0
 18 48  1  6
 19 30  1  0
 19 20  1  0
 19 49  1  1
 20 21  1  0
 20 50  1  0
 20 51  1  0
 21 22  1  0
 21 52  1  0
 21 53  1  0
 22 32  1  0
 22 23  1  6
 22 24  1  0
 23 54  1  0
 23 55  1  0
 23 56  1  0
 24 25  1  0
 25 26  1  0
 26 27  1  1
 26 28  1  0
 27 57  1  0
 27 58  1  0
 27 59  1  0
 28 29  1  0
 29 30  1  0
 29 31  1  0
 29 60  1  6
 30 61  1  0
 30 62  1  0
 31 32  1  0
 32 63  1  0
M  END
>  <i_m_ct_stereo_status>  (260) 
1

>  <s_m_source_file>  (260) 
/var/tmp/pbs.5083856.sched01/tmp4aac__3h/1058c4mwpoo.sdf

>  <i_m_source_file_index>  (260) 
1

>  <i_lp_mmshare_version>  (260) 
48012

>  <i_f3d_flags>  (260) 
0

>  <s_epik_input>  (260) 
W2NIXTFuW2NIXVtjSF1uKGMxMiljKFtjSF1uMilTW0NIMl1bQ0BASF0zW0NAQEhdKFtDSDJdW0NASF00W0NIM10pW0NAQF0oT081KShbQ0gzXSlPW0NASF0oTzYpW0NIMl1bQ0BIXShbQ0gyXVtDSDJdNylbQ0BASF00W0NAQEhdM1tDSF02W0NAQF01N1tDSDNd

>  <s_epik_cmdline>  (260) 
J2VwaWtfcHl0aG9uJywgJy1waHQnLCAnMi4wJywgJy1waCcsICc3LjAnLCAnLXRuJywgJzgnLCAnLW1hJywgJzIwMCcsICctaW1hZScsICc8aW5maWxlLm1hZT4nLCAnLW9tYWUnLCAnPG91dGZpbGUubWFlPic=

>  <r_lp_tautomer_probability>  (260) 
1

>  <r_epik_Ionization_Penalty>  (260) 
0.000165799

>  <r_epik_Ionization_Penalty_Charging>  (260) 
0.000158808

>  <r_epik_Ionization_Penalty_Neutral>  (260) 
6.99103e-06

>  <r_epik_State_Penalty>  (260) 
-0

>  <r_epik_Charging_Adjusted_Penalty>  (260) 
0.000158808

>  <i_epik_Tot_Q>  (260) 
0

>  <i_epik_Tot_abs_Q>  (260) 
0

>  <s_epik_Chemistry_Notes>  (260) 
This compound contains an acetal/aminal-like group ( X-CH(R)-Y where X, Y are N, S, or O) that may be acid/base labile, releasing an aldehyde.

>  <s_lp_Force_Field>  (260) 
OPLS3e

>  <r_lp_Energy>  (260) 
315.508

>  <b_lp_Chiralities_Consistent>  (260) 
1

>  <s_lp_Variant>  (260) 
74:0-1

>  <s_i_glide_gridfile>  (260) 
pfpi4k_grid

>  <i_i_glide_lignum>  (260) 
1

>  <i_i_glide_rotatable_bonds>  (260) 
3

>  <r_i_docking_score>  (260) 
-2.39616

>  <r_i_glide_ligand_efficiency>  (260) 
-0.0748801

>  <r_i_glide_ligand_efficiency_sa>  (260) 
-0.237729

>  <r_i_glide_ligand_efficiency_ln>  (260) 
-0.536566

>  <r_i_glide_gscore>  (260) 
-2.39616

>  <r_i_glide_lipo>  (260) 
-0.531077

>  <r_i_glide_hbond>  (260) 
0

>  <r_i_glide_metal>  (260) 
-0

>  <r_i_glide_rewards>  (260) 
-0.311953

>  <r_i_glide_evdw>  (260) 
-30.2726

>  <r_i_glide_ecoul>  (260) 
-1.90446

>  <r_i_glide_erotb>  (260) 
0.288072

>  <r_i_glide_esite>  (260) 
-0.0419063

>  <r_i_glide_emodel>  (260) 
-36.8628

>  <r_i_glide_energy>  (260) 
-32.177

>  <r_i_glide_einternal>  (260) 
1.59969

>  <r_i_glide_intrahb_reward>  (260) 
-0

>  <i_i_glide_confnum>  (260) 
2

>  <i_i_glide_posenum>  (260) 
34

>  <r_i_glide_eff_state_penalty>  (260) 
0

>  <ligand_id>  (260) 
74

>  <original_smiles>  (260) 
CC1CC2C(CSc3cnc4cnccn34)C3C1C1CCC4(C)OOC2(C)OC(C1)OC34

>  <smiles>  (260) 
[H]c1nc([H])c2nc([H])c(SC([H])([H])C3([H])C4([H])C([H])([H])C([H])(C([H])([H])[H])C5([H])C6([H])C([H])([H])C7([H])OC([H])(C35[H])C(C([H])([H])[H])(OOC4(C([H])([H])[H])O7)C([H])([H])C6([H])[H])n2c1[H]

$$$$
74:0:1
     RDKit          3D

 63 69  0  0  1  0  0  0  0  0999 V2000
    4.6973   -7.7645    6.1328 C   0  0  0  0  0  0  0  0  0  0  0  0
    4.0780   -8.2143    4.7937 C   0  0  2  0  0  0  0  0  0  0  0  0
    4.2969   -7.1358    3.6270 C   0  0  0  0  0  0  0  0  0  0  0  0
    3.1223   -6.1715    3.2031 C   0  0  2  0  0  0  0  0  0  0  0  0
    2.2308   -6.1052    4.4734 C   0  0  1  0  0  0  0  0  0  0  0  0
    1.1898   -4.9716    4.5044 C   0  0  0  0  0  0  0  0  0  0  0  0
    1.8579   -3.3135    4.1863 S   0  0  0  0  0  0  0  0  0  0  0  0
    0.5113   -2.2780    4.6581 C   0  0  0  0  0  0  0  0  0  0  0  0
   -0.4512   -2.5301    5.5953 C   0  0  0  0  0  0  0  0  0  0  0  0
   -1.3673   -1.4895    5.6826 N   0  0  0  0  0  0  0  0  0  0  0  0
   -0.9492   -0.5875    4.7995 C   0  0  0  0  0  0  0  0  0  0  0  0
   -1.4520    0.6882    4.4342 C   0  0  0  0  0  0  0  0  0  0  0  0
   -0.8943    1.4180    3.5135 N   0  0  0  0  0  0  0  0  0  0  0  0
    0.2215    0.9362    2.8768 C   0  0  0  0  0  0  0  0  0  0  0  0
    0.8041   -0.2757    3.1559 C   0  0  0  0  0  0  0  0  0  0  0  0
    0.2132   -1.0327    4.1241 N   0  0  0  0  0  0  0  0  0  0  0  0
    1.6034   -7.5202    4.8213 C   0  0  2  0  0  0  0  0  0  0  0  0
    2.6158   -8.7694    5.0168 C   0  0  1  0  0  0  0  0  0  0  0  0
    2.2469  -10.0742    4.1126 C   0  0  1  0  0  0  0  0  0  0  0  0
    0.7071  -10.5473    3.9439 C   0  0  0  0  0  0  0  0  0  0  0  0
   -0.3618   -9.8489    2.9149 C   0  0  0  0  0  0  0  0  0  0  0  0
   -0.4389   -8.2285    2.7763 C   0  0  2  0  0  0  0  0  0  0  0  0
   -1.9127   -7.8032    2.9126 C   0  0  0  0  0  0  0  0  0  0  0  0
   -0.0566   -7.4616    1.5399 O   0  0  0  0  0  0  0  0  0  0  0  0
    0.9096   -6.2145    1.7929 O   0  0  0  0  0  0  0  0  0  0  0  0
    2.3841   -6.4980    1.7888 C   0  0  1  0  0  0  0  0  0  0  0  0
    2.9624   -5.6117    0.6758 C   0  0  0  0  0  0  0  0  0  0  0  0
    2.7484   -7.8406    1.3965 O   0  0  0  0  0  0  0  0  0  0  0  0
    2.0173   -8.7755    2.1034 C   0  0  1  0  0  0  0  0  0  0  0  0
    2.8317   -9.9115    2.6954 C   0  0  0  0  0  0  0  0  0  0  0  0
    1.4350   -8.0583    3.2124 O   0  0  0  0  0  0  0  0  0  0  0  0
    0.2694   -7.7884    4.0311 C   0  0  0  0  0  0  0  0  0  0  0  0
    4.1282   -6.9763    6.6225 H   0  0  0  0  0  0  0  0  0  0  0  0
    5.7183   -7.4089    5.9978 H   0  0  0  0  0  0  0  0  0  0  0  0
    4.7443   -8.6004    6.8327 H   0  0  0  0  0  0  0  0  0  0  0  0
    4.7041   -9.0664    4.5368 H   0  0  0  0  0  0  0  0  0  0  0  0
    5.1135   -6.4885    3.9484 H   0  0  0  0  0  0  0  0  0  0  0  0
    4.7038   -7.6224    2.7422 H   0  0  0  0  0  0  0  0  0  0  0  0
    3.5670   -5.1861    3.0893 H   0  0  0  0  0  0  0  0  0  0  0  0
    2.8882   -5.8375    5.2992 H   0  0  0  0  0  0  0  0  0  0  0  0
    0.3576   -5.1221    3.8189 H   0  0  0  0  0  0  0  0  0  0  0  0
    0.7701   -4.9750    5.5060 H   0  0  0  0  0  0  0  0  0  0  0  0
   -0.5644   -3.3970    6.2263 H   0  0  0  0  0  0  0  0  0  0  0  0
   -2.3412    1.0499    4.9335 H   0  0  0  0  0  0  0  0  0  0  0  0
    0.6339    1.5954    2.1104 H   0  0  0  0  0  0  0  0  0  0  0  0
    1.6864   -0.6616    2.6500 H   0  0  0  0  0  0  0  0  0  0  0  0
    1.2448   -7.3566    5.8401 H   0  0  0  0  0  0  0  0  0  0  0  0
    2.5230   -9.1142    6.0468 H   0  0  0  0  0  0  0  0  0  0  0  0
    2.7707  -10.9102    4.5733 H   0  0  0  0  0  0  0  0  0  0  0  0
    0.7363  -11.5988    3.6558 H   0  0  0  0  0  0  0  0  0  0  0  0
    0.2633  -10.5764    4.9407 H   0  0  0  0  0  0  0  0  0  0  0  0
   -0.3007  -10.3161    1.9352 H   0  0  0  0  0  0  0  0  0  0  0  0
   -1.3357  -10.1902    3.2667 H   0  0  0  0  0  0  0  0  0  0  0  0
   -2.3709   -8.1939    3.8197 H   0  0  0  0  0  0  0  0  0  0  0  0
   -2.5101   -8.1670    2.0794 H   0  0  0  0  0  0  0  0  0  0  0  0
   -2.0057   -6.7192    2.9448 H   0  0  0  0  0  0  0  0  0  0  0  0
    2.5362   -5.8602   -0.2964 H   0  0  0  0  0  0  0  0  0  0  0  0
    4.0434   -5.7407    0.6006 H   0  0  0  0  0  0  0  0  0  0  0  0
    2.7658   -4.5523    0.8534 H   0  0  0  0  0  0  0  0  0  0  0  0
    1.3924   -9.1888    1.3213 H   0  0  0  0  0  0  0  0  0  0  0  0
    3.8961   -9.7035    2.6568 H   0  0  0  0  0  0  0  0  0  0  0  0
    2.6786  -10.8131    2.0987 H   0  0  0  0  0  0  0  0  0  0  0  0
   -0.1714   -8.4404    4.7809 H   0  0  0  0  0  0  0  0  0  0  0  0
  1  2  1  0
  1 33  1  0
  1 34  1  0
  1 35  1  0
  2 18  1  0
  2  3  1  0
  2 36  1  6
  3  4  1  0
  3 37  1  0
  3 38  1  0
  4 26  1  0
  4  5  1  0
  4 39  1  6
  5  6  1  0
  5 17  1  0
  5 40  1  1
  6  7  1  0
  6 41  1  0
  6 42  1  0
  7  8  1  0
  8 16  1  0
  8  9  2  0
  9 10  1  0
  9 43  1  0
 10 11  2  0
 11 16  1  0
 11 12  1  0
 12 13  2  0
 12 44  1  0
 13 14  1  0
 14 15  2  0
 14 45  1  0
 15 16  1  0
 15 46  1  0
 17 32  1  0
 17 18  1  0
 17 47  1  1
 18 19  1  0
 18 48  1  1
 19 30  1  0
 19 20  1  0
 19 49  1  1
 20 21  1  0
 20 50  1  0
 20 51  1  0
 21 22  1  0
 21 52  1  0
 21 53  1  0
 22 32  1  0
 22 23  1  1
 22 24  1  0
 23 54  1  0
 23 55  1  0
 23 56  1  0
 24 25  1  0
 25 26  1  0
 26 27  1  6
 26 28  1  0
 27 57  1  0
 27 58  1  0
 27 59  1  0
 28 29  1  0
 29 30  1  0
 29 31  1  0
 29 60  1  6
 30 61  1  0
 30 62  1  0
 31 32  1  0
 32 63  1  0
M  END
>  <i_m_ct_stereo_status>  (261) 
1

>  <s_m_source_file>  (261) 
/var/tmp/pbs.5083856.sched01/tmp4aac__3h/1058c4mwpoo.sdf

>  <i_m_source_file_index>  (261) 
1

>  <i_lp_mmshare_version>  (261) 
48012

>  <i_f3d_flags>  (261) 
0

>  <s_epik_input>  (261) 
W2NIXTFuW2NIXVtjSF1uKGMxMiljKFtjSF1uMilTW0NIMl1bQ0BASF0zW0NAQEhdKFtDSDJdW0NASF00W0NIM10pW0NAQF0oT081KShbQ0gzXSlPW0NASF0oTzYpW0NIMl1bQ0BIXShbQ0gyXVtDSDJdNylbQ0BASF00W0NAQEhdM1tDSF02W0NAQF01N1tDSDNd

>  <s_epik_cmdline>  (261) 
J2VwaWtfcHl0aG9uJywgJy1waHQnLCAnMi4wJywgJy1waCcsICc3LjAnLCAnLXRuJywgJzgnLCAnLW1hJywgJzIwMCcsICctaW1hZScsICc8aW5maWxlLm1hZT4nLCAnLW9tYWUnLCAnPG91dGZpbGUubWFlPic=

>  <r_lp_tautomer_probability>  (261) 
1

>  <r_epik_Ionization_Penalty>  (261) 
0.000165799

>  <r_epik_Ionization_Penalty_Charging>  (261) 
0.000158808

>  <r_epik_Ionization_Penalty_Neutral>  (261) 
6.99103e-06

>  <r_epik_State_Penalty>  (261) 
-0

>  <r_epik_Charging_Adjusted_Penalty>  (261) 
0.000158808

>  <i_epik_Tot_Q>  (261) 
0

>  <i_epik_Tot_abs_Q>  (261) 
0

>  <s_epik_Chemistry_Notes>  (261) 
This compound contains an acetal/aminal-like group ( X-CH(R)-Y where X, Y are N, S, or O) that may be acid/base labile, releasing an aldehyde.

>  <s_lp_Force_Field>  (261) 
OPLS3e

>  <r_lp_Energy>  (261) 
315.508

>  <b_lp_Chiralities_Consistent>  (261) 
1

>  <s_lp_Variant>  (261) 
74:0-1

>  <s_i_glide_gridfile>  (261) 
pfpi4k_grid

>  <i_i_glide_lignum>  (261) 
1

>  <i_i_glide_rotatable_bonds>  (261) 
3

>  <r_i_docking_score>  (261) 
-2.32638

>  <r_i_glide_ligand_efficiency>  (261) 
-0.0726995

>  <r_i_glide_ligand_efficiency_sa>  (261) 
-0.230806

>  <r_i_glide_ligand_efficiency_ln>  (261) 
-0.520941

>  <r_i_glide_gscore>  (261) 
-2.32638

>  <r_i_glide_lipo>  (261) 
-0.0374568

>  <r_i_glide_hbond>  (261) 
-0.111674

>  <r_i_glide_metal>  (261) 
-0

>  <r_i_glide_rewards>  (261) 
-0.290045

>  <r_i_glide_evdw>  (261) 
-29.3348

>  <r_i_glide_ecoul>  (261) 
-4.3718

>  <r_i_glide_erotb>  (261) 
0.288072

>  <r_i_glide_esite>  (261) 
-0.0527685

>  <r_i_glide_emodel>  (261) 
-38.1278

>  <r_i_glide_energy>  (261) 
-33.7066

>  <r_i_glide_einternal>  (261) 
1.62542

>  <r_i_glide_intrahb_reward>  (261) 
-0

>  <i_i_glide_confnum>  (261) 
4

>  <i_i_glide_posenum>  (261) 
21

>  <r_i_glide_eff_state_penalty>  (261) 
0

>  <ligand_id>  (261) 
74

>  <original_smiles>  (261) 
CC1CC2C(CSc3cnc4cnccn34)C3C1C1CCC4(C)OOC2(C)OC(C1)OC34

>  <smiles>  (261) 
[H]c1nc([H])c2nc([H])c(SC([H])([H])C3([H])C4([H])C([H])([H])C([H])(C([H])([H])[H])C5([H])C6([H])C([H])([H])C7([H])OC([H])(C35[H])C(C([H])([H])[H])(OOC4(C([H])([H])[H])O7)C([H])([H])C6([H])[H])n2c1[H]

$$$$
74:0:2
     RDKit          3D

 63 69  0  0  1  0  0  0  0  0999 V2000
    0.3477   -5.1370    8.0050 C   0  0  0  0  0  0  0  0  0  0  0  0
    1.0404   -6.1398    7.0589 C   0  0  2  0  0  0  0  0  0  0  0  0
    2.5527   -5.7246    6.7272 C   0  0  0  0  0  0  0  0  0  0  0  0
    2.8974   -5.0588    5.3361 C   0  0  2  0  0  0  0  0  0  0  0  0
    1.5622   -4.4072    4.8891 C   0  0  1  0  0  0  0  0  0  0  0  0
    1.6829   -3.3660    3.7436 C   0  0  0  0  0  0  0  0  0  0  0  0
    2.2990   -1.7627    4.3095 S   0  0  0  0  0  0  0  0  0  0  0  0
    0.8636   -0.9704    4.9303 C   0  0  0  0  0  0  0  0  0  0  0  0
    0.1209   -1.3060    6.0193 C   0  0  0  0  0  0  0  0  0  0  0  0
   -1.0004   -0.4741    6.1346 N   0  0  0  0  0  0  0  0  0  0  0  0
   -0.9128    0.3915    5.1335 C   0  0  0  0  0  0  0  0  0  0  0  0
   -1.7206    1.4950    4.7312 C   0  0  0  0  0  0  0  0  0  0  0  0
   -1.4448    2.2036    3.6893 N   0  0  0  0  0  0  0  0  0  0  0  0
   -0.3374    1.8818    2.9415 C   0  0  0  0  0  0  0  0  0  0  0  0
    0.5211    0.8558    3.2393 C   0  0  0  0  0  0  0  0  0  0  0  0
    0.2319    0.1220    4.3388 N   0  0  0  0  0  0  0  0  0  0  0  0
    0.4513   -5.5007    4.6458 C   0  0  2  0  0  0  0  0  0  0  0  0
    0.0994   -6.5187    5.8500 C   0  0  1  0  0  0  0  0  0  0  0  0
    0.1437   -8.0900    5.4240 C   0  0  1  0  0  0  0  0  0  0  0  0
   -0.4738   -8.5704    4.0098 C   0  0  0  0  0  0  0  0  0  0  0  0
    0.2944   -8.4232    2.5768 C   0  0  0  0  0  0  0  0  0  0  0  0
    1.0859   -7.0571    2.2165 C   0  0  2  0  0  0  0  0  0  0  0  0
    0.6463   -6.5966    0.8202 C   0  0  0  0  0  0  0  0  0  0  0  0
    2.5693   -6.9793    2.0667 O   0  0  0  0  0  0  0  0  0  0  0  0
    3.2643   -5.7597    2.8377 O   0  0  0  0  0  0  0  0  0  0  0  0
    3.6658   -6.0082    4.2565 C   0  0  1  0  0  0  0  0  0  0  0  0
    5.1781   -5.7423    4.3050 C   0  0  0  0  0  0  0  0  0  0  0  0
    3.5344   -7.3815    4.6833 O   0  0  0  0  0  0  0  0  0  0  0  0
    2.2861   -7.8744    4.3669 C   0  0  1  0  0  0  0  0  0  0  0  0
    1.5893   -8.6114    5.5001 C   0  0  0  0  0  0  0  0  0  0  0  0
    1.4769   -6.7143    4.0775 O   0  0  0  0  0  0  0  0  0  0  0  0
    0.5192   -6.0830    3.1983 C   0  0  0  0  0  0  0  0  0  0  0  0
    0.0816   -4.2114    7.5048 H   0  0  0  0  0  0  0  0  0  0  0  0
    0.9794   -4.8885    8.8585 H   0  0  0  0  0  0  0  0  0  0  0  0
   -0.5796   -5.5511    8.4035 H   0  0  0  0  0  0  0  0  0  0  0  0
    1.1042   -7.0175    7.7004 H   0  0  0  0  0  0  0  0  0  0  0  0
    2.8596   -5.0090    7.4903 H   0  0  0  0  0  0  0  0  0  0  0  0
    3.2123   -6.5748    6.8973 H   0  0  0  0  0  0  0  0  0  0  0  0
    3.5669   -4.2252    5.5370 H   0  0  0  0  0  0  0  0  0  0  0  0
    1.2151   -3.8280    5.7347 H   0  0  0  0  0  0  0  0  0  0  0  0
    2.3172   -3.6786    2.9234 H   0  0  0  0  0  0  0  0  0  0  0  0
    0.7024   -3.1615    3.3115 H   0  0  0  0  0  0  0  0  0  0  0  0
    0.2856   -2.1009    6.7332 H   0  0  0  0  0  0  0  0  0  0  0  0
   -2.5848    1.7287    5.3400 H   0  0  0  0  0  0  0  0  0  0  0  0
   -0.1716    2.5215    2.0764 H   0  0  0  0  0  0  0  0  0  0  0  0
    1.3986    0.6079    2.6471 H   0  0  0  0  0  0  0  0  0  0  0  0
   -0.4470   -4.8818    4.6153 H   0  0  0  0  0  0  0  0  0  0  0  0
   -0.9296   -6.3146    6.1396 H   0  0  0  0  0  0  0  0  0  0  0  0
   -0.4122   -8.6264    6.1917 H   0  0  0  0  0  0  0  0  0  0  0  0
   -0.6613   -9.6398    4.1015 H   0  0  0  0  0  0  0  0  0  0  0  0
   -1.4719   -8.1401    3.9254 H   0  0  0  0  0  0  0  0  0  0  0  0
    0.9339   -9.2864    2.3922 H   0  0  0  0  0  0  0  0  0  0  0  0
   -0.4866   -8.5675    1.8285 H   0  0  0  0  0  0  0  0  0  0  0  0
   -0.4378   -6.5276    0.7172 H   0  0  0  0  0  0  0  0  0  0  0  0
    0.9926   -7.3186    0.0891 H   0  0  0  0  0  0  0  0  0  0  0  0
    1.0887   -5.6364    0.5526 H   0  0  0  0  0  0  0  0  0  0  0  0
    5.7186   -6.4162    3.6389 H   0  0  0  0  0  0  0  0  0  0  0  0
    5.5702   -5.8972    5.3111 H   0  0  0  0  0  0  0  0  0  0  0  0
    5.4279   -4.7224    4.0053 H   0  0  0  0  0  0  0  0  0  0  0  0
    2.5234   -8.5982    3.5908 H   0  0  0  0  0  0  0  0  0  0  0  0
    2.0908   -8.4539    6.4523 H   0  0  0  0  0  0  0  0  0  0  0  0
    1.6303   -9.6868    5.3119 H   0  0  0  0  0  0  0  0  0  0  0  0
   -0.5409   -6.3132    3.1292 H   0  0  0  0  0  0  0  0  0  0  0  0
  1  2  1  0
  1 33  1  0
  1 34  1  0
  1 35  1  0
  2 18  1  0
  2  3  1  0
  2 36  1  1
  3  4  1  0
  3 37  1  0
  3 38  1  0
  4 26  1  0
  4  5  1  0
  4 39  1  1
  5  6  1  0
  5 17  1  0
  5 40  1  1
  6  7  1  0
  6 41  1  0
  6 42  1  0
  7  8  1  0
  8 16  1  0
  8  9  2  0
  9 10  1  0
  9 43  1  0
 10 11  2  0
 11 16  1  0
 11 12  1  0
 12 13  2  0
 12 44  1  0
 13 14  1  0
 14 15  2  0
 14 45  1  0
 15 16  1  0
 15 46  1  0
 17 32  1  0
 17 18  1  0
 17 47  1  6
 18 19  1  0
 18 48  1  1
 19 30  1  0
 19 20  1  0
 19 49  1  1
 20 21  1  0
 20 50  1  0
 20 51  1  0
 21 22  1  0
 21 52  1  0
 21 53  1  0
 22 32  1  0
 22 23  1  6
 22 24  1  0
 23 54  1  0
 23 55  1  0
 23 56  1  0
 24 25  1  0
 25 26  1  0
 26 27  1  6
 26 28  1  0
 27 57  1  0
 27 58  1  0
 27 59  1  0
 28 29  1  0
 29 30  1  0
 29 31  1  0
 29 60  1  6
 30 61  1  0
 30 62  1  0
 31 32  1  0
 32 63  1  0
M  END
>  <i_m_ct_stereo_status>  (262) 
1

>  <s_m_source_file>  (262) 
/var/tmp/pbs.5083856.sched01/tmp4aac__3h/1058c4mwpoo.sdf

>  <i_m_source_file_index>  (262) 
1

>  <i_lp_mmshare_version>  (262) 
48012

>  <i_f3d_flags>  (262) 
0

>  <s_epik_input>  (262) 
W2NIXTFuW2NIXVtjSF1uKGMxMiljKFtjSF1uMilTW0NIMl1bQ0BASF0zW0NAQEhdKFtDSDJdW0NASF00W0NIM10pW0NAQF0oT081KShbQ0gzXSlPW0NASF0oTzYpW0NIMl1bQ0BIXShbQ0gyXVtDSDJdNylbQ0BASF00W0NAQEhdM1tDSF02W0NAQF01N1tDSDNd

>  <s_epik_cmdline>  (262) 
J2VwaWtfcHl0aG9uJywgJy1waHQnLCAnMi4wJywgJy1waCcsICc3LjAnLCAnLXRuJywgJzgnLCAnLW1hJywgJzIwMCcsICctaW1hZScsICc8aW5maWxlLm1hZT4nLCAnLW9tYWUnLCAnPG91dGZpbGUubWFlPic=

>  <r_lp_tautomer_probability>  (262) 
1

>  <r_epik_Ionization_Penalty>  (262) 
0.000165799

>  <r_epik_Ionization_Penalty_Charging>  (262) 
0.000158808

>  <r_epik_Ionization_Penalty_Neutral>  (262) 
6.99103e-06

>  <r_epik_State_Penalty>  (262) 
-0

>  <r_epik_Charging_Adjusted_Penalty>  (262) 
0.000158808

>  <i_epik_Tot_Q>  (262) 
0

>  <i_epik_Tot_abs_Q>  (262) 
0

>  <s_epik_Chemistry_Notes>  (262) 
This compound contains an acetal/aminal-like group ( X-CH(R)-Y where X, Y are N, S, or O) that may be acid/base labile, releasing an aldehyde.

>  <s_lp_Force_Field>  (262) 
OPLS3e

>  <r_lp_Energy>  (262) 
315.508

>  <b_lp_Chiralities_Consistent>  (262) 
1

>  <s_lp_Variant>  (262) 
74:0-1

>  <s_i_glide_gridfile>  (262) 
pfpi4k_grid

>  <i_i_glide_lignum>  (262) 
1

>  <i_i_glide_rotatable_bonds>  (262) 
3

>  <r_i_docking_score>  (262) 
-1.60217

>  <r_i_glide_ligand_efficiency>  (262) 
-0.0500679

>  <r_i_glide_ligand_efficiency_sa>  (262) 
-0.158956

>  <r_i_glide_ligand_efficiency_ln>  (262) 
-0.35877

>  <r_i_glide_gscore>  (262) 
-1.60217

>  <r_i_glide_lipo>  (262) 
-0.0220237

>  <r_i_glide_hbond>  (262) 
-0.0322362

>  <r_i_glide_metal>  (262) 
-0

>  <r_i_glide_rewards>  (262) 
-0.289182

>  <r_i_glide_evdw>  (262) 
-23.1244

>  <r_i_glide_ecoul>  (262) 
-2.35475

>  <r_i_glide_erotb>  (262) 
0.288072

>  <r_i_glide_esite>  (262) 
-0.0373742

>  <r_i_glide_emodel>  (262) 
-27.8681

>  <r_i_glide_energy>  (262) 
-25.4791

>  <r_i_glide_einternal>  (262) 
2.36918

>  <r_i_glide_intrahb_reward>  (262) 
-0

>  <i_i_glide_confnum>  (262) 
4

>  <i_i_glide_posenum>  (262) 
40

>  <r_i_glide_eff_state_penalty>  (262) 
0

>  <ligand_id>  (262) 
74

>  <original_smiles>  (262) 
CC1CC2C(CSc3cnc4cnccn34)C3C1C1CCC4(C)OOC2(C)OC(C1)OC34

>  <smiles>  (262) 
[H]c1nc([H])c2nc([H])c(SC([H])([H])C3([H])C4([H])C([H])([H])C([H])(C([H])([H])[H])C5([H])C6([H])C([H])([H])C7([H])OC([H])(C35[H])C(C([H])([H])[H])(OOC4(C([H])([H])[H])O7)C([H])([H])C6([H])[H])n2c1[H]

$$$$
75:0:0
     RDKit          3D

 51 56  0  0  1  0  0  0  0  0999 V2000
    0.3728   -8.8466    2.8289 C   0  0  0  0  0  0  0  0  0  0  0  0
    0.4248   -7.4786    2.1388 C   0  0  0  0  0  0  0  0  0  0  0  0
   -0.5698   -6.7570    2.0663 O   0  0  0  0  0  0  0  0  0  0  0  0
    1.6317   -7.1115    1.6401 O   0  0  0  0  0  0  0  0  0  0  0  0
    2.7982   -7.9318    1.7636 C   0  0  0  0  0  0  0  0  0  0  0  0
    4.0607   -7.0597    1.8639 C   0  0  1  0  0  0  0  0  0  0  0  0
    4.1143   -6.0099    0.5397 C   0  0  2  0  0  0  0  0  0  0  0  0
    5.5368   -5.6775    0.5189 C   0  0  0  0  0  0  0  0  0  0  0  0
    5.5073   -5.0215    1.9455 C   0  0  1  0  0  0  0  0  0  0  0  0
    5.0548   -3.6854    1.3489 C   0  0  0  0  0  0  0  0  0  0  0  0
    3.8407   -4.4017    0.4896 C   0  0  1  0  0  0  0  0  0  0  0  0
    3.5855   -3.8405   -0.8778 N   0  0  0  0  0  0  0  0  0  0  0  0
    4.7290   -3.4612   -1.7490 C   0  0  0  0  0  0  0  0  0  0  0  0
    4.3686   -2.3364   -2.6476 C   0  0  0  0  0  0  0  0  0  0  0  0
    4.5682   -1.0628   -2.2610 N   0  0  0  0  0  0  0  0  0  0  0  0
    4.1851   -0.3649   -3.3226 N   0  0  0  0  0  0  0  0  0  0  0  0
    3.8113   -1.1861   -4.3072 N   0  0  0  0  0  0  0  0  0  0  0  0
    3.9128   -2.4573   -3.9019 N   0  0  0  0  0  0  0  0  0  0  0  0
    4.2975   -4.9816    3.0000 C   0  0  0  0  0  0  0  0  0  0  0  0
    4.2212   -6.3827    3.3556 C   0  0  1  0  0  0  0  0  0  0  0  0
    3.1384   -6.6840    4.4138 C   0  0  0  0  0  0  0  0  0  0  0  0
    5.6307   -6.3058    4.0397 C   0  0  0  0  0  0  0  0  0  0  0  0
    6.5018   -5.9285    2.8358 C   0  0  1  0  0  0  0  0  0  0  0  0
    6.6489   -7.3906    2.2527 C   0  0  1  0  0  0  0  0  0  0  0  0
    5.9709   -8.5529    2.8525 O   0  0  0  0  0  0  0  0  0  0  0  0
    5.3119   -7.9845    1.7307 C   0  0  1  0  0  0  0  0  0  0  0  0
    0.6914   -9.6265    2.1350 H   0  0  0  0  0  0  0  0  0  0  0  0
   -0.6235   -9.0991    3.1812 H   0  0  0  0  0  0  0  0  0  0  0  0
    1.0416   -8.8614    3.6913 H   0  0  0  0  0  0  0  0  0  0  0  0
    2.7950   -8.5594    2.6549 H   0  0  0  0  0  0  0  0  0  0  0  0
    2.8466   -8.5975    0.8968 H   0  0  0  0  0  0  0  0  0  0  0  0
    3.8079   -6.5234   -0.3675 H   0  0  0  0  0  0  0  0  0  0  0  0
    6.2100   -6.4664    0.2212 H   0  0  0  0  0  0  0  0  0  0  0  0
    5.8848   -5.0436   -0.2883 H   0  0  0  0  0  0  0  0  0  0  0  0
    4.6843   -2.9223    2.0438 H   0  0  0  0  0  0  0  0  0  0  0  0
    5.8832   -3.2315    0.8049 H   0  0  0  0  0  0  0  0  0  0  0  0
    2.8538   -4.2165    0.9091 H   0  0  0  0  0  0  0  0  0  0  0  0
    3.0352   -4.5104   -1.4078 H   0  0  0  0  0  0  0  0  0  0  0  0
    5.5968   -3.1431   -1.1783 H   0  0  0  0  0  0  0  0  0  0  0  0
    5.0350   -4.3433   -2.3273 H   0  0  0  0  0  0  0  0  0  0  0  0
    4.5308   -4.2893    3.8173 H   0  0  0  0  0  0  0  0  0  0  0  0
    3.2877   -4.6547    2.7774 H   0  0  0  0  0  0  0  0  0  0  0  0
    3.2946   -6.0941    5.3164 H   0  0  0  0  0  0  0  0  0  0  0  0
    3.1624   -7.7332    4.7089 H   0  0  0  0  0  0  0  0  0  0  0  0
    2.1374   -6.4433    4.0650 H   0  0  0  0  0  0  0  0  0  0  0  0
    5.7179   -5.5661    4.8363 H   0  0  0  0  0  0  0  0  0  0  0  0
    5.9227   -7.2003    4.5884 H   0  0  0  0  0  0  0  0  0  0  0  0
    7.4701   -5.4825    3.0858 H   0  0  0  0  0  0  0  0  0  0  0  0
    7.5574   -7.6155    1.6965 H   0  0  0  0  0  0  0  0  0  0  0  0
    5.3448   -8.6170    0.8452 H   0  0  0  0  0  0  0  0  0  0  0  0
    3.0160   -3.0040   -0.7851 H   0  0  0  0  0  0  0  0  0  0  0  0
  1  2  1  0
  1 27  1  0
  1 28  1  0
  1 29  1  0
  2  3  2  0
  2  4  1  0
  4  5  1  0
  6  5  1  1
  5 30  1  0
  5 31  1  0
  6 20  1  0
  6 26  1  0
  6  7  1  0
  7 11  1  0
  7  8  1  0
  7 32  1  6
  8  9  1  0
  8 33  1  0
  8 34  1  0
  9 23  1  0
  9 10  1  6
  9 19  1  0
 10 11  1  0
 10 35  1  0
 10 36  1  0
 11 12  1  0
 11 37  1  1
 12 13  1  0
 12 38  1  0
 12 51  1  0
 13 39  1  0
 13 40  1  0
 13 14  1  0
 14 18  2  0
 14 15  1  0
 15 16  1  0
 16 17  2  0
 17 18  1  0
 19 20  1  0
 19 41  1  0
 19 42  1  0
 20 21  1  1
 20 22  1  0
 21 43  1  0
 21 44  1  0
 21 45  1  0
 22 23  1  0
 22 46  1  0
 22 47  1  0
 23 24  1  0
 23 48  1  1
 24 26  1  0
 24 25  1  0
 24 49  1  6
 25 26  1  0
 26 50  1  6
M  CHG  2  12   1  15  -1
M  END
>  <i_m_ct_stereo_status>  (263) 
1

>  <s_m_source_file>  (263) 
/var/tmp/pbs.5083856.sched01/tmp4aac__3h/1058c4mwpoo.sdf

>  <i_m_source_file_index>  (263) 
2

>  <i_lp_mmshare_version>  (263) 
48012

>  <i_f3d_flags>  (263) 
0

>  <s_epik_input>  (263) 
W0NIM11DKD1PKU9bQ0gyXVtDQEBdKFtDQEBdKFtDSDJdMSkoW0NIM10pW0NIMl0yKShbQ0BIXShPMylbQ0BIXTNbQ0BIXTJDMTQ1KVtDQEhdKFtDSDJdNClbQ0BASF0oW0NIMl01KVtOSF1bQ0gyXWM2bm5bbkhdbjY=

>  <s_epik_cmdline>  (263) 
J2VwaWtfcHl0aG9uJywgJy1waHQnLCAnMi4wJywgJy1waCcsICc3LjAnLCAnLXRuJywgJzgnLCAnLW1hJywgJzIwMCcsICctaW1hZScsICc8aW5maWxlLm1hZT4nLCAnLW9tYWUnLCAnPG91dGZpbGUubWFlPic=

>  <r_lp_tautomer_probability>  (263) 
1

>  <r_epik_Ionization_Penalty>  (263) 
0.0018108

>  <r_epik_Ionization_Penalty_Charging>  (263) 
0.0018108

>  <r_epik_Ionization_Penalty_Neutral>  (263) 
1.12941e-11

>  <r_epik_State_Penalty>  (263) 
-0

>  <r_epik_Charging_Adjusted_Penalty>  (263) 
0.0018108

>  <i_epik_Tot_Q>  (263) 
0

>  <i_epik_Tot_abs_Q>  (263) 
2

>  <s_epik_Chemistry_Notes>  (263) 
This compound has an ester and may undergo hydrolysis at high or low pH.

>  <s_lp_Force_Field>  (263) 
OPLS3e

>  <r_lp_Energy>  (263) 
234.734

>  <b_lp_Chiralities_Consistent>  (263) 
1

>  <s_lp_Variant>  (263) 
75:0-1

>  <s_i_glide_gridfile>  (263) 
pfpi4k_grid

>  <i_i_glide_lignum>  (263) 
2

>  <i_i_glide_rotatable_bonds>  (263) 
6

>  <r_i_docking_score>  (263) 
-4.45194

>  <r_i_glide_ligand_efficiency>  (263) 
-0.171229

>  <r_i_glide_ligand_efficiency_sa>  (263) 
-0.507264

>  <r_i_glide_ligand_efficiency_ln>  (263) 
-1.04552

>  <r_i_glide_gscore>  (263) 
-4.45194

>  <r_i_glide_lipo>  (263) 
-0.452396

>  <r_i_glide_hbond>  (263) 
-0.16

>  <r_i_glide_metal>  (263) 
-0

>  <r_i_glide_rewards>  (263) 
-1.43294

>  <r_i_glide_evdw>  (263) 
-30.5437

>  <r_i_glide_ecoul>  (263) 
-10.0746

>  <r_i_glide_erotb>  (263) 
0.741853

>  <r_i_glide_esite>  (263) 
-0.110091

>  <r_i_glide_emodel>  (263) 
-46.629

>  <r_i_glide_energy>  (263) 
-40.6183

>  <r_i_glide_einternal>  (263) 
13.156

>  <r_i_glide_intrahb_reward>  (263) 
-0

>  <i_i_glide_confnum>  (263) 
5

>  <i_i_glide_posenum>  (263) 
1

>  <r_i_glide_eff_state_penalty>  (263) 
0

>  <ligand_id>  (263) 
75

>  <original_smiles>  (263) 
CC(=O)OCC12C3CC4(CC3NCc3nn[nH]n3)CC1(C)CC4C1OC12

>  <smiles>  (263) 
[H]C([H])([H])C(=O)OC([H])([H])C12C3([H])OC3([H])C3([H])C([H])([H])C1(C([H])([H])[H])C([H])([H])C31C([H])([H])C2([H])C([H])([N+]([H])([H])C([H])([H])c2nnn[n-]2)C1([H])[H]

$$$$
75:0:1
     RDKit          3D

 51 56  0  0  1  0  0  0  0  0999 V2000
    0.5959   -8.9257    3.2107 C   0  0  0  0  0  0  0  0  0  0  0  0
    0.0957   -7.7501    2.3571 C   0  0  0  0  0  0  0  0  0  0  0  0
   -0.9630   -7.8075    1.7462 O   0  0  0  0  0  0  0  0  0  0  0  0
    0.8961   -6.6539    2.2939 O   0  0  0  0  0  0  0  0  0  0  0  0
    2.0468   -6.4627    3.1107 C   0  0  0  0  0  0  0  0  0  0  0  0
    3.3759   -6.7868    2.3785 C   0  0  1  0  0  0  0  0  0  0  0  0
    3.4917   -5.8272    0.9821 C   0  0  2  0  0  0  0  0  0  0  0  0
    4.5059   -6.5467    0.1994 C   0  0  0  0  0  0  0  0  0  0  0  0
    5.6186   -6.3518    1.3082 C   0  0  1  0  0  0  0  0  0  0  0  0
    5.9740   -4.9953    0.7006 C   0  0  0  0  0  0  0  0  0  0  0  0
    4.3972   -4.4875    0.7090 C   0  0  1  0  0  0  0  0  0  0  0  0
    3.9636   -3.6817   -0.4836 N   0  0  0  0  0  0  0  0  0  0  0  0
    4.9312   -3.5427   -1.6031 C   0  0  0  0  0  0  0  0  0  0  0  0
    4.4803   -2.4647   -2.5389 C   0  0  0  0  0  0  0  0  0  0  0  0
    4.5703   -1.1665   -2.2438 N   0  0  0  0  0  0  0  0  0  0  0  0
    4.1387   -0.5633   -3.3565 N   0  0  0  0  0  0  0  0  0  0  0  0
    3.8140   -1.4824   -4.2711 N   0  0  0  0  0  0  0  0  0  0  0  0
    4.0311   -2.7086   -3.7839 N   0  0  0  0  0  0  0  0  0  0  0  0
    5.4730   -5.6999    2.7663 C   0  0  0  0  0  0  0  0  0  0  0  0
    4.6389   -6.6990    3.4173 C   0  0  1  0  0  0  0  0  0  0  0  0
    4.3182   -6.3604    4.8910 C   0  0  0  0  0  0  0  0  0  0  0  0
    5.8215   -7.7333    3.3382 C   0  0  0  0  0  0  0  0  0  0  0  0
    6.0021   -7.8356    1.8169 C   0  0  1  0  0  0  0  0  0  0  0  0
    4.8214   -8.8544    1.5607 C   0  0  1  0  0  0  0  0  0  0  0  0
    3.9402   -9.3377    2.6391 O   0  0  0  0  0  0  0  0  0  0  0  0
    3.4196   -8.2678    1.8519 C   0  0  1  0  0  0  0  0  0  0  0  0
    1.5457   -9.2924    2.8527 H   0  0  0  0  0  0  0  0  0  0  0  0
   -0.1125   -9.7506    3.1602 H   0  0  0  0  0  0  0  0  0  0  0  0
    0.6945   -8.6125    4.2585 H   0  0  0  0  0  0  0  0  0  0  0  0
    2.0743   -5.3903    3.3856 H   0  0  0  0  0  0  0  0  0  0  0  0
    1.9764   -7.0571    4.0175 H   0  0  0  0  0  0  0  0  0  0  0  0
    2.5438   -5.7806    0.4399 H   0  0  0  0  0  0  0  0  0  0  0  0
    4.2394   -7.5150   -0.2023 H   0  0  0  0  0  0  0  0  0  0  0  0
    4.6954   -6.1490   -0.8057 H   0  0  0  0  0  0  0  0  0  0  0  0
    6.6439   -4.3527    1.2803 H   0  0  0  0  0  0  0  0  0  0  0  0
    6.4443   -5.1412   -0.2706 H   0  0  0  0  0  0  0  0  0  0  0  0
    4.1871   -3.7518    1.4884 H   0  0  0  0  0  0  0  0  0  0  0  0
    3.1005   -4.0706   -0.8545 H   0  0  0  0  0  0  0  0  0  0  0  0
    5.9096   -3.2586   -1.2062 H   0  0  0  0  0  0  0  0  0  0  0  0
    5.0278   -4.4942   -2.1279 H   0  0  0  0  0  0  0  0  0  0  0  0
    6.4625   -5.5188    3.2131 H   0  0  0  0  0  0  0  0  0  0  0  0
    5.0178   -4.7392    2.9779 H   0  0  0  0  0  0  0  0  0  0  0  0
    5.2309   -6.2178    5.4697 H   0  0  0  0  0  0  0  0  0  0  0  0
    3.7713   -7.1745    5.3628 H   0  0  0  0  0  0  0  0  0  0  0  0
    3.7310   -5.4478    4.9922 H   0  0  0  0  0  0  0  0  0  0  0  0
    6.7475   -7.4247    3.8334 H   0  0  0  0  0  0  0  0  0  0  0  0
    5.6417   -8.6630    3.8756 H   0  0  0  0  0  0  0  0  0  0  0  0
    6.9779   -8.2302    1.4926 H   0  0  0  0  0  0  0  0  0  0  0  0
    4.9389   -9.5366    0.7213 H   0  0  0  0  0  0  0  0  0  0  0  0
    2.6428   -8.5502    1.1347 H   0  0  0  0  0  0  0  0  0  0  0  0
    3.7637   -2.7404   -0.1624 H   0  0  0  0  0  0  0  0  0  0  0  0
  1  2  1  0
  1 27  1  0
  1 28  1  0
  1 29  1  0
  2  3  2  0
  2  4  1  0
  4  5  1  0
  6  5  1  1
  5 30  1  0
  5 31  1  0
  6 20  1  0
  6 26  1  0
  6  7  1  0
  7 11  1  0
  7  8  1  0
  7 32  1  6
  8  9  1  0
  8 33  1  0
  8 34  1  0
  9 23  1  0
  9 10  1  6
  9 19  1  0
 10 11  1  0
 10 35  1  0
 10 36  1  0
 11 12  1  0
 11 37  1  1
 12 13  1  0
 12 38  1  0
 12 51  1  0
 13 39  1  0
 13 40  1  0
 13 14  1  0
 14 18  2  0
 14 15  1  0
 15 16  1  0
 16 17  2  0
 17 18  1  0
 19 20  1  0
 19 41  1  0
 19 42  1  0
 20 21  1  1
 20 22  1  0
 21 43  1  0
 21 44  1  0
 21 45  1  0
 22 23  1  0
 22 46  1  0
 22 47  1  0
 23 24  1  0
 23 48  1  1
 24 26  1  0
 24 25  1  0
 24 49  1  6
 25 26  1  0
 26 50  1  6
M  CHG  2  12   1  15  -1
M  END
>  <i_m_ct_stereo_status>  (264) 
1

>  <s_m_source_file>  (264) 
/var/tmp/pbs.5083856.sched01/tmp4aac__3h/1058c4mwpoo.sdf

>  <i_m_source_file_index>  (264) 
2

>  <i_lp_mmshare_version>  (264) 
48012

>  <i_f3d_flags>  (264) 
0

>  <s_epik_input>  (264) 
W0NIM11DKD1PKU9bQ0gyXVtDQEBdKFtDQEBdKFtDSDJdMSkoW0NIM10pW0NIMl0yKShbQ0BIXShPMylbQ0BIXTNbQ0BIXTJDMTQ1KVtDQEhdKFtDSDJdNClbQ0BASF0oW0NIMl01KVtOSF1bQ0gyXWM2bm5bbkhdbjY=

>  <s_epik_cmdline>  (264) 
J2VwaWtfcHl0aG9uJywgJy1waHQnLCAnMi4wJywgJy1waCcsICc3LjAnLCAnLXRuJywgJzgnLCAnLW1hJywgJzIwMCcsICctaW1hZScsICc8aW5maWxlLm1hZT4nLCAnLW9tYWUnLCAnPG91dGZpbGUubWFlPic=

>  <r_lp_tautomer_probability>  (264) 
1

>  <r_epik_Ionization_Penalty>  (264) 
0.0018108

>  <r_epik_Ionization_Penalty_Charging>  (264) 
0.0018108

>  <r_epik_Ionization_Penalty_Neutral>  (264) 
1.12941e-11

>  <r_epik_State_Penalty>  (264) 
-0

>  <r_epik_Charging_Adjusted_Penalty>  (264) 
0.0018108

>  <i_epik_Tot_Q>  (264) 
0

>  <i_epik_Tot_abs_Q>  (264) 
2

>  <s_epik_Chemistry_Notes>  (264) 
This compound has an ester and may undergo hydrolysis at high or low pH.

>  <s_lp_Force_Field>  (264) 
OPLS3e

>  <r_lp_Energy>  (264) 
234.734

>  <b_lp_Chiralities_Consistent>  (264) 
1

>  <s_lp_Variant>  (264) 
75:0-1

>  <s_i_glide_gridfile>  (264) 
pfpi4k_grid

>  <i_i_glide_lignum>  (264) 
2

>  <i_i_glide_rotatable_bonds>  (264) 
6

>  <r_i_docking_score>  (264) 
-3.62315

>  <r_i_glide_ligand_efficiency>  (264) 
-0.139352

>  <r_i_glide_ligand_efficiency_sa>  (264) 
-0.412829

>  <r_i_glide_ligand_efficiency_ln>  (264) 
-0.850884

>  <r_i_glide_gscore>  (264) 
-3.62315

>  <r_i_glide_lipo>  (264) 
-0.462324

>  <r_i_glide_hbond>  (264) 
0

>  <r_i_glide_metal>  (264) 
-0

>  <r_i_glide_rewards>  (264) 
-1.4065

>  <r_i_glide_evdw>  (264) 
-32.1157

>  <r_i_glide_ecoul>  (264) 
-5.13583

>  <r_i_glide_erotb>  (264) 
0.741853

>  <r_i_glide_esite>  (264) 
-0.120017

>  <r_i_glide_emodel>  (264) 
-41.3343

>  <r_i_glide_energy>  (264) 
-37.2515

>  <r_i_glide_einternal>  (264) 
11.9518

>  <r_i_glide_intrahb_reward>  (264) 
-0

>  <i_i_glide_confnum>  (264) 
5

>  <i_i_glide_posenum>  (264) 
14

>  <r_i_glide_eff_state_penalty>  (264) 
0

>  <ligand_id>  (264) 
75

>  <original_smiles>  (264) 
CC(=O)OCC12C3CC4(CC3NCc3nn[nH]n3)CC1(C)CC4C1OC12

>  <smiles>  (264) 
[H]C([H])([H])C(=O)OC([H])([H])C12C3([H])OC3([H])C3([H])C([H])([H])C1(C([H])([H])[H])C([H])([H])C31C([H])([H])C2([H])C([H])([N+]([H])([H])C([H])([H])c2nnn[n-]2)C1([H])[H]

$$$$
75:0:2
     RDKit          3D

 51 56  0  0  1  0  0  0  0  0999 V2000
    3.2931    6.1931    4.0762 C   0  0  0  0  0  0  0  0  0  0  0  0
    1.8600    6.2769    4.6164 C   0  0  0  0  0  0  0  0  0  0  0  0
    1.4838    7.2497    5.2584 O   0  0  0  0  0  0  0  0  0  0  0  0
    1.0706    5.2110    4.3523 O   0  0  0  0  0  0  0  0  0  0  0  0
    1.5693    4.0667    3.6632 C   0  0  0  0  0  0  0  0  0  0  0  0
    0.6338    2.8484    3.7447 C   0  0  1  0  0  0  0  0  0  0  0  0
    1.0910    1.7789    2.5129 C   0  0  2  0  0  0  0  0  0  0  0  0
   -0.1225    0.9689    2.3657 C   0  0  0  0  0  0  0  0  0  0  0  0
   -0.0308    0.4285    3.8450 C   0  0  1  0  0  0  0  0  0  0  0  0
    0.9231   -0.6857    3.3870 C   0  0  0  0  0  0  0  0  0  0  0  0
    1.9178    0.3680    2.6135 C   0  0  1  0  0  0  0  0  0  0  0  0
    2.4221   -0.1443    1.2975 N   0  0  0  0  0  0  0  0  0  0  0  0
    3.3171   -1.3320    1.3887 C   0  0  0  0  0  0  0  0  0  0  0  0
    3.9819   -1.6093    0.0784 C   0  0  0  0  0  0  0  0  0  0  0  0
    5.1389   -1.0375   -0.2934 N   0  0  0  0  0  0  0  0  0  0  0  0
    5.3799   -1.5722   -1.4994 N   0  0  0  0  0  0  0  0  0  0  0  0
    4.4111   -2.4467   -1.8054 N   0  0  0  0  0  0  0  0  0  0  0  0
    3.5144   -2.4935   -0.8089 N   0  0  0  0  0  0  0  0  0  0  0  0
    1.0049    0.8577    5.0046 C   0  0  0  0  0  0  0  0  0  0  0  0
    0.5806    2.2223    5.2613 C   0  0  1  0  0  0  0  0  0  0  0  0
    1.4086    2.9252    6.3632 C   0  0  0  0  0  0  0  0  0  0  0  0
   -0.7733    1.6982    5.8473 C   0  0  0  0  0  0  0  0  0  0  0  0
   -1.3469    0.9851    4.6102 C   0  0  1  0  0  0  0  0  0  0  0  0
   -1.9306    2.2757    3.9069 C   0  0  1  0  0  0  0  0  0  0  0  0
   -1.7635    3.6238    4.4696 O   0  0  0  0  0  0  0  0  0  0  0  0
   -0.8428    3.2694    3.4473 C   0  0  1  0  0  0  0  0  0  0  0  0
    3.8211    5.3430    4.5068 H   0  0  0  0  0  0  0  0  0  0  0  0
    3.8620    7.0893    4.3220 H   0  0  0  0  0  0  0  0  0  0  0  0
    3.2859    6.0922    2.9918 H   0  0  0  0  0  0  0  0  0  0  0  0
    1.7036    4.3503    2.6165 H   0  0  0  0  0  0  0  0  0  0  0  0
    2.5381    3.7455    4.0533 H   0  0  0  0  0  0  0  0  0  0  0  0
    1.3094    2.3160    1.5894 H   0  0  0  0  0  0  0  0  0  0  0  0
   -1.0018    1.4601    1.9624 H   0  0  0  0  0  0  0  0  0  0  0  0
   -0.0958    0.2304    1.5557 H   0  0  0  0  0  0  0  0  0  0  0  0
    1.4113   -1.2763    4.1647 H   0  0  0  0  0  0  0  0  0  0  0  0
    0.4431   -1.4101    2.7268 H   0  0  0  0  0  0  0  0  0  0  0  0
    2.8628    0.5345    3.1273 H   0  0  0  0  0  0  0  0  0  0  0  0
    1.6666   -0.3641    0.6437 H   0  0  0  0  0  0  0  0  0  0  0  0
    4.0722   -1.1549    2.1572 H   0  0  0  0  0  0  0  0  0  0  0  0
    2.7300   -2.1927    1.7170 H   0  0  0  0  0  0  0  0  0  0  0  0
    0.9492    0.1649    5.8498 H   0  0  0  0  0  0  0  0  0  0  0  0
    2.0849    0.8908    4.9001 H   0  0  0  0  0  0  0  0  0  0  0  0
    1.3836    2.3623    7.2951 H   0  0  0  0  0  0  0  0  0  0  0  0
    1.0014    3.9115    6.5822 H   0  0  0  0  0  0  0  0  0  0  0  0
    2.4580    3.0408    6.0906 H   0  0  0  0  0  0  0  0  0  0  0  0
   -0.6754    1.0215    6.6966 H   0  0  0  0  0  0  0  0  0  0  0  0
   -1.3943    2.4669    6.3014 H   0  0  0  0  0  0  0  0  0  0  0  0
   -2.1343    0.2537    4.8280 H   0  0  0  0  0  0  0  0  0  0  0  0
   -2.7998    2.1450    3.2707 H   0  0  0  0  0  0  0  0  0  0  0  0
   -1.0081    3.7863    2.5075 H   0  0  0  0  0  0  0  0  0  0  0  0
    2.9849    0.5845    0.8794 H   0  0  0  0  0  0  0  0  0  0  0  0
  1  2  1  0
  1 27  1  0
  1 28  1  0
  1 29  1  0
  2  3  2  0
  2  4  1  0
  4  5  1  0
  6  5  1  1
  5 30  1  0
  5 31  1  0
  6 20  1  0
  6 26  1  0
  6  7  1  0
  7 11  1  0
  7  8  1  0
  7 32  1  6
  8  9  1  0
  8 33  1  0
  8 34  1  0
  9 23  1  0
  9 10  1  6
  9 19  1  0
 10 11  1  0
 10 35  1  0
 10 36  1  0
 11 12  1  0
 11 37  1  1
 12 13  1  0
 12 38  1  0
 12 51  1  0
 13 39  1  0
 13 40  1  0
 13 14  1  0
 14 18  2  0
 14 15  1  0
 15 16  1  0
 16 17  2  0
 17 18  1  0
 19 20  1  0
 19 41  1  0
 19 42  1  0
 20 21  1  1
 20 22  1  0
 21 43  1  0
 21 44  1  0
 21 45  1  0
 22 23  1  0
 22 46  1  0
 22 47  1  0
 23 24  1  0
 23 48  1  1
 24 26  1  0
 24 25  1  0
 24 49  1  6
 25 26  1  0
 26 50  1  6
M  CHG  2  12   1  15  -1
M  END
>  <i_m_ct_stereo_status>  (265) 
1

>  <s_m_source_file>  (265) 
/var/tmp/pbs.5083856.sched01/tmp4aac__3h/1058c4mwpoo.sdf

>  <i_m_source_file_index>  (265) 
2

>  <i_lp_mmshare_version>  (265) 
48012

>  <i_f3d_flags>  (265) 
0

>  <s_epik_input>  (265) 
W0NIM11DKD1PKU9bQ0gyXVtDQEBdKFtDQEBdKFtDSDJdMSkoW0NIM10pW0NIMl0yKShbQ0BIXShPMylbQ0BIXTNbQ0BIXTJDMTQ1KVtDQEhdKFtDSDJdNClbQ0BASF0oW0NIMl01KVtOSF1bQ0gyXWM2bm5bbkhdbjY=

>  <s_epik_cmdline>  (265) 
J2VwaWtfcHl0aG9uJywgJy1waHQnLCAnMi4wJywgJy1waCcsICc3LjAnLCAnLXRuJywgJzgnLCAnLW1hJywgJzIwMCcsICctaW1hZScsICc8aW5maWxlLm1hZT4nLCAnLW9tYWUnLCAnPG91dGZpbGUubWFlPic=

>  <r_lp_tautomer_probability>  (265) 
1

>  <r_epik_Ionization_Penalty>  (265) 
0.0018108

>  <r_epik_Ionization_Penalty_Charging>  (265) 
0.0018108

>  <r_epik_Ionization_Penalty_Neutral>  (265) 
1.12941e-11

>  <r_epik_State_Penalty>  (265) 
-0

>  <r_epik_Charging_Adjusted_Penalty>  (265) 
0.0018108

>  <i_epik_Tot_Q>  (265) 
0

>  <i_epik_Tot_abs_Q>  (265) 
2

>  <s_epik_Chemistry_Notes>  (265) 
This compound has an ester and may undergo hydrolysis at high or low pH.

>  <s_lp_Force_Field>  (265) 
OPLS3e

>  <r_lp_Energy>  (265) 
234.734

>  <b_lp_Chiralities_Consistent>  (265) 
1

>  <s_lp_Variant>  (265) 
75:0-1

>  <s_i_glide_gridfile>  (265) 
pfpi4k_grid

>  <i_i_glide_lignum>  (265) 
2

>  <i_i_glide_rotatable_bonds>  (265) 
6

>  <r_i_docking_score>  (265) 
-3.30933

>  <r_i_glide_ligand_efficiency>  (265) 
-0.127282

>  <r_i_glide_ligand_efficiency_sa>  (265) 
-0.377073

>  <r_i_glide_ligand_efficiency_ln>  (265) 
-0.777186

>  <r_i_glide_gscore>  (265) 
-3.30933

>  <r_i_glide_lipo>  (265) 
-0.0212257

>  <r_i_glide_hbond>  (265) 
-0.2

>  <r_i_glide_metal>  (265) 
-0

>  <r_i_glide_rewards>  (265) 
-1.25848

>  <r_i_glide_evdw>  (265) 
-28.4812

>  <r_i_glide_ecoul>  (265) 
-5.96342

>  <r_i_glide_erotb>  (265) 
0.741853

>  <r_i_glide_esite>  (265) 
-0.252906

>  <r_i_glide_emodel>  (265) 
-40.7091

>  <r_i_glide_energy>  (265) 
-34.4447

>  <r_i_glide_einternal>  (265) 
6.65597

>  <r_i_glide_intrahb_reward>  (265) 
-0

>  <i_i_glide_confnum>  (265) 
6

>  <i_i_glide_posenum>  (265) 
17

>  <r_i_glide_eff_state_penalty>  (265) 
0

>  <ligand_id>  (265) 
75

>  <original_smiles>  (265) 
CC(=O)OCC12C3CC4(CC3NCc3nn[nH]n3)CC1(C)CC4C1OC12

>  <smiles>  (265) 
[H]C([H])([H])C(=O)OC([H])([H])C12C3([H])OC3([H])C3([H])C([H])([H])C1(C([H])([H])[H])C([H])([H])C31C([H])([H])C2([H])C([H])([N+]([H])([H])C([H])([H])c2nnn[n-]2)C1([H])[H]

$$$$
76:0:0
     RDKit          3D

 80 87  0  0  1  0  0  0  0  0999 V2000
    6.5480   -4.7018    5.7917 C   0  0  0  0  0  0  0  0  0  0  0  0
    5.3692   -5.4543    5.1310 C   0  0  2  0  0  0  0  0  0  0  0  0
    5.8108   -5.8036    3.6093 C   0  0  1  0  0  0  0  0  0  0  0  0
    5.6344   -7.2104    3.3226 O   0  0  0  0  0  0  0  0  0  0  0  0
    4.2946   -7.7340    3.4092 C   0  0  2  0  0  0  0  0  0  0  0  0
    3.9511   -8.8718    4.4735 C   0  0  1  0  0  0  0  0  0  0  0  0
    4.6016   -8.7754    5.8565 C   0  0  0  0  0  0  0  0  0  0  0  0
    2.3806   -8.9052    4.6246 C   0  0  1  0  0  0  0  0  0  0  0  0
    1.3647  -10.0243    4.8490 C   0  0  0  0  0  0  0  0  0  0  0  0
    0.3671  -10.0826    3.6308 C   0  0  0  0  0  0  0  0  0  0  0  0
   -0.2783   -8.7440    3.0274 C   0  0  1  0  0  0  0  0  0  0  0  0
   -1.5448   -9.0607    2.2339 C   0  0  0  0  0  0  0  0  0  0  0  0
   -0.7724   -7.9695    4.0717 O   0  0  0  0  0  0  0  0  0  0  0  0
    0.3673   -7.5684    4.9828 O   0  0  0  0  0  0  0  0  0  0  0  0
    1.6841   -7.5429    4.3478 C   0  0  1  0  0  0  0  0  0  0  0  0
    2.4571   -6.5892    5.1134 O   0  0  0  0  0  0  0  0  0  0  0  0
    2.6216   -5.2169    4.8081 C   0  0  2  0  0  0  0  0  0  0  0  0
    2.7109   -4.9291    3.4451 O   0  0  0  0  0  0  0  0  0  0  0  0
    2.3696   -3.6207    2.9513 C   0  0  2  0  0  0  0  0  0  0  0  0
    3.0869   -2.2898    3.2030 C   0  0  2  0  0  0  0  0  0  0  0  0
    3.1356   -0.9745    2.4719 C   0  0  1  0  0  0  0  0  0  0  0  0
    2.3810    0.1108    3.2481 C   0  0  0  0  0  0  0  0  0  0  0  0
    4.6424   -0.6287    2.1721 C   0  0  1  0  0  0  0  0  0  0  0  0
    5.4193   -0.1757    3.4285 C   0  0  0  0  0  0  0  0  0  0  0  0
    5.4255   -1.7148    1.3379 C   0  0  2  0  0  0  0  0  0  0  0  0
    6.6092   -1.0944    0.6026 C   0  0  0  0  0  0  0  0  0  0  0  0
    4.5415   -2.1641    0.3287 O   0  0  0  0  0  0  0  0  0  0  0  0
    3.5730   -3.2035    0.9172 O   0  0  0  0  0  0  0  0  0  0  0  0
    3.7197   -3.3177    2.3441 C   0  0  2  0  0  0  0  0  0  0  0  0
    5.1397   -3.6413    2.7719 C   0  0  1  0  0  0  0  0  0  0  0  0
    5.2762   -5.0102    2.5758 O   0  0  0  0  0  0  0  0  0  0  0  0
    5.9949   -2.8349    2.0342 O   0  0  0  0  0  0  0  0  0  0  0  0
    3.9631   -4.7571    5.5142 C   0  0  1  0  0  0  0  0  0  0  0  0
    3.7208   -4.8444    7.0287 C   0  0  0  0  0  0  0  0  0  0  0  0
    1.8045   -7.5825    2.7568 C   0  0  1  0  0  0  0  0  0  0  0  0
    0.5328   -7.8628    2.1863 O   0  0  0  0  0  0  0  0  0  0  0  0
    3.3053   -7.7264    2.1897 C   0  0  1  0  0  0  0  0  0  0  0  0
    3.6331   -6.7205    1.0813 C   0  0  0  0  0  0  0  0  0  0  0  0
    6.6017   -3.6567    5.4844 H   0  0  0  0  0  0  0  0  0  0  0  0
    7.5080   -5.1661    5.5550 H   0  0  0  0  0  0  0  0  0  0  0  0
    6.4754   -4.7057    6.8753 H   0  0  0  0  0  0  0  0  0  0  0  0
    5.4012   -6.4047    5.6477 H   0  0  0  0  0  0  0  0  0  0  0  0
    6.8897   -5.6790    3.4939 H   0  0  0  0  0  0  0  0  0  0  0  0
    3.9464   -6.8482    3.7712 H   0  0  0  0  0  0  0  0  0  0  0  0
    4.3366   -9.8092    4.0568 H   0  0  0  0  0  0  0  0  0  0  0  0
    4.1799   -7.9663    6.4495 H   0  0  0  0  0  0  0  0  0  0  0  0
    5.6807   -8.6413    5.7728 H   0  0  0  0  0  0  0  0  0  0  0  0
    4.4319   -9.6888    6.4251 H   0  0  0  0  0  0  0  0  0  0  0  0
    2.5108   -9.5121    3.7413 H   0  0  0  0  0  0  0  0  0  0  0  0
    1.8352  -10.9958    4.9897 H   0  0  0  0  0  0  0  0  0  0  0  0
    0.8142   -9.8450    5.7764 H   0  0  0  0  0  0  0  0  0  0  0  0
    0.7771  -10.6842    2.8196 H   0  0  0  0  0  0  0  0  0  0  0  0
   -0.4194  -10.7243    4.0148 H   0  0  0  0  0  0  0  0  0  0  0  0
   -1.9911   -8.1443    1.8553 H   0  0  0  0  0  0  0  0  0  0  0  0
   -2.2986   -9.5558    2.8495 H   0  0  0  0  0  0  0  0  0  0  0  0
   -1.4006   -9.7116    1.3730 H   0  0  0  0  0  0  0  0  0  0  0  0
    1.7332   -4.6956    5.1875 H   0  0  0  0  0  0  0  0  0  0  0  0
    1.5310   -3.6423    2.2451 H   0  0  0  0  0  0  0  0  0  0  0  0
    3.4057   -2.1690    4.2221 H   0  0  0  0  0  0  0  0  0  0  0  0
    2.6156   -1.0851    1.5214 H   0  0  0  0  0  0  0  0  0  0  0  0
    2.7644    0.2309    4.2635 H   0  0  0  0  0  0  0  0  0  0  0  0
    1.3275   -0.1484    3.3373 H   0  0  0  0  0  0  0  0  0  0  0  0
    2.4457    1.0755    2.7514 H   0  0  0  0  0  0  0  0  0  0  0  0
    4.5803    0.2438    1.5147 H   0  0  0  0  0  0  0  0  0  0  0  0
    5.4674   -0.9471    4.1852 H   0  0  0  0  0  0  0  0  0  0  0  0
    4.9660    0.7052    3.8711 H   0  0  0  0  0  0  0  0  0  0  0  0
    6.4370    0.1117    3.1851 H   0  0  0  0  0  0  0  0  0  0  0  0
    7.1176   -1.8282   -0.0271 H   0  0  0  0  0  0  0  0  0  0  0  0
    7.3698   -0.7180    1.2860 H   0  0  0  0  0  0  0  0  0  0  0  0
    6.2987   -0.2602   -0.0329 H   0  0  0  0  0  0  0  0  0  0  0  0
    5.3213   -3.3315    3.7873 H   0  0  0  0  0  0  0  0  0  0  0  0
    4.0576   -3.6945    5.3675 H   0  0  0  0  0  0  0  0  0  0  0  0
    3.7494   -5.8761    7.3844 H   0  0  0  0  0  0  0  0  0  0  0  0
    2.7538   -4.4257    7.3024 H   0  0  0  0  0  0  0  0  0  0  0  0
    4.4626   -4.2786    7.5898 H   0  0  0  0  0  0  0  0  0  0  0  0
    1.7747   -8.5706    2.3217 H   0  0  0  0  0  0  0  0  0  0  0  0
    3.4956   -8.6991    1.7204 H   0  0  0  0  0  0  0  0  0  0  0  0
    3.3558   -5.7044    1.3150 H   0  0  0  0  0  0  0  0  0  0  0  0
    3.0708   -6.9351    0.1962 H   0  0  0  0  0  0  0  0  0  0  0  0
    4.6839   -6.7593    0.7978 H   0  0  0  0  0  0  0  0  0  0  0  0
  1  2  1  0
  1 39  1  0
  1 40  1  0
  1 41  1  0
  2 33  1  0
  2  3  1  0
  2 42  1  1
  3 31  1  0
  3  4  1  0
  3 43  1  1
  4  5  1  0
  5 37  1  0
  5  6  1  0
  5 44  1  1
  6  7  1  0
  6  8  1  0
  6 45  1  6
  7 46  1  0
  7 47  1  0
  7 48  1  0
  8 15  1  0
  8  9  1  0
  8 49  1  1
  9 10  1  0
  9 50  1  0
  9 51  1  0
 10 11  1  0
 10 52  1  0
 10 53  1  0
 11 36  1  0
 11 12  1  6
 11 13  1  0
 12 54  1  0
 12 55  1  0
 12 56  1  0
 13 14  1  0
 15 14  1  6
 15 16  1  0
 15 35  1  0
 16 17  1  0
 17 18  1  0
 17 33  1  0
 17 57  1  1
 18 19  1  0
 19 29  1  0
 19 20  1  0
 19 58  1  6
 20 29  1  0
 20 21  1  0
 20 59  1  1
 21 22  1  0
 21 23  1  0
 21 60  1  6
 22 61  1  0
 22 62  1  0
 22 63  1  0
 23 24  1  0
 23 25  1  0
 23 64  1  6
 24 65  1  0
 24 66  1  0
 24 67  1  0
 25 32  1  0
 25 26  1  6
 25 27  1  0
 26 68  1  0
 26 69  1  0
 26 70  1  0
 27 28  1  0
 29 28  1  6
 29 30  1  0
 30 31  1  0
 30 32  1  0
 30 71  1  1
 33 34  1  0
 33 72  1  1
 34 73  1  0
 34 74  1  0
 34 75  1  0
 35 36  1  0
 35 37  1  0
 35 76  1  6
 37 38  1  0
 37 77  1  6
 38 78  1  0
 38 79  1  0
 38 80  1  0
M  END
>  <i_m_ct_stereo_status>  (266) 
1

>  <s_m_source_file>  (266) 
/var/tmp/pbs.5083856.sched01/tmp4aac__3h/1058c4mwpoo.sdf

>  <i_m_source_file_index>  (266) 
3

>  <i_lp_mmshare_version>  (266) 
48012

>  <i_f3d_flags>  (266) 
0

>  <s_epik_input>  (266) 
W0NIMl0xW0NIMl1bQ0BAXShbQ0gzXSkoT08yKU9bQ0BIXTNbQ0BASF0oW0NIM10pW0NAQEhdKFtDQEBIXShbQ0gzXSlbQ0BASF0xQzIzNClPW0NAQEhdNVtDQEBIXShbQ0gzXSlbQ0BIXShbQ0gzXSlbQ0BIXShPNClPW0NAQEhdNltDQF03OFtDQEhdNltDQEBIXShbQ0gzXSlbQ0BASF0oW0NIM10pW0NAXShbQ0gzXSkoT083KU9bQ0BASF04TzU=

>  <s_epik_cmdline>  (266) 
J2VwaWtfcHl0aG9uJywgJy1waHQnLCAnMi4wJywgJy1waCcsICc3LjAnLCAnLXRuJywgJzgnLCAnLW1hJywgJzIwMCcsICctaW1hZScsICc8aW5maWxlLm1hZT4nLCAnLW9tYWUnLCAnPG91dGZpbGUubWFlPic=

>  <r_lp_tautomer_probability>  (266) 
1

>  <r_epik_Ionization_Penalty>  (266) 
1.87207e-13

>  <r_epik_Ionization_Penalty_Charging>  (266) 
0

>  <r_epik_Ionization_Penalty_Neutral>  (266) 
1.87207e-13

>  <r_epik_State_Penalty>  (266) 
-0

>  <r_epik_Charging_Adjusted_Penalty>  (266) 
0

>  <i_epik_Tot_Q>  (266) 
0

>  <i_epik_Tot_abs_Q>  (266) 
0

>  <s_epik_Chemistry_Notes>  (266) 
This compound contains an acetal/aminal-like group ( X-CH(R)-Y where X, Y are N, S, or O) that may be acid/base labile, releasing an aldehyde.

>  <s_lp_Force_Field>  (266) 
OPLS3e

>  <r_lp_Energy>  (266) 
250.617

>  <b_lp_Chiralities_Consistent>  (266) 
1

>  <s_lp_Variant>  (266) 
76:0-1

>  <s_i_glide_gridfile>  (266) 
pfpi4k_grid

>  <i_i_glide_lignum>  (266) 
3

>  <i_i_glide_rotatable_bonds>  (266) 
0

>  <r_i_docking_score>  (266) 
-2.35497

>  <r_i_glide_ligand_efficiency>  (266) 
-0.061973

>  <r_i_glide_ligand_efficiency_sa>  (266) 
-0.208352

>  <r_i_glide_ligand_efficiency_ln>  (266) 
-0.507802

>  <r_i_glide_gscore>  (266) 
-2.35497

>  <r_i_glide_lipo>  (266) 
-0.516134

>  <r_i_glide_hbond>  (266) 
0

>  <r_i_glide_metal>  (266) 
-0

>  <r_i_glide_rewards>  (266) 
-0.200676

>  <r_i_glide_evdw>  (266) 
-26.7162

>  <r_i_glide_ecoul>  (266) 
-1.72758

>  <r_i_glide_erotb>  (266) 
0

>  <r_i_glide_esite>  (266) 
-0.0432176

>  <r_i_glide_emodel>  (266) 
-31.9298

>  <r_i_glide_energy>  (266) 
-28.4438

>  <r_i_glide_einternal>  (266) 
0

>  <r_i_glide_intrahb_reward>  (266) 
-0

>  <i_i_glide_confnum>  (266) 
2

>  <i_i_glide_posenum>  (266) 
18

>  <r_i_glide_eff_state_penalty>  (266) 
0

>  <ligand_id>  (266) 
76

>  <original_smiles>  (266) 
CC1C2OC3C(C)C4CCC5(C)OOC4(OC(OC4C6C(C)C(C)C7(C)OOC46C(O2)O7)C1C)C(O5)C3C

>  <smiles>  (266) 
[H]C([H])([H])C12OOC34OC5([H])OC6([H])C7([H])C([H])(C([H])([H])[H])C([H])(C([H])([H])[H])C8(C([H])([H])[H])OOC67C([H])(OC([H])(OC([H])(C([H])(C([H])([H])[H])C3([H])O1)C([H])(C([H])([H])[H])C4([H])C([H])([H])C2([H])[H])C([H])(C([H])([H])[H])C5([H])C([H])([H])[H])O8

$$$$
76:0:1
     RDKit          3D

 80 87  0  0  1  0  0  0  0  0999 V2000
    6.6129   -5.0676    5.4261 C   0  0  0  0  0  0  0  0  0  0  0  0
    5.3643   -5.7617    4.8400 C   0  0  2  0  0  0  0  0  0  0  0  0
    5.5553   -5.8170    3.2278 C   0  0  1  0  0  0  0  0  0  0  0  0
    5.3734   -7.1577    2.7227 O   0  0  0  0  0  0  0  0  0  0  0  0
    4.0834   -7.7691    2.9313 C   0  0  2  0  0  0  0  0  0  0  0  0
    3.9603   -9.0923    3.8211 C   0  0  1  0  0  0  0  0  0  0  0  0
    4.8347   -9.1947    5.0770 C   0  0  0  0  0  0  0  0  0  0  0  0
    2.4444   -9.2452    4.2173 C   0  0  1  0  0  0  0  0  0  0  0  0
    1.5017  -10.4392    4.4173 C   0  0  0  0  0  0  0  0  0  0  0  0
    0.2882  -10.3386    3.4025 C   0  0  0  0  0  0  0  0  0  0  0  0
   -0.4403   -8.9308    3.1367 C   0  0  1  0  0  0  0  0  0  0  0  0
   -1.7973   -9.1457    2.4804 C   0  0  0  0  0  0  0  0  0  0  0  0
   -0.7732   -8.3673    4.3579 O   0  0  0  0  0  0  0  0  0  0  0  0
    0.4963   -8.1054    5.1328 O   0  0  0  0  0  0  0  0  0  0  0  0
    1.6692   -7.8958    4.3145 C   0  0  1  0  0  0  0  0  0  0  0  0
    2.5311   -7.0413    5.1022 O   0  0  0  0  0  0  0  0  0  0  0  0
    2.5963   -5.6327    5.0176 C   0  0  2  0  0  0  0  0  0  0  0  0
    2.4377   -5.1141    3.7291 O   0  0  0  0  0  0  0  0  0  0  0  0
    1.9766   -3.7710    3.5345 C   0  0  2  0  0  0  0  0  0  0  0  0
    2.6946   -2.4438    3.9103 C   0  0  2  0  0  0  0  0  0  0  0  0
    2.5874   -1.0331    3.4252 C   0  0  1  0  0  0  0  0  0  0  0  0
    1.9383   -0.1385    4.4930 C   0  0  0  0  0  0  0  0  0  0  0  0
    4.0072   -0.5342    2.9394 C   0  0  1  0  0  0  0  0  0  0  0  0
    4.9797   -0.2426    4.1063 C   0  0  0  0  0  0  0  0  0  0  0  0
    4.6684   -1.4396    1.8200 C   0  0  2  0  0  0  0  0  0  0  0  0
    5.6917   -0.6344    1.0114 C   0  0  0  0  0  0  0  0  0  0  0  0
    3.6503   -1.7686    0.9029 O   0  0  0  0  0  0  0  0  0  0  0  0
    2.8220   -2.9426    1.4512 O   0  0  0  0  0  0  0  0  0  0  0  0
    3.2186   -3.2755    2.7837 C   0  0  2  0  0  0  0  0  0  0  0  0
    4.6782   -3.5861    2.9246 C   0  0  1  0  0  0  0  0  0  0  0  0
    4.8324   -4.8943    2.4515 O   0  0  0  0  0  0  0  0  0  0  0  0
    5.3978   -2.6012    2.2340 O   0  0  0  0  0  0  0  0  0  0  0  0
    4.0275   -5.2218    5.5610 C   0  0  1  0  0  0  0  0  0  0  0  0
    4.0478   -5.5783    7.0609 C   0  0  0  0  0  0  0  0  0  0  0  0
    1.5283   -7.6524    2.7387 C   0  0  1  0  0  0  0  0  0  0  0  0
    0.1870   -7.8993    2.3297 O   0  0  0  0  0  0  0  0  0  0  0  0
    2.9008   -7.6137    1.9117 C   0  0  1  0  0  0  0  0  0  0  0  0
    2.9511   -6.4336    0.9326 C   0  0  0  0  0  0  0  0  0  0  0  0
    6.5897   -3.9847    5.2933 H   0  0  0  0  0  0  0  0  0  0  0  0
    7.5287   -5.4391    4.9635 H   0  0  0  0  0  0  0  0  0  0  0  0
    6.7278   -5.2559    6.4913 H   0  0  0  0  0  0  0  0  0  0  0  0
    5.5103   -6.7796    5.1644 H   0  0  0  0  0  0  0  0  0  0  0  0
    6.5970   -5.6118    2.9673 H   0  0  0  0  0  0  0  0  0  0  0  0
    3.7780   -6.9809    3.4988 H   0  0  0  0  0  0  0  0  0  0  0  0
    4.3015   -9.9237    3.1863 H   0  0  0  0  0  0  0  0  0  0  0  0
    4.4963   -8.5241    5.8659 H   0  0  0  0  0  0  0  0  0  0  0  0
    5.8784   -8.9826    4.8446 H   0  0  0  0  0  0  0  0  0  0  0  0
    4.7922  -10.2006    5.4959 H   0  0  0  0  0  0  0  0  0  0  0  0
    2.4320   -9.6920    3.2384 H   0  0  0  0  0  0  0  0  0  0  0  0
    2.0139  -11.3969    4.2885 H   0  0  0  0  0  0  0  0  0  0  0  0
    1.1253  -10.4620    5.4376 H   0  0  0  0  0  0  0  0  0  0  0  0
    0.5609  -10.7999    2.4529 H   0  0  0  0  0  0  0  0  0  0  0  0
   -0.4521  -11.0119    3.8102 H   0  0  0  0  0  0  0  0  0  0  0  0
   -2.3100   -8.1978    2.3073 H   0  0  0  0  0  0  0  0  0  0  0  0
   -2.4535   -9.7238    3.1214 H   0  0  0  0  0  0  0  0  0  0  0  0
   -1.7002   -9.6591    1.5252 H   0  0  0  0  0  0  0  0  0  0  0  0
    1.7728   -5.2393    5.6219 H   0  0  0  0  0  0  0  0  0  0  0  0
    1.0549   -3.7202    2.9602 H   0  0  0  0  0  0  0  0  0  0  0  0
    3.1763   -2.4897    4.8753 H   0  0  0  0  0  0  0  0  0  0  0  0
    1.9179   -1.0061    2.5659 H   0  0  0  0  0  0  0  0  0  0  0  0
    2.4848   -0.1736    5.4370 H   0  0  0  0  0  0  0  0  0  0  0  0
    0.9235   -0.4739    4.7035 H   0  0  0  0  0  0  0  0  0  0  0  0
    1.8893    0.8968    4.1701 H   0  0  0  0  0  0  0  0  0  0  0  0
    3.8097    0.4262    2.4679 H   0  0  0  0  0  0  0  0  0  0  0  0
    5.1937   -1.1299    4.6905 H   0  0  0  0  0  0  0  0  0  0  0  0
    4.5754    0.5131    4.7774 H   0  0  0  0  0  0  0  0  0  0  0  0
    5.9280    0.1542    3.7475 H   0  0  0  0  0  0  0  0  0  0  0  0
    6.1204   -1.2259    0.2047 H   0  0  0  0  0  0  0  0  0  0  0  0
    6.5067   -0.3197    1.6458 H   0  0  0  0  0  0  0  0  0  0  0  0
    5.2540    0.2598    0.5716 H   0  0  0  0  0  0  0  0  0  0  0  0
    5.0270   -3.4495    3.9315 H   0  0  0  0  0  0  0  0  0  0  0  0
    4.0648   -4.1461    5.6003 H   0  0  0  0  0  0  0  0  0  0  0  0
    4.1672   -6.6515    7.2170 H   0  0  0  0  0  0  0  0  0  0  0  0
    3.1291   -5.2691    7.5590 H   0  0  0  0  0  0  0  0  0  0  0  0
    4.8598   -5.0762    7.5866 H   0  0  0  0  0  0  0  0  0  0  0  0
    1.4486   -8.5541    2.1479 H   0  0  0  0  0  0  0  0  0  0  0  0
    3.0430   -8.4876    1.2599 H   0  0  0  0  0  0  0  0  0  0  0  0
    2.7082   -5.4836    1.3887 H   0  0  0  0  0  0  0  0  0  0  0  0
    2.2196   -6.5659    0.1437 H   0  0  0  0  0  0  0  0  0  0  0  0
    3.9345   -6.3580    0.4673 H   0  0  0  0  0  0  0  0  0  0  0  0
  1  2  1  0
  1 39  1  0
  1 40  1  0
  1 41  1  0
  2 33  1  0
  2  3  1  0
  2 42  1  1
  3 31  1  0
  3  4  1  0
  3 43  1  1
  4  5  1  0
  5 37  1  0
  5  6  1  0
  5 44  1  1
  6  7  1  0
  6  8  1  0
  6 45  1  6
  7 46  1  0
  7 47  1  0
  7 48  1  0
  8 15  1  0
  8  9  1  0
  8 49  1  1
  9 10  1  0
  9 50  1  0
  9 51  1  0
 10 11  1  0
 10 52  1  0
 10 53  1  0
 11 36  1  0
 11 12  1  6
 11 13  1  0
 12 54  1  0
 12 55  1  0
 12 56  1  0
 13 14  1  0
 15 14  1  1
 15 16  1  0
 15 35  1  0
 16 17  1  0
 17 18  1  0
 17 33  1  0
 17 57  1  1
 18 19  1  0
 19 29  1  0
 19 20  1  0
 19 58  1  6
 20 29  1  0
 20 21  1  0
 20 59  1  1
 21 22  1  0
 21 23  1  0
 21 60  1  6
 22 61  1  0
 22 62  1  0
 22 63  1  0
 23 24  1  0
 23 25  1  0
 23 64  1  6
 24 65  1  0
 24 66  1  0
 24 67  1  0
 25 32  1  0
 25 26  1  6
 25 27  1  0
 26 68  1  0
 26 69  1  0
 26 70  1  0
 27 28  1  0
 29 28  1  6
 29 30  1  0
 30 31  1  0
 30 32  1  0
 30 71  1  1
 33 34  1  0
 33 72  1  1
 34 73  1  0
 34 74  1  0
 34 75  1  0
 35 36  1  0
 35 37  1  0
 35 76  1  1
 37 38  1  0
 37 77  1  6
 38 78  1  0
 38 79  1  0
 38 80  1  0
M  END
>  <i_m_ct_stereo_status>  (267) 
1

>  <s_m_source_file>  (267) 
/var/tmp/pbs.5083856.sched01/tmp4aac__3h/1058c4mwpoo.sdf

>  <i_m_source_file_index>  (267) 
3

>  <i_lp_mmshare_version>  (267) 
48012

>  <i_f3d_flags>  (267) 
0

>  <s_epik_input>  (267) 
W0NIMl0xW0NIMl1bQ0BAXShbQ0gzXSkoT08yKU9bQ0BIXTNbQ0BASF0oW0NIM10pW0NAQEhdKFtDQEBIXShbQ0gzXSlbQ0BASF0xQzIzNClPW0NAQEhdNVtDQEBIXShbQ0gzXSlbQ0BIXShbQ0gzXSlbQ0BIXShPNClPW0NAQEhdNltDQF03OFtDQEhdNltDQEBIXShbQ0gzXSlbQ0BASF0oW0NIM10pW0NAXShbQ0gzXSkoT083KU9bQ0BASF04TzU=

>  <s_epik_cmdline>  (267) 
J2VwaWtfcHl0aG9uJywgJy1waHQnLCAnMi4wJywgJy1waCcsICc3LjAnLCAnLXRuJywgJzgnLCAnLW1hJywgJzIwMCcsICctaW1hZScsICc8aW5maWxlLm1hZT4nLCAnLW9tYWUnLCAnPG91dGZpbGUubWFlPic=

>  <r_lp_tautomer_probability>  (267) 
1

>  <r_epik_Ionization_Penalty>  (267) 
1.87207e-13

>  <r_epik_Ionization_Penalty_Charging>  (267) 
0

>  <r_epik_Ionization_Penalty_Neutral>  (267) 
1.87207e-13

>  <r_epik_State_Penalty>  (267) 
-0

>  <r_epik_Charging_Adjusted_Penalty>  (267) 
0

>  <i_epik_Tot_Q>  (267) 
0

>  <i_epik_Tot_abs_Q>  (267) 
0

>  <s_epik_Chemistry_Notes>  (267) 
This compound contains an acetal/aminal-like group ( X-CH(R)-Y where X, Y are N, S, or O) that may be acid/base labile, releasing an aldehyde.

>  <s_lp_Force_Field>  (267) 
OPLS3e

>  <r_lp_Energy>  (267) 
250.617

>  <b_lp_Chiralities_Consistent>  (267) 
1

>  <s_lp_Variant>  (267) 
76:0-1

>  <s_i_glide_gridfile>  (267) 
pfpi4k_grid

>  <i_i_glide_lignum>  (267) 
3

>  <i_i_glide_rotatable_bonds>  (267) 
0

>  <r_i_docking_score>  (267) 
-2.21453

>  <r_i_glide_ligand_efficiency>  (267) 
-0.0582772

>  <r_i_glide_ligand_efficiency_sa>  (267) 
-0.195927

>  <r_i_glide_ligand_efficiency_ln>  (267) 
-0.477519

>  <r_i_glide_gscore>  (267) 
-2.21453

>  <r_i_glide_lipo>  (267) 
-0.48919

>  <r_i_glide_hbond>  (267) 
0

>  <r_i_glide_metal>  (267) 
-0

>  <r_i_glide_rewards>  (267) 
-0.0992574

>  <r_i_glide_evdw>  (267) 
-28.7563

>  <r_i_glide_ecoul>  (267) 
-0.931157

>  <r_i_glide_erotb>  (267) 
0

>  <r_i_glide_esite>  (267) 
-0.0485997

>  <r_i_glide_emodel>  (267) 
-33.1547

>  <r_i_glide_energy>  (267) 
-29.6874

>  <r_i_glide_einternal>  (267) 
0

>  <r_i_glide_intrahb_reward>  (267) 
-0

>  <i_i_glide_confnum>  (267) 
1

>  <i_i_glide_posenum>  (267) 
11

>  <r_i_glide_eff_state_penalty>  (267) 
0

>  <ligand_id>  (267) 
76

>  <original_smiles>  (267) 
CC1C2OC3C(C)C4CCC5(C)OOC4(OC(OC4C6C(C)C(C)C7(C)OOC46C(O2)O7)C1C)C(O5)C3C

>  <smiles>  (267) 
[H]C([H])([H])C12OOC34OC5([H])OC6([H])C7([H])C([H])(C([H])([H])[H])C([H])(C([H])([H])[H])C8(C([H])([H])[H])OOC67C([H])(OC([H])(OC([H])(C([H])(C([H])([H])[H])C3([H])O1)C([H])(C([H])([H])[H])C4([H])C([H])([H])C2([H])[H])C([H])(C([H])([H])[H])C5([H])C([H])([H])[H])O8

$$$$
76:0:2
     RDKit          3D

 80 87  0  0  1  0  0  0  0  0999 V2000
    5.6545   -9.8161    3.5105 C   0  0  0  0  0  0  0  0  0  0  0  0
    5.4621   -8.3528    3.0413 C   0  0  2  0  0  0  0  0  0  0  0  0
    5.4466   -7.4195    4.3611 C   0  0  1  0  0  0  0  0  0  0  0  0
    6.3938   -6.3305    4.2467 O   0  0  0  0  0  0  0  0  0  0  0  0
    6.2019   -5.3904    3.1667 C   0  0  2  0  0  0  0  0  0  0  0  0
    7.3119   -5.2426    2.0156 C   0  0  1  0  0  0  0  0  0  0  0  0
    8.0222   -6.5125    1.5325 C   0  0  0  0  0  0  0  0  0  0  0  0
    6.6571   -4.4815    0.8017 C   0  0  1  0  0  0  0  0  0  0  0  0
    7.1489   -3.4398   -0.2245 C   0  0  0  0  0  0  0  0  0  0  0  0
    6.2822   -2.1140   -0.1523 C   0  0  0  0  0  0  0  0  0  0  0  0
    4.7008   -2.1888    0.0463 C   0  0  1  0  0  0  0  0  0  0  0  0
    4.0943   -0.8300   -0.2768 C   0  0  0  0  0  0  0  0  0  0  0  0
    4.1733   -3.0651   -0.9021 O   0  0  0  0  0  0  0  0  0  0  0  0
    4.7619   -4.4356   -0.6867 O   0  0  0  0  0  0  0  0  0  0  0  0
    5.1233   -4.7394    0.6768 C   0  0  1  0  0  0  0  0  0  0  0  0
    4.9620   -6.1776    0.7950 O   0  0  0  0  0  0  0  0  0  0  0  0
    3.8439   -6.8559    1.3397 C   0  0  2  0  0  0  0  0  0  0  0  0
    3.1877   -6.1861    2.3651 O   0  0  0  0  0  0  0  0  0  0  0  0
    1.8102   -6.4582    2.6693 C   0  0  2  0  0  0  0  0  0  0  0  0
    1.1614   -7.7729    3.1355 C   0  0  2  0  0  0  0  0  0  0  0  0
   -0.1250   -8.0988    3.8501 C   0  0  1  0  0  0  0  0  0  0  0  0
   -1.1044   -8.8171    2.9098 C   0  0  0  0  0  0  0  0  0  0  0  0
    0.2118   -8.8916    5.1759 C   0  0  1  0  0  0  0  0  0  0  0  0
    0.6450  -10.3494    4.9102 C   0  0  0  0  0  0  0  0  0  0  0  0
    1.1898   -8.1658    6.1865 C   0  0  2  0  0  0  0  0  0  0  0  0
    0.9972   -8.6846    7.6216 C   0  0  0  0  0  0  0  0  0  0  0  0
    0.7886   -6.8053    6.2030 O   0  0  0  0  0  0  0  0  0  0  0  0
    1.3463   -6.0670    4.9845 O   0  0  0  0  0  0  0  0  0  0  0  0
    1.9948   -6.9714    4.0695 C   0  0  2  0  0  0  0  0  0  0  0  0
    3.0852   -7.7817    4.7289 C   0  0  1  0  0  0  0  0  0  0  0  0
    4.1936   -6.9426    4.7917 O   0  0  0  0  0  0  0  0  0  0  0  0
    2.6062   -8.2669    5.9423 O   0  0  0  0  0  0  0  0  0  0  0  0
    4.3479   -8.2573    1.8836 C   0  0  1  0  0  0  0  0  0  0  0  0
    4.8213   -9.0546    0.6753 C   0  0  0  0  0  0  0  0  0  0  0  0
    4.6457   -3.7792    1.8624 C   0  0  1  0  0  0  0  0  0  0  0  0
    4.1429   -2.5474    1.3413 O   0  0  0  0  0  0  0  0  0  0  0  0
    5.2814   -4.1145    3.2977 C   0  0  1  0  0  0  0  0  0  0  0  0
    4.2560   -4.0803    4.4378 C   0  0  0  0  0  0  0  0  0  0  0  0
    4.7407  -10.2517    3.9188 H   0  0  0  0  0  0  0  0  0  0  0  0
    6.4272   -9.8932    4.2765 H   0  0  0  0  0  0  0  0  0  0  0  0
    5.9799  -10.4639    2.7025 H   0  0  0  0  0  0  0  0  0  0  0  0
    6.4162   -8.1498    2.5749 H   0  0  0  0  0  0  0  0  0  0  0  0
    5.8305   -7.9798    5.2171 H   0  0  0  0  0  0  0  0  0  0  0  0
    5.4482   -5.9597    2.7796 H   0  0  0  0  0  0  0  0  0  0  0  0
    8.1340   -4.6609    2.4453 H   0  0  0  0  0  0  0  0  0  0  0  0
    7.3774   -7.1454    0.9287 H   0  0  0  0  0  0  0  0  0  0  0  0
    8.4087   -7.0862    2.3764 H   0  0  0  0  0  0  0  0  0  0  0  0
    8.8796   -6.2571    0.9125 H   0  0  0  0  0  0  0  0  0  0  0  0
    6.9084   -3.6394    1.4314 H   0  0  0  0  0  0  0  0  0  0  0  0
    8.2083   -3.2106   -0.0911 H   0  0  0  0  0  0  0  0  0  0  0  0
    7.0692   -3.8523   -1.2359 H   0  0  0  0  0  0  0  0  0  0  0  0
    6.7078   -1.4552    0.6137 H   0  0  0  0  0  0  0  0  0  0  0  0
    6.4648   -1.5941   -1.0889 H   0  0  0  0  0  0  0  0  0  0  0  0
    3.0143   -0.9124   -0.2032 H   0  0  0  0  0  0  0  0  0  0  0  0
    4.3331   -0.5316   -1.3039 H   0  0  0  0  0  0  0  0  0  0  0  0
    4.4326   -0.0395    0.4057 H   0  0  0  0  0  0  0  0  0  0  0  0
    3.1398   -6.9339    0.5109 H   0  0  0  0  0  0  0  0  0  0  0  0
    1.1874   -5.5666    2.5503 H   0  0  0  0  0  0  0  0  0  0  0  0
    1.5557   -8.6562    2.6466 H   0  0  0  0  0  0  0  0  0  0  0  0
   -0.6161   -7.1649    4.1363 H   0  0  0  0  0  0  0  0  0  0  0  0
   -0.6701   -9.7309    2.4925 H   0  0  0  0  0  0  0  0  0  0  0  0
   -1.3694   -8.1834    2.0628 H   0  0  0  0  0  0  0  0  0  0  0  0
   -2.0188   -9.0932    3.4252 H   0  0  0  0  0  0  0  0  0  0  0  0
   -0.7453   -8.9620    5.6911 H   0  0  0  0  0  0  0  0  0  0  0  0
    1.5715  -10.4132    4.3457 H   0  0  0  0  0  0  0  0  0  0  0  0
   -0.1188  -10.8955    4.3669 H   0  0  0  0  0  0  0  0  0  0  0  0
    0.7871  -10.8849    5.8487 H   0  0  0  0  0  0  0  0  0  0  0  0
    1.6256   -8.1243    8.3190 H   0  0  0  0  0  0  0  0  0  0  0  0
    1.2763   -9.7356    7.7283 H   0  0  0  0  0  0  0  0  0  0  0  0
   -0.0372   -8.5847    7.9626 H   0  0  0  0  0  0  0  0  0  0  0  0
    3.2732   -8.7033    4.1967 H   0  0  0  0  0  0  0  0  0  0  0  0
    3.4824   -8.8293    2.1665 H   0  0  0  0  0  0  0  0  0  0  0  0
    5.8127   -8.7068    0.3907 H   0  0  0  0  0  0  0  0  0  0  0  0
    4.1498   -8.9597   -0.1771 H   0  0  0  0  0  0  0  0  0  0  0  0
    4.9094  -10.1125    0.8876 H   0  0  0  0  0  0  0  0  0  0  0  0
    5.2880   -2.9289    2.0053 H   0  0  0  0  0  0  0  0  0  0  0  0
    5.9701   -3.3431    3.6542 H   0  0  0  0  0  0  0  0  0  0  0  0
    3.3708   -4.6702    4.2329 H   0  0  0  0  0  0  0  0  0  0  0  0
    3.9190   -3.0594    4.5995 H   0  0  0  0  0  0  0  0  0  0  0  0
    4.6971   -4.4290    5.3708 H   0  0  0  0  0  0  0  0  0  0  0  0
  1  2  1  0
  1 39  1  0
  1 40  1  0
  1 41  1  0
  2 33  1  0
  2  3  1  0
  2 42  1  6
  3 31  1  0
  3  4  1  0
  3 43  1  1
  4  5  1  0
  5 37  1  0
  5  6  1  0
  5 44  1  6
  6  7  1  0
  6  8  1  0
  6 45  1  1
  7 46  1  0
  7 47  1  0
  7 48  1  0
  8 15  1  0
  8  9  1  0
  8 49  1  6
  9 10  1  0
  9 50  1  0
  9 51  1  0
 10 11  1  0
 10 52  1  0
 10 53  1  0
 11 36  1  0
 11 12  1  6
 11 13  1  0
 12 54  1  0
 12 55  1  0
 12 56  1  0
 13 14  1  0
 15 14  1  6
 15 16  1  0
 15 35  1  0
 16 17  1  0
 17 18  1  0
 17 33  1  0
 17 57  1  6
 18 19  1  0
 19 29  1  0
 19 20  1  0
 19 58  1  1
 20 29  1  0
 20 21  1  0
 20 59  1  6
 21 22  1  0
 21 23  1  0
 21 60  1  1
 22 61  1  0
 22 62  1  0
 22 63  1  0
 23 24  1  0
 23 25  1  0
 23 64  1  1
 24 65  1  0
 24 66  1  0
 24 67  1  0
 25 32  1  0
 25 26  1  1
 25 27  1  0
 26 68  1  0
 26 69  1  0
 26 70  1  0
 27 28  1  0
 29 28  1  1
 29 30  1  0
 30 31  1  0
 30 32  1  0
 30 71  1  6
 33 34  1  0
 33 72  1  1
 34 73  1  0
 34 74  1  0
 34 75  1  0
 35 36  1  0
 35 37  1  0
 35 76  1  1
 37 38  1  0
 37 77  1  1
 38 78  1  0
 38 79  1  0
 38 80  1  0
M  END
>  <i_m_ct_stereo_status>  (268) 
1

>  <s_m_source_file>  (268) 
/var/tmp/pbs.5083856.sched01/tmp4aac__3h/1058c4mwpoo.sdf

>  <i_m_source_file_index>  (268) 
3

>  <i_lp_mmshare_version>  (268) 
48012

>  <i_f3d_flags>  (268) 
0

>  <s_epik_input>  (268) 
W0NIMl0xW0NIMl1bQ0BAXShbQ0gzXSkoT08yKU9bQ0BIXTNbQ0BASF0oW0NIM10pW0NAQEhdKFtDQEBIXShbQ0gzXSlbQ0BASF0xQzIzNClPW0NAQEhdNVtDQEBIXShbQ0gzXSlbQ0BIXShbQ0gzXSlbQ0BIXShPNClPW0NAQEhdNltDQF03OFtDQEhdNltDQEBIXShbQ0gzXSlbQ0BASF0oW0NIM10pW0NAXShbQ0gzXSkoT083KU9bQ0BASF04TzU=

>  <s_epik_cmdline>  (268) 
J2VwaWtfcHl0aG9uJywgJy1waHQnLCAnMi4wJywgJy1waCcsICc3LjAnLCAnLXRuJywgJzgnLCAnLW1hJywgJzIwMCcsICctaW1hZScsICc8aW5maWxlLm1hZT4nLCAnLW9tYWUnLCAnPG91dGZpbGUubWFlPic=

>  <r_lp_tautomer_probability>  (268) 
1

>  <r_epik_Ionization_Penalty>  (268) 
1.87207e-13

>  <r_epik_Ionization_Penalty_Charging>  (268) 
0

>  <r_epik_Ionization_Penalty_Neutral>  (268) 
1.87207e-13

>  <r_epik_State_Penalty>  (268) 
-0

>  <r_epik_Charging_Adjusted_Penalty>  (268) 
0

>  <i_epik_Tot_Q>  (268) 
0

>  <i_epik_Tot_abs_Q>  (268) 
0

>  <s_epik_Chemistry_Notes>  (268) 
This compound contains an acetal/aminal-like group ( X-CH(R)-Y where X, Y are N, S, or O) that may be acid/base labile, releasing an aldehyde.

>  <s_lp_Force_Field>  (268) 
OPLS3e

>  <r_lp_Energy>  (268) 
250.617

>  <b_lp_Chiralities_Consistent>  (268) 
1

>  <s_lp_Variant>  (268) 
76:0-1

>  <s_i_glide_gridfile>  (268) 
pfpi4k_grid

>  <i_i_glide_lignum>  (268) 
3

>  <i_i_glide_rotatable_bonds>  (268) 
0

>  <r_i_docking_score>  (268) 
-2.00322

>  <r_i_glide_ligand_efficiency>  (268) 
-0.0527162

>  <r_i_glide_ligand_efficiency_sa>  (268) 
-0.177231

>  <r_i_glide_ligand_efficiency_ln>  (268) 
-0.431952

>  <r_i_glide_gscore>  (268) 
-2.00322

>  <r_i_glide_lipo>  (268) 
-0.381977

>  <r_i_glide_hbond>  (268) 
0

>  <r_i_glide_metal>  (268) 
-0

>  <r_i_glide_rewards>  (268) 
-0.185014

>  <r_i_glide_evdw>  (268) 
-30.1852

>  <r_i_glide_ecoul>  (268) 
0.655899

>  <r_i_glide_erotb>  (268) 
0

>  <r_i_glide_esite>  (268) 
-0.0253528

>  <r_i_glide_emodel>  (268) 
-32.3927

>  <r_i_glide_energy>  (268) 
-29.5293

>  <r_i_glide_einternal>  (268) 
0

>  <r_i_glide_intrahb_reward>  (268) 
-0

>  <i_i_glide_confnum>  (268) 
2

>  <i_i_glide_posenum>  (268) 
35

>  <r_i_glide_eff_state_penalty>  (268) 
0

>  <ligand_id>  (268) 
76

>  <original_smiles>  (268) 
CC1C2OC3C(C)C4CCC5(C)OOC4(OC(OC4C6C(C)C(C)C7(C)OOC46C(O2)O7)C1C)C(O5)C3C

>  <smiles>  (268) 
[H]C([H])([H])C12OOC34OC5([H])OC6([H])C7([H])C([H])(C([H])([H])[H])C([H])(C([H])([H])[H])C8(C([H])([H])[H])OOC67C([H])(OC([H])(OC([H])(C([H])(C([H])([H])[H])C3([H])O1)C([H])(C([H])([H])[H])C4([H])C([H])([H])C2([H])[H])C([H])(C([H])([H])[H])C5([H])C([H])([H])[H])O8

$$$$
77:0:0
     RDKit          3D

 43 46  0  0  1  0  0  0  0  0999 V2000
    3.2953   -0.2904   -4.9130 C   0  0  0  0  0  0  0  0  0  0  0  0
    3.8304   -1.0907   -3.8359 N   0  0  0  0  0  0  0  0  0  0  0  0
    4.2795   -0.6788   -2.5989 C   0  0  0  0  0  0  0  0  0  0  0  0
    4.7106   -1.7768   -1.9240 C   0  0  0  0  0  0  0  0  0  0  0  0
    5.2573   -1.8977   -0.5305 C   0  0  0  0  0  0  0  0  0  0  0  0
    4.1519   -2.1309    0.4256 N   0  0  1  0  0  0  0  0  0  0  0  0
    4.5531   -2.3668    1.8203 C   0  0  0  0  0  0  0  0  0  0  0  0
    3.2625   -2.1609    2.6439 C   0  0  1  0  0  0  0  0  0  0  0  0
    3.4415   -1.4287    3.9666 C   0  0  0  0  0  0  0  0  0  0  0  0
    3.1642   -0.0749    3.6489 O   0  0  0  0  0  0  0  0  0  0  0  0
    2.1318    0.0095    2.6677 C   0  0  1  0  0  0  0  0  0  0  0  0
    0.7297   -0.0013    3.3143 C   0  0  0  0  0  0  0  0  0  0  0  0
    0.0504    1.3042    2.9305 C   0  0  0  0  0  0  0  0  0  0  0  0
    0.7568    1.7508    1.7311 N   0  0  0  0  0  0  0  0  0  0  0  0
    2.1620    1.3965    1.9792 C   0  0  0  0  0  0  0  0  0  0  0  0
    2.4105   -1.2246    1.7848 C   0  0  1  0  0  0  0  0  0  0  0  0
    3.2545   -0.9795    0.5277 C   0  0  0  0  0  0  0  0  0  0  0  0
    4.4642   -2.8502   -2.8344 C   0  0  0  0  0  0  0  0  0  0  0  0
    3.9495   -2.4258   -3.9768 N   0  0  0  0  0  0  0  0  0  0  0  0
    3.4725    0.7691   -4.7235 H   0  0  0  0  0  0  0  0  0  0  0  0
    2.2216   -0.4544   -4.9981 H   0  0  0  0  0  0  0  0  0  0  0  0
    3.7739   -0.5659   -5.8524 H   0  0  0  0  0  0  0  0  0  0  0  0
    4.2339    0.3674   -2.3186 H   0  0  0  0  0  0  0  0  0  0  0  0
    5.9553   -2.7304   -0.4602 H   0  0  0  0  0  0  0  0  0  0  0  0
    5.8237   -1.0026   -0.2551 H   0  0  0  0  0  0  0  0  0  0  0  0
    5.0072   -3.3525    1.9689 H   0  0  0  0  0  0  0  0  0  0  0  0
    5.2889   -1.6043    2.1023 H   0  0  0  0  0  0  0  0  0  0  0  0
    2.7652   -3.1223    2.7970 H   0  0  0  0  0  0  0  0  0  0  0  0
    2.7268   -1.7726    4.7075 H   0  0  0  0  0  0  0  0  0  0  0  0
    4.4440   -1.5086    4.3709 H   0  0  0  0  0  0  0  0  0  0  0  0
    0.1353   -0.8015    2.9079 H   0  0  0  0  0  0  0  0  0  0  0  0
    0.7505   -0.1290    4.3899 H   0  0  0  0  0  0  0  0  0  0  0  0
   -1.0248    1.2265    2.7689 H   0  0  0  0  0  0  0  0  0  0  0  0
    0.2600    2.0328    3.7031 H   0  0  0  0  0  0  0  0  0  0  0  0
    0.4301    1.2078    0.9287 H   0  0  0  0  0  0  0  0  0  0  0  0
    2.5973    2.1420    2.6533 H   0  0  0  0  0  0  0  0  0  0  0  0
    2.6829    1.4922    1.0347 H   0  0  0  0  0  0  0  0  0  0  0  0
    1.4933   -1.7372    1.4881 H   0  0  0  0  0  0  0  0  0  0  0  0
    3.9552   -0.1650    0.6453 H   0  0  0  0  0  0  0  0  0  0  0  0
    2.6599   -0.8012   -0.3587 H   0  0  0  0  0  0  0  0  0  0  0  0
    4.6201   -3.9099   -2.6955 H   0  0  0  0  0  0  0  0  0  0  0  0
    0.6333    2.7451    1.5445 H   0  0  0  0  0  0  0  0  0  0  0  0
    3.5741   -2.9081    0.1363 H   0  0  0  0  0  0  0  0  0  0  0  0
  1  2  1  0
  1 20  1  0
  1 21  1  0
  1 22  1  0
  2 19  1  0
  2  3  1  0
  3  4  2  0
  3 23  1  0
  4  5  1  0
  4 18  1  0
  5  6  1  0
  5 24  1  0
  5 25  1  0
  6 17  1  0
  6  7  1  0
  6 43  1  6
  7  8  1  0
  7 26  1  0
  7 27  1  0
  8 16  1  0
  8  9  1  0
  8 28  1  1
  9 10  1  0
  9 29  1  0
  9 30  1  0
 11 10  1  1
 11 15  1  0
 11 12  1  0
 11 16  1  0
 12 13  1  0
 12 31  1  0
 12 32  1  0
 13 14  1  0
 13 33  1  0
 13 34  1  0
 14 15  1  0
 14 35  1  0
 14 42  1  0
 15 36  1  0
 15 37  1  0
 16 17  1  0
 16 38  1  6
 17 39  1  0
 17 40  1  0
 18 19  2  0
 18 41  1  0
M  CHG  2   6   1  14   1
M  END
>  <i_m_ct_stereo_status>  (269) 
1

>  <s_m_source_file>  (269) 
/var/tmp/pbs.5083856.sched01/tmp4aac__3h/1058c4mwpoo.sdf

>  <i_m_source_file_index>  (269) 
4

>  <i_lp_mmshare_version>  (269) 
48012

>  <i_f3d_flags>  (269) 
0

>  <s_epik_input>  (269) 
W0NIM11uMVtjSF1jKFtjSF1uMSlbQ0gyXU4oW0NIMl0yKVtDSDJdW0NAQEhdKFtDSDJdTzMpW0NASF0yW0NAQF0zNFtDSDJdW0NIMl1bTkhdW0NIMl00

>  <s_epik_cmdline>  (269) 
J2VwaWtfcHl0aG9uJywgJy1waHQnLCAnMi4wJywgJy1waCcsICc3LjAnLCAnLXRuJywgJzgnLCAnLW1hJywgJzIwMCcsICctaW1hZScsICc8aW5maWxlLm1hZT4nLCAnLW9tYWUnLCAnPG91dGZpbGUubWFlPic=

>  <r_lp_tautomer_probability>  (269) 
1

>  <r_epik_Ionization_Penalty>  (269) 
0.122779

>  <r_epik_Ionization_Penalty_Charging>  (269) 
0.12271

>  <r_epik_Ionization_Penalty_Neutral>  (269) 
6.98255e-05

>  <r_epik_State_Penalty>  (269) 
0.111378

>  <r_epik_Charging_Adjusted_Penalty>  (269) 
0.234088

>  <i_epik_Tot_Q>  (269) 
2

>  <i_epik_Tot_abs_Q>  (269) 
2

>  <s_lp_Force_Field>  (269) 
OPLS3e

>  <r_lp_Energy>  (269) 
18.6225

>  <b_lp_Chiralities_Consistent>  (269) 
1

>  <s_lp_Variant>  (269) 
77:0-1

>  <s_i_glide_gridfile>  (269) 
pfpi4k_grid

>  <i_i_glide_lignum>  (269) 
4

>  <i_i_glide_rotatable_bonds>  (269) 
2

>  <r_i_docking_score>  (269) 
-4.90492

>  <r_i_glide_ligand_efficiency>  (269) 
-0.258154

>  <r_i_glide_ligand_efficiency_sa>  (269) 
-0.688858

>  <r_i_glide_ligand_efficiency_ln>  (269) 
-1.2435

>  <r_i_glide_gscore>  (269) 
-4.90492

>  <r_i_glide_lipo>  (269) 
-0.385819

>  <r_i_glide_hbond>  (269) 
-0.406402

>  <r_i_glide_metal>  (269) 
-0

>  <r_i_glide_rewards>  (269) 
-1.83909

>  <r_i_glide_evdw>  (269) 
-21.1447

>  <r_i_glide_ecoul>  (269) 
-10.9486

>  <r_i_glide_erotb>  (269) 
0.508687

>  <r_i_glide_esite>  (269) 
-0.0827694

>  <r_i_glide_emodel>  (269) 
-44.6555

>  <r_i_glide_energy>  (269) 
-32.0933

>  <r_i_glide_einternal>  (269) 
0.0482736

>  <r_i_glide_intrahb_reward>  (269) 
-0

>  <i_i_glide_confnum>  (269) 
2

>  <i_i_glide_posenum>  (269) 
32

>  <r_i_glide_eff_state_penalty>  (269) 
0

>  <ligand_id>  (269) 
77

>  <original_smiles>  (269) 
Cn1cc(CN2CC3COC4(CCNC4)C3C2)cn1

>  <smiles>  (269) 
[H]c1nn(C([H])([H])[H])c([H])c1C([H])([H])[N+]1([H])C([H])([H])C2([H])C([H])([H])OC3(C([H])([H])C([H])([H])[N+]([H])([H])C3([H])[H])C2([H])C1([H])[H]

$$$$
77:0:1
     RDKit          3D

 43 46  0  0  1  0  0  0  0  0999 V2000
   -1.0093    1.4971    2.3321 C   0  0  0  0  0  0  0  0  0  0  0  0
    0.3089    1.1985    2.8392 N   0  0  0  0  0  0  0  0  0  0  0  0
    1.1482    0.1896    2.4474 C   0  0  0  0  0  0  0  0  0  0  0  0
    2.3192    0.3275    3.1504 C   0  0  0  0  0  0  0  0  0  0  0  0
    3.5937   -0.4692    3.0809 C   0  0  0  0  0  0  0  0  0  0  0  0
    4.2076   -0.3520    1.7376 N   0  0  1  0  0  0  0  0  0  0  0  0
    5.5548   -0.9415    1.6036 C   0  0  0  0  0  0  0  0  0  0  0  0
    5.7708   -1.0706    0.0807 C   0  0  1  0  0  0  0  0  0  0  0  0
    6.4515   -2.3565   -0.3878 C   0  0  0  0  0  0  0  0  0  0  0  0
    5.3795   -3.2376   -0.7131 O   0  0  0  0  0  0  0  0  0  0  0  0
    4.2915   -2.4990   -1.2700 C   0  0  1  0  0  0  0  0  0  0  0  0
    4.4468   -2.3022   -2.7984 C   0  0  0  0  0  0  0  0  0  0  0  0
    3.2467   -2.9970   -3.4272 C   0  0  0  0  0  0  0  0  0  0  0  0
    2.2275   -3.0644   -2.3727 N   0  0  0  0  0  0  0  0  0  0  0  0
    2.9750   -3.3290   -1.1420 C   0  0  0  0  0  0  0  0  0  0  0  0
    4.3666   -1.1616   -0.5027 C   0  0  1  0  0  0  0  0  0  0  0  0
    3.4441   -1.0497    0.7024 C   0  0  0  0  0  0  0  0  0  0  0  0
    2.0609    1.4420    3.9929 C   0  0  0  0  0  0  0  0  0  0  0  0
    0.8581    1.9593    3.8068 N   0  0  0  0  0  0  0  0  0  0  0  0
   -1.3541    0.6893    1.6876 H   0  0  0  0  0  0  0  0  0  0  0  0
   -0.9754    2.4125    1.7451 H   0  0  0  0  0  0  0  0  0  0  0  0
   -1.7072    1.6162    3.1585 H   0  0  0  0  0  0  0  0  0  0  0  0
    0.8340   -0.5005    1.6786 H   0  0  0  0  0  0  0  0  0  0  0  0
    4.3151   -0.1025    3.8087 H   0  0  0  0  0  0  0  0  0  0  0  0
    3.4276   -1.5173    3.3403 H   0  0  0  0  0  0  0  0  0  0  0  0
    6.3192   -0.3482    2.1073 H   0  0  0  0  0  0  0  0  0  0  0  0
    5.5432   -1.9384    2.0591 H   0  0  0  0  0  0  0  0  0  0  0  0
    6.2720   -0.1734   -0.2877 H   0  0  0  0  0  0  0  0  0  0  0  0
    7.0515   -2.1604   -1.2780 H   0  0  0  0  0  0  0  0  0  0  0  0
    7.0958   -2.7836    0.3786 H   0  0  0  0  0  0  0  0  0  0  0  0
    4.4090   -1.2497   -3.0696 H   0  0  0  0  0  0  0  0  0  0  0  0
    5.3841   -2.7088   -3.1793 H   0  0  0  0  0  0  0  0  0  0  0  0
    2.8712   -2.5064   -4.3316 H   0  0  0  0  0  0  0  0  0  0  0  0
    3.5224   -4.0258   -3.6830 H   0  0  0  0  0  0  0  0  0  0  0  0
    1.7857   -2.1559   -2.2460 H   0  0  0  0  0  0  0  0  0  0  0  0
    3.2402   -4.3956   -1.1252 H   0  0  0  0  0  0  0  0  0  0  0  0
    2.3211   -3.1543   -0.2842 H   0  0  0  0  0  0  0  0  0  0  0  0
    4.1927   -0.3007   -1.1473 H   0  0  0  0  0  0  0  0  0  0  0  0
    3.2060   -2.0273    1.1258 H   0  0  0  0  0  0  0  0  0  0  0  0
    2.5502   -0.5274    0.3985 H   0  0  0  0  0  0  0  0  0  0  0  0
    2.7181    1.8911    4.7252 H   0  0  0  0  0  0  0  0  0  0  0  0
    1.5377   -3.7787   -2.5644 H   0  0  0  0  0  0  0  0  0  0  0  0
    4.2540    0.6237    1.4649 H   0  0  0  0  0  0  0  0  0  0  0  0
  1  2  1  0
  1 20  1  0
  1 21  1  0
  1 22  1  0
  2 19  1  0
  2  3  1  0
  3  4  2  0
  3 23  1  0
  4  5  1  0
  4 18  1  0
  5  6  1  0
  5 24  1  0
  5 25  1  0
  6 17  1  0
  6  7  1  0
  6 43  1  6
  7  8  1  0
  7 26  1  0
  7 27  1  0
  8 16  1  0
  8  9  1  0
  8 28  1  6
  9 10  1  0
  9 29  1  0
  9 30  1  0
 11 10  1  1
 11 15  1  0
 11 12  1  0
 11 16  1  0
 12 13  1  0
 12 31  1  0
 12 32  1  0
 13 14  1  0
 13 33  1  0
 13 34  1  0
 14 15  1  0
 14 35  1  0
 14 42  1  0
 15 36  1  0
 15 37  1  0
 16 17  1  0
 16 38  1  6
 17 39  1  0
 17 40  1  0
 18 19  2  0
 18 41  1  0
M  CHG  2   6   1  14   1
M  END
>  <i_m_ct_stereo_status>  (270) 
1

>  <s_m_source_file>  (270) 
/var/tmp/pbs.5083856.sched01/tmp4aac__3h/1058c4mwpoo.sdf

>  <i_m_source_file_index>  (270) 
4

>  <i_lp_mmshare_version>  (270) 
48012

>  <i_f3d_flags>  (270) 
0

>  <s_epik_input>  (270) 
W0NIM11uMVtjSF1jKFtjSF1uMSlbQ0gyXU4oW0NIMl0yKVtDSDJdW0NAQEhdKFtDSDJdTzMpW0NASF0yW0NAQF0zNFtDSDJdW0NIMl1bTkhdW0NIMl00

>  <s_epik_cmdline>  (270) 
J2VwaWtfcHl0aG9uJywgJy1waHQnLCAnMi4wJywgJy1waCcsICc3LjAnLCAnLXRuJywgJzgnLCAnLW1hJywgJzIwMCcsICctaW1hZScsICc8aW5maWxlLm1hZT4nLCAnLW9tYWUnLCAnPG91dGZpbGUubWFlPic=

>  <r_lp_tautomer_probability>  (270) 
1

>  <r_epik_Ionization_Penalty>  (270) 
0.122779

>  <r_epik_Ionization_Penalty_Charging>  (270) 
0.12271

>  <r_epik_Ionization_Penalty_Neutral>  (270) 
6.98255e-05

>  <r_epik_State_Penalty>  (270) 
0.111378

>  <r_epik_Charging_Adjusted_Penalty>  (270) 
0.234088

>  <i_epik_Tot_Q>  (270) 
2

>  <i_epik_Tot_abs_Q>  (270) 
2

>  <s_lp_Force_Field>  (270) 
OPLS3e

>  <r_lp_Energy>  (270) 
18.6225

>  <b_lp_Chiralities_Consistent>  (270) 
1

>  <s_lp_Variant>  (270) 
77:0-1

>  <s_i_glide_gridfile>  (270) 
pfpi4k_grid

>  <i_i_glide_lignum>  (270) 
4

>  <i_i_glide_rotatable_bonds>  (270) 
2

>  <r_i_docking_score>  (270) 
-3.98713

>  <r_i_glide_ligand_efficiency>  (270) 
-0.209849

>  <r_i_glide_ligand_efficiency_sa>  (270) 
-0.559961

>  <r_i_glide_ligand_efficiency_ln>  (270) 
-1.01082

>  <r_i_glide_gscore>  (270) 
-3.98713

>  <r_i_glide_lipo>  (270) 
-0.513697

>  <r_i_glide_hbond>  (270) 
-0.144249

>  <r_i_glide_metal>  (270) 
-0

>  <r_i_glide_rewards>  (270) 
-1.60659

>  <r_i_glide_evdw>  (270) 
-20.2561

>  <r_i_glide_ecoul>  (270) 
-7.83379

>  <r_i_glide_erotb>  (270) 
0.508687

>  <r_i_glide_esite>  (270) 
-0.0434088

>  <r_i_glide_emodel>  (270) 
-37.5692

>  <r_i_glide_energy>  (270) 
-28.0899

>  <r_i_glide_einternal>  (270) 
1.10041

>  <r_i_glide_intrahb_reward>  (270) 
-0

>  <i_i_glide_confnum>  (270) 
2

>  <i_i_glide_posenum>  (270) 
3

>  <r_i_glide_eff_state_penalty>  (270) 
0

>  <ligand_id>  (270) 
77

>  <original_smiles>  (270) 
Cn1cc(CN2CC3COC4(CCNC4)C3C2)cn1

>  <smiles>  (270) 
[H]c1nn(C([H])([H])[H])c([H])c1C([H])([H])[N+]1([H])C([H])([H])C2([H])C([H])([H])OC3(C([H])([H])C([H])([H])[N+]([H])([H])C3([H])[H])C2([H])C1([H])[H]

$$$$
77:0:2
     RDKit          3D

 43 46  0  0  1  0  0  0  0  0999 V2000
   -0.4369   -7.6848    3.0805 C   0  0  0  0  0  0  0  0  0  0  0  0
    0.5896   -7.1557    2.2179 N   0  0  0  0  0  0  0  0  0  0  0  0
    1.9562   -7.1187    2.4195 C   0  0  0  0  0  0  0  0  0  0  0  0
    2.5198   -6.5635    1.3211 C   0  0  0  0  0  0  0  0  0  0  0  0
    3.9711   -6.3003    1.0302 C   0  0  0  0  0  0  0  0  0  0  0  0
    4.2277   -4.8389    0.9757 N   0  0  1  0  0  0  0  0  0  0  0  0
    5.6450   -4.4515    0.8298 C   0  0  0  0  0  0  0  0  0  0  0  0
    5.6046   -2.9728    0.3873 C   0  0  1  0  0  0  0  0  0  0  0  0
    6.6144   -2.5782   -0.6795 C   0  0  0  0  0  0  0  0  0  0  0  0
    5.9133   -2.6908   -1.9010 O   0  0  0  0  0  0  0  0  0  0  0  0
    4.5478   -2.3350   -1.7324 C   0  0  1  0  0  0  0  0  0  0  0  0
    4.3329   -0.8150   -1.9080 C   0  0  0  0  0  0  0  0  0  0  0  0
    3.3894   -0.6576   -3.0857 C   0  0  0  0  0  0  0  0  0  0  0  0
    2.6747   -1.9249   -3.1800 N   0  0  0  0  0  0  0  0  0  0  0  0
    3.6887   -2.9324   -2.8808 C   0  0  0  0  0  0  0  0  0  0  0  0
    4.2528   -2.8082   -0.2938 C   0  0  1  0  0  0  0  0  0  0  0  0
    3.5906   -4.1741   -0.1676 C   0  0  0  0  0  0  0  0  0  0  0  0
    1.3881   -6.2879    0.4825 C   0  0  0  0  0  0  0  0  0  0  0  0
    0.2387   -6.6175    1.0372 N   0  0  0  0  0  0  0  0  0  0  0  0
   -0.0253   -7.8710    4.0708 H   0  0  0  0  0  0  0  0  0  0  0  0
   -0.8087   -8.6214    2.6636 H   0  0  0  0  0  0  0  0  0  0  0  0
   -1.2608   -6.9754    3.1603 H   0  0  0  0  0  0  0  0  0  0  0  0
    2.4115   -7.5048    3.3239 H   0  0  0  0  0  0  0  0  0  0  0  0
    4.6091   -6.7293    1.8013 H   0  0  0  0  0  0  0  0  0  0  0  0
    4.2764   -6.7811    0.1013 H   0  0  0  0  0  0  0  0  0  0  0  0
    6.2188   -4.6186    1.7451 H   0  0  0  0  0  0  0  0  0  0  0  0
    6.0860   -5.0622    0.0341 H   0  0  0  0  0  0  0  0  0  0  0  0
    5.6736   -2.3296    1.2699 H   0  0  0  0  0  0  0  0  0  0  0  0
    6.9202   -1.5499   -0.5313 H   0  0  0  0  0  0  0  0  0  0  0  0
    7.4953   -3.2100   -0.6805 H   0  0  0  0  0  0  0  0  0  0  0  0
    3.8691   -0.3996   -1.0227 H   0  0  0  0  0  0  0  0  0  0  0  0
    5.2551   -0.2702   -2.0697 H   0  0  0  0  0  0  0  0  0  0  0  0
    2.6709    0.1471   -3.0002 H   0  0  0  0  0  0  0  0  0  0  0  0
    3.9648   -0.5315   -3.9997 H   0  0  0  0  0  0  0  0  0  0  0  0
    1.9658   -1.9398   -2.4492 H   0  0  0  0  0  0  0  0  0  0  0  0
    4.3073   -3.0744   -3.7711 H   0  0  0  0  0  0  0  0  0  0  0  0
    3.1344   -3.8538   -2.7304 H   0  0  0  0  0  0  0  0  0  0  0  0
    3.6326   -2.1047    0.2641 H   0  0  0  0  0  0  0  0  0  0  0  0
    3.8480   -4.8252   -0.9994 H   0  0  0  0  0  0  0  0  0  0  0  0
    2.5143   -4.0260   -0.1106 H   0  0  0  0  0  0  0  0  0  0  0  0
    1.3590   -5.8820   -0.5162 H   0  0  0  0  0  0  0  0  0  0  0  0
    2.2466   -2.0763   -4.0916 H   0  0  0  0  0  0  0  0  0  0  0  0
    3.8736   -4.3887    1.8091 H   0  0  0  0  0  0  0  0  0  0  0  0
  1  2  1  0
  1 20  1  0
  1 21  1  0
  1 22  1  0
  2 19  1  0
  2  3  1  0
  3  4  2  0
  3 23  1  0
  4  5  1  0
  4 18  1  0
  5  6  1  0
  5 24  1  0
  5 25  1  0
  6 17  1  0
  6  7  1  0
  6 43  1  1
  7  8  1  0
  7 26  1  0
  7 27  1  0
  8 16  1  0
  8  9  1  0
  8 28  1  1
  9 10  1  0
  9 29  1  0
  9 30  1  0
 11 10  1  6
 11 15  1  0
 11 12  1  0
 11 16  1  0
 12 13  1  0
 12 31  1  0
 12 32  1  0
 13 14  1  0
 13 33  1  0
 13 34  1  0
 14 15  1  0
 14 35  1  0
 14 42  1  0
 15 36  1  0
 15 37  1  0
 16 17  1  0
 16 38  1  1
 17 39  1  0
 17 40  1  0
 18 19  2  0
 18 41  1  0
M  CHG  2   6   1  14   1
M  END
>  <i_m_ct_stereo_status>  (271) 
1

>  <s_m_source_file>  (271) 
/var/tmp/pbs.5083856.sched01/tmp4aac__3h/1058c4mwpoo.sdf

>  <i_m_source_file_index>  (271) 
4

>  <i_lp_mmshare_version>  (271) 
48012

>  <i_f3d_flags>  (271) 
0

>  <s_epik_input>  (271) 
W0NIM11uMVtjSF1jKFtjSF1uMSlbQ0gyXU4oW0NIMl0yKVtDSDJdW0NAQEhdKFtDSDJdTzMpW0NASF0yW0NAQF0zNFtDSDJdW0NIMl1bTkhdW0NIMl00

>  <s_epik_cmdline>  (271) 
J2VwaWtfcHl0aG9uJywgJy1waHQnLCAnMi4wJywgJy1waCcsICc3LjAnLCAnLXRuJywgJzgnLCAnLW1hJywgJzIwMCcsICctaW1hZScsICc8aW5maWxlLm1hZT4nLCAnLW9tYWUnLCAnPG91dGZpbGUubWFlPic=

>  <r_lp_tautomer_probability>  (271) 
1

>  <r_epik_Ionization_Penalty>  (271) 
0.122779

>  <r_epik_Ionization_Penalty_Charging>  (271) 
0.12271

>  <r_epik_Ionization_Penalty_Neutral>  (271) 
6.98255e-05

>  <r_epik_State_Penalty>  (271) 
0.111378

>  <r_epik_Charging_Adjusted_Penalty>  (271) 
0.234088

>  <i_epik_Tot_Q>  (271) 
2

>  <i_epik_Tot_abs_Q>  (271) 
2

>  <s_lp_Force_Field>  (271) 
OPLS3e

>  <r_lp_Energy>  (271) 
18.6225

>  <b_lp_Chiralities_Consistent>  (271) 
1

>  <s_lp_Variant>  (271) 
77:0-1

>  <s_i_glide_gridfile>  (271) 
pfpi4k_grid

>  <i_i_glide_lignum>  (271) 
4

>  <i_i_glide_rotatable_bonds>  (271) 
2

>  <r_i_docking_score>  (271) 
-3.93187

>  <r_i_glide_ligand_efficiency>  (271) 
-0.206941

>  <r_i_glide_ligand_efficiency_sa>  (271) 
-0.5522

>  <r_i_glide_ligand_efficiency_ln>  (271) 
-0.996813

>  <r_i_glide_gscore>  (271) 
-3.93187

>  <r_i_glide_lipo>  (271) 
-0.258588

>  <r_i_glide_hbond>  (271) 
-0.262922

>  <r_i_glide_metal>  (271) 
-0

>  <r_i_glide_rewards>  (271) 
-1.60659

>  <r_i_glide_evdw>  (271) 
-20.3854

>  <r_i_glide_ecoul>  (271) 
-8.22795

>  <r_i_glide_erotb>  (271) 
0.508687

>  <r_i_glide_esite>  (271) 
-0.0589915

>  <r_i_glide_emodel>  (271) 
-37.9036

>  <r_i_glide_energy>  (271) 
-28.6134

>  <r_i_glide_einternal>  (271) 
0.745263

>  <r_i_glide_intrahb_reward>  (271) 
-0

>  <i_i_glide_confnum>  (271) 
1

>  <i_i_glide_posenum>  (271) 
23

>  <r_i_glide_eff_state_penalty>  (271) 
0

>  <ligand_id>  (271) 
77

>  <original_smiles>  (271) 
Cn1cc(CN2CC3COC4(CCNC4)C3C2)cn1

>  <smiles>  (271) 
[H]c1nn(C([H])([H])[H])c([H])c1C([H])([H])[N+]1([H])C([H])([H])C2([H])C([H])([H])OC3(C([H])([H])C([H])([H])[N+]([H])([H])C3([H])[H])C2([H])C1([H])[H]

$$$$
77:1:0
     RDKit          3D

 42 45  0  0  1  0  0  0  0  0999 V2000
   -0.2302   -8.5114    2.3360 C   0  0  0  0  0  0  0  0  0  0  0  0
    0.8425   -7.5869    2.0571 N   0  0  0  0  0  0  0  0  0  0  0  0
    2.1483   -7.8508    1.6821 C   0  0  0  0  0  0  0  0  0  0  0  0
    2.7889   -6.6604    1.5601 C   0  0  0  0  0  0  0  0  0  0  0  0
    4.2233   -6.3862    1.1654 C   0  0  0  0  0  0  0  0  0  0  0  0
    4.5276   -4.9580    1.1203 N   0  0  0  0  0  0  0  0  0  0  0  0
    5.9506   -4.7054    0.8773 C   0  0  0  0  0  0  0  0  0  0  0  0
    5.9896   -3.2213    0.4877 C   0  0  1  0  0  0  0  0  0  0  0  0
    6.9781   -2.8076   -0.6004 C   0  0  0  0  0  0  0  0  0  0  0  0
    6.2240   -1.9006   -1.4019 O   0  0  0  0  0  0  0  0  0  0  0  0
    4.9125   -2.4468   -1.5483 C   0  0  1  0  0  0  0  0  0  0  0  0
    3.8688   -1.4180   -2.0405 C   0  0  0  0  0  0  0  0  0  0  0  0
    3.3120   -1.9989   -3.3396 C   0  0  0  0  0  0  0  0  0  0  0  0
    3.6047   -3.4508   -3.2753 N   0  0  0  0  0  0  0  0  0  0  0  0
    4.9444   -3.5185   -2.6680 C   0  0  0  0  0  0  0  0  0  0  0  0
    4.6314   -2.9677   -0.1262 C   0  0  1  0  0  0  0  0  0  0  0  0
    3.8567   -4.2895    0.0072 C   0  0  0  0  0  0  0  0  0  0  0  0
    1.7817   -5.7139    1.9189 C   0  0  0  0  0  0  0  0  0  0  0  0
    0.6077   -6.2641    2.1636 N   0  0  0  0  0  0  0  0  0  0  0  0
    0.1496   -9.5338    2.3482 H   0  0  0  0  0  0  0  0  0  0  0  0
   -0.9971   -8.4236    1.5667 H   0  0  0  0  0  0  0  0  0  0  0  0
   -0.6705   -8.2868    3.3090 H   0  0  0  0  0  0  0  0  0  0  0  0
    2.4993   -8.8667    1.5361 H   0  0  0  0  0  0  0  0  0  0  0  0
    4.9060   -6.8537    1.8725 H   0  0  0  0  0  0  0  0  0  0  0  0
    4.4582   -6.8376    0.1995 H   0  0  0  0  0  0  0  0  0  0  0  0
    6.5569   -4.9140    1.7607 H   0  0  0  0  0  0  0  0  0  0  0  0
    6.3150   -5.3296    0.0564 H   0  0  0  0  0  0  0  0  0  0  0  0
    6.1135   -2.5926    1.3708 H   0  0  0  0  0  0  0  0  0  0  0  0
    7.8708   -2.3335   -0.1982 H   0  0  0  0  0  0  0  0  0  0  0  0
    7.2920   -3.6608   -1.2013 H   0  0  0  0  0  0  0  0  0  0  0  0
    3.0529   -1.3258   -1.3292 H   0  0  0  0  0  0  0  0  0  0  0  0
    4.2808   -0.4201   -2.1886 H   0  0  0  0  0  0  0  0  0  0  0  0
    2.2552   -1.7829   -3.4970 H   0  0  0  0  0  0  0  0  0  0  0  0
    3.8654   -1.5827   -4.1826 H   0  0  0  0  0  0  0  0  0  0  0  0
    2.9390   -3.8830   -2.6521 H   0  0  0  0  0  0  0  0  0  0  0  0
    5.6663   -3.2153   -3.4382 H   0  0  0  0  0  0  0  0  0  0  0  0
    5.2334   -4.5251   -2.3452 H   0  0  0  0  0  0  0  0  0  0  0  0
    4.1503   -2.1971    0.4795 H   0  0  0  0  0  0  0  0  0  0  0  0
    3.9396   -4.9488   -0.8502 H   0  0  0  0  0  0  0  0  0  0  0  0
    2.7925   -4.0882    0.1593 H   0  0  0  0  0  0  0  0  0  0  0  0
    1.8477   -4.6389    1.9794 H   0  0  0  0  0  0  0  0  0  0  0  0
    3.5641   -3.8893   -4.1765 H   0  0  0  0  0  0  0  0  0  0  0  0
  1  2  1  0
  1 20  1  0
  1 21  1  0
  1 22  1  0
  2 19  1  0
  2  3  1  0
  3  4  2  0
  3 23  1  0
  4  5  1  0
  4 18  1  0
  5  6  1  0
  5 24  1  0
  5 25  1  0
  6 17  1  0
  6  7  1  0
  7  8  1  0
  7 26  1  0
  7 27  1  0
  8 16  1  0
  8  9  1  0
  8 28  1  1
  9 10  1  0
  9 29  1  0
  9 30  1  0
 11 10  1  1
 11 15  1  0
 11 12  1  0
 11 16  1  0
 12 13  1  0
 12 31  1  0
 12 32  1  0
 13 14  1  0
 13 33  1  0
 13 34  1  0
 14 15  1  0
 14 35  1  0
 14 42  1  0
 15 36  1  0
 15 37  1  0
 16 17  1  0
 16 38  1  1
 17 39  1  0
 17 40  1  0
 18 19  2  0
 18 41  1  0
M  CHG  1  14   1
M  END
>  <i_m_ct_stereo_status>  (272) 
1

>  <s_m_source_file>  (272) 
/var/tmp/pbs.5083856.sched01/tmp4aac__3h/1058c4mwpoo.sdf

>  <i_m_source_file_index>  (272) 
5

>  <i_lp_mmshare_version>  (272) 
48012

>  <i_f3d_flags>  (272) 
0

>  <s_epik_input>  (272) 
W0NIM11uMVtjSF1jKFtjSF1uMSlbQ0gyXU4oW0NIMl0yKVtDSDJdW0NAQEhdKFtDSDJdTzMpW0NASF0yW0NAQF0zNFtDSDJdW0NIMl1bTkhdW0NIMl00

>  <s_epik_cmdline>  (272) 
J2VwaWtfcHl0aG9uJywgJy1waHQnLCAnMi4wJywgJy1waCcsICc3LjAnLCAnLXRuJywgJzgnLCAnLW1hJywgJzIwMCcsICctaW1hZScsICc8aW5maWxlLm1hZT4nLCAnLW9tYWUnLCAnPG91dGZpbGUubWFlPic=

>  <r_lp_tautomer_probability>  (272) 
1

>  <r_epik_Ionization_Penalty>  (272) 
0.997454

>  <r_epik_Ionization_Penalty_Charging>  (272) 
0.00034327

>  <r_epik_Ionization_Penalty_Neutral>  (272) 
0.99711

>  <r_epik_State_Penalty>  (272) 
1.04509

>  <r_epik_Charging_Adjusted_Penalty>  (272) 
1.04544

>  <i_epik_Tot_Q>  (272) 
1

>  <i_epik_Tot_abs_Q>  (272) 
1

>  <s_lp_Force_Field>  (272) 
OPLS3e

>  <r_lp_Energy>  (272) 
11.9246

>  <b_lp_Chiralities_Consistent>  (272) 
1

>  <s_lp_Variant>  (272) 
77:0-2

>  <s_i_glide_gridfile>  (272) 
pfpi4k_grid

>  <i_i_glide_lignum>  (272) 
5

>  <i_i_glide_rotatable_bonds>  (272) 
2

>  <r_i_docking_score>  (272) 
-4.06186

>  <r_i_glide_ligand_efficiency>  (272) 
-0.213782

>  <r_i_glide_ligand_efficiency_sa>  (272) 
-0.570456

>  <r_i_glide_ligand_efficiency_ln>  (272) 
-1.02977

>  <r_i_glide_gscore>  (272) 
-4.06186

>  <r_i_glide_lipo>  (272) 
-0.510056

>  <r_i_glide_hbond>  (272) 
-0.233901

>  <r_i_glide_metal>  (272) 
-0

>  <r_i_glide_rewards>  (272) 
-1.61346

>  <r_i_glide_evdw>  (272) 
-21.2299

>  <r_i_glide_ecoul>  (272) 
-7.39246

>  <r_i_glide_erotb>  (272) 
0.512051

>  <r_i_glide_esite>  (272) 
-0.0461255

>  <r_i_glide_emodel>  (272) 
-37.1268

>  <r_i_glide_energy>  (272) 
-28.6223

>  <r_i_glide_einternal>  (272) 
0.624198

>  <r_i_glide_intrahb_reward>  (272) 
-0

>  <i_i_glide_confnum>  (272) 
4

>  <i_i_glide_posenum>  (272) 
1

>  <r_i_glide_eff_state_penalty>  (272) 
0

>  <ligand_id>  (272) 
77

>  <original_smiles>  (272) 
Cn1cc(CN2CC3COC4(CCNC4)C3C2)cn1

>  <smiles>  (272) 
[H]c1nn(C([H])([H])[H])c([H])c1C([H])([H])N1C([H])([H])C2([H])C([H])([H])OC3(C([H])([H])C([H])([H])[N+]([H])([H])C3([H])[H])C2([H])C1([H])[H]

$$$$
77:1:1
     RDKit          3D

 42 45  0  0  1  0  0  0  0  0999 V2000
   -0.1593   -8.2301    2.5155 C   0  0  0  0  0  0  0  0  0  0  0  0
    0.8974   -7.4502    1.9484 N   0  0  0  0  0  0  0  0  0  0  0  0
    2.2764   -7.6023    2.0285 C   0  0  0  0  0  0  0  0  0  0  0  0
    2.8331   -6.5987    1.2900 C   0  0  0  0  0  0  0  0  0  0  0  0
    4.3289   -6.3144    1.0707 C   0  0  0  0  0  0  0  0  0  0  0  0
    4.6763   -4.8907    0.9950 N   0  0  0  0  0  0  0  0  0  0  0  0
    6.0664   -4.6820    0.5799 C   0  0  0  0  0  0  0  0  0  0  0  0
    6.0799   -3.1900    0.1624 C   0  0  1  0  0  0  0  0  0  0  0  0
    6.9209   -2.8530   -1.0803 C   0  0  0  0  0  0  0  0  0  0  0  0
    6.0201   -2.8922   -2.1864 O   0  0  0  0  0  0  0  0  0  0  0  0
    4.7239   -2.4713   -1.7648 C   0  0  1  0  0  0  0  0  0  0  0  0
    4.5735   -0.9256   -1.9015 C   0  0  0  0  0  0  0  0  0  0  0  0
    3.4471   -0.7193   -2.9243 C   0  0  0  0  0  0  0  0  0  0  0  0
    2.6485   -1.9403   -2.8654 N   0  0  0  0  0  0  0  0  0  0  0  0
    3.6378   -3.0076   -2.7270 C   0  0  0  0  0  0  0  0  0  0  0  0
    4.6684   -2.9262   -0.2950 C   0  0  1  0  0  0  0  0  0  0  0  0
    3.9705   -4.2212   -0.0611 C   0  0  0  0  0  0  0  0  0  0  0  0
    1.6904   -5.9637    0.7319 C   0  0  0  0  0  0  0  0  0  0  0  0
    0.5418   -6.4107    1.1652 N   0  0  0  0  0  0  0  0  0  0  0  0
    0.2538   -8.9584    3.2207 H   0  0  0  0  0  0  0  0  0  0  0  0
   -0.6928   -8.7393    1.7024 H   0  0  0  0  0  0  0  0  0  0  0  0
   -0.8554   -7.5562    3.0290 H   0  0  0  0  0  0  0  0  0  0  0  0
    2.7175   -8.4158    2.5977 H   0  0  0  0  0  0  0  0  0  0  0  0
    4.9287   -6.7366    1.8762 H   0  0  0  0  0  0  0  0  0  0  0  0
    4.6778   -6.8371    0.1825 H   0  0  0  0  0  0  0  0  0  0  0  0
    6.7786   -4.8897    1.3815 H   0  0  0  0  0  0  0  0  0  0  0  0
    6.2980   -5.3073   -0.2870 H   0  0  0  0  0  0  0  0  0  0  0  0
    6.3387   -2.5439    1.0209 H   0  0  0  0  0  0  0  0  0  0  0  0
    7.3076   -1.8421   -0.9823 H   0  0  0  0  0  0  0  0  0  0  0  0
    7.7576   -3.5456   -1.2132 H   0  0  0  0  0  0  0  0  0  0  0  0
    4.2751   -0.4663   -0.9505 H   0  0  0  0  0  0  0  0  0  0  0  0
    5.4939   -0.4274   -2.2193 H   0  0  0  0  0  0  0  0  0  0  0  0
    2.8066    0.1423   -2.7256 H   0  0  0  0  0  0  0  0  0  0  0  0
    3.8685   -0.6401   -3.9136 H   0  0  0  0  0  0  0  0  0  0  0  0
    2.0468   -1.8936   -2.0328 H   0  0  0  0  0  0  0  0  0  0  0  0
    4.0738   -3.1899   -3.7041 H   0  0  0  0  0  0  0  0  0  0  0  0
    3.0898   -3.8860   -2.4422 H   0  0  0  0  0  0  0  0  0  0  0  0
    4.1964   -2.1837    0.3506 H   0  0  0  0  0  0  0  0  0  0  0  0
    3.9875   -4.8823   -0.9201 H   0  0  0  0  0  0  0  0  0  0  0  0
    2.9889   -3.8959    0.2110 H   0  0  0  0  0  0  0  0  0  0  0  0
    1.5831   -5.1644    0.0054 H   0  0  0  0  0  0  0  0  0  0  0  0
    2.0819   -2.0697   -3.6946 H   0  0  0  0  0  0  0  0  0  0  0  0
  1  2  1  0
  1 20  1  0
  1 21  1  0
  1 22  1  0
  2 19  1  0
  2  3  1  0
  3  4  2  0
  3 23  1  0
  4  5  1  0
  4 18  1  0
  5  6  1  0
  5 24  1  0
  5 25  1  0
  6 17  1  0
  6  7  1  0
  7  8  1  0
  7 26  1  0
  7 27  1  0
  8 16  1  0
  8  9  1  0
  8 28  1  1
  9 10  1  0
  9 29  1  0
  9 30  1  0
 11 10  1  6
 11 15  1  0
 11 12  1  0
 11 16  1  0
 12 13  1  0
 12 31  1  0
 12 32  1  0
 13 14  1  0
 13 33  1  0
 13 34  1  0
 14 15  1  0
 14 35  1  0
 14 42  1  0
 15 36  1  0
 15 37  1  0
 16 17  1  0
 16 38  1  1
 17 39  1  0
 17 40  1  0
 18 19  2  0
 18 41  1  0
M  CHG  1  14   1
M  END
>  <i_m_ct_stereo_status>  (273) 
1

>  <s_m_source_file>  (273) 
/var/tmp/pbs.5083856.sched01/tmp4aac__3h/1058c4mwpoo.sdf

>  <i_m_source_file_index>  (273) 
5

>  <i_lp_mmshare_version>  (273) 
48012

>  <i_f3d_flags>  (273) 
0

>  <s_epik_input>  (273) 
W0NIM11uMVtjSF1jKFtjSF1uMSlbQ0gyXU4oW0NIMl0yKVtDSDJdW0NAQEhdKFtDSDJdTzMpW0NASF0yW0NAQF0zNFtDSDJdW0NIMl1bTkhdW0NIMl00

>  <s_epik_cmdline>  (273) 
J2VwaWtfcHl0aG9uJywgJy1waHQnLCAnMi4wJywgJy1waCcsICc3LjAnLCAnLXRuJywgJzgnLCAnLW1hJywgJzIwMCcsICctaW1hZScsICc8aW5maWxlLm1hZT4nLCAnLW9tYWUnLCAnPG91dGZpbGUubWFlPic=

>  <r_lp_tautomer_probability>  (273) 
1

>  <r_epik_Ionization_Penalty>  (273) 
0.997454

>  <r_epik_Ionization_Penalty_Charging>  (273) 
0.00034327

>  <r_epik_Ionization_Penalty_Neutral>  (273) 
0.99711

>  <r_epik_State_Penalty>  (273) 
1.04509

>  <r_epik_Charging_Adjusted_Penalty>  (273) 
1.04544

>  <i_epik_Tot_Q>  (273) 
1

>  <i_epik_Tot_abs_Q>  (273) 
1

>  <s_lp_Force_Field>  (273) 
OPLS3e

>  <r_lp_Energy>  (273) 
11.9246

>  <b_lp_Chiralities_Consistent>  (273) 
1

>  <s_lp_Variant>  (273) 
77:0-2

>  <s_i_glide_gridfile>  (273) 
pfpi4k_grid

>  <i_i_glide_lignum>  (273) 
5

>  <i_i_glide_rotatable_bonds>  (273) 
2

>  <r_i_docking_score>  (273) 
-3.96828

>  <r_i_glide_ligand_efficiency>  (273) 
-0.208857

>  <r_i_glide_ligand_efficiency_sa>  (273) 
-0.557315

>  <r_i_glide_ligand_efficiency_ln>  (273) 
-1.00605

>  <r_i_glide_gscore>  (273) 
-3.96828

>  <r_i_glide_lipo>  (273) 
-0.289907

>  <r_i_glide_hbond>  (273) 
-0.36

>  <r_i_glide_metal>  (273) 
-0

>  <r_i_glide_rewards>  (273) 
-1.61346

>  <r_i_glide_evdw>  (273) 
-20.4184

>  <r_i_glide_ecoul>  (273) 
-7.43478

>  <r_i_glide_erotb>  (273) 
0.512051

>  <r_i_glide_esite>  (273) 
-0.0808276

>  <r_i_glide_emodel>  (273) 
-34.0531

>  <r_i_glide_energy>  (273) 
-27.8532

>  <r_i_glide_einternal>  (273) 
2.42868

>  <r_i_glide_intrahb_reward>  (273) 
-0

>  <i_i_glide_confnum>  (273) 
2

>  <i_i_glide_posenum>  (273) 
34

>  <r_i_glide_eff_state_penalty>  (273) 
0

>  <ligand_id>  (273) 
77

>  <original_smiles>  (273) 
Cn1cc(CN2CC3COC4(CCNC4)C3C2)cn1

>  <smiles>  (273) 
[H]c1nn(C([H])([H])[H])c([H])c1C([H])([H])N1C([H])([H])C2([H])C([H])([H])OC3(C([H])([H])C([H])([H])[N+]([H])([H])C3([H])[H])C2([H])C1([H])[H]

$$$$
77:1:2
     RDKit          3D

 42 45  0  0  1  0  0  0  0  0999 V2000
   -0.6458   -8.4914    2.2041 C   0  0  0  0  0  0  0  0  0  0  0  0
    0.4587   -7.5622    2.0809 N   0  0  0  0  0  0  0  0  0  0  0  0
    1.7603   -7.8154    1.6960 C   0  0  0  0  0  0  0  0  0  0  0  0
    2.4394   -6.6126    1.7609 C   0  0  0  0  0  0  0  0  0  0  0  0
    3.8855   -6.3360    1.4473 C   0  0  0  0  0  0  0  0  0  0  0  0
    4.1751   -4.9006    1.3787 N   0  0  0  0  0  0  0  0  0  0  0  0
    5.5890   -4.6240    1.1372 C   0  0  0  0  0  0  0  0  0  0  0  0
    5.5984   -3.1489    0.6956 C   0  0  1  0  0  0  0  0  0  0  0  0
    6.6046   -2.7968   -0.4035 C   0  0  0  0  0  0  0  0  0  0  0  0
    5.8761   -2.8876   -1.6087 O   0  0  0  0  0  0  0  0  0  0  0  0
    4.5319   -2.4849   -1.3968 C   0  0  1  0  0  0  0  0  0  0  0  0
    4.3700   -0.9511   -1.5960 C   0  0  0  0  0  0  0  0  0  0  0  0
    3.4108   -0.7744   -2.7649 C   0  0  0  0  0  0  0  0  0  0  0  0
    2.6374   -2.0149   -2.7987 N   0  0  0  0  0  0  0  0  0  0  0  0
    3.6172   -3.0690   -2.5051 C   0  0  0  0  0  0  0  0  0  0  0  0
    4.2420   -2.9500    0.0548 C   0  0  1  0  0  0  0  0  0  0  0  0
    3.5568   -4.3159    0.2047 C   0  0  0  0  0  0  0  0  0  0  0  0
    1.4449   -5.7196    2.2292 C   0  0  0  0  0  0  0  0  0  0  0  0
    0.2512   -6.2723    2.3782 N   0  0  0  0  0  0  0  0  0  0  0  0
   -0.2885   -9.5123    2.0924 H   0  0  0  0  0  0  0  0  0  0  0  0
   -1.3857   -8.2814    1.4334 H   0  0  0  0  0  0  0  0  0  0  0  0
   -1.1086   -8.3869    3.1864 H   0  0  0  0  0  0  0  0  0  0  0  0
    2.0946   -8.7931    1.4117 H   0  0  0  0  0  0  0  0  0  0  0  0
    4.5332   -6.7585    2.2111 H   0  0  0  0  0  0  0  0  0  0  0  0
    4.1850   -6.8096    0.5129 H   0  0  0  0  0  0  0  0  0  0  0  0
    6.1879   -4.8006    2.0317 H   0  0  0  0  0  0  0  0  0  0  0  0
    5.9665   -5.2638    0.3319 H   0  0  0  0  0  0  0  0  0  0  0  0
    5.7216   -2.5041    1.5740 H   0  0  0  0  0  0  0  0  0  0  0  0
    6.9637   -1.7763   -0.2687 H   0  0  0  0  0  0  0  0  0  0  0  0
    7.4666   -3.4635   -0.4065 H   0  0  0  0  0  0  0  0  0  0  0  0
    3.9407   -0.4996   -0.7056 H   0  0  0  0  0  0  0  0  0  0  0  0
    5.3157   -0.4594   -1.7962 H   0  0  0  0  0  0  0  0  0  0  0  0
    2.7504    0.0909   -2.7240 H   0  0  0  0  0  0  0  0  0  0  0  0
    3.9791   -0.7132   -3.6929 H   0  0  0  0  0  0  0  0  0  0  0  0
    1.9532   -1.9771   -2.0522 H   0  0  0  0  0  0  0  0  0  0  0  0
    4.2131   -3.2542   -3.4084 H   0  0  0  0  0  0  0  0  0  0  0  0
    3.0529   -3.9649   -2.2854 H   0  0  0  0  0  0  0  0  0  0  0  0
    3.6670   -2.2134    0.6211 H   0  0  0  0  0  0  0  0  0  0  0  0
    3.7882   -4.9893   -0.6211 H   0  0  0  0  0  0  0  0  0  0  0  0
    2.4772   -4.1940    0.2778 H   0  0  0  0  0  0  0  0  0  0  0  0
    1.5440   -4.6519    2.4269 H   0  0  0  0  0  0  0  0  0  0  0  0
    2.1902   -2.1820   -3.6967 H   0  0  0  0  0  0  0  0  0  0  0  0
  1  2  1  0
  1 20  1  0
  1 21  1  0
  1 22  1  0
  2 19  1  0
  2  3  1  0
  3  4  2  0
  3 23  1  0
  4  5  1  0
  4 18  1  0
  5  6  1  0
  5 24  1  0
  5 25  1  0
  6 17  1  0
  6  7  1  0
  7  8  1  0
  7 26  1  0
  7 27  1  0
  8 16  1  0
  8  9  1  0
  8 28  1  1
  9 10  1  0
  9 29  1  0
  9 30  1  0
 11 10  1  6
 11 15  1  0
 11 12  1  0
 11 16  1  0
 12 13  1  0
 12 31  1  0
 12 32  1  0
 13 14  1  0
 13 33  1  0
 13 34  1  0
 14 15  1  0
 14 35  1  0
 14 42  1  0
 15 36  1  0
 15 37  1  0
 16 17  1  0
 16 38  1  1
 17 39  1  0
 17 40  1  0
 18 19  2  0
 18 41  1  0
M  CHG  1  14   1
M  END
>  <i_m_ct_stereo_status>  (274) 
1

>  <s_m_source_file>  (274) 
/var/tmp/pbs.5083856.sched01/tmp4aac__3h/1058c4mwpoo.sdf

>  <i_m_source_file_index>  (274) 
5

>  <i_lp_mmshare_version>  (274) 
48012

>  <i_f3d_flags>  (274) 
0

>  <s_epik_input>  (274) 
W0NIM11uMVtjSF1jKFtjSF1uMSlbQ0gyXU4oW0NIMl0yKVtDSDJdW0NAQEhdKFtDSDJdTzMpW0NASF0yW0NAQF0zNFtDSDJdW0NIMl1bTkhdW0NIMl00

>  <s_epik_cmdline>  (274) 
J2VwaWtfcHl0aG9uJywgJy1waHQnLCAnMi4wJywgJy1waCcsICc3LjAnLCAnLXRuJywgJzgnLCAnLW1hJywgJzIwMCcsICctaW1hZScsICc8aW5maWxlLm1hZT4nLCAnLW9tYWUnLCAnPG91dGZpbGUubWFlPic=

>  <r_lp_tautomer_probability>  (274) 
1

>  <r_epik_Ionization_Penalty>  (274) 
0.997454

>  <r_epik_Ionization_Penalty_Charging>  (274) 
0.00034327

>  <r_epik_Ionization_Penalty_Neutral>  (274) 
0.99711

>  <r_epik_State_Penalty>  (274) 
1.04509

>  <r_epik_Charging_Adjusted_Penalty>  (274) 
1.04544

>  <i_epik_Tot_Q>  (274) 
1

>  <i_epik_Tot_abs_Q>  (274) 
1

>  <s_lp_Force_Field>  (274) 
OPLS3e

>  <r_lp_Energy>  (274) 
11.9246

>  <b_lp_Chiralities_Consistent>  (274) 
1

>  <s_lp_Variant>  (274) 
77:0-2

>  <s_i_glide_gridfile>  (274) 
pfpi4k_grid

>  <i_i_glide_lignum>  (274) 
5

>  <i_i_glide_rotatable_bonds>  (274) 
2

>  <r_i_docking_score>  (274) 
-3.9317

>  <r_i_glide_ligand_efficiency>  (274) 
-0.206932

>  <r_i_glide_ligand_efficiency_sa>  (274) 
-0.552177

>  <r_i_glide_ligand_efficiency_ln>  (274) 
-0.996771

>  <r_i_glide_gscore>  (274) 
-3.9317

>  <r_i_glide_lipo>  (274) 
-0.194722

>  <r_i_glide_hbond>  (274) 
-0.370849

>  <r_i_glide_metal>  (274) 
-0

>  <r_i_glide_rewards>  (274) 
-1.61346

>  <r_i_glide_evdw>  (274) 
-18.5883

>  <r_i_glide_ecoul>  (274) 
-8.25113

>  <r_i_glide_erotb>  (274) 
0.512051

>  <r_i_glide_esite>  (274) 
-0.0976334

>  <r_i_glide_emodel>  (274) 
-35.0906

>  <r_i_glide_energy>  (274) 
-26.8394

>  <r_i_glide_einternal>  (274) 
0.310748

>  <r_i_glide_intrahb_reward>  (274) 
-0

>  <i_i_glide_confnum>  (274) 
1

>  <i_i_glide_posenum>  (274) 
22

>  <r_i_glide_eff_state_penalty>  (274) 
0

>  <ligand_id>  (274) 
77

>  <original_smiles>  (274) 
Cn1cc(CN2CC3COC4(CCNC4)C3C2)cn1

>  <smiles>  (274) 
[H]c1nn(C([H])([H])[H])c([H])c1C([H])([H])N1C([H])([H])C2([H])C([H])([H])OC3(C([H])([H])C([H])([H])[N+]([H])([H])C3([H])[H])C2([H])C1([H])[H]

$$$$
78:0:0
     RDKit          3D

 52 58  0  0  1  0  0  0  0  0999 V2000
    3.7435   -2.8983   -3.5292 C   0  0  0  0  0  0  0  0  0  0  0  0
    4.1816   -2.7810   -2.0432 C   0  0  2  0  0  0  0  0  0  0  0  0
    4.7396   -1.3148   -1.8269 C   0  0  0  0  0  0  0  0  0  0  0  0
    4.7828   -0.8515   -0.3403 C   0  0  2  0  0  0  0  0  0  0  0  0
    6.1554   -0.7082    0.0428 O   0  0  0  0  0  0  0  0  0  0  0  0
    6.1168   -2.0874    0.3451 C   0  0  0  0  0  0  0  0  0  0  0  0
    4.5580   -1.9934    0.6593 C   0  0  2  0  0  0  0  0  0  0  0  0
    3.3235   -2.8539    0.1017 C   0  0  2  0  0  0  0  0  0  0  0  0
    3.2160   -4.3356    0.4409 C   0  0  0  0  0  0  0  0  0  0  0  0
    4.5191   -4.9251    0.5876 N   0  0  0  0  0  0  0  0  0  0  0  0
    5.1797   -4.5618    1.8627 C   0  0  0  0  0  0  0  0  0  0  0  0
    4.7132   -3.3480    2.7914 C   0  0  2  0  0  0  0  0  0  0  0  0
    3.5187   -3.6790    3.6621 C   0  0  0  0  0  0  0  0  0  0  0  0
    3.3979   -4.7423    4.3716 N   0  0  0  0  0  0  0  0  0  0  0  0
    2.2190   -4.9243    5.1172 C   0  0  0  0  0  0  0  0  0  0  0  0
    2.1036   -6.1035    5.8692 C   0  0  0  0  0  0  0  0  0  0  0  0
    0.9433   -6.3507    6.6319 C   0  0  0  0  0  0  0  0  0  0  0  0
   -0.1021   -5.4089    6.6386 C   0  0  0  0  0  0  0  0  0  0  0  0
    0.0059   -4.2222    5.8882 C   0  0  0  0  0  0  0  0  0  0  0  0
    1.1711   -3.9753    5.1184 C   0  0  0  0  0  0  0  0  0  0  0  0
    1.3234   -2.7103    4.2887 C   0  0  0  0  0  0  0  0  0  0  0  0
    2.6030   -2.6366    3.5536 N   0  0  0  0  0  0  0  0  0  0  0  0
    3.0096   -1.6053    2.7715 C   0  0  0  0  0  0  0  0  0  0  0  0
    2.1594   -0.1918    2.4805 S   0  0  0  0  0  0  0  0  0  0  0  0
    4.4175   -1.9174    2.2181 C   0  0  2  0  0  0  0  0  0  0  0  0
    5.3624   -0.8519    2.8795 C   0  0  0  0  0  0  0  0  0  0  0  0
    5.3708   -4.4147   -0.4804 O   0  0  0  0  0  0  0  0  0  0  0  0
    4.9176   -4.0333   -1.9032 O   0  0  0  0  0  0  0  0  0  0  0  0
    3.0317   -2.7824   -1.2844 O   0  0  0  0  0  0  0  0  0  0  0  0
    3.2450   -3.8524   -3.7078 H   0  0  0  0  0  0  0  0  0  0  0  0
    4.6138   -2.8529   -4.1850 H   0  0  0  0  0  0  0  0  0  0  0  0
    3.0589   -2.0982   -3.8099 H   0  0  0  0  0  0  0  0  0  0  0  0
    5.7014   -1.1713   -2.3239 H   0  0  0  0  0  0  0  0  0  0  0  0
    4.0591   -0.6350   -2.3346 H   0  0  0  0  0  0  0  0  0  0  0  0
    4.2013    0.0438   -0.1054 H   0  0  0  0  0  0  0  0  0  0  0  0
    6.5043   -2.5966   -0.5339 H   0  0  0  0  0  0  0  0  0  0  0  0
    6.7605   -2.3693    1.1842 H   0  0  0  0  0  0  0  0  0  0  0  0
    2.3904   -2.4287    0.4516 H   0  0  0  0  0  0  0  0  0  0  0  0
    2.6246   -4.5006    1.3461 H   0  0  0  0  0  0  0  0  0  0  0  0
    2.6784   -4.8677   -0.3417 H   0  0  0  0  0  0  0  0  0  0  0  0
    5.1447   -5.4620    2.4787 H   0  0  0  0  0  0  0  0  0  0  0  0
    6.2411   -4.4585    1.6554 H   0  0  0  0  0  0  0  0  0  0  0  0
    5.5307   -3.2396    3.5052 H   0  0  0  0  0  0  0  0  0  0  0  0
    2.9049   -6.8274    5.8685 H   0  0  0  0  0  0  0  0  0  0  0  0
    0.8693   -7.2590    7.2042 H   0  0  0  0  0  0  0  0  0  0  0  0
   -0.9884   -5.6058    7.2223 H   0  0  0  0  0  0  0  0  0  0  0  0
   -0.7990   -3.5079    5.8977 H   0  0  0  0  0  0  0  0  0  0  0  0
    0.5021   -2.6531    3.5718 H   0  0  0  0  0  0  0  0  0  0  0  0
    1.2195   -1.8416    4.9468 H   0  0  0  0  0  0  0  0  0  0  0  0
    6.4230   -1.0908    2.8059 H   0  0  0  0  0  0  0  0  0  0  0  0
    5.1708   -0.7488    3.9496 H   0  0  0  0  0  0  0  0  0  0  0  0
    5.2373    0.1356    2.4384 H   0  0  0  0  0  0  0  0  0  0  0  0
  2  1  1  6
  1 30  1  0
  1 31  1  0
  1 32  1  0
  2 28  1  0
  2 29  1  0
  2  3  1  0
  3  4  1  0
  3 33  1  0
  3 34  1  0
  4  7  1  0
  4  5  1  0
  4 35  1  6
  5  6  1  0
  7  6  1  1
  6 36  1  0
  6 37  1  0
  7 25  1  0
  7  8  1  0
  8  9  1  0
  8 29  1  0
  8 38  1  1
  9 10  1  0
  9 39  1  0
  9 40  1  0
 10 11  1  0
 10 27  1  0
 11 12  1  0
 11 41  1  0
 11 42  1  0
 12 25  1  0
 12 13  1  0
 12 43  1  1
 13 22  1  0
 13 14  2  0
 14 15  1  0
 15 20  2  0
 15 16  1  0
 16 17  2  0
 16 44  1  0
 17 18  1  0
 17 45  1  0
 18 19  2  0
 18 46  1  0
 19 20  1  0
 19 47  1  0
 20 21  1  0
 21 22  1  0
 21 48  1  0
 21 49  1  0
 22 23  1  0
 23 24  2  0
 23 25  1  0
 25 26  1  1
 26 50  1  0
 26 51  1  0
 26 52  1  0
 27 28  1  0
M  END
>  <i_m_ct_stereo_status>  (275) 
1

>  <s_m_source_file>  (275) 
/var/tmp/pbs.5083856.sched01/tmpnwbd9u66/110rgxpwhmz.sdf

>  <i_m_source_file_index>  (275) 
1

>  <i_lp_mmshare_version>  (275) 
48012

>  <i_f3d_flags>  (275) 
0

>  <s_epik_input>  (275) 
W0NIMl0xT1tDQEhdKFtDQF0xMjMpW0NIMl1bQ0BAXTQoW0NIM10pT09OKFtDSDJdW0NAQEhdMk80KVtDSDJdW0NAQEhdNUM9Nk4oQyg9UylbQ0BdMzVbQ0gzXSlbQ0gyXWM3YyhONilbY0hdW2NIXVtjSF1bY0hdNw==

>  <s_epik_cmdline>  (275) 
J2VwaWtfcHl0aG9uJywgJy1waHQnLCAnMi4wJywgJy1waCcsICc3LjAnLCAnLXRuJywgJzgnLCAnLW1hJywgJzIwMCcsICctaW1hZScsICc8aW5maWxlLm1hZT4nLCAnLW9tYWUnLCAnPG91dGZpbGUubWFlPic=

>  <r_lp_tautomer_probability>  (275) 
0.999601

>  <r_epik_Ionization_Penalty>  (275) 
0.294997

>  <r_epik_Ionization_Penalty_Charging>  (275) 
0.294996

>  <r_epik_Ionization_Penalty_Neutral>  (275) 
7.15823e-07

>  <r_epik_State_Penalty>  (275) 
0.288228

>  <r_epik_Charging_Adjusted_Penalty>  (275) 
0.583224

>  <i_epik_Tot_Q>  (275) 
0

>  <i_epik_Tot_abs_Q>  (275) 
0

>  <s_epik_Chemistry_Notes>  (275) 
This compound has an imine and may undergo hydrolysis. This compound has a N-S or N-O group and may undergo hydrolysis at high or low pH.

>  <s_lp_Force_Field>  (275) 
OPLS3e

>  <r_lp_Energy>  (275) 
116.226

>  <b_lp_Chiralities_Consistent>  (275) 
1

>  <s_lp_Variant>  (275) 
78:0-1

>  <s_i_glide_gridfile>  (275) 
pfpi4k_grid

>  <i_i_glide_lignum>  (275) 
1

>  <i_i_glide_rotatable_bonds>  (275) 
0

>  <r_i_docking_score>  (275) 
-2.60221

>  <r_i_glide_ligand_efficiency>  (275) 
-0.0897314

>  <r_i_glide_ligand_efficiency_sa>  (275) 
-0.275683

>  <r_i_glide_ligand_efficiency_ln>  (275) 
-0.59584

>  <r_i_glide_gscore>  (275) 
-2.60221

>  <r_i_glide_lipo>  (275) 
-0.492167

>  <r_i_glide_hbond>  (275) 
-0.0100813

>  <r_i_glide_metal>  (275) 
-0

>  <r_i_glide_rewards>  (275) 
-0.657934

>  <r_i_glide_evdw>  (275) 
-32.9423

>  <r_i_glide_ecoul>  (275) 
1.58957

>  <r_i_glide_erotb>  (275) 
0

>  <r_i_glide_esite>  (275) 
-0.0333496

>  <r_i_glide_emodel>  (275) 
-35.8982

>  <r_i_glide_energy>  (275) 
-31.3527

>  <r_i_glide_einternal>  (275) 
0

>  <r_i_glide_intrahb_reward>  (275) 
-0

>  <i_i_glide_confnum>  (275) 
2

>  <i_i_glide_posenum>  (275) 
11

>  <r_i_glide_eff_state_penalty>  (275) 
0

>  <ligand_id>  (275) 
78

>  <original_smiles>  (275) 
CC12CC3OCC34C(CN(CC3C5=Nc6ccccc6CN5C(=S)C34C)OO1)O2

>  <smiles>  (275) 
[H]c1c([H])c([H])c2c(c1[H])N=C1N(C(=S)C3(C([H])([H])[H])C1([H])C([H])([H])N1OOC4(C([H])([H])[H])OC([H])(C1([H])[H])C31C([H])([H])OC1([H])C4([H])[H])C2([H])[H]

$$$$
78:0:1
     RDKit          3D

 52 58  0  0  1  0  0  0  0  0999 V2000
   -2.4135    3.0376    3.5736 C   0  0  0  0  0  0  0  0  0  0  0  0
   -1.1136    2.3205    4.0094 C   0  0  2  0  0  0  0  0  0  0  0  0
   -1.1863    2.1188    5.5771 C   0  0  0  0  0  0  0  0  0  0  0  0
   -0.2285    1.0209    6.1271 C   0  0  2  0  0  0  0  0  0  0  0  0
    0.7550    1.6524    6.9483 O   0  0  0  0  0  0  0  0  0  0  0  0
    1.4738    1.8640    5.7488 C   0  0  0  0  0  0  0  0  0  0  0  0
    0.8225    0.5615    5.1083 C   0  0  2  0  0  0  0  0  0  0  0  0
    0.0505    0.3445    3.7197 C   0  0  2  0  0  0  0  0  0  0  0  0
    0.7920    0.5107    2.3940 C   0  0  0  0  0  0  0  0  0  0  0  0
    1.8402    1.4838    2.5096 N   0  0  0  0  0  0  0  0  0  0  0  0
    3.0211    0.9830    3.2556 C   0  0  0  0  0  0  0  0  0  0  0  0
    3.0081   -0.3237    4.1693 C   0  0  2  0  0  0  0  0  0  0  0  0
    3.1246   -1.6077    3.3871 C   0  0  0  0  0  0  0  0  0  0  0  0
    3.9962   -1.8244    2.4604 N   0  0  0  0  0  0  0  0  0  0  0  0
    3.9655   -3.0651    1.8064 C   0  0  0  0  0  0  0  0  0  0  0  0
    4.9039   -3.2817    0.7810 C   0  0  0  0  0  0  0  0  0  0  0  0
    4.9247   -4.5046    0.0808 C   0  0  0  0  0  0  0  0  0  0  0  0
    4.0030   -5.5159    0.4104 C   0  0  0  0  0  0  0  0  0  0  0  0
    3.0544   -5.3114    1.4346 C   0  0  0  0  0  0  0  0  0  0  0  0
    3.0352   -4.0808    2.1399 C   0  0  0  0  0  0  0  0  0  0  0  0
    2.0307   -3.8248    3.2553 C   0  0  0  0  0  0  0  0  0  0  0  0
    2.1558   -2.4846    3.8610 N   0  0  0  0  0  0  0  0  0  0  0  0
    1.4048   -2.0026    4.8855 C   0  0  0  0  0  0  0  0  0  0  0  0
    0.1719   -2.8103    5.6854 S   0  0  0  0  0  0  0  0  0  0  0  0
    1.8850   -0.5807    5.2350 C   0  0  2  0  0  0  0  0  0  0  0  0
    2.5067   -0.7018    6.6708 C   0  0  0  0  0  0  0  0  0  0  0  0
    1.3044    2.5940    3.2999 O   0  0  0  0  0  0  0  0  0  0  0  0
   -0.1424    3.1177    3.2789 O   0  0  0  0  0  0  0  0  0  0  0  0
   -1.1824    1.0199    3.5408 O   0  0  0  0  0  0  0  0  0  0  0  0
   -2.4634    3.1100    2.4876 H   0  0  0  0  0  0  0  0  0  0  0  0
   -2.4367    4.0516    3.9719 H   0  0  0  0  0  0  0  0  0  0  0  0
   -3.3043    2.5185    3.9192 H   0  0  0  0  0  0  0  0  0  0  0  0
   -1.0798    3.0652    6.1207 H   0  0  0  0  0  0  0  0  0  0  0  0
   -2.1929    1.7786    5.8047 H   0  0  0  0  0  0  0  0  0  0  0  0
   -0.7078    0.1844    6.6360 H   0  0  0  0  0  0  0  0  0  0  0  0
    1.2227    2.8682    5.4133 H   0  0  0  0  0  0  0  0  0  0  0  0
    2.5595    1.8399    5.8723 H   0  0  0  0  0  0  0  0  0  0  0  0
   -0.3570   -0.6577    3.6724 H   0  0  0  0  0  0  0  0  0  0  0  0
    1.2035   -0.4337    2.0391 H   0  0  0  0  0  0  0  0  0  0  0  0
    0.1081    0.8268    1.6056 H   0  0  0  0  0  0  0  0  0  0  0  0
    3.7964    0.8361    2.5039 H   0  0  0  0  0  0  0  0  0  0  0  0
    3.4088    1.8226    3.8321 H   0  0  0  0  0  0  0  0  0  0  0  0
    3.9484   -0.2622    4.7162 H   0  0  0  0  0  0  0  0  0  0  0  0
    5.6107   -2.5061    0.5299 H   0  0  0  0  0  0  0  0  0  0  0  0
    5.6457   -4.6578   -0.7058 H   0  0  0  0  0  0  0  0  0  0  0  0
    4.0238   -6.4467   -0.1398 H   0  0  0  0  0  0  0  0  0  0  0  0
    2.3541   -6.0976    1.6718 H   0  0  0  0  0  0  0  0  0  0  0  0
    1.0215   -3.9354    2.8559 H   0  0  0  0  0  0  0  0  0  0  0  0
    2.1448   -4.6020    4.0170 H   0  0  0  0  0  0  0  0  0  0  0  0
    3.1318    0.1442    6.9551 H   0  0  0  0  0  0  0  0  0  0  0  0
    3.1566   -1.5738    6.7617 H   0  0  0  0  0  0  0  0  0  0  0  0
    1.7430   -0.7984    7.4409 H   0  0  0  0  0  0  0  0  0  0  0  0
  2  1  1  6
  1 30  1  0
  1 31  1  0
  1 32  1  0
  2 28  1  0
  2 29  1  0
  2  3  1  0
  3  4  1  0
  3 33  1  0
  3 34  1  0
  4  7  1  0
  4  5  1  0
  4 35  1  1
  5  6  1  0
  7  6  1  6
  6 36  1  0
  6 37  1  0
  7 25  1  0
  7  8  1  0
  8  9  1  0
  8 29  1  0
  8 38  1  1
  9 10  1  0
  9 39  1  0
  9 40  1  0
 10 11  1  0
 10 27  1  0
 11 12  1  0
 11 41  1  0
 11 42  1  0
 12 25  1  0
 12 13  1  0
 12 43  1  1
 13 22  1  0
 13 14  2  0
 14 15  1  0
 15 20  2  0
 15 16  1  0
 16 17  2  0
 16 44  1  0
 17 18  1  0
 17 45  1  0
 18 19  2  0
 18 46  1  0
 19 20  1  0
 19 47  1  0
 20 21  1  0
 21 22  1  0
 21 48  1  0
 21 49  1  0
 22 23  1  0
 23 24  2  0
 23 25  1  0
 25 26  1  1
 26 50  1  0
 26 51  1  0
 26 52  1  0
 27 28  1  0
M  END
>  <i_m_ct_stereo_status>  (276) 
1

>  <s_m_source_file>  (276) 
/var/tmp/pbs.5083856.sched01/tmpnwbd9u66/110rgxpwhmz.sdf

>  <i_m_source_file_index>  (276) 
1

>  <i_lp_mmshare_version>  (276) 
48012

>  <i_f3d_flags>  (276) 
0

>  <s_epik_input>  (276) 
W0NIMl0xT1tDQEhdKFtDQF0xMjMpW0NIMl1bQ0BAXTQoW0NIM10pT09OKFtDSDJdW0NAQEhdMk80KVtDSDJdW0NAQEhdNUM9Nk4oQyg9UylbQ0BdMzVbQ0gzXSlbQ0gyXWM3YyhONilbY0hdW2NIXVtjSF1bY0hdNw==

>  <s_epik_cmdline>  (276) 
J2VwaWtfcHl0aG9uJywgJy1waHQnLCAnMi4wJywgJy1waCcsICc3LjAnLCAnLXRuJywgJzgnLCAnLW1hJywgJzIwMCcsICctaW1hZScsICc8aW5maWxlLm1hZT4nLCAnLW9tYWUnLCAnPG91dGZpbGUubWFlPic=

>  <r_lp_tautomer_probability>  (276) 
0.999601

>  <r_epik_Ionization_Penalty>  (276) 
0.294997

>  <r_epik_Ionization_Penalty_Charging>  (276) 
0.294996

>  <r_epik_Ionization_Penalty_Neutral>  (276) 
7.15823e-07

>  <r_epik_State_Penalty>  (276) 
0.288228

>  <r_epik_Charging_Adjusted_Penalty>  (276) 
0.583224

>  <i_epik_Tot_Q>  (276) 
0

>  <i_epik_Tot_abs_Q>  (276) 
0

>  <s_epik_Chemistry_Notes>  (276) 
This compound has an imine and may undergo hydrolysis. This compound has a N-S or N-O group and may undergo hydrolysis at high or low pH.

>  <s_lp_Force_Field>  (276) 
OPLS3e

>  <r_lp_Energy>  (276) 
116.226

>  <b_lp_Chiralities_Consistent>  (276) 
1

>  <s_lp_Variant>  (276) 
78:0-1

>  <s_i_glide_gridfile>  (276) 
pfpi4k_grid

>  <i_i_glide_lignum>  (276) 
1

>  <i_i_glide_rotatable_bonds>  (276) 
0

>  <r_i_docking_score>  (276) 
-2.15774

>  <r_i_glide_ligand_efficiency>  (276) 
-0.0744047

>  <r_i_glide_ligand_efficiency_sa>  (276) 
-0.228595

>  <r_i_glide_ligand_efficiency_ln>  (276) 
-0.494067

>  <r_i_glide_gscore>  (276) 
-2.15774

>  <r_i_glide_lipo>  (276) 
-0.119993

>  <r_i_glide_hbond>  (276) 
0

>  <r_i_glide_metal>  (276) 
-0

>  <r_i_glide_rewards>  (276) 
-0.601596

>  <r_i_glide_evdw>  (276) 
-27.8636

>  <r_i_glide_ecoul>  (276) 
0.3092

>  <r_i_glide_erotb>  (276) 
0

>  <r_i_glide_esite>  (276) 
-0.0893454

>  <r_i_glide_emodel>  (276) 
-31.2506

>  <r_i_glide_energy>  (276) 
-27.5544

>  <r_i_glide_einternal>  (276) 
0

>  <r_i_glide_intrahb_reward>  (276) 
-0

>  <i_i_glide_confnum>  (276) 
2

>  <i_i_glide_posenum>  (276) 
2

>  <r_i_glide_eff_state_penalty>  (276) 
0

>  <ligand_id>  (276) 
78

>  <original_smiles>  (276) 
CC12CC3OCC34C(CN(CC3C5=Nc6ccccc6CN5C(=S)C34C)OO1)O2

>  <smiles>  (276) 
[H]c1c([H])c([H])c2c(c1[H])N=C1N(C(=S)C3(C([H])([H])[H])C1([H])C([H])([H])N1OOC4(C([H])([H])[H])OC([H])(C1([H])[H])C31C([H])([H])OC1([H])C4([H])[H])C2([H])[H]

$$$$
78:0:2
     RDKit          3D

 52 58  0  0  1  0  0  0  0  0999 V2000
    3.2159   -2.4765   -2.3998 C   0  0  0  0  0  0  0  0  0  0  0  0
    3.6991   -2.8566   -0.9929 C   0  0  2  0  0  0  0  0  0  0  0  0
    3.9054   -1.5056   -0.1815 C   0  0  0  0  0  0  0  0  0  0  0  0
    3.9180   -1.6704    1.3667 C   0  0  2  0  0  0  0  0  0  0  0  0
    5.2278   -1.3405    1.8411 O   0  0  0  0  0  0  0  0  0  0  0  0
    5.5559   -2.6922    1.5545 C   0  0  0  0  0  0  0  0  0  0  0  0
    4.0510   -3.1275    1.8164 C   0  0  2  0  0  0  0  0  0  0  0  0
    3.0347   -3.9799    0.9199 C   0  0  2  0  0  0  0  0  0  0  0  0
    3.3172   -5.4532    0.6299 C   0  0  0  0  0  0  0  0  0  0  0  0
    4.7283   -5.7187    0.5781 N   0  0  0  0  0  0  0  0  0  0  0  0
    5.3617   -5.7273    1.9206 C   0  0  0  0  0  0  0  0  0  0  0  0
    4.6640   -5.1505    3.2359 C   0  0  2  0  0  0  0  0  0  0  0  0
    3.6513   -6.0809    3.8431 C   0  0  0  0  0  0  0  0  0  0  0  0
    3.8586   -7.3475    4.0618 N   0  0  0  0  0  0  0  0  0  0  0  0
    2.8119   -8.0837    4.6148 C   0  0  0  0  0  0  0  0  0  0  0  0
    3.0288   -9.4613    4.8305 C   0  0  0  0  0  0  0  0  0  0  0  0
    2.0146  -10.2672    5.3769 C   0  0  0  0  0  0  0  0  0  0  0  0
    0.7681   -9.7025    5.7143 C   0  0  0  0  0  0  0  0  0  0  0  0
    0.5334   -8.3262    5.5063 C   0  0  0  0  0  0  0  0  0  0  0  0
    1.5562   -7.5120    4.9573 C   0  0  0  0  0  0  0  0  0  0  0  0
    1.3336   -6.0228    4.7184 C   0  0  0  0  0  0  0  0  0  0  0  0
    2.5072   -5.3422    4.1284 N   0  0  0  0  0  0  0  0  0  0  0  0
    2.6005   -4.0258    3.8362 C   0  0  0  0  0  0  0  0  0  0  0  0
    1.4019   -2.8762    4.0835 S   0  0  0  0  0  0  0  0  0  0  0  0
    3.9976   -3.7248    3.2647 C   0  0  2  0  0  0  0  0  0  0  0  0
    4.6905   -2.8204    4.3404 C   0  0  0  0  0  0  0  0  0  0  0  0
    5.3255   -4.5908   -0.1500 O   0  0  0  0  0  0  0  0  0  0  0  0
    4.7236   -3.8350   -1.3528 O   0  0  0  0  0  0  0  0  0  0  0  0
    2.6260   -3.4451   -0.3216 O   0  0  0  0  0  0  0  0  0  0  0  0
    2.9529   -3.3658   -2.9772 H   0  0  0  0  0  0  0  0  0  0  0  0
    4.0011   -1.9518   -2.9496 H   0  0  0  0  0  0  0  0  0  0  0  0
    2.3389   -1.8258   -2.3719 H   0  0  0  0  0  0  0  0  0  0  0  0
    4.7632   -0.9304   -0.5399 H   0  0  0  0  0  0  0  0  0  0  0  0
    3.0433   -0.8769   -0.3966 H   0  0  0  0  0  0  0  0  0  0  0  0
    3.1444   -1.1384    1.9072 H   0  0  0  0  0  0  0  0  0  0  0  0
    5.9985   -2.6989    0.5638 H   0  0  0  0  0  0  0  0  0  0  0  0
    6.2875   -3.1203    2.2287 H   0  0  0  0  0  0  0  0  0  0  0  0
    2.0511   -3.9877    1.3725 H   0  0  0  0  0  0  0  0  0  0  0  0
    2.8469   -6.1056    1.3562 H   0  0  0  0  0  0  0  0  0  0  0  0
    2.8742   -5.7424   -0.3191 H   0  0  0  0  0  0  0  0  0  0  0  0
    5.5889   -6.7740    2.1164 H   0  0  0  0  0  0  0  0  0  0  0  0
    6.3525   -5.2814    1.8048 H   0  0  0  0  0  0  0  0  0  0  0  0
    5.4772   -5.1259    3.9602 H   0  0  0  0  0  0  0  0  0  0  0  0
    3.9821   -9.8967    4.5729 H   0  0  0  0  0  0  0  0  0  0  0  0
    2.1962  -11.3198    5.5475 H   0  0  0  0  0  0  0  0  0  0  0  0
    0.0009  -10.3429    6.1338 H   0  0  0  0  0  0  0  0  0  0  0  0
   -0.4322   -7.9143    5.7681 H   0  0  0  0  0  0  0  0  0  0  0  0
    0.4777   -5.9043    4.0559 H   0  0  0  0  0  0  0  0  0  0  0  0
    1.0621   -5.5582    5.6667 H   0  0  0  0  0  0  0  0  0  0  0  0
    5.7692   -2.7436    4.2259 H   0  0  0  0  0  0  0  0  0  0  0  0
    4.5427   -3.2016    5.3536 H   0  0  0  0  0  0  0  0  0  0  0  0
    4.3020   -1.8011    4.3275 H   0  0  0  0  0  0  0  0  0  0  0  0
  2  1  1  6
  1 30  1  0
  1 31  1  0
  1 32  1  0
  2 28  1  0
  2 29  1  0
  2  3  1  0
  3  4  1  0
  3 33  1  0
  3 34  1  0
  4  7  1  0
  4  5  1  0
  4 35  1  1
  5  6  1  0
  7  6  1  6
  6 36  1  0
  6 37  1  0
  7 25  1  0
  7  8  1  0
  8  9  1  0
  8 29  1  0
  8 38  1  1
  9 10  1  0
  9 39  1  0
  9 40  1  0
 10 11  1  0
 10 27  1  0
 11 12  1  0
 11 41  1  0
 11 42  1  0
 12 25  1  0
 12 13  1  0
 12 43  1  1
 13 22  1  0
 13 14  2  0
 14 15  1  0
 15 20  2  0
 15 16  1  0
 16 17  2  0
 16 44  1  0
 17 18  1  0
 17 45  1  0
 18 19  2  0
 18 46  1  0
 19 20  1  0
 19 47  1  0
 20 21  1  0
 21 22  1  0
 21 48  1  0
 21 49  1  0
 22 23  1  0
 23 24  2  0
 23 25  1  0
 25 26  1  1
 26 50  1  0
 26 51  1  0
 26 52  1  0
 27 28  1  0
M  END
>  <i_m_ct_stereo_status>  (277) 
1

>  <s_m_source_file>  (277) 
/var/tmp/pbs.5083856.sched01/tmpnwbd9u66/110rgxpwhmz.sdf

>  <i_m_source_file_index>  (277) 
1

>  <i_lp_mmshare_version>  (277) 
48012

>  <i_f3d_flags>  (277) 
0

>  <s_epik_input>  (277) 
W0NIMl0xT1tDQEhdKFtDQF0xMjMpW0NIMl1bQ0BAXTQoW0NIM10pT09OKFtDSDJdW0NAQEhdMk80KVtDSDJdW0NAQEhdNUM9Nk4oQyg9UylbQ0BdMzVbQ0gzXSlbQ0gyXWM3YyhONilbY0hdW2NIXVtjSF1bY0hdNw==

>  <s_epik_cmdline>  (277) 
J2VwaWtfcHl0aG9uJywgJy1waHQnLCAnMi4wJywgJy1waCcsICc3LjAnLCAnLXRuJywgJzgnLCAnLW1hJywgJzIwMCcsICctaW1hZScsICc8aW5maWxlLm1hZT4nLCAnLW9tYWUnLCAnPG91dGZpbGUubWFlPic=

>  <r_lp_tautomer_probability>  (277) 
0.999601

>  <r_epik_Ionization_Penalty>  (277) 
0.294997

>  <r_epik_Ionization_Penalty_Charging>  (277) 
0.294996

>  <r_epik_Ionization_Penalty_Neutral>  (277) 
7.15823e-07

>  <r_epik_State_Penalty>  (277) 
0.288228

>  <r_epik_Charging_Adjusted_Penalty>  (277) 
0.583224

>  <i_epik_Tot_Q>  (277) 
0

>  <i_epik_Tot_abs_Q>  (277) 
0

>  <s_epik_Chemistry_Notes>  (277) 
This compound has an imine and may undergo hydrolysis. This compound has a N-S or N-O group and may undergo hydrolysis at high or low pH.

>  <s_lp_Force_Field>  (277) 
OPLS3e

>  <r_lp_Energy>  (277) 
116.226

>  <b_lp_Chiralities_Consistent>  (277) 
1

>  <s_lp_Variant>  (277) 
78:0-1

>  <s_i_glide_gridfile>  (277) 
pfpi4k_grid

>  <i_i_glide_lignum>  (277) 
1

>  <i_i_glide_rotatable_bonds>  (277) 
0

>  <r_i_docking_score>  (277) 
-2.14163

>  <r_i_glide_ligand_efficiency>  (277) 
-0.0738495

>  <r_i_glide_ligand_efficiency_sa>  (277) 
-0.226889

>  <r_i_glide_ligand_efficiency_ln>  (277) 
-0.49038

>  <r_i_glide_gscore>  (277) 
-2.14163

>  <r_i_glide_lipo>  (277) 
-0.130306

>  <r_i_glide_hbond>  (277) 
0

>  <r_i_glide_metal>  (277) 
-0

>  <r_i_glide_rewards>  (277) 
-0.750283

>  <r_i_glide_evdw>  (277) 
-27.3532

>  <r_i_glide_ecoul>  (277) 
0.815993

>  <r_i_glide_erotb>  (277) 
0

>  <r_i_glide_esite>  (277) 
-0.0157832

>  <r_i_glide_emodel>  (277) 
-30.1324

>  <r_i_glide_energy>  (277) 
-26.5372

>  <r_i_glide_einternal>  (277) 
0

>  <r_i_glide_intrahb_reward>  (277) 
-0

>  <i_i_glide_confnum>  (277) 
1

>  <i_i_glide_posenum>  (277) 
1

>  <r_i_glide_eff_state_penalty>  (277) 
0

>  <ligand_id>  (277) 
78

>  <original_smiles>  (277) 
CC12CC3OCC34C(CN(CC3C5=Nc6ccccc6CN5C(=S)C34C)OO1)O2

>  <smiles>  (277) 
[H]c1c([H])c([H])c2c(c1[H])N=C1N(C(=S)C3(C([H])([H])[H])C1([H])C([H])([H])N1OOC4(C([H])([H])[H])OC([H])(C1([H])[H])C31C([H])([H])OC1([H])C4([H])[H])C2([H])[H]

$$$$
78:1:0
     RDKit          3D

 53 59  0  0  1  0  0  0  0  0999 V2000
   -2.3165    2.1572    7.7284 C   0  0  0  0  0  0  0  0  0  0  0  0
   -1.4004    2.4623    6.5435 C   0  0  2  0  0  0  0  0  0  0  0  0
   -0.7027    3.8487    6.8101 C   0  0  0  0  0  0  0  0  0  0  0  0
    0.5940    4.1005    5.9707 C   0  0  2  0  0  0  0  0  0  0  0  0
    0.3233    5.2025    5.0809 O   0  0  0  0  0  0  0  0  0  0  0  0
   -0.1994    4.2031    4.1930 C   0  0  0  0  0  0  0  0  0  0  0  0
    0.7702    3.1065    4.8120 C   0  0  2  0  0  0  0  0  0  0  0  0
    0.4648    1.6534    5.4171 C   0  0  2  0  0  0  0  0  0  0  0  0
   -0.0374    0.5419    4.5015 C   0  0  0  0  0  0  0  0  0  0  0  0
   -0.8671    1.0645    3.4562 N   0  0  0  0  0  0  0  0  0  0  0  0
   -0.0607    1.7102    2.3858 C   0  0  0  0  0  0  0  0  0  0  0  0
    1.4689    2.1005    2.5760 C   0  0  2  0  0  0  0  0  0  0  0  0
    2.3422    0.9003    2.6122 C   0  0  0  0  0  0  0  0  0  0  0  0
    2.2288   -0.1202    1.7281 N   0  0  0  0  0  0  0  0  0  0  0  0
    3.1322   -1.2297    1.8313 C   0  0  0  0  0  0  0  0  0  0  0  0
    2.9975   -2.3086    0.9286 C   0  0  0  0  0  0  0  0  0  0  0  0
    3.8577   -3.4151    1.0088 C   0  0  0  0  0  0  0  0  0  0  0  0
    4.8704   -3.4373    1.9906 C   0  0  0  0  0  0  0  0  0  0  0  0
    5.0118   -2.3547    2.8892 C   0  0  0  0  0  0  0  0  0  0  0  0
    4.1458   -1.2452    2.8203 C   0  0  0  0  0  0  0  0  0  0  0  0
    4.3056   -0.0912    3.7924 C   0  0  0  0  0  0  0  0  0  0  0  0
    3.2700    0.9670    3.5783 N   0  0  0  0  0  0  0  0  0  0  0  0
    3.1466    2.0951    4.3439 C   0  0  0  0  0  0  0  0  0  0  0  0
    4.0840    2.4850    5.6770 S   0  0  0  0  0  0  0  0  0  0  0  0
    1.9725    2.9397    3.8160 C   0  0  2  0  0  0  0  0  0  0  0  0
    2.5810    4.2974    3.3296 C   0  0  0  0  0  0  0  0  0  0  0  0
   -1.6752    2.1324    4.0410 O   0  0  0  0  0  0  0  0  0  0  0  0
   -2.2842    2.1437    5.4380 O   0  0  0  0  0  0  0  0  0  0  0  0
   -0.3345    1.5697    6.5853 O   0  0  0  0  0  0  0  0  0  0  0  0
   -2.7410    1.1617    7.6338 H   0  0  0  0  0  0  0  0  0  0  0  0
   -3.1476    2.8567    7.7597 H   0  0  0  0  0  0  0  0  0  0  0  0
   -1.7869    2.2159    8.6782 H   0  0  0  0  0  0  0  0  0  0  0  0
   -1.4032    4.6822    6.7365 H   0  0  0  0  0  0  0  0  0  0  0  0
   -0.3879    3.8454    7.8444 H   0  0  0  0  0  0  0  0  0  0  0  0
    1.4974    4.2580    6.5394 H   0  0  0  0  0  0  0  0  0  0  0  0
   -1.2699    4.1912    4.3650 H   0  0  0  0  0  0  0  0  0  0  0  0
   -0.0503    4.4405    3.1487 H   0  0  0  0  0  0  0  0  0  0  0  0
    1.3565    1.2407    5.8727 H   0  0  0  0  0  0  0  0  0  0  0  0
    0.7787   -0.0242    4.0749 H   0  0  0  0  0  0  0  0  0  0  0  0
   -0.6294   -0.1735    5.0692 H   0  0  0  0  0  0  0  0  0  0  0  0
   -0.1194    1.0694    1.5034 H   0  0  0  0  0  0  0  0  0  0  0  0
   -0.6124    2.5985    2.0820 H   0  0  0  0  0  0  0  0  0  0  0  0
    1.7565    2.6484    1.6780 H   0  0  0  0  0  0  0  0  0  0  0  0
    2.2273   -2.2889    0.1640 H   0  0  0  0  0  0  0  0  0  0  0  0
    3.7459   -4.2409    0.3194 H   0  0  0  0  0  0  0  0  0  0  0  0
    5.5341   -4.2900    2.0422 H   0  0  0  0  0  0  0  0  0  0  0  0
    5.8045   -2.3984    3.6306 H   0  0  0  0  0  0  0  0  0  0  0  0
    4.2357   -0.4721    4.8131 H   0  0  0  0  0  0  0  0  0  0  0  0
    5.3044    0.3372    3.6772 H   0  0  0  0  0  0  0  0  0  0  0  0
    1.9279    4.8566    2.6627 H   0  0  0  0  0  0  0  0  0  0  0  0
    3.4992    4.1605    2.7569 H   0  0  0  0  0  0  0  0  0  0  0  0
    2.8206    4.9627    4.1612 H   0  0  0  0  0  0  0  0  0  0  0  0
    1.5097   -0.0943    1.0149 H   0  0  0  0  0  0  0  0  0  0  0  0
  2  1  1  1
  1 30  1  0
  1 31  1  0
  1 32  1  0
  2 28  1  0
  2 29  1  0
  2  3  1  0
  3  4  1  0
  3 33  1  0
  3 34  1  0
  4  7  1  0
  4  5  1  0
  4 35  1  1
  5  6  1  0
  7  6  1  6
  6 36  1  0
  6 37  1  0
  7 25  1  0
  7  8  1  0
  8  9  1  0
  8 29  1  0
  8 38  1  1
  9 10  1  0
  9 39  1  0
  9 40  1  0
 10 11  1  0
 10 27  1  0
 11 12  1  0
 11 41  1  0
 11 42  1  0
 12 25  1  0
 12 13  1  0
 12 43  1  6
 13 22  1  0
 13 14  2  0
 14 15  1  0
 14 53  1  0
 15 20  2  0
 15 16  1  0
 16 17  2  0
 16 44  1  0
 17 18  1  0
 17 45  1  0
 18 19  2  0
 18 46  1  0
 19 20  1  0
 19 47  1  0
 20 21  1  0
 21 22  1  0
 21 48  1  0
 21 49  1  0
 22 23  1  0
 23 24  2  0
 23 25  1  0
 25 26  1  6
 26 50  1  0
 26 51  1  0
 26 52  1  0
 27 28  1  0
M  CHG  1  14   1
M  END
>  <i_m_ct_stereo_status>  (278) 
1

>  <s_m_source_file>  (278) 
/var/tmp/pbs.5083856.sched01/tmpnwbd9u66/110rgxpwhmz.sdf

>  <i_m_source_file_index>  (278) 
2

>  <i_lp_mmshare_version>  (278) 
48012

>  <i_f3d_flags>  (278) 
0

>  <s_epik_input>  (278) 
W0NIMl0xT1tDQEhdKFtDQF0xMjMpW0NIMl1bQ0BAXTQoW0NIM10pT09OKFtDSDJdW0NAQEhdMk80KVtDSDJdW0NAQEhdNUM9Nk4oQyg9UylbQ0BdMzVbQ0gzXSlbQ0gyXWM3YyhONilbY0hdW2NIXVtjSF1bY0hdNw==

>  <s_epik_cmdline>  (278) 
J2VwaWtfcHl0aG9uJywgJy1waHQnLCAnMi4wJywgJy1waCcsICc3LjAnLCAnLXRuJywgJzgnLCAnLW1hJywgJzIwMCcsICctaW1hZScsICc8aW5maWxlLm1hZT4nLCAnLW9tYWUnLCAnPG91dGZpbGUubWFlPic=

>  <r_epik_Ionization_Penalty>  (278) 
0.55457

>  <r_epik_Ionization_Penalty_Charging>  (278) 
0

>  <r_epik_Ionization_Penalty_Neutral>  (278) 
0.55457

>  <r_epik_State_Penalty>  (278) 
0.565214

>  <r_epik_Charging_Adjusted_Penalty>  (278) 
0.565214

>  <i_epik_Tot_Q>  (278) 
1

>  <i_epik_Tot_abs_Q>  (278) 
1

>  <s_epik_Chemistry_Notes>  (278) 
This compound has an imine and may undergo hydrolysis. This compound has a N-S or N-O group and may undergo hydrolysis at high or low pH.

>  <s_lp_Force_Field>  (278) 
OPLS3e

>  <r_lp_Energy>  (278) 
102.838

>  <b_lp_Chiralities_Consistent>  (278) 
1

>  <s_lp_Variant>  (278) 
78:0-2

>  <s_i_glide_gridfile>  (278) 
pfpi4k_grid

>  <i_i_glide_lignum>  (278) 
2

>  <i_i_glide_rotatable_bonds>  (278) 
0

>  <r_i_docking_score>  (278) 
-3.15086

>  <r_i_glide_ligand_efficiency>  (278) 
-0.10865

>  <r_i_glide_ligand_efficiency_sa>  (278) 
-0.333808

>  <r_i_glide_ligand_efficiency_ln>  (278) 
-0.721467

>  <r_i_glide_gscore>  (278) 
-3.15086

>  <r_i_glide_lipo>  (278) 
-0.133682

>  <r_i_glide_hbond>  (278) 
-0.139233

>  <r_i_glide_metal>  (278) 
-0

>  <r_i_glide_rewards>  (278) 
-0.601949

>  <r_i_glide_evdw>  (278) 
-26.2793

>  <r_i_glide_ecoul>  (278) 
-5.53258

>  <r_i_glide_erotb>  (278) 
0

>  <r_i_glide_esite>  (278) 
-0.132145

>  <r_i_glide_emodel>  (278) 
-39.307

>  <r_i_glide_energy>  (278) 
-31.8119

>  <r_i_glide_einternal>  (278) 
0

>  <r_i_glide_intrahb_reward>  (278) 
-0

>  <i_i_glide_confnum>  (278) 
1

>  <i_i_glide_posenum>  (278) 
23

>  <r_i_glide_eff_state_penalty>  (278) 
0

>  <ligand_id>  (278) 
78

>  <original_smiles>  (278) 
CC12CC3OCC34C(CN(CC3C5=Nc6ccccc6CN5C(=S)C34C)OO1)O2

>  <smiles>  (278) 
[H]c1c([H])c([H])c2c(c1[H])[N+]([H])=C1N(C(=S)C3(C([H])([H])[H])C1([H])C([H])([H])N1OOC4(C([H])([H])[H])OC([H])(C1([H])[H])C31C([H])([H])OC1([H])C4([H])[H])C2([H])[H]

$$$$
78:1:1
     RDKit          3D

 53 59  0  0  1  0  0  0  0  0999 V2000
   -0.1022    7.9234    9.3278 C   0  0  0  0  0  0  0  0  0  0  0  0
    0.7666    7.6619    8.0834 C   0  0  2  0  0  0  0  0  0  0  0  0
    2.2024    8.2763    8.3663 C   0  0  0  0  0  0  0  0  0  0  0  0
    3.3480    7.6960    7.4733 C   0  0  2  0  0  0  0  0  0  0  0  0
    3.8296    8.7424    6.6292 O   0  0  0  0  0  0  0  0  0  0  0  0
    2.7656    8.3867    5.7571 C   0  0  0  0  0  0  0  0  0  0  0  0
    2.8315    6.8851    6.2718 C   0  0  2  0  0  0  0  0  0  0  0  0
    1.6875    5.9262    6.8454 C   0  0  2  0  0  0  0  0  0  0  0  0
    0.5707    5.4479    5.9209 C   0  0  0  0  0  0  0  0  0  0  0  0
    0.2488    6.4401    4.9334 N   0  0  0  0  0  0  0  0  0  0  0  0
    1.2648    6.5040    3.8561 C   0  0  0  0  0  0  0  0  0  0  0  0
    2.6875    5.8191    3.9631 C   0  0  2  0  0  0  0  0  0  0  0  0
    2.5907    4.3343    3.8997 C   0  0  0  0  0  0  0  0  0  0  0  0
    1.8439    3.6806    2.9997 N   0  0  0  0  0  0  0  0  0  0  0  0
    1.8298    2.2408    3.0091 C   0  0  0  0  0  0  0  0  0  0  0  0
    1.0121    1.5641    2.0884 C   0  0  0  0  0  0  0  0  0  0  0  0
    0.9907    0.1590    2.0846 C   0  0  0  0  0  0  0  0  0  0  0  0
    1.7856   -0.5677    2.9959 C   0  0  0  0  0  0  0  0  0  0  0  0
    2.6075    0.1143    3.9186 C   0  0  0  0  0  0  0  0  0  0  0  0
    2.6358    1.5294    3.9369 C   0  0  0  0  0  0  0  0  0  0  0  0
    3.5119    2.2630    4.9323 C   0  0  0  0  0  0  0  0  0  0  0  0
    3.3885    3.7438    4.8280 N   0  0  0  0  0  0  0  0  0  0  0  0
    4.0205    4.6285    5.6001 C   0  0  0  0  0  0  0  0  0  0  0  0
    5.0968    4.2636    6.8416 S   0  0  0  0  0  0  0  0  0  0  0  0
    3.6320    6.0654    5.1959 C   0  0  2  0  0  0  0  0  0  0  0  0
    4.9531    6.7740    4.7329 C   0  0  0  0  0  0  0  0  0  0  0  0
    0.2777    7.7373    5.6034 O   0  0  0  0  0  0  0  0  0  0  0  0
   -0.1806    8.0401    7.0377 O   0  0  0  0  0  0  0  0  0  0  0  0
    1.0383    6.3022    8.0475 O   0  0  0  0  0  0  0  0  0  0  0  0
   -1.0690    7.4251    9.2385 H   0  0  0  0  0  0  0  0  0  0  0  0
   -0.2988    8.9911    9.4385 H   0  0  0  0  0  0  0  0  0  0  0  0
    0.3747    7.5723   10.2435 H   0  0  0  0  0  0  0  0  0  0  0  0
    2.1944    9.3696    8.3667 H   0  0  0  0  0  0  0  0  0  0  0  0
    2.4632    8.0075    9.3864 H   0  0  0  0  0  0  0  0  0  0  0  0
    4.1619    7.2091    8.0050 H   0  0  0  0  0  0  0  0  0  0  0  0
    1.9310    9.0422    5.9924 H   0  0  0  0  0  0  0  0  0  0  0  0
    2.9967    8.5480    4.7074 H   0  0  0  0  0  0  0  0  0  0  0  0
    2.1265    5.0131    7.2301 H   0  0  0  0  0  0  0  0  0  0  0  0
    0.8376    4.5177    5.4247 H   0  0  0  0  0  0  0  0  0  0  0  0
   -0.3280    5.2232    6.4944 H   0  0  0  0  0  0  0  0  0  0  0  0
    0.7891    6.1057    2.9618 H   0  0  0  0  0  0  0  0  0  0  0  0
    1.4231    7.5537    3.6244 H   0  0  0  0  0  0  0  0  0  0  0  0
    3.2321    6.1124    3.0633 H   0  0  0  0  0  0  0  0  0  0  0  0
    0.4067    2.1113    1.3769 H   0  0  0  0  0  0  0  0  0  0  0  0
    0.3763   -0.3556    1.3649 H   0  0  0  0  0  0  0  0  0  0  0  0
    1.7662   -1.6480    2.9681 H   0  0  0  0  0  0  0  0  0  0  0  0
    3.2135   -0.4600    4.6077 H   0  0  0  0  0  0  0  0  0  0  0  0
    3.2373    1.9470    5.9415 H   0  0  0  0  0  0  0  0  0  0  0  0
    4.5514    1.9632    4.7734 H   0  0  0  0  0  0  0  0  0  0  0  0
    4.7882    7.6607    4.1252 H   0  0  0  0  0  0  0  0  0  0  0  0
    5.5742    6.1410    4.1038 H   0  0  0  0  0  0  0  0  0  0  0  0
    5.5797    7.0819    5.5716 H   0  0  0  0  0  0  0  0  0  0  0  0
    1.2724    4.1875    2.3108 H   0  0  0  0  0  0  0  0  0  0  0  0
  2  1  1  1
  1 30  1  0
  1 31  1  0
  1 32  1  0
  2 28  1  0
  2 29  1  0
  2  3  1  0
  3  4  1  0
  3 33  1  0
  3 34  1  0
  4  7  1  0
  4  5  1  0
  4 35  1  1
  5  6  1  0
  7  6  1  6
  6 36  1  0
  6 37  1  0
  7 25  1  0
  7  8  1  0
  8  9  1  0
  8 29  1  0
  8 38  1  1
  9 10  1  0
  9 39  1  0
  9 40  1  0
 10 11  1  0
 10 27  1  0
 11 12  1  0
 11 41  1  0
 11 42  1  0
 12 25  1  0
 12 13  1  0
 12 43  1  6
 13 22  1  0
 13 14  2  0
 14 15  1  0
 14 53  1  0
 15 20  2  0
 15 16  1  0
 16 17  2  0
 16 44  1  0
 17 18  1  0
 17 45  1  0
 18 19  2  0
 18 46  1  0
 19 20  1  0
 19 47  1  0
 20 21  1  0
 21 22  1  0
 21 48  1  0
 21 49  1  0
 22 23  1  0
 23 24  2  0
 23 25  1  0
 25 26  1  6
 26 50  1  0
 26 51  1  0
 26 52  1  0
 27 28  1  0
M  CHG  1  14   1
M  END
>  <i_m_ct_stereo_status>  (279) 
1

>  <s_m_source_file>  (279) 
/var/tmp/pbs.5083856.sched01/tmpnwbd9u66/110rgxpwhmz.sdf

>  <i_m_source_file_index>  (279) 
2

>  <i_lp_mmshare_version>  (279) 
48012

>  <i_f3d_flags>  (279) 
0

>  <s_epik_input>  (279) 
W0NIMl0xT1tDQEhdKFtDQF0xMjMpW0NIMl1bQ0BAXTQoW0NIM10pT09OKFtDSDJdW0NAQEhdMk80KVtDSDJdW0NAQEhdNUM9Nk4oQyg9UylbQ0BdMzVbQ0gzXSlbQ0gyXWM3YyhONilbY0hdW2NIXVtjSF1bY0hdNw==

>  <s_epik_cmdline>  (279) 
J2VwaWtfcHl0aG9uJywgJy1waHQnLCAnMi4wJywgJy1waCcsICc3LjAnLCAnLXRuJywgJzgnLCAnLW1hJywgJzIwMCcsICctaW1hZScsICc8aW5maWxlLm1hZT4nLCAnLW9tYWUnLCAnPG91dGZpbGUubWFlPic=

>  <r_epik_Ionization_Penalty>  (279) 
0.55457

>  <r_epik_Ionization_Penalty_Charging>  (279) 
0

>  <r_epik_Ionization_Penalty_Neutral>  (279) 
0.55457

>  <r_epik_State_Penalty>  (279) 
0.565214

>  <r_epik_Charging_Adjusted_Penalty>  (279) 
0.565214

>  <i_epik_Tot_Q>  (279) 
1

>  <i_epik_Tot_abs_Q>  (279) 
1

>  <s_epik_Chemistry_Notes>  (279) 
This compound has an imine and may undergo hydrolysis. This compound has a N-S or N-O group and may undergo hydrolysis at high or low pH.

>  <s_lp_Force_Field>  (279) 
OPLS3e

>  <r_lp_Energy>  (279) 
102.838

>  <b_lp_Chiralities_Consistent>  (279) 
1

>  <s_lp_Variant>  (279) 
78:0-2

>  <s_i_glide_gridfile>  (279) 
pfpi4k_grid

>  <i_i_glide_lignum>  (279) 
2

>  <i_i_glide_rotatable_bonds>  (279) 
0

>  <r_i_docking_score>  (279) 
-2.96386

>  <r_i_glide_ligand_efficiency>  (279) 
-0.102202

>  <r_i_glide_ligand_efficiency_sa>  (279) 
-0.313997

>  <r_i_glide_ligand_efficiency_ln>  (279) 
-0.678648

>  <r_i_glide_gscore>  (279) 
-2.96386

>  <r_i_glide_lipo>  (279) 
-0.0388348

>  <r_i_glide_hbond>  (279) 
-0.2

>  <r_i_glide_metal>  (279) 
-0

>  <r_i_glide_rewards>  (279) 
-0.585074

>  <r_i_glide_evdw>  (279) 
-21.5993

>  <r_i_glide_ecoul>  (279) 
-5.51441

>  <r_i_glide_erotb>  (279) 
0

>  <r_i_glide_esite>  (279) 
-0.232821

>  <r_i_glide_emodel>  (279) 
-34.1696

>  <r_i_glide_energy>  (279) 
-27.1137

>  <r_i_glide_einternal>  (279) 
0

>  <r_i_glide_intrahb_reward>  (279) 
-0

>  <i_i_glide_confnum>  (279) 
2

>  <i_i_glide_posenum>  (279) 
13

>  <r_i_glide_eff_state_penalty>  (279) 
0

>  <ligand_id>  (279) 
78

>  <original_smiles>  (279) 
CC12CC3OCC34C(CN(CC3C5=Nc6ccccc6CN5C(=S)C34C)OO1)O2

>  <smiles>  (279) 
[H]c1c([H])c([H])c2c(c1[H])[N+]([H])=C1N(C(=S)C3(C([H])([H])[H])C1([H])C([H])([H])N1OOC4(C([H])([H])[H])OC([H])(C1([H])[H])C31C([H])([H])OC1([H])C4([H])[H])C2([H])[H]

$$$$
78:1:2
     RDKit          3D

 53 59  0  0  1  0  0  0  0  0999 V2000
   -1.5923   -9.3077    2.4496 C   0  0  0  0  0  0  0  0  0  0  0  0
   -0.3053   -8.6659    2.9735 C   0  0  2  0  0  0  0  0  0  0  0  0
    0.6060   -9.8353    3.5501 C   0  0  0  0  0  0  0  0  0  0  0  0
    2.1260   -9.4837    3.6640 C   0  0  2  0  0  0  0  0  0  0  0  0
    2.4727   -9.4487    5.0543 O   0  0  0  0  0  0  0  0  0  0  0  0
    2.0088   -8.1019    5.0293 C   0  0  0  0  0  0  0  0  0  0  0  0
    2.4143   -7.9849    3.4981 C   0  0  2  0  0  0  0  0  0  0  0  0
    1.5695   -7.5087    2.2324 C   0  0  2  0  0  0  0  0  0  0  0  0
    1.1299   -6.0556    2.1312 C   0  0  0  0  0  0  0  0  0  0  0  0
    0.8584   -5.4834    3.4205 N   0  0  0  0  0  0  0  0  0  0  0  0
    2.0983   -5.1628    4.1652 C   0  0  0  0  0  0  0  0  0  0  0  0
    3.5197   -5.6962    3.7081 C   0  0  2  0  0  0  0  0  0  0  0  0
    3.9905   -5.0692    2.4438 C   0  0  0  0  0  0  0  0  0  0  0  0
    3.9061   -3.7287    2.2255 N   0  0  0  0  0  0  0  0  0  0  0  0
    4.4079   -3.1823    0.9958 C   0  0  0  0  0  0  0  0  0  0  0  0
    4.2908   -1.7908    0.7647 C   0  0  0  0  0  0  0  0  0  0  0  0
    4.7738   -1.2404   -0.4339 C   0  0  0  0  0  0  0  0  0  0  0  0
    5.3758   -2.0761   -1.3980 C   0  0  0  0  0  0  0  0  0  0  0  0
    5.4925   -3.4656   -1.1628 C   0  0  0  0  0  0  0  0  0  0  0  0
    5.0102   -4.0324    0.0363 C   0  0  0  0  0  0  0  0  0  0  0  0
    5.1306   -5.5305    0.2903 C   0  0  0  0  0  0  0  0  0  0  0  0
    4.5406   -5.9289    1.5878 N   0  0  0  0  0  0  0  0  0  0  0  0
    4.4816   -7.2127    2.0604 C   0  0  0  0  0  0  0  0  0  0  0  0
    5.0566   -8.5593    1.2830 S   0  0  0  0  0  0  0  0  0  0  0  0
    3.7895   -7.2206    3.4339 C   0  0  2  0  0  0  0  0  0  0  0  0
    4.8484   -7.7690    4.4539 C   0  0  0  0  0  0  0  0  0  0  0  0
    0.1613   -6.5140    4.2031 O   0  0  0  0  0  0  0  0  0  0  0  0
   -0.8783   -7.5283    3.6908 O   0  0  0  0  0  0  0  0  0  0  0  0
    0.4227   -8.2420    1.8651 O   0  0  0  0  0  0  0  0  0  0  0  0
   -2.2208   -8.5842    1.9248 H   0  0  0  0  0  0  0  0  0  0  0  0
   -2.1891   -9.7064    3.2714 H   0  0  0  0  0  0  0  0  0  0  0  0
   -1.3923  -10.1351    1.7617 H   0  0  0  0  0  0  0  0  0  0  0  0
    0.2050  -10.2461    4.4802 H   0  0  0  0  0  0  0  0  0  0  0  0
    0.5486  -10.6631    2.8463 H   0  0  0  0  0  0  0  0  0  0  0  0
    2.7986  -10.1180    3.0995 H   0  0  0  0  0  0  0  0  0  0  0  0
    0.9729   -8.1276    5.3563 H   0  0  0  0  0  0  0  0  0  0  0  0
    2.5399   -7.4564    5.7188 H   0  0  0  0  0  0  0  0  0  0  0  0
    2.1181   -7.6884    1.3136 H   0  0  0  0  0  0  0  0  0  0  0  0
    1.8600   -5.4472    1.6088 H   0  0  0  0  0  0  0  0  0  0  0  0
    0.2202   -5.9943    1.5307 H   0  0  0  0  0  0  0  0  0  0  0  0
    2.1546   -4.0782    4.1760 H   0  0  0  0  0  0  0  0  0  0  0  0
    1.9306   -5.4185    5.2111 H   0  0  0  0  0  0  0  0  0  0  0  0
    4.2164   -5.3716    4.4802 H   0  0  0  0  0  0  0  0  0  0  0  0
    3.8251   -1.1441    1.5000 H   0  0  0  0  0  0  0  0  0  0  0  0
    4.6726   -0.1840   -0.6192 H   0  0  0  0  0  0  0  0  0  0  0  0
    5.7350   -1.6489   -2.3206 H   0  0  0  0  0  0  0  0  0  0  0  0
    5.9479   -4.0869   -1.9257 H   0  0  0  0  0  0  0  0  0  0  0  0
    4.6373   -6.0606   -0.5225 H   0  0  0  0  0  0  0  0  0  0  0  0
    6.1861   -5.7987    0.2611 H   0  0  0  0  0  0  0  0  0  0  0  0
    4.6128   -7.5483    5.4953 H   0  0  0  0  0  0  0  0  0  0  0  0
    5.8395   -7.3372    4.2953 H   0  0  0  0  0  0  0  0  0  0  0  0
    4.9649   -8.8553    4.3896 H   0  0  0  0  0  0  0  0  0  0  0  0
    3.4850   -3.1363    2.9274 H   0  0  0  0  0  0  0  0  0  0  0  0
  2  1  1  6
  1 30  1  0
  1 31  1  0
  1 32  1  0
  2 28  1  0
  2 29  1  0
  2  3  1  0
  3  4  1  0
  3 33  1  0
  3 34  1  0
  4  7  1  0
  4  5  1  0
  4 35  1  6
  5  6  1  0
  7  6  1  1
  6 36  1  0
  6 37  1  0
  7 25  1  0
  7  8  1  0
  8  9  1  0
  8 29  1  0
  8 38  1  6
  9 10  1  0
  9 39  1  0
  9 40  1  0
 10 11  1  0
 10 27  1  0
 11 12  1  0
 11 41  1  0
 11 42  1  0
 12 25  1  0
 12 13  1  0
 12 43  1  1
 13 22  1  0
 13 14  2  0
 14 15  1  0
 14 53  1  0
 15 20  2  0
 15 16  1  0
 16 17  2  0
 16 44  1  0
 17 18  1  0
 17 45  1  0
 18 19  2  0
 18 46  1  0
 19 20  1  0
 19 47  1  0
 20 21  1  0
 21 22  1  0
 21 48  1  0
 21 49  1  0
 22 23  1  0
 23 24  2  0
 23 25  1  0
 25 26  1  1
 26 50  1  0
 26 51  1  0
 26 52  1  0
 27 28  1  0
M  CHG  1  14   1
M  END
>  <i_m_ct_stereo_status>  (280) 
1

>  <s_m_source_file>  (280) 
/var/tmp/pbs.5083856.sched01/tmpnwbd9u66/110rgxpwhmz.sdf

>  <i_m_source_file_index>  (280) 
2

>  <i_lp_mmshare_version>  (280) 
48012

>  <i_f3d_flags>  (280) 
0

>  <s_epik_input>  (280) 
W0NIMl0xT1tDQEhdKFtDQF0xMjMpW0NIMl1bQ0BAXTQoW0NIM10pT09OKFtDSDJdW0NAQEhdMk80KVtDSDJdW0NAQEhdNUM9Nk4oQyg9UylbQ0BdMzVbQ0gzXSlbQ0gyXWM3YyhONilbY0hdW2NIXVtjSF1bY0hdNw==

>  <s_epik_cmdline>  (280) 
J2VwaWtfcHl0aG9uJywgJy1waHQnLCAnMi4wJywgJy1waCcsICc3LjAnLCAnLXRuJywgJzgnLCAnLW1hJywgJzIwMCcsICctaW1hZScsICc8aW5maWxlLm1hZT4nLCAnLW9tYWUnLCAnPG91dGZpbGUubWFlPic=

>  <r_epik_Ionization_Penalty>  (280) 
0.55457

>  <r_epik_Ionization_Penalty_Charging>  (280) 
0

>  <r_epik_Ionization_Penalty_Neutral>  (280) 
0.55457

>  <r_epik_State_Penalty>  (280) 
0.565214

>  <r_epik_Charging_Adjusted_Penalty>  (280) 
0.565214

>  <i_epik_Tot_Q>  (280) 
1

>  <i_epik_Tot_abs_Q>  (280) 
1

>  <s_epik_Chemistry_Notes>  (280) 
This compound has an imine and may undergo hydrolysis. This compound has a N-S or N-O group and may undergo hydrolysis at high or low pH.

>  <s_lp_Force_Field>  (280) 
OPLS3e

>  <r_lp_Energy>  (280) 
102.838

>  <b_lp_Chiralities_Consistent>  (280) 
1

>  <s_lp_Variant>  (280) 
78:0-2

>  <s_i_glide_gridfile>  (280) 
pfpi4k_grid

>  <i_i_glide_lignum>  (280) 
2

>  <i_i_glide_rotatable_bonds>  (280) 
0

>  <r_i_docking_score>  (280) 
-2.95292

>  <r_i_glide_ligand_efficiency>  (280) 
-0.101825

>  <r_i_glide_ligand_efficiency_sa>  (280) 
-0.312838

>  <r_i_glide_ligand_efficiency_ln>  (280) 
-0.676144

>  <r_i_glide_gscore>  (280) 
-2.95292

>  <r_i_glide_lipo>  (280) 
-0.518116

>  <r_i_glide_hbond>  (280) 
0

>  <r_i_glide_metal>  (280) 
-0

>  <r_i_glide_rewards>  (280) 
-0.684078

>  <r_i_glide_evdw>  (280) 
-30.6426

>  <r_i_glide_ecoul>  (280) 
-0.764662

>  <r_i_glide_erotb>  (280) 
0

>  <r_i_glide_esite>  (280) 
-0.103897

>  <r_i_glide_emodel>  (280) 
-38.4603

>  <r_i_glide_energy>  (280) 
-31.4073

>  <r_i_glide_einternal>  (280) 
0

>  <r_i_glide_intrahb_reward>  (280) 
-0

>  <i_i_glide_confnum>  (280) 
1

>  <i_i_glide_posenum>  (280) 
5

>  <r_i_glide_eff_state_penalty>  (280) 
0

>  <ligand_id>  (280) 
78

>  <original_smiles>  (280) 
CC12CC3OCC34C(CN(CC3C5=Nc6ccccc6CN5C(=S)C34C)OO1)O2

>  <smiles>  (280) 
[H]c1c([H])c([H])c2c(c1[H])[N+]([H])=C1N(C(=S)C3(C([H])([H])[H])C1([H])C([H])([H])N1OOC4(C([H])([H])[H])OC([H])(C1([H])[H])C31C([H])([H])OC1([H])C4([H])[H])C2([H])[H]

$$$$
79:0:0
     RDKit          3D

 36 39  0  0  1  0  0  0  0  0999 V2000
   10.2538   -2.6082    1.2250 N   0  0  0  0  0  0  0  0  0  0  0  0
    9.4990   -3.1975    0.5800 C   0  0  0  0  0  0  0  0  0  0  0  0
    8.5595   -3.9669   -0.2421 C   0  0  2  0  0  0  0  0  0  0  0  0
    7.6441   -2.9875   -0.9392 C   0  0  0  0  0  0  0  0  0  0  0  0
    7.9885   -2.2505   -1.8950 N   0  0  0  0  0  0  0  0  0  0  0  0
    6.2266   -3.0089   -0.3816 C   0  0  1  0  0  0  0  0  0  0  0  0
    5.9400   -1.6922    0.3746 C   0  0  0  0  0  0  0  0  0  0  0  0
    6.6066   -1.3190    1.3300 O   0  0  0  0  0  0  0  0  0  0  0  0
    4.8627   -1.0584   -0.1048 N   0  0  0  0  0  0  0  0  0  0  0  0
    4.3567   -1.7821   -1.1860 C   0  0  0  0  0  0  0  0  0  0  0  0
    3.2501   -1.4792   -1.9840 C   0  0  0  0  0  0  0  0  0  0  0  0
    2.9206   -2.3349   -3.0528 C   0  0  0  0  0  0  0  0  0  0  0  0
    3.7361   -3.4568   -3.3247 C   0  0  0  0  0  0  0  0  0  0  0  0
    4.8479   -3.7613   -2.5102 C   0  0  0  0  0  0  0  0  0  0  0  0
    5.1238   -2.9152   -1.4161 C   0  0  0  0  0  0  0  0  0  0  0  0
    6.3011   -4.2444    0.4548 C   0  0  0  0  0  0  0  0  0  0  0  0
    7.5421   -4.7228    0.5604 C   0  0  0  0  0  0  0  0  0  0  0  0
    7.9258   -5.9368    1.3543 C   0  0  0  0  0  0  0  0  0  0  0  0
    6.6681   -6.7139    1.7800 C   0  0  0  0  0  0  0  0  0  0  0  0
    5.5359   -5.7847    2.2590 C   0  0  0  0  0  0  0  0  0  0  0  0
    5.0936   -4.8054    1.1593 C   0  0  0  0  0  0  0  0  0  0  0  0
    9.0777   -4.5599   -0.9973 H   0  0  0  0  0  0  0  0  0  0  0  0
    8.9347   -2.4455   -2.2603 H   0  0  0  0  0  0  0  0  0  0  0  0
    4.4310   -0.2262    0.2843 H   0  0  0  0  0  0  0  0  0  0  0  0
    2.6287   -0.6556   -1.7345 H   0  0  0  0  0  0  0  0  0  0  0  0
    2.0181   -2.1568   -3.6272 H   0  0  0  0  0  0  0  0  0  0  0  0
    3.4421   -4.1261   -4.1171 H   0  0  0  0  0  0  0  0  0  0  0  0
    5.4166   -4.6561   -2.7024 H   0  0  0  0  0  0  0  0  0  0  0  0
    8.5921   -6.5725    0.7674 H   0  0  0  0  0  0  0  0  0  0  0  0
    8.4679   -5.5725    2.2260 H   0  0  0  0  0  0  0  0  0  0  0  0
    6.2992   -7.3042    0.9408 H   0  0  0  0  0  0  0  0  0  0  0  0
    6.9322   -7.4214    2.5619 H   0  0  0  0  0  0  0  0  0  0  0  0
    4.6788   -6.3661    2.5888 H   0  0  0  0  0  0  0  0  0  0  0  0
    5.8836   -5.2278    3.1307 H   0  0  0  0  0  0  0  0  0  0  0  0
    4.5107   -3.9902    1.5957 H   0  0  0  0  0  0  0  0  0  0  0  0
    4.4770   -5.3008    0.4090 H   0  0  0  0  0  0  0  0  0  0  0  0
  1  2  3  0
  2  3  1  0
  3 17  1  0
  3  4  1  0
  3 22  1  6
  4  5  2  3
  4  6  1  0
  5 23  1  0
  6 15  1  0
  6  7  1  1
  6 16  1  0
  7  8  2  0
  7  9  1  0
  9 10  1  0
  9 24  1  0
 10 15  2  0
 10 11  1  0
 11 12  2  0
 11 25  1  0
 12 13  1  0
 12 26  1  0
 13 14  2  0
 13 27  1  0
 14 15  1  0
 14 28  1  0
 16 21  1  0
 16 17  2  0
 17 18  1  0
 18 19  1  0
 18 29  1  0
 18 30  1  0
 19 20  1  0
 19 31  1  0
 19 32  1  0
 20 21  1  0
 20 33  1  0
 20 34  1  0
 21 35  1  0
 21 36  1  0
M  END
>  <i_m_ct_stereo_status>  (281) 
1

>  <s_m_source_file>  (281) 
/var/tmp/pbs.5083856.sched01/tmpnwbd9u66/110rgxpwhmz.sdf

>  <i_m_source_file_index>  (281) 
3

>  <i_lp_mmshare_version>  (281) 
48012

>  <i_f3d_flags>  (281) 
0

>  <s_epik_input>  (281) 
W0NIMl0xW0NIMl1bQ0gyXVtDSDJdQyhbQ0BIXShDI04pL0MyPU5cW0hdKT1DMVtDQF0yM2M0YyhbTkhdQzM9TylbY0hdW2NIXVtjSF1bY0hdNA==

>  <s_epik_cmdline>  (281) 
J2VwaWtfcHl0aG9uJywgJy1waHQnLCAnMi4wJywgJy1waCcsICc3LjAnLCAnLXRuJywgJzgnLCAnLW1hJywgJzIwMCcsICctaW1hZScsICc8aW5maWxlLm1hZT4nLCAnLW9tYWUnLCAnPG91dGZpbGUubWFlPic=

>  <r_lp_tautomer_probability>  (281) 
1

>  <r_epik_Ionization_Penalty>  (281) 
0.000176042

>  <r_epik_Ionization_Penalty_Charging>  (281) 
0

>  <r_epik_Ionization_Penalty_Neutral>  (281) 
0.000176042

>  <r_epik_State_Penalty>  (281) 
-0

>  <r_epik_Charging_Adjusted_Penalty>  (281) 
0

>  <i_epik_Tot_Q>  (281) 
0

>  <i_epik_Tot_abs_Q>  (281) 
0

>  <s_epik_Chemistry_Notes>  (281) 
This compound has an imine and may undergo hydrolysis.

>  <s_lp_Force_Field>  (281) 
OPLS3e

>  <r_lp_Energy>  (281) 
32.1268

>  <b_lp_Chiralities_Consistent>  (281) 
1

>  <s_lp_Variant>  (281) 
79:0-1

>  <s_i_glide_gridfile>  (281) 
pfpi4k_grid

>  <i_i_glide_lignum>  (281) 
3

>  <i_i_glide_rotatable_bonds>  (281) 
1

>  <r_i_docking_score>  (281) 
-4.30659

>  <r_i_glide_ligand_efficiency>  (281) 
-0.205076

>  <r_i_glide_ligand_efficiency_sa>  (281) 
-0.565788

>  <r_i_glide_ligand_efficiency_ln>  (281) 
-1.06479

>  <r_i_glide_gscore>  (281) 
-4.30659

>  <r_i_glide_lipo>  (281) 
-0.554055

>  <r_i_glide_hbond>  (281) 
-0.471475

>  <r_i_glide_metal>  (281) 
-0

>  <r_i_glide_rewards>  (281) 
-1.62982

>  <r_i_glide_evdw>  (281) 
-16.6298

>  <r_i_glide_ecoul>  (281) 
-5.0948

>  <r_i_glide_erotb>  (281) 
0

>  <r_i_glide_esite>  (281) 
-0.0555277

>  <r_i_glide_emodel>  (281) 
-28.7981

>  <r_i_glide_energy>  (281) 
-21.7246

>  <r_i_glide_einternal>  (281) 
-0.438684

>  <r_i_glide_intrahb_reward>  (281) 
-0

>  <i_i_glide_confnum>  (281) 
1

>  <i_i_glide_posenum>  (281) 
17

>  <r_i_glide_eff_state_penalty>  (281) 
0

>  <ligand_id>  (281) 
79

>  <original_smiles>  (281) 
N#CC1C(=N)C2(C(=O)Nc3ccccc32)C2=C1CCCC2

>  <smiles>  (281) 
[H]N=C1C([H])(C#N)C2=C(C13C(=O)N([H])c1c([H])c([H])c([H])c([H])c13)C([H])([H])C([H])([H])C([H])([H])C2([H])[H]

$$$$
79:0:1
     RDKit          3D

 36 39  0  0  1  0  0  0  0  0999 V2000
   -0.6377    7.7344    7.0673 N   0  0  0  0  0  0  0  0  0  0  0  0
   -0.1500    6.7096    7.2974 C   0  0  0  0  0  0  0  0  0  0  0  0
    0.4665    5.4035    7.5839 C   0  0  2  0  0  0  0  0  0  0  0  0
    1.3855    4.9930    6.4398 C   0  0  0  0  0  0  0  0  0  0  0  0
    2.5425    5.4673    6.2359 N   0  0  0  0  0  0  0  0  0  0  0  0
    0.7275    3.8740    5.6273 C   0  0  1  0  0  0  0  0  0  0  0  0
    0.2651    4.4176    4.2683 C   0  0  0  0  0  0  0  0  0  0  0  0
   -0.5586    5.3222    4.1252 O   0  0  0  0  0  0  0  0  0  0  0  0
    0.8064    3.6986    3.2779 N   0  0  0  0  0  0  0  0  0  0  0  0
    1.6446    2.7030    3.7707 C   0  0  0  0  0  0  0  0  0  0  0  0
    2.4050    1.7616    3.0543 C   0  0  0  0  0  0  0  0  0  0  0  0
    3.2109    0.8780    3.8104 C   0  0  0  0  0  0  0  0  0  0  0  0
    3.2398    0.9511    5.2267 C   0  0  0  0  0  0  0  0  0  0  0  0
    2.4531    1.9036    5.9209 C   0  0  0  0  0  0  0  0  0  0  0  0
    1.6473    2.7671    5.1574 C   0  0  0  0  0  0  0  0  0  0  0  0
   -0.4061    3.4602    6.5274 C   0  0  0  0  0  0  0  0  0  0  0  0
   -0.5579    4.2919    7.5579 C   0  0  0  0  0  0  0  0  0  0  0  0
   -1.6307    4.1404    8.6132 C   0  0  0  0  0  0  0  0  0  0  0  0
   -2.3030    2.7545    8.5333 C   0  0  0  0  0  0  0  0  0  0  0  0
   -2.5855    2.3332    7.0784 C   0  0  0  0  0  0  0  0  0  0  0  0
   -1.2968    2.2706    6.2373 C   0  0  0  0  0  0  0  0  0  0  0  0
    1.0216    5.4265    8.5259 H   0  0  0  0  0  0  0  0  0  0  0  0
    2.8347    6.1680    6.9040 H   0  0  0  0  0  0  0  0  0  0  0  0
    0.6196    3.8457    2.2857 H   0  0  0  0  0  0  0  0  0  0  0  0
    2.3851    1.7272    1.9739 H   0  0  0  0  0  0  0  0  0  0  0  0
    3.8183    0.1462    3.3012 H   0  0  0  0  0  0  0  0  0  0  0  0
    3.8693    0.2757    5.7881 H   0  0  0  0  0  0  0  0  0  0  0  0
    2.4764    1.9782    7.0017 H   0  0  0  0  0  0  0  0  0  0  0  0
   -1.1984    4.2919    9.6026 H   0  0  0  0  0  0  0  0  0  0  0  0
   -2.3678    4.9260    8.4460 H   0  0  0  0  0  0  0  0  0  0  0  0
   -1.6541    2.0061    8.9910 H   0  0  0  0  0  0  0  0  0  0  0  0
   -3.2254    2.7564    9.1166 H   0  0  0  0  0  0  0  0  0  0  0  0
   -3.0919    1.3691    7.0524 H   0  0  0  0  0  0  0  0  0  0  0  0
   -3.2809    3.0496    6.6349 H   0  0  0  0  0  0  0  0  0  0  0  0
   -1.5574    2.2404    5.1786 H   0  0  0  0  0  0  0  0  0  0  0  0
   -0.7396    1.3621    6.4582 H   0  0  0  0  0  0  0  0  0  0  0  0
  1  2  3  0
  2  3  1  0
  3 17  1  0
  3  4  1  0
  3 22  1  1
  4  5  2  3
  4  6  1  0
  5 23  1  0
  6 15  1  0
  6  7  1  6
  6 16  1  0
  7  8  2  0
  7  9  1  0
  9 10  1  0
  9 24  1  0
 10 15  2  0
 10 11  1  0
 11 12  2  0
 11 25  1  0
 12 13  1  0
 12 26  1  0
 13 14  2  0
 13 27  1  0
 14 15  1  0
 14 28  1  0
 16 21  1  0
 16 17  2  0
 17 18  1  0
 18 19  1  0
 18 29  1  0
 18 30  1  0
 19 20  1  0
 19 31  1  0
 19 32  1  0
 20 21  1  0
 20 33  1  0
 20 34  1  0
 21 35  1  0
 21 36  1  0
M  END
>  <i_m_ct_stereo_status>  (282) 
1

>  <s_m_source_file>  (282) 
/var/tmp/pbs.5083856.sched01/tmpnwbd9u66/110rgxpwhmz.sdf

>  <i_m_source_file_index>  (282) 
3

>  <i_lp_mmshare_version>  (282) 
48012

>  <i_f3d_flags>  (282) 
0

>  <s_epik_input>  (282) 
W0NIMl0xW0NIMl1bQ0gyXVtDSDJdQyhbQ0BIXShDI04pL0MyPU5cW0hdKT1DMVtDQF0yM2M0YyhbTkhdQzM9TylbY0hdW2NIXVtjSF1bY0hdNA==

>  <s_epik_cmdline>  (282) 
J2VwaWtfcHl0aG9uJywgJy1waHQnLCAnMi4wJywgJy1waCcsICc3LjAnLCAnLXRuJywgJzgnLCAnLW1hJywgJzIwMCcsICctaW1hZScsICc8aW5maWxlLm1hZT4nLCAnLW9tYWUnLCAnPG91dGZpbGUubWFlPic=

>  <r_lp_tautomer_probability>  (282) 
1

>  <r_epik_Ionization_Penalty>  (282) 
0.000176042

>  <r_epik_Ionization_Penalty_Charging>  (282) 
0

>  <r_epik_Ionization_Penalty_Neutral>  (282) 
0.000176042

>  <r_epik_State_Penalty>  (282) 
-0

>  <r_epik_Charging_Adjusted_Penalty>  (282) 
0

>  <i_epik_Tot_Q>  (282) 
0

>  <i_epik_Tot_abs_Q>  (282) 
0

>  <s_epik_Chemistry_Notes>  (282) 
This compound has an imine and may undergo hydrolysis.

>  <s_lp_Force_Field>  (282) 
OPLS3e

>  <r_lp_Energy>  (282) 
32.1268

>  <b_lp_Chiralities_Consistent>  (282) 
1

>  <s_lp_Variant>  (282) 
79:0-1

>  <s_i_glide_gridfile>  (282) 
pfpi4k_grid

>  <i_i_glide_lignum>  (282) 
3

>  <i_i_glide_rotatable_bonds>  (282) 
1

>  <r_i_docking_score>  (282) 
-3.72353

>  <r_i_glide_ligand_efficiency>  (282) 
-0.177311

>  <r_i_glide_ligand_efficiency_sa>  (282) 
-0.489188

>  <r_i_glide_ligand_efficiency_ln>  (282) 
-0.920636

>  <r_i_glide_gscore>  (282) 
-3.72353

>  <r_i_glide_lipo>  (282) 
-0.0700576

>  <r_i_glide_hbond>  (282) 
-0.220848

>  <r_i_glide_metal>  (282) 
-0

>  <r_i_glide_rewards>  (282) 
-1.51827

>  <r_i_glide_evdw>  (282) 
-16.2407

>  <r_i_glide_ecoul>  (282) 
-6.25771

>  <r_i_glide_erotb>  (282) 
0

>  <r_i_glide_esite>  (282) 
-0.163667

>  <r_i_glide_emodel>  (282) 
-28.705

>  <r_i_glide_energy>  (282) 
-22.4984

>  <r_i_glide_einternal>  (282) 
-0.443285

>  <r_i_glide_intrahb_reward>  (282) 
-0

>  <i_i_glide_confnum>  (282) 
2

>  <i_i_glide_posenum>  (282) 
19

>  <r_i_glide_eff_state_penalty>  (282) 
0

>  <ligand_id>  (282) 
79

>  <original_smiles>  (282) 
N#CC1C(=N)C2(C(=O)Nc3ccccc32)C2=C1CCCC2

>  <smiles>  (282) 
[H]N=C1C([H])(C#N)C2=C(C13C(=O)N([H])c1c([H])c([H])c([H])c([H])c13)C([H])([H])C([H])([H])C([H])([H])C2([H])[H]

$$$$
79:0:2
     RDKit          3D

 36 39  0  0  1  0  0  0  0  0999 V2000
    8.0424   -6.1846    2.3132 N   0  0  0  0  0  0  0  0  0  0  0  0
    6.9892   -6.0080    2.7591 C   0  0  0  0  0  0  0  0  0  0  0  0
    5.6473   -5.7823    3.3260 C   0  0  2  0  0  0  0  0  0  0  0  0
    4.9547   -7.1103    3.6305 C   0  0  0  0  0  0  0  0  0  0  0  0
    5.2195   -7.8405    4.6315 N   0  0  0  0  0  0  0  0  0  0  0  0
    3.8521   -7.3740    2.5934 C   0  0  1  0  0  0  0  0  0  0  0  0
    4.2663   -8.5154    1.6385 C   0  0  0  0  0  0  0  0  0  0  0  0
    5.2729   -8.4928    0.9331 O   0  0  0  0  0  0  0  0  0  0  0  0
    3.3467   -9.4911    1.6473 N   0  0  0  0  0  0  0  0  0  0  0  0
    2.3195   -9.1916    2.5392 C   0  0  0  0  0  0  0  0  0  0  0  0
    1.1841   -9.9550    2.8624 C   0  0  0  0  0  0  0  0  0  0  0  0
    0.2971   -9.4297    3.8245 C   0  0  0  0  0  0  0  0  0  0  0  0
    0.5553   -8.1875    4.4521 C   0  0  0  0  0  0  0  0  0  0  0  0
    1.7023   -7.4350    4.1099 C   0  0  0  0  0  0  0  0  0  0  0  0
    2.5653   -7.9579    3.1297 C   0  0  0  0  0  0  0  0  0  0  0  0
    3.7468   -6.0229    1.9262 C   0  0  0  0  0  0  0  0  0  0  0  0
    4.7109   -5.1854    2.3049 C   0  0  0  0  0  0  0  0  0  0  0  0
    4.8708   -3.7759    1.7718 C   0  0  0  0  0  0  0  0  0  0  0  0
    3.6080   -3.3175    1.0118 C   0  0  0  0  0  0  0  0  0  0  0  0
    3.0456   -4.4266    0.1032 C   0  0  0  0  0  0  0  0  0  0  0  0
    2.6736   -5.6843    0.9092 C   0  0  0  0  0  0  0  0  0  0  0  0
    5.7109   -5.1613    4.2236 H   0  0  0  0  0  0  0  0  0  0  0  0
    5.9473   -7.4833    5.2351 H   0  0  0  0  0  0  0  0  0  0  0  0
    3.4061  -10.3533    1.1136 H   0  0  0  0  0  0  0  0  0  0  0  0
    1.0010  -10.9127    2.4014 H   0  0  0  0  0  0  0  0  0  0  0  0
   -0.5848   -9.9912    4.0893 H   0  0  0  0  0  0  0  0  0  0  0  0
   -0.1239   -7.8189    5.2051 H   0  0  0  0  0  0  0  0  0  0  0  0
    1.9178   -6.4931    4.5950 H   0  0  0  0  0  0  0  0  0  0  0  0
    5.0854   -3.0959    2.5944 H   0  0  0  0  0  0  0  0  0  0  0  0
    5.7334   -3.7727    1.1047 H   0  0  0  0  0  0  0  0  0  0  0  0
    2.8345   -3.0346    1.7291 H   0  0  0  0  0  0  0  0  0  0  0  0
    3.8279   -2.4231    0.4258 H   0  0  0  0  0  0  0  0  0  0  0  0
    2.1814   -4.0661   -0.4528 H   0  0  0  0  0  0  0  0  0  0  0  0
    3.7971   -4.6820   -0.6464 H   0  0  0  0  0  0  0  0  0  0  0  0
    2.5517   -6.5224    0.2322 H   0  0  0  0  0  0  0  0  0  0  0  0
    1.7315   -5.5499    1.4349 H   0  0  0  0  0  0  0  0  0  0  0  0
  1  2  3  0
  2  3  1  0
  3 17  1  0
  3  4  1  0
  3 22  1  1
  4  5  2  3
  4  6  1  0
  5 23  1  0
  6 15  1  0
  6  7  1  6
  6 16  1  0
  7  8  2  0
  7  9  1  0
  9 10  1  0
  9 24  1  0
 10 15  2  0
 10 11  1  0
 11 12  2  0
 11 25  1  0
 12 13  1  0
 12 26  1  0
 13 14  2  0
 13 27  1  0
 14 15  1  0
 14 28  1  0
 16 21  1  0
 16 17  2  0
 17 18  1  0
 18 19  1  0
 18 29  1  0
 18 30  1  0
 19 20  1  0
 19 31  1  0
 19 32  1  0
 20 21  1  0
 20 33  1  0
 20 34  1  0
 21 35  1  0
 21 36  1  0
M  END
>  <i_m_ct_stereo_status>  (283) 
1

>  <s_m_source_file>  (283) 
/var/tmp/pbs.5083856.sched01/tmpnwbd9u66/110rgxpwhmz.sdf

>  <i_m_source_file_index>  (283) 
3

>  <i_lp_mmshare_version>  (283) 
48012

>  <i_f3d_flags>  (283) 
0

>  <s_epik_input>  (283) 
W0NIMl0xW0NIMl1bQ0gyXVtDSDJdQyhbQ0BIXShDI04pL0MyPU5cW0hdKT1DMVtDQF0yM2M0YyhbTkhdQzM9TylbY0hdW2NIXVtjSF1bY0hdNA==

>  <s_epik_cmdline>  (283) 
J2VwaWtfcHl0aG9uJywgJy1waHQnLCAnMi4wJywgJy1waCcsICc3LjAnLCAnLXRuJywgJzgnLCAnLW1hJywgJzIwMCcsICctaW1hZScsICc8aW5maWxlLm1hZT4nLCAnLW9tYWUnLCAnPG91dGZpbGUubWFlPic=

>  <r_lp_tautomer_probability>  (283) 
1

>  <r_epik_Ionization_Penalty>  (283) 
0.000176042

>  <r_epik_Ionization_Penalty_Charging>  (283) 
0

>  <r_epik_Ionization_Penalty_Neutral>  (283) 
0.000176042

>  <r_epik_State_Penalty>  (283) 
-0

>  <r_epik_Charging_Adjusted_Penalty>  (283) 
0

>  <i_epik_Tot_Q>  (283) 
0

>  <i_epik_Tot_abs_Q>  (283) 
0

>  <s_epik_Chemistry_Notes>  (283) 
This compound has an imine and may undergo hydrolysis.

>  <s_lp_Force_Field>  (283) 
OPLS3e

>  <r_lp_Energy>  (283) 
32.1268

>  <b_lp_Chiralities_Consistent>  (283) 
1

>  <s_lp_Variant>  (283) 
79:0-1

>  <s_i_glide_gridfile>  (283) 
pfpi4k_grid

>  <i_i_glide_lignum>  (283) 
3

>  <i_i_glide_rotatable_bonds>  (283) 
1

>  <r_i_docking_score>  (283) 
-3.24211

>  <r_i_glide_ligand_efficiency>  (283) 
-0.154386

>  <r_i_glide_ligand_efficiency_sa>  (283) 
-0.42594

>  <r_i_glide_ligand_efficiency_ln>  (283) 
-0.801606

>  <r_i_glide_gscore>  (283) 
-3.24211

>  <r_i_glide_lipo>  (283) 
-0.184704

>  <r_i_glide_hbond>  (283) 
-0.158085

>  <r_i_glide_metal>  (283) 
-0

>  <r_i_glide_rewards>  (283) 
-1.54112

>  <r_i_glide_evdw>  (283) 
-20.2447

>  <r_i_glide_ecoul>  (283) 
-1.77368

>  <r_i_glide_erotb>  (283) 
0

>  <r_i_glide_esite>  (283) 
-0.0799194

>  <r_i_glide_emodel>  (283) 
-27.4417

>  <r_i_glide_energy>  (283) 
-22.0184

>  <r_i_glide_einternal>  (283) 
-0.438882

>  <r_i_glide_intrahb_reward>  (283) 
-0

>  <i_i_glide_confnum>  (283) 
1

>  <i_i_glide_posenum>  (283) 
2

>  <r_i_glide_eff_state_penalty>  (283) 
0

>  <ligand_id>  (283) 
79

>  <original_smiles>  (283) 
N#CC1C(=N)C2(C(=O)Nc3ccccc32)C2=C1CCCC2

>  <smiles>  (283) 
[H]N=C1C([H])(C#N)C2=C(C13C(=O)N([H])c1c([H])c([H])c([H])c([H])c13)C([H])([H])C([H])([H])C([H])([H])C2([H])[H]

$$$$
79:1:0
     RDKit          3D

 36 39  0  0  1  0  0  0  0  0999 V2000
   -0.5925    7.6852    7.0489 N   0  0  0  0  0  0  0  0  0  0  0  0
   -0.1238    6.6545    7.2870 C   0  0  0  0  0  0  0  0  0  0  0  0
    0.4639    5.3382    7.5907 C   0  0  2  0  0  0  0  0  0  0  0  0
    1.3879    4.9089    6.4591 C   0  0  0  0  0  0  0  0  0  0  0  0
    2.5603    5.3554    6.2819 N   0  0  0  0  0  0  0  0  0  0  0  0
    0.7045    3.8148    5.6322 C   0  0  1  0  0  0  0  0  0  0  0  0
    0.2516    4.3935    4.2838 C   0  0  0  0  0  0  0  0  0  0  0  0
   -0.5585    5.3104    4.1552 O   0  0  0  0  0  0  0  0  0  0  0  0
    0.7882    3.6880    3.2837 N   0  0  0  0  0  0  0  0  0  0  0  0
    1.6037    2.6629    3.7551 C   0  0  0  0  0  0  0  0  0  0  0  0
    2.3442    1.7212    3.0220 C   0  0  0  0  0  0  0  0  0  0  0  0
    3.1283    0.8037    3.7621 C   0  0  0  0  0  0  0  0  0  0  0  0
    3.1532    0.8490    5.1824 C   0  0  0  0  0  0  0  0  0  0  0  0
    2.3845    1.8026    5.8924 C   0  0  0  0  0  0  0  0  0  0  0  0
    1.5999    2.6978    5.1426 C   0  0  0  0  0  0  0  0  0  0  0  0
   -0.4395    3.4174    6.5219 C   0  0  0  0  0  0  0  0  0  0  0  0
   -0.5813    4.2440    7.5554 C   0  0  0  0  0  0  0  0  0  0  0  0
   -1.6612    4.1042    8.6088 C   0  0  0  0  0  0  0  0  0  0  0  0
   -2.3540    2.7288    8.5162 C   0  0  0  0  0  0  0  0  0  0  0  0
   -2.6394    2.3228    7.0583 C   0  0  0  0  0  0  0  0  0  0  0  0
   -1.3491    2.2441    6.2216 C   0  0  0  0  0  0  0  0  0  0  0  0
    1.0053    5.3563    8.5368 H   0  0  0  0  0  0  0  0  0  0  0  0
    3.0494    4.9259    5.5078 H   0  0  0  0  0  0  0  0  0  0  0  0
    0.6023    3.8532    2.2942 H   0  0  0  0  0  0  0  0  0  0  0  0
    2.3270    1.7079    1.9424 H   0  0  0  0  0  0  0  0  0  0  0  0
    3.7198    0.0703    3.2432 H   0  0  0  0  0  0  0  0  0  0  0  0
    3.7643    0.1497    5.7309 H   0  0  0  0  0  0  0  0  0  0  0  0
    2.4031    1.8571    6.9730 H   0  0  0  0  0  0  0  0  0  0  0  0
   -1.2287    4.2397    9.5996 H   0  0  0  0  0  0  0  0  0  0  0  0
   -2.3863    4.9023    8.4453 H   0  0  0  0  0  0  0  0  0  0  0  0
   -1.7191    1.9670    8.9695 H   0  0  0  0  0  0  0  0  0  0  0  0
   -3.2796    2.7399    9.0968 H   0  0  0  0  0  0  0  0  0  0  0  0
   -3.1606    1.3677    7.0223 H   0  0  0  0  0  0  0  0  0  0  0  0
   -3.3205    3.0539    6.6162 H   0  0  0  0  0  0  0  0  0  0  0  0
   -1.6057    2.2302    5.1618 H   0  0  0  0  0  0  0  0  0  0  0  0
   -0.8069    1.3259    6.4345 H   0  0  0  0  0  0  0  0  0  0  0  0
  1  2  3  0
  2  3  1  0
  3 17  1  0
  3  4  1  0
  3 22  1  1
  4  5  2  3
  4  6  1  0
  5 23  1  0
  6 15  1  0
  6  7  1  6
  6 16  1  0
  7  8  2  0
  7  9  1  0
  9 10  1  0
  9 24  1  0
 10 15  2  0
 10 11  1  0
 11 12  2  0
 11 25  1  0
 12 13  1  0
 12 26  1  0
 13 14  2  0
 13 27  1  0
 14 15  1  0
 14 28  1  0
 16 21  1  0
 16 17  2  0
 17 18  1  0
 18 19  1  0
 18 29  1  0
 18 30  1  0
 19 20  1  0
 19 31  1  0
 19 32  1  0
 20 21  1  0
 20 33  1  0
 20 34  1  0
 21 35  1  0
 21 36  1  0
M  END
>  <i_m_ct_stereo_status>  (284) 
1

>  <s_m_source_file>  (284) 
/var/tmp/pbs.5083856.sched01/tmpnwbd9u66/110rgxpwhmz.sdf

>  <i_m_source_file_index>  (284) 
4

>  <i_lp_mmshare_version>  (284) 
48012

>  <i_f3d_flags>  (284) 
0

>  <s_epik_input>  (284) 
W0NIMl0xW0NIMl1bQ0gyXVtDSDJdQyhbQ0BIXShDI04pL0MyPU5cW0hdKT1DMVtDQF0yM2M0YyhbTkhdQzM9TylbY0hdW2NIXVtjSF1bY0hdNA==

>  <s_epik_cmdline>  (284) 
J2VwaWtfcHl0aG9uJywgJy1waHQnLCAnMi4wJywgJy1waCcsICc3LjAnLCAnLXRuJywgJzgnLCAnLW1hJywgJzIwMCcsICctaW1hZScsICc8aW5maWxlLm1hZT4nLCAnLW9tYWUnLCAnPG91dGZpbGUubWFlPic=

>  <r_lp_tautomer_probability>  (284) 
1

>  <r_epik_Ionization_Penalty>  (284) 
0.000176042

>  <r_epik_Ionization_Penalty_Charging>  (284) 
0

>  <r_epik_Ionization_Penalty_Neutral>  (284) 
0.000176042

>  <r_epik_State_Penalty>  (284) 
-0

>  <r_epik_Charging_Adjusted_Penalty>  (284) 
0

>  <i_epik_Tot_Q>  (284) 
0

>  <i_epik_Tot_abs_Q>  (284) 
0

>  <s_epik_Chemistry_Notes>  (284) 
This compound has an imine and may undergo hydrolysis.

>  <s_lp_Force_Field>  (284) 
OPLS3e

>  <r_lp_Energy>  (284) 
32.1513

>  <b_lp_Chiralities_Consistent>  (284) 
1

>  <s_lp_Variant>  (284) 
79:0-2

>  <s_i_glide_gridfile>  (284) 
pfpi4k_grid

>  <i_i_glide_lignum>  (284) 
4

>  <i_i_glide_rotatable_bonds>  (284) 
1

>  <r_i_docking_score>  (284) 
-3.75617

>  <r_i_glide_ligand_efficiency>  (284) 
-0.178865

>  <r_i_glide_ligand_efficiency_sa>  (284) 
-0.493476

>  <r_i_glide_ligand_efficiency_ln>  (284) 
-0.928706

>  <r_i_glide_gscore>  (284) 
-3.75617

>  <r_i_glide_lipo>  (284) 
-0.07516

>  <r_i_glide_hbond>  (284) 
-0.218072

>  <r_i_glide_metal>  (284) 
-0

>  <r_i_glide_rewards>  (284) 
-1.51827

>  <r_i_glide_evdw>  (284) 
-16.2828

>  <r_i_glide_ecoul>  (284) 
-6.45967

>  <r_i_glide_erotb>  (284) 
0

>  <r_i_glide_esite>  (284) 
-0.161581

>  <r_i_glide_emodel>  (284) 
-29.1143

>  <r_i_glide_energy>  (284) 
-22.7424

>  <r_i_glide_einternal>  (284) 
-0.447758

>  <r_i_glide_intrahb_reward>  (284) 
-0

>  <i_i_glide_confnum>  (284) 
2

>  <i_i_glide_posenum>  (284) 
14

>  <r_i_glide_eff_state_penalty>  (284) 
0

>  <ligand_id>  (284) 
79

>  <original_smiles>  (284) 
N#CC1C(=N)C2(C(=O)Nc3ccccc32)C2=C1CCCC2

>  <smiles>  (284) 
[H]N=C1C([H])(C#N)C2=C(C13C(=O)N([H])c1c([H])c([H])c([H])c([H])c13)C([H])([H])C([H])([H])C([H])([H])C2([H])[H]

$$$$
79:1:1
     RDKit          3D

 36 39  0  0  1  0  0  0  0  0999 V2000
    7.9237   -6.1325    2.2598 N   0  0  0  0  0  0  0  0  0  0  0  0
    6.8758   -5.9621    2.7189 C   0  0  0  0  0  0  0  0  0  0  0  0
    5.5403   -5.7393    3.2977 C   0  0  2  0  0  0  0  0  0  0  0  0
    4.8621   -7.0657    3.6256 C   0  0  0  0  0  0  0  0  0  0  0  0
    5.1371   -7.7651    4.6442 N   0  0  0  0  0  0  0  0  0  0  0  0
    3.7691   -7.3575    2.5863 C   0  0  1  0  0  0  0  0  0  0  0  0
    4.2140   -8.4917    1.6353 C   0  0  0  0  0  0  0  0  0  0  0  0
    5.2204   -8.4449    0.9329 O   0  0  0  0  0  0  0  0  0  0  0  0
    3.3251   -9.4951    1.6502 N   0  0  0  0  0  0  0  0  0  0  0  0
    2.2864   -9.2140    2.5354 C   0  0  0  0  0  0  0  0  0  0  0  0
    1.1736  -10.0065    2.8636 C   0  0  0  0  0  0  0  0  0  0  0  0
    0.2705   -9.5001    3.8189 C   0  0  0  0  0  0  0  0  0  0  0  0
    0.4900   -8.2447    4.4360 C   0  0  0  0  0  0  0  0  0  0  0  0
    1.6161   -7.4606    4.0922 C   0  0  0  0  0  0  0  0  0  0  0  0
    2.4952   -7.9692    3.1188 C   0  0  0  0  0  0  0  0  0  0  0  0
    3.6345   -6.0129    1.9132 C   0  0  0  0  0  0  0  0  0  0  0  0
    4.5867   -5.1590    2.2820 C   0  0  0  0  0  0  0  0  0  0  0  0
    4.7197   -3.7477    1.7420 C   0  0  0  0  0  0  0  0  0  0  0  0
    3.4430   -3.3149    0.9878 C   0  0  0  0  0  0  0  0  0  0  0  0
    2.8958   -4.4369    0.0869 C   0  0  0  0  0  0  0  0  0  0  0  0
    2.5501   -5.6972    0.9006 C   0  0  0  0  0  0  0  0  0  0  0  0
    5.6084   -5.1103    4.1887 H   0  0  0  0  0  0  0  0  0  0  0  0
    4.5570   -8.5859    4.7392 H   0  0  0  0  0  0  0  0  0  0  0  0
    3.4048  -10.3586    1.1171 H   0  0  0  0  0  0  0  0  0  0  0  0
    1.0181  -10.9738    2.4116 H   0  0  0  0  0  0  0  0  0  0  0  0
   -0.5882  -10.0891    4.0842 H   0  0  0  0  0  0  0  0  0  0  0  0
   -0.2024   -7.8899    5.1829 H   0  0  0  0  0  0  0  0  0  0  0  0
    1.8061   -6.5070    4.5730 H   0  0  0  0  0  0  0  0  0  0  0  0
    4.9260   -3.0588    2.5601 H   0  0  0  0  0  0  0  0  0  0  0  0
    5.5768   -3.7309    1.0676 H   0  0  0  0  0  0  0  0  0  0  0  0
    2.6687   -3.0420    1.7087 H   0  0  0  0  0  0  0  0  0  0  0  0
    3.6414   -2.4193    0.3961 H   0  0  0  0  0  0  0  0  0  0  0  0
    2.0206   -4.0958   -0.4663 H   0  0  0  0  0  0  0  0  0  0  0  0
    3.6489   -4.6819   -0.6652 H   0  0  0  0  0  0  0  0  0  0  0  0
    2.4433   -6.5412    0.2297 H   0  0  0  0  0  0  0  0  0  0  0  0
    1.6085   -5.5808    1.4328 H   0  0  0  0  0  0  0  0  0  0  0  0
  1  2  3  0
  2  3  1  0
  3 17  1  0
  3  4  1  0
  3 22  1  1
  4  5  2  3
  4  6  1  0
  5 23  1  0
  6 15  1  0
  6  7  1  6
  6 16  1  0
  7  8  2  0
  7  9  1  0
  9 10  1  0
  9 24  1  0
 10 15  2  0
 10 11  1  0
 11 12  2  0
 11 25  1  0
 12 13  1  0
 12 26  1  0
 13 14  2  0
 13 27  1  0
 14 15  1  0
 14 28  1  0
 16 21  1  0
 16 17  2  0
 17 18  1  0
 18 19  1  0
 18 29  1  0
 18 30  1  0
 19 20  1  0
 19 31  1  0
 19 32  1  0
 20 21  1  0
 20 33  1  0
 20 34  1  0
 21 35  1  0
 21 36  1  0
M  END
>  <i_m_ct_stereo_status>  (285) 
1

>  <s_m_source_file>  (285) 
/var/tmp/pbs.5083856.sched01/tmpnwbd9u66/110rgxpwhmz.sdf

>  <i_m_source_file_index>  (285) 
4

>  <i_lp_mmshare_version>  (285) 
48012

>  <i_f3d_flags>  (285) 
0

>  <s_epik_input>  (285) 
W0NIMl0xW0NIMl1bQ0gyXVtDSDJdQyhbQ0BIXShDI04pL0MyPU5cW0hdKT1DMVtDQF0yM2M0YyhbTkhdQzM9TylbY0hdW2NIXVtjSF1bY0hdNA==

>  <s_epik_cmdline>  (285) 
J2VwaWtfcHl0aG9uJywgJy1waHQnLCAnMi4wJywgJy1waCcsICc3LjAnLCAnLXRuJywgJzgnLCAnLW1hJywgJzIwMCcsICctaW1hZScsICc8aW5maWxlLm1hZT4nLCAnLW9tYWUnLCAnPG91dGZpbGUubWFlPic=

>  <r_lp_tautomer_probability>  (285) 
1

>  <r_epik_Ionization_Penalty>  (285) 
0.000176042

>  <r_epik_Ionization_Penalty_Charging>  (285) 
0

>  <r_epik_Ionization_Penalty_Neutral>  (285) 
0.000176042

>  <r_epik_State_Penalty>  (285) 
-0

>  <r_epik_Charging_Adjusted_Penalty>  (285) 
0

>  <i_epik_Tot_Q>  (285) 
0

>  <i_epik_Tot_abs_Q>  (285) 
0

>  <s_epik_Chemistry_Notes>  (285) 
This compound has an imine and may undergo hydrolysis.

>  <s_lp_Force_Field>  (285) 
OPLS3e

>  <r_lp_Energy>  (285) 
32.1513

>  <b_lp_Chiralities_Consistent>  (285) 
1

>  <s_lp_Variant>  (285) 
79:0-2

>  <s_i_glide_gridfile>  (285) 
pfpi4k_grid

>  <i_i_glide_lignum>  (285) 
4

>  <i_i_glide_rotatable_bonds>  (285) 
1

>  <r_i_docking_score>  (285) 
-3.29304

>  <r_i_glide_ligand_efficiency>  (285) 
-0.156811

>  <r_i_glide_ligand_efficiency_sa>  (285) 
-0.432631

>  <r_i_glide_ligand_efficiency_ln>  (285) 
-0.814197

>  <r_i_glide_gscore>  (285) 
-3.29304

>  <r_i_glide_lipo>  (285) 
-0.193378

>  <r_i_glide_hbond>  (285) 
-0.159136

>  <r_i_glide_metal>  (285) 
-0

>  <r_i_glide_rewards>  (285) 
-1.54253

>  <r_i_glide_evdw>  (285) 
-20.1437

>  <r_i_glide_ecoul>  (285) 
-2.0724

>  <r_i_glide_erotb>  (285) 
0

>  <r_i_glide_esite>  (285) 
-0.079948

>  <r_i_glide_emodel>  (285) 
-27.8285

>  <r_i_glide_energy>  (285) 
-22.2161

>  <r_i_glide_einternal>  (285) 
-0.443741

>  <r_i_glide_intrahb_reward>  (285) 
-0

>  <i_i_glide_confnum>  (285) 
1

>  <i_i_glide_posenum>  (285) 
34

>  <r_i_glide_eff_state_penalty>  (285) 
0

>  <ligand_id>  (285) 
79

>  <original_smiles>  (285) 
N#CC1C(=N)C2(C(=O)Nc3ccccc32)C2=C1CCCC2

>  <smiles>  (285) 
[H]N=C1C([H])(C#N)C2=C(C13C(=O)N([H])c1c([H])c([H])c([H])c([H])c13)C([H])([H])C([H])([H])C([H])([H])C2([H])[H]

$$$$
79:1:2
     RDKit          3D

 36 39  0  0  1  0  0  0  0  0999 V2000
    3.0163   -5.8523    9.2396 N   0  0  0  0  0  0  0  0  0  0  0  0
    2.0640   -5.8266    8.5833 C   0  0  0  0  0  0  0  0  0  0  0  0
    0.8517   -5.7877    7.7483 C   0  0  2  0  0  0  0  0  0  0  0  0
    0.6958   -7.0885    6.9647 C   0  0  0  0  0  0  0  0  0  0  0  0
    0.2625   -8.1671    7.4701 N   0  0  0  0  0  0  0  0  0  0  0  0
    1.0624   -6.8488    5.4923 C   0  0  1  0  0  0  0  0  0  0  0  0
    2.4236   -7.4996    5.1646 C   0  0  0  0  0  0  0  0  0  0  0  0
    3.4766   -7.2059    5.7267 O   0  0  0  0  0  0  0  0  0  0  0  0
    2.3031   -8.3589    4.1439 N   0  0  0  0  0  0  0  0  0  0  0  0
    0.9780   -8.4219    3.7143 C   0  0  0  0  0  0  0  0  0  0  0  0
    0.4294   -9.2068    2.6916 C   0  0  0  0  0  0  0  0  0  0  0  0
   -0.9623   -9.1066    2.4771 C   0  0  0  0  0  0  0  0  0  0  0  0
   -1.7634   -8.2411    3.2571 C   0  0  0  0  0  0  0  0  0  0  0  0
   -1.1853   -7.4506    4.2723 C   0  0  0  0  0  0  0  0  0  0  0  0
    0.2029   -7.5541    4.4722 C   0  0  0  0  0  0  0  0  0  0  0  0
    1.0769   -5.3400    5.4280 C   0  0  0  0  0  0  0  0  0  0  0  0
    0.9767   -4.7782    6.6320 C   0  0  0  0  0  0  0  0  0  0  0  0
    0.9928   -3.2815    6.8752 C   0  0  0  0  0  0  0  0  0  0  0  0
    0.7951   -2.4984    5.5594 C   0  0  0  0  0  0  0  0  0  0  0  0
    1.6137   -3.0985    4.3998 C   0  0  0  0  0  0  0  0  0  0  0  0
    1.2319   -4.5654    4.1332 C   0  0  0  0  0  0  0  0  0  0  0  0
   -0.0312   -5.6015    8.3625 H   0  0  0  0  0  0  0  0  0  0  0  0
    0.1815   -8.9229    6.8021 H   0  0  0  0  0  0  0  0  0  0  0  0
    3.0548   -8.8821    3.7189 H   0  0  0  0  0  0  0  0  0  0  0  0
    1.0450   -9.8683    2.0996 H   0  0  0  0  0  0  0  0  0  0  0  0
   -1.4148   -9.7032    1.6990 H   0  0  0  0  0  0  0  0  0  0  0  0
   -2.8240   -8.1916    3.0876 H   0  0  0  0  0  0  0  0  0  0  0  0
   -1.7941   -6.7998    4.8864 H   0  0  0  0  0  0  0  0  0  0  0  0
    0.2194   -3.0150    7.5940 H   0  0  0  0  0  0  0  0  0  0  0  0
    1.9575   -3.0301    7.3177 H   0  0  0  0  0  0  0  0  0  0  0  0
   -0.2600   -2.5123    5.2789 H   0  0  0  0  0  0  0  0  0  0  0  0
    1.0625   -1.4497    5.7057 H   0  0  0  0  0  0  0  0  0  0  0  0
    1.4839   -2.5071    3.4930 H   0  0  0  0  0  0  0  0  0  0  0  0
    2.6747   -3.0369    4.6513 H   0  0  0  0  0  0  0  0  0  0  0  0
    1.9963   -5.0350    3.5179 H   0  0  0  0  0  0  0  0  0  0  0  0
    0.2933   -4.6225    3.5900 H   0  0  0  0  0  0  0  0  0  0  0  0
  1  2  3  0
  2  3  1  0
  3 17  1  0
  3  4  1  0
  3 22  1  1
  4  5  2  3
  4  6  1  0
  5 23  1  0
  6 15  1  0
  6  7  1  1
  6 16  1  0
  7  8  2  0
  7  9  1  0
  9 10  1  0
  9 24  1  0
 10 15  2  0
 10 11  1  0
 11 12  2  0
 11 25  1  0
 12 13  1  0
 12 26  1  0
 13 14  2  0
 13 27  1  0
 14 15  1  0
 14 28  1  0
 16 21  1  0
 16 17  2  0
 17 18  1  0
 18 19  1  0
 18 29  1  0
 18 30  1  0
 19 20  1  0
 19 31  1  0
 19 32  1  0
 20 21  1  0
 20 33  1  0
 20 34  1  0
 21 35  1  0
 21 36  1  0
M  END
>  <i_m_ct_stereo_status>  (286) 
1

>  <s_m_source_file>  (286) 
/var/tmp/pbs.5083856.sched01/tmpnwbd9u66/110rgxpwhmz.sdf

>  <i_m_source_file_index>  (286) 
4

>  <i_lp_mmshare_version>  (286) 
48012

>  <i_f3d_flags>  (286) 
0

>  <s_epik_input>  (286) 
W0NIMl0xW0NIMl1bQ0gyXVtDSDJdQyhbQ0BIXShDI04pL0MyPU5cW0hdKT1DMVtDQF0yM2M0YyhbTkhdQzM9TylbY0hdW2NIXVtjSF1bY0hdNA==

>  <s_epik_cmdline>  (286) 
J2VwaWtfcHl0aG9uJywgJy1waHQnLCAnMi4wJywgJy1waCcsICc3LjAnLCAnLXRuJywgJzgnLCAnLW1hJywgJzIwMCcsICctaW1hZScsICc8aW5maWxlLm1hZT4nLCAnLW9tYWUnLCAnPG91dGZpbGUubWFlPic=

>  <r_lp_tautomer_probability>  (286) 
1

>  <r_epik_Ionization_Penalty>  (286) 
0.000176042

>  <r_epik_Ionization_Penalty_Charging>  (286) 
0

>  <r_epik_Ionization_Penalty_Neutral>  (286) 
0.000176042

>  <r_epik_State_Penalty>  (286) 
-0

>  <r_epik_Charging_Adjusted_Penalty>  (286) 
0

>  <i_epik_Tot_Q>  (286) 
0

>  <i_epik_Tot_abs_Q>  (286) 
0

>  <s_epik_Chemistry_Notes>  (286) 
This compound has an imine and may undergo hydrolysis.

>  <s_lp_Force_Field>  (286) 
OPLS3e

>  <r_lp_Energy>  (286) 
32.1513

>  <b_lp_Chiralities_Consistent>  (286) 
1

>  <s_lp_Variant>  (286) 
79:0-2

>  <s_i_glide_gridfile>  (286) 
pfpi4k_grid

>  <i_i_glide_lignum>  (286) 
4

>  <i_i_glide_rotatable_bonds>  (286) 
1

>  <r_i_docking_score>  (286) 
-2.67606

>  <r_i_glide_ligand_efficiency>  (286) 
-0.127431

>  <r_i_glide_ligand_efficiency_sa>  (286) 
-0.351574

>  <r_i_glide_ligand_efficiency_ln>  (286) 
-0.66165

>  <r_i_glide_gscore>  (286) 
-2.67606

>  <r_i_glide_lipo>  (286) 
-0.140412

>  <r_i_glide_hbond>  (286) 
0

>  <r_i_glide_metal>  (286) 
-0

>  <r_i_glide_rewards>  (286) 
-1.51827

>  <r_i_glide_evdw>  (286) 
-17.9857

>  <r_i_glide_ecoul>  (286) 
-0.694257

>  <r_i_glide_erotb>  (286) 
0

>  <r_i_glide_esite>  (286) 
-0.0139536

>  <r_i_glide_emodel>  (286) 
-23.2575

>  <r_i_glide_energy>  (286) 
-18.68

>  <r_i_glide_einternal>  (286) 
-0.443736

>  <r_i_glide_intrahb_reward>  (286) 
-0

>  <i_i_glide_confnum>  (286) 
1

>  <i_i_glide_posenum>  (286) 
3

>  <r_i_glide_eff_state_penalty>  (286) 
0

>  <ligand_id>  (286) 
79

>  <original_smiles>  (286) 
N#CC1C(=N)C2(C(=O)Nc3ccccc32)C2=C1CCCC2

>  <smiles>  (286) 
[H]N=C1C([H])(C#N)C2=C(C13C(=O)N([H])c1c([H])c([H])c([H])c([H])c13)C([H])([H])C([H])([H])C([H])([H])C2([H])[H]

$$$$
80:0:0
     RDKit          3D

 21 22  0  0  1  0  0  0  0  0999 V2000
    3.8063  -12.2601    3.6776 C   0  0  0  0  0  0  0  0  0  0  0  0
    3.9000  -10.8860    3.3420 O   0  0  0  0  0  0  0  0  0  0  0  0
    2.7398  -10.2033    3.0387 C   0  0  0  0  0  0  0  0  0  0  0  0
    1.4463  -10.6570    3.4097 C   0  0  0  0  0  0  0  0  0  0  0  0
    0.2998   -9.8782    3.1350 C   0  0  0  0  0  0  0  0  0  0  0  0
    0.4043   -8.6267    2.4830 C   0  0  0  0  0  0  0  0  0  0  0  0
   -0.6112   -7.7300    2.1263 N   0  0  0  0  0  0  0  0  0  0  0  0
   -0.1831   -6.6713    1.4958 N   0  0  0  0  0  0  0  0  0  0  0  0
    1.4833   -6.6655    1.3073 S   0  0  0  0  0  0  0  0  0  0  0  0
    1.7015   -8.2033    2.1018 C   0  0  0  0  0  0  0  0  0  0  0  0
    2.8528   -8.9673    2.3601 C   0  0  0  0  0  0  0  0  0  0  0  0
    4.0659   -8.4716    1.9580 O   0  0  0  0  0  0  0  0  0  0  0  0
    4.7319   -9.2475    0.9690 C   0  0  0  0  0  0  0  0  0  0  0  0
    4.8123  -12.6558    3.8172 H   0  0  0  0  0  0  0  0  0  0  0  0
    3.3432  -12.8268    2.8701 H   0  0  0  0  0  0  0  0  0  0  0  0
    3.2608  -12.4126    4.6087 H   0  0  0  0  0  0  0  0  0  0  0  0
    1.3090  -11.5932    3.9290 H   0  0  0  0  0  0  0  0  0  0  0  0
   -0.6673  -10.2435    3.4410 H   0  0  0  0  0  0  0  0  0  0  0  0
    5.6701   -8.7654    0.6942 H   0  0  0  0  0  0  0  0  0  0  0  0
    4.1110   -9.3271    0.0795 H   0  0  0  0  0  0  0  0  0  0  0  0
    4.9842  -10.2523    1.3003 H   0  0  0  0  0  0  0  0  0  0  0  0
  1  2  1  0
  1 14  1  0
  1 15  1  0
  1 16  1  0
  2  3  1  0
  3 11  2  0
  3  4  1  0
  4  5  2  0
  4 17  1  0
  5  6  1  0
  5 18  1  0
  6 10  2  0
  6  7  1  0
  7  8  2  0
  8  9  1  0
  9 10  1  0
 10 11  1  0
 11 12  1  0
 12 13  1  0
 13 19  1  0
 13 20  1  0
 13 21  1  0
M  END
>  <i_m_ct_stereo_status>  (287) 
1

>  <s_m_source_file>  (287) 
/var/tmp/pbs.5083856.sched01/tmpnwbd9u66/110rgxpwhmz.sdf

>  <i_m_source_file_index>  (287) 
5

>  <i_lp_mmshare_version>  (287) 
48012

>  <i_f3d_flags>  (287) 
0

>  <s_epik_input>  (287) 
W0NIM11PYyhbY0hdW2NIXTEpYyhPW0NIM10pYyhjMTIpc25uMg==

>  <s_epik_cmdline>  (287) 
J2VwaWtfcHl0aG9uJywgJy1waHQnLCAnMi4wJywgJy1waCcsICc3LjAnLCAnLXRuJywgJzgnLCAnLW1hJywgJzIwMCcsICctaW1hZScsICc8aW5maWxlLm1hZT4nLCAnLW9tYWUnLCAnPG91dGZpbGUubWFlPic=

>  <r_lp_tautomer_probability>  (287) 
1

>  <r_epik_Ionization_Penalty>  (287) 
2.43863e-09

>  <r_epik_Ionization_Penalty_Charging>  (287) 
0

>  <r_epik_Ionization_Penalty_Neutral>  (287) 
2.43863e-09

>  <r_epik_State_Penalty>  (287) 
-0

>  <r_epik_Charging_Adjusted_Penalty>  (287) 
0

>  <i_epik_Tot_Q>  (287) 
0

>  <i_epik_Tot_abs_Q>  (287) 
0

>  <s_lp_Force_Field>  (287) 
OPLS3e

>  <r_lp_Energy>  (287) 
23.7322

>  <b_lp_Chiralities_Consistent>  (287) 
1

>  <s_lp_Variant>  (287) 
80:0-1

>  <s_i_glide_gridfile>  (287) 
pfpi4k_grid

>  <i_i_glide_lignum>  (287) 
5

>  <i_i_glide_rotatable_bonds>  (287) 
2

>  <r_i_docking_score>  (287) 
-3.74146

>  <r_i_glide_ligand_efficiency>  (287) 
-0.287804

>  <r_i_glide_ligand_efficiency_sa>  (287) 
-0.676725

>  <r_i_glide_ligand_efficiency_ln>  (287) 
-1.04951

>  <r_i_glide_gscore>  (287) 
-3.74146

>  <r_i_glide_lipo>  (287) 
-0.138784

>  <r_i_glide_hbond>  (287) 
0

>  <r_i_glide_metal>  (287) 
-0

>  <r_i_glide_rewards>  (287) 
-2.07118

>  <r_i_glide_evdw>  (287) 
-19.9589

>  <r_i_glide_ecoul>  (287) 
-2.37405

>  <r_i_glide_erotb>  (287) 
0

>  <r_i_glide_esite>  (287) 
-0.177446

>  <r_i_glide_emodel>  (287) 
-27.8677

>  <r_i_glide_energy>  (287) 
-22.3329

>  <r_i_glide_einternal>  (287) 
0.51928

>  <r_i_glide_intrahb_reward>  (287) 
-0

>  <i_i_glide_confnum>  (287) 
1

>  <i_i_glide_posenum>  (287) 
36

>  <r_i_glide_eff_state_penalty>  (287) 
0

>  <ligand_id>  (287) 
80

>  <original_smiles>  (287) 
COc1ccc2nnsc2c1OC

>  <smiles>  (287) 
[H]c1c(OC([H])([H])[H])c(OC([H])([H])[H])c2snnc2c1[H]

$$$$
80:0:1
     RDKit          3D

 21 22  0  0  1  0  0  0  0  0999 V2000
   -0.1065   -7.2574    0.9969 C   0  0  0  0  0  0  0  0  0  0  0  0
   -0.0701   -6.4493    2.1616 O   0  0  0  0  0  0  0  0  0  0  0  0
    0.0932   -7.0668    3.3857 C   0  0  0  0  0  0  0  0  0  0  0  0
    0.1086   -8.4759    3.5632 C   0  0  0  0  0  0  0  0  0  0  0  0
    0.2387   -9.0453    4.8489 C   0  0  0  0  0  0  0  0  0  0  0  0
    0.3580   -8.2342    6.0009 C   0  0  0  0  0  0  0  0  0  0  0  0
    0.4866   -8.6200    7.3392 N   0  0  0  0  0  0  0  0  0  0  0  0
    0.5760   -7.6203    8.1724 N   0  0  0  0  0  0  0  0  0  0  0  0
    0.5088   -6.1322    7.3939 S   0  0  0  0  0  0  0  0  0  0  0  0
    0.3443   -6.8307    5.8046 C   0  0  0  0  0  0  0  0  0  0  0  0
    0.2300   -6.2443    4.5322 C   0  0  0  0  0  0  0  0  0  0  0  0
    0.2280   -4.8776    4.4499 O   0  0  0  0  0  0  0  0  0  0  0  0
    1.3523   -4.3212    3.7788 C   0  0  0  0  0  0  0  0  0  0  0  0
   -0.1875   -6.6081    0.1254 H   0  0  0  0  0  0  0  0  0  0  0  0
   -0.9778   -7.9110    1.0086 H   0  0  0  0  0  0  0  0  0  0  0  0
    0.8026   -7.8504    0.8877 H   0  0  0  0  0  0  0  0  0  0  0  0
    0.0087   -9.1504    2.7244 H   0  0  0  0  0  0  0  0  0  0  0  0
    0.2335  -10.1195    4.9604 H   0  0  0  0  0  0  0  0  0  0  0  0
    1.2633   -3.2349    3.7465 H   0  0  0  0  0  0  0  0  0  0  0  0
    1.4528   -4.6638    2.7506 H   0  0  0  0  0  0  0  0  0  0  0  0
    2.2702   -4.5715    4.3109 H   0  0  0  0  0  0  0  0  0  0  0  0
  1  2  1  0
  1 14  1  0
  1 15  1  0
  1 16  1  0
  2  3  1  0
  3 11  2  0
  3  4  1  0
  4  5  2  0
  4 17  1  0
  5  6  1  0
  5 18  1  0
  6 10  2  0
  6  7  1  0
  7  8  2  0
  8  9  1  0
  9 10  1  0
 10 11  1  0
 11 12  1  0
 12 13  1  0
 13 19  1  0
 13 20  1  0
 13 21  1  0
M  END
>  <i_m_ct_stereo_status>  (288) 
1

>  <s_m_source_file>  (288) 
/var/tmp/pbs.5083856.sched01/tmpnwbd9u66/110rgxpwhmz.sdf

>  <i_m_source_file_index>  (288) 
5

>  <i_lp_mmshare_version>  (288) 
48012

>  <i_f3d_flags>  (288) 
0

>  <s_epik_input>  (288) 
W0NIM11PYyhbY0hdW2NIXTEpYyhPW0NIM10pYyhjMTIpc25uMg==

>  <s_epik_cmdline>  (288) 
J2VwaWtfcHl0aG9uJywgJy1waHQnLCAnMi4wJywgJy1waCcsICc3LjAnLCAnLXRuJywgJzgnLCAnLW1hJywgJzIwMCcsICctaW1hZScsICc8aW5maWxlLm1hZT4nLCAnLW9tYWUnLCAnPG91dGZpbGUubWFlPic=

>  <r_lp_tautomer_probability>  (288) 
1

>  <r_epik_Ionization_Penalty>  (288) 
2.43863e-09

>  <r_epik_Ionization_Penalty_Charging>  (288) 
0

>  <r_epik_Ionization_Penalty_Neutral>  (288) 
2.43863e-09

>  <r_epik_State_Penalty>  (288) 
-0

>  <r_epik_Charging_Adjusted_Penalty>  (288) 
0

>  <i_epik_Tot_Q>  (288) 
0

>  <i_epik_Tot_abs_Q>  (288) 
0

>  <s_lp_Force_Field>  (288) 
OPLS3e

>  <r_lp_Energy>  (288) 
23.7322

>  <b_lp_Chiralities_Consistent>  (288) 
1

>  <s_lp_Variant>  (288) 
80:0-1

>  <s_i_glide_gridfile>  (288) 
pfpi4k_grid

>  <i_i_glide_lignum>  (288) 
5

>  <i_i_glide_rotatable_bonds>  (288) 
2

>  <r_i_docking_score>  (288) 
-3.42809

>  <r_i_glide_ligand_efficiency>  (288) 
-0.263699

>  <r_i_glide_ligand_efficiency_sa>  (288) 
-0.620046

>  <r_i_glide_ligand_efficiency_ln>  (288) 
-0.96161

>  <r_i_glide_gscore>  (288) 
-3.42809

>  <r_i_glide_lipo>  (288) 
0

>  <r_i_glide_hbond>  (288) 
-0.203113

>  <r_i_glide_metal>  (288) 
-0

>  <r_i_glide_rewards>  (288) 
-2.07118

>  <r_i_glide_evdw>  (288) 
-14.5148

>  <r_i_glide_ecoul>  (288) 
-2.37019

>  <r_i_glide_erotb>  (288) 
0

>  <r_i_glide_esite>  (288) 
-0.0725329

>  <r_i_glide_emodel>  (288) 
-22.2594

>  <r_i_glide_energy>  (288) 
-16.885

>  <r_i_glide_einternal>  (288) 
0.0190753

>  <r_i_glide_intrahb_reward>  (288) 
-0

>  <i_i_glide_confnum>  (288) 
1

>  <i_i_glide_posenum>  (288) 
28

>  <r_i_glide_eff_state_penalty>  (288) 
0

>  <ligand_id>  (288) 
80

>  <original_smiles>  (288) 
COc1ccc2nnsc2c1OC

>  <smiles>  (288) 
[H]c1c(OC([H])([H])[H])c(OC([H])([H])[H])c2snnc2c1[H]

$$$$
80:0:2
     RDKit          3D

 21 22  0  0  1  0  0  0  0  0999 V2000
   -1.0665   -9.8547    2.6461 C   0  0  0  0  0  0  0  0  0  0  0  0
   -0.5643   -8.5568    2.3946 O   0  0  0  0  0  0  0  0  0  0  0  0
   -0.0955   -7.8180    3.4569 C   0  0  0  0  0  0  0  0  0  0  0  0
   -0.1905   -8.2267    4.8116 C   0  0  0  0  0  0  0  0  0  0  0  0
    0.2565   -7.3850    5.8518 C   0  0  0  0  0  0  0  0  0  0  0  0
    0.8093   -6.1121    5.5821 C   0  0  0  0  0  0  0  0  0  0  0  0
    1.2857   -5.1552    6.4837 N   0  0  0  0  0  0  0  0  0  0  0  0
    1.7442   -4.0742    5.9122 N   0  0  0  0  0  0  0  0  0  0  0  0
    1.6204   -4.1342    4.2375 S   0  0  0  0  0  0  0  0  0  0  0  0
    0.9084   -5.7278    4.2204 C   0  0  0  0  0  0  0  0  0  0  0  0
    0.4886   -6.5606    3.1697 C   0  0  0  0  0  0  0  0  0  0  0  0
    0.6083   -6.1077    1.8828 O   0  0  0  0  0  0  0  0  0  0  0  0
    1.5149   -6.8396    1.0712 C   0  0  0  0  0  0  0  0  0  0  0  0
   -1.3256  -10.3200    1.6957 H   0  0  0  0  0  0  0  0  0  0  0  0
   -1.9723   -9.7981    3.2476 H   0  0  0  0  0  0  0  0  0  0  0  0
   -0.3306  -10.4924    3.1429 H   0  0  0  0  0  0  0  0  0  0  0  0
   -0.6176   -9.1834    5.0807 H   0  0  0  0  0  0  0  0  0  0  0  0
    0.1702   -7.7142    6.8761 H   0  0  0  0  0  0  0  0  0  0  0  0
    1.5510   -6.3895    0.0792 H   0  0  0  0  0  0  0  0  0  0  0  0
    1.2330   -7.8829    0.9417 H   0  0  0  0  0  0  0  0  0  0  0  0
    2.5184   -6.8058    1.4945 H   0  0  0  0  0  0  0  0  0  0  0  0
  1  2  1  0
  1 14  1  0
  1 15  1  0
  1 16  1  0
  2  3  1  0
  3 11  2  0
  3  4  1  0
  4  5  2  0
  4 17  1  0
  5  6  1  0
  5 18  1  0
  6 10  2  0
  6  7  1  0
  7  8  2  0
  8  9  1  0
  9 10  1  0
 10 11  1  0
 11 12  1  0
 12 13  1  0
 13 19  1  0
 13 20  1  0
 13 21  1  0
M  END
>  <i_m_ct_stereo_status>  (289) 
1

>  <s_m_source_file>  (289) 
/var/tmp/pbs.5083856.sched01/tmpnwbd9u66/110rgxpwhmz.sdf

>  <i_m_source_file_index>  (289) 
5

>  <i_lp_mmshare_version>  (289) 
48012

>  <i_f3d_flags>  (289) 
0

>  <s_epik_input>  (289) 
W0NIM11PYyhbY0hdW2NIXTEpYyhPW0NIM10pYyhjMTIpc25uMg==

>  <s_epik_cmdline>  (289) 
J2VwaWtfcHl0aG9uJywgJy1waHQnLCAnMi4wJywgJy1waCcsICc3LjAnLCAnLXRuJywgJzgnLCAnLW1hJywgJzIwMCcsICctaW1hZScsICc8aW5maWxlLm1hZT4nLCAnLW9tYWUnLCAnPG91dGZpbGUubWFlPic=

>  <r_lp_tautomer_probability>  (289) 
1

>  <r_epik_Ionization_Penalty>  (289) 
2.43863e-09

>  <r_epik_Ionization_Penalty_Charging>  (289) 
0

>  <r_epik_Ionization_Penalty_Neutral>  (289) 
2.43863e-09

>  <r_epik_State_Penalty>  (289) 
-0

>  <r_epik_Charging_Adjusted_Penalty>  (289) 
0

>  <i_epik_Tot_Q>  (289) 
0

>  <i_epik_Tot_abs_Q>  (289) 
0

>  <s_lp_Force_Field>  (289) 
OPLS3e

>  <r_lp_Energy>  (289) 
23.7322

>  <b_lp_Chiralities_Consistent>  (289) 
1

>  <s_lp_Variant>  (289) 
80:0-1

>  <s_i_glide_gridfile>  (289) 
pfpi4k_grid

>  <i_i_glide_lignum>  (289) 
5

>  <i_i_glide_rotatable_bonds>  (289) 
2

>  <r_i_docking_score>  (289) 
-3.28883

>  <r_i_glide_ligand_efficiency>  (289) 
-0.252987

>  <r_i_glide_ligand_efficiency_sa>  (289) 
-0.594858

>  <r_i_glide_ligand_efficiency_ln>  (289) 
-0.922547

>  <r_i_glide_gscore>  (289) 
-3.28883

>  <r_i_glide_lipo>  (289) 
-0.027675

>  <r_i_glide_hbond>  (289) 
-0.17118

>  <r_i_glide_metal>  (289) 
-0

>  <r_i_glide_rewards>  (289) 
-2.07118

>  <r_i_glide_evdw>  (289) 
-13.7181

>  <r_i_glide_ecoul>  (289) 
-2.2193

>  <r_i_glide_erotb>  (289) 
0

>  <r_i_glide_esite>  (289) 
0

>  <r_i_glide_emodel>  (289) 
-21.0699

>  <r_i_glide_energy>  (289) 
-15.9374

>  <r_i_glide_einternal>  (289) 
0.0217528

>  <r_i_glide_intrahb_reward>  (289) 
-0

>  <i_i_glide_confnum>  (289) 
2

>  <i_i_glide_posenum>  (289) 
16

>  <r_i_glide_eff_state_penalty>  (289) 
0

>  <ligand_id>  (289) 
80

>  <original_smiles>  (289) 
COc1ccc2nnsc2c1OC

>  <smiles>  (289) 
[H]c1c(OC([H])([H])[H])c(OC([H])([H])[H])c2snnc2c1[H]

$$$$
81:0:0
     RDKit          3D

 51 54  0  0  1  0  0  0  0  0999 V2000
    2.5671   -2.7413    3.7232 C   0  0  0  0  0  0  0  0  0  0  0  0
    2.2686   -3.3717    4.8787 C   0  0  0  0  0  0  0  0  0  0  0  0
    1.4882   -4.6986    5.0449 C   0  0  2  0  0  0  0  0  0  0  0  0
    1.5355   -5.4571    3.6831 C   0  0  0  0  0  0  0  0  0  0  0  0
    1.2187   -6.9704    3.6242 C   0  0  2  0  0  0  0  0  0  0  0  0
    0.0100   -7.3318    2.7420 C   0  0  1  0  0  0  0  0  0  0  0  0
    0.2940   -7.2641    1.2330 C   0  0  0  0  0  0  0  0  0  0  0  0
   -0.3768   -8.7265    3.2246 C   0  0  0  0  0  0  0  0  0  0  0  0
   -0.0753   -8.7356    4.7292 C   0  0  0  0  0  0  0  0  0  0  0  0
    1.0306   -7.6827    4.9736 C   0  0  2  0  0  0  0  0  0  0  0  0
    0.7776   -6.7101    6.1647 C   0  0  2  0  0  0  0  0  0  0  0  0
    0.6041   -7.5452    7.4606 C   0  0  0  0  0  0  0  0  0  0  0  0
   -0.1703   -7.2105    8.3761 O   0  0  0  0  0  0  0  0  0  0  0  0
   -0.4908   -5.8364    5.8633 C   0  0  0  0  0  0  0  0  0  0  0  0
    0.0910   -4.4322    5.6555 C   0  0  1  0  0  0  0  0  0  0  0  0
    0.4701   -3.9663    7.0494 C   0  0  0  0  0  0  0  0  0  0  0  0
    1.5560   -4.6535    7.4473 C   0  0  0  0  0  0  0  0  0  0  0  0
    2.3408   -4.4789    8.7652 C   0  0  0  0  0  0  0  0  0  0  0  0
    2.3502   -5.7368    9.6662 C   0  0  0  0  0  0  0  0  0  0  0  0
    1.8286   -3.3002    9.6012 C   0  0  0  0  0  0  0  0  0  0  0  0
    1.9109   -5.5881    6.2712 C   0  0  2  0  0  0  0  0  0  0  0  0
    3.3855   -6.1026    6.1952 C   0  0  0  0  0  0  0  0  0  0  0  0
    4.1590   -5.5800    5.3778 O   0  0  0  0  0  0  0  0  0  0  0  0
    3.6884   -7.0380    6.9741 O   0  0  0  0  0  0  0  0  0  0  0  0
    2.2508   -3.1121    2.7603 H   0  0  0  0  0  0  0  0  0  0  0  0
    3.1366   -1.8243    3.7342 H   0  0  0  0  0  0  0  0  0  0  0  0
    2.6306   -2.9180    5.7887 H   0  0  0  0  0  0  0  0  0  0  0  0
    0.9381   -4.9355    2.9367 H   0  0  0  0  0  0  0  0  0  0  0  0
    2.5687   -5.4040    3.3066 H   0  0  0  0  0  0  0  0  0  0  0  0
    2.0792   -7.4547    3.1630 H   0  0  0  0  0  0  0  0  0  0  0  0
   -0.8214   -6.6552    2.9572 H   0  0  0  0  0  0  0  0  0  0  0  0
    1.1082   -7.9316    0.9480 H   0  0  0  0  0  0  0  0  0  0  0  0
    0.5777   -6.2587    0.9184 H   0  0  0  0  0  0  0  0  0  0  0  0
   -0.5822   -7.5549    0.6568 H   0  0  0  0  0  0  0  0  0  0  0  0
   -1.4213   -8.9609    3.0176 H   0  0  0  0  0  0  0  0  0  0  0  0
    0.2366   -9.4796    2.7268 H   0  0  0  0  0  0  0  0  0  0  0  0
   -0.9871   -8.5025    5.2793 H   0  0  0  0  0  0  0  0  0  0  0  0
    0.2414   -9.7279    5.0590 H   0  0  0  0  0  0  0  0  0  0  0  0
    1.9558   -8.2238    5.1796 H   0  0  0  0  0  0  0  0  0  0  0  0
    1.1735   -8.4765    7.5124 H   0  0  0  0  0  0  0  0  0  0  0  0
   -1.0488   -6.1764    5.0034 H   0  0  0  0  0  0  0  0  0  0  0  0
   -1.2213   -5.8008    6.6735 H   0  0  0  0  0  0  0  0  0  0  0  0
   -0.5406   -3.7307    5.1096 H   0  0  0  0  0  0  0  0  0  0  0  0
   -0.0780   -3.2062    7.5956 H   0  0  0  0  0  0  0  0  0  0  0  0
    3.3573   -4.2441    8.4656 H   0  0  0  0  0  0  0  0  0  0  0  0
    2.7109   -6.6317    9.1463 H   0  0  0  0  0  0  0  0  0  0  0  0
    1.3410   -5.9395   10.0568 H   0  0  0  0  0  0  0  0  0  0  0  0
    3.0126   -5.5800   10.5317 H   0  0  0  0  0  0  0  0  0  0  0  0
    1.9292   -2.3433    9.0836 H   0  0  0  0  0  0  0  0  0  0  0  0
    2.3866   -3.2220   10.5359 H   0  0  0  0  0  0  0  0  0  0  0  0
    0.7778   -3.4277    9.8775 H   0  0  0  0  0  0  0  0  0  0  0  0
  1  2  2  0
  1 25  1  0
  1 26  1  0
  3  2  1  6
  2 27  1  0
  3 15  1  0
  3 21  1  0
  3  4  1  0
  4  5  1  0
  4 28  1  0
  4 29  1  0
  5 10  1  0
  5  6  1  0
  5 30  1  6
  6  7  1  0
  6  8  1  0
  6 31  1  6
  7 32  1  0
  7 33  1  0
  7 34  1  0
  8  9  1  0
  8 35  1  0
  8 36  1  0
  9 10  1  0
  9 37  1  0
  9 38  1  0
 10 11  1  0
 10 39  1  1
 11 21  1  0
 11 12  1  1
 11 14  1  0
 12 13  2  0
 12 40  1  0
 14 15  1  0
 14 41  1  0
 14 42  1  0
 15 16  1  0
 15 43  1  6
 16 17  2  0
 16 44  1  0
 17 18  1  0
 17 21  1  0
 18 19  1  0
 18 20  1  0
 18 45  1  0
 19 46  1  0
 19 47  1  0
 19 48  1  0
 20 49  1  0
 20 50  1  0
 20 51  1  0
 21 22  1  6
 22 23  2  0
 22 24  1  0
M  CHG  1  24  -1
M  END
>  <i_m_ct_stereo_status>  (290) 
1

>  <s_m_source_file>  (290) 
/var/tmp/pbs.5083856.sched01/tmpktt3_xv9/115zij5tp5b.sdf

>  <i_m_source_file_index>  (290) 
1

>  <i_lp_mmshare_version>  (290) 
48012

>  <i_f3d_flags>  (290) 
0

>  <s_epik_input>  (290) 
W0NIMl09W0NIXVtDQEBdMTJbQ0BIXTNbQ0gyXVtDQF0oW0NIXT1PKShbQ0BdMihDKD1PKVtPSF0pQyg9W0NIXTMpW0NIXShbQ0gzXSlbQ0gzXSlbQ0BASF00W0NASF0oW0NIMl0xKVtDQEBIXShbQ0gzXSlbQ0gyXVtDSDJdNA==

>  <s_epik_cmdline>  (290) 
J2VwaWtfcHl0aG9uJywgJy1waHQnLCAnMi4wJywgJy1waCcsICc3LjAnLCAnLXRuJywgJzgnLCAnLW1hJywgJzIwMCcsICctaW1hZScsICc8aW5maWxlLm1hZT4nLCAnLW9tYWUnLCAnPG91dGZpbGUubWFlPic=

>  <r_epik_Ionization_Penalty>  (290) 
0.00204848

>  <r_epik_Ionization_Penalty_Charging>  (290) 
0.00204848

>  <r_epik_Ionization_Penalty_Neutral>  (290) 
0

>  <r_epik_State_Penalty>  (290) 
0.00140158

>  <r_epik_Charging_Adjusted_Penalty>  (290) 
0.00345007

>  <i_epik_Tot_Q>  (290) 
-1

>  <i_epik_Tot_abs_Q>  (290) 
1

>  <s_lp_Force_Field>  (290) 
OPLS3e

>  <r_lp_Energy>  (290) 
51.7621

>  <b_lp_Chiralities_Consistent>  (290) 
1

>  <s_lp_Variant>  (290) 
81:0-1

>  <s_i_glide_gridfile>  (290) 
pfpi4k_grid

>  <i_i_glide_lignum>  (290) 
1

>  <i_i_glide_rotatable_bonds>  (290) 
4

>  <r_i_docking_score>  (290) 
-1.95092

>  <r_i_glide_ligand_efficiency>  (290) 
-0.0812883

>  <r_i_glide_ligand_efficiency_sa>  (290) 
-0.234476

>  <r_i_glide_ligand_efficiency_ln>  (290) 
-0.466944

>  <r_i_glide_gscore>  (290) 
-1.95092

>  <r_i_glide_lipo>  (290) 
-0.000580491

>  <r_i_glide_hbond>  (290) 
-0.164409

>  <r_i_glide_metal>  (290) 
-0

>  <r_i_glide_rewards>  (290) 
-1.17656

>  <r_i_glide_evdw>  (290) 
-13.2995

>  <r_i_glide_ecoul>  (290) 
-0.678941

>  <r_i_glide_erotb>  (290) 
0.175051

>  <r_i_glide_esite>  (290) 
-0.0175983

>  <r_i_glide_emodel>  (290) 
-14.0801

>  <r_i_glide_energy>  (290) 
-13.9785

>  <r_i_glide_einternal>  (290) 
2.24231

>  <r_i_glide_intrahb_reward>  (290) 
-0

>  <i_i_glide_confnum>  (290) 
1

>  <i_i_glide_posenum>  (290) 
38

>  <r_i_glide_eff_state_penalty>  (290) 
0

>  <ligand_id>  (290) 
81

>  <original_smiles>  (290) 
C=CC12CC3C(C)CCC3C3(C=O)CC1C=C(C(C)C)C23C(=O)O

>  <smiles>  (290) 
[H]C(=O)C12C([H])([H])C3([H])C([H])=C(C([H])(C([H])([H])[H])C([H])([H])[H])C1(C(=O)[O-])C3(C([H])=C([H])[H])C([H])([H])C1([H])C([H])(C([H])([H])[H])C([H])([H])C([H])([H])C12[H]

$$$$
82:0:0
     RDKit          3D

 38 40  0  0  1  0  0  0  0  0999 V2000
    0.8935  -10.1827    3.0319 C   0  0  0  0  0  0  0  0  0  0  0  0
    0.7017   -8.7786    2.9649 O   0  0  0  0  0  0  0  0  0  0  0  0
    1.5729   -8.1517    2.0346 C   0  0  0  0  0  0  0  0  0  0  0  0
    1.2881   -6.6397    2.0133 C   0  0  0  0  0  0  0  0  0  0  0  0
    0.1175   -6.2560    2.0840 O   0  0  0  0  0  0  0  0  0  0  0  0
    2.3228   -5.7615    2.0046 N   0  0  0  0  0  0  0  0  0  0  0  0
    3.6736   -6.0854    1.5172 C   0  0  0  0  0  0  0  0  0  0  0  0
    4.1371   -5.0575    0.4732 C   0  0  0  0  0  0  0  0  0  0  0  0
    4.0268   -3.6079    0.9843 C   0  0  0  0  0  0  0  0  0  0  0  0
    4.3539   -2.6653   -0.0804 N   0  0  0  0  0  0  0  0  0  0  0  0
    5.3982   -1.7992    0.0568 N   0  0  0  0  0  0  0  0  0  0  0  0
    5.4812   -1.0769   -1.0189 N   0  0  0  0  0  0  0  0  0  0  0  0
    4.4760   -1.4731   -1.8860 C   0  0  0  0  0  0  0  0  0  0  0  0
    4.0988   -1.0331   -3.1767 C   0  0  0  0  0  0  0  0  0  0  0  0
    3.0156   -1.6360   -3.8468 C   0  0  0  0  0  0  0  0  0  0  0  0
    2.2752   -2.6662   -3.2365 C   0  0  0  0  0  0  0  0  0  0  0  0
    2.6290   -3.1003   -1.9519 C   0  0  0  0  0  0  0  0  0  0  0  0
    3.7245   -2.5085   -1.2972 C   0  0  0  0  0  0  0  0  0  0  0  0
    2.6160   -3.3332    1.5367 C   0  0  0  0  0  0  0  0  0  0  0  0
    2.1919   -4.4021    2.5568 C   0  0  0  0  0  0  0  0  0  0  0  0
    0.2190  -10.6133    3.7721 H   0  0  0  0  0  0  0  0  0  0  0  0
    1.9159  -10.4428    3.3164 H   0  0  0  0  0  0  0  0  0  0  0  0
    0.6714  -10.6493    2.0732 H   0  0  0  0  0  0  0  0  0  0  0  0
    2.5982   -8.3692    2.3428 H   0  0  0  0  0  0  0  0  0  0  0  0
    1.4238   -8.5515    1.0319 H   0  0  0  0  0  0  0  0  0  0  0  0
    4.3629   -6.1261    2.3593 H   0  0  0  0  0  0  0  0  0  0  0  0
    3.7186   -7.0473    1.0080 H   0  0  0  0  0  0  0  0  0  0  0  0
    5.1611   -5.2733    0.1634 H   0  0  0  0  0  0  0  0  0  0  0  0
    3.5220   -5.1921   -0.4157 H   0  0  0  0  0  0  0  0  0  0  0  0
    4.7512   -3.4729    1.7923 H   0  0  0  0  0  0  0  0  0  0  0  0
    4.6144   -0.2198   -3.6586 H   0  0  0  0  0  0  0  0  0  0  0  0
    2.7255   -1.2649   -4.8139 H   0  0  0  0  0  0  0  0  0  0  0  0
    1.4236   -3.1009   -3.7435 H   0  0  0  0  0  0  0  0  0  0  0  0
    2.0574   -3.8798   -1.4845 H   0  0  0  0  0  0  0  0  0  0  0  0
    2.5786   -2.3396    1.9880 H   0  0  0  0  0  0  0  0  0  0  0  0
    1.8928   -3.3177    0.7231 H   0  0  0  0  0  0  0  0  0  0  0  0
    1.1763   -4.1748    2.8859 H   0  0  0  0  0  0  0  0  0  0  0  0
    2.8124   -4.3251    3.4500 H   0  0  0  0  0  0  0  0  0  0  0  0
  1  2  1  0
  1 21  1  0
  1 22  1  0
  1 23  1  0
  2  3  1  0
  3  4  1  0
  3 24  1  0
  3 25  1  0
  4  5  2  0
  4  6  1  0
  6 20  1  0
  6  7  1  0
  7  8  1  0
  7 26  1  0
  7 27  1  0
  8  9  1  0
  8 28  1  0
  8 29  1  0
  9 10  1  0
  9 19  1  0
  9 30  1  0
 10 18  1  0
 10 11  1  0
 11 12  2  0
 12 13  1  0
 13 18  2  0
 13 14  1  0
 14 15  2  0
 14 31  1  0
 15 16  1  0
 15 32  1  0
 16 17  2  0
 16 33  1  0
 17 18  1  0
 17 34  1  0
 19 20  1  0
 19 35  1  0
 19 36  1  0
 20 37  1  0
 20 38  1  0
M  END
>  <i_m_ct_stereo_status>  (291) 
1

>  <s_m_source_file>  (291) 
/var/tmp/pbs.5083856.sched01/tmpktt3_xv9/115zij5tp5b.sdf

>  <i_m_source_file_index>  (291) 
2

>  <i_lp_mmshare_version>  (291) 
48012

>  <i_f3d_flags>  (291) 
0

>  <s_epik_input>  (291) 
W0NIM11PW0NIMl1DKD1PKU4xW0NIMl1bQ0gyXVtDSF0oW0NIMl1bQ0gyXTEpbihubjIpYyhjMjMpW2NIXVtjSF1bY0hdW2NIXTM=

>  <s_epik_cmdline>  (291) 
J2VwaWtfcHl0aG9uJywgJy1waHQnLCAnMi4wJywgJy1waCcsICc3LjAnLCAnLXRuJywgJzgnLCAnLW1hJywgJzIwMCcsICctaW1hZScsICc8aW5maWxlLm1hZT4nLCAnLW9tYWUnLCAnPG91dGZpbGUubWFlPic=

>  <r_lp_tautomer_probability>  (291) 
1

>  <r_epik_Ionization_Penalty>  (291) 
1.9704e-05

>  <r_epik_Ionization_Penalty_Charging>  (291) 
0

>  <r_epik_Ionization_Penalty_Neutral>  (291) 
1.9704e-05

>  <r_epik_State_Penalty>  (291) 
-0

>  <r_epik_Charging_Adjusted_Penalty>  (291) 
0

>  <i_epik_Tot_Q>  (291) 
0

>  <i_epik_Tot_abs_Q>  (291) 
0

>  <s_lp_Force_Field>  (291) 
OPLS3e

>  <r_lp_Energy>  (291) 
10.8248

>  <b_lp_Chiralities_Consistent>  (291) 
1

>  <s_lp_Variant>  (291) 
82:0-1

>  <s_i_glide_gridfile>  (291) 
pfpi4k_grid

>  <i_i_glide_lignum>  (291) 
2

>  <i_i_glide_rotatable_bonds>  (291) 
4

>  <r_i_docking_score>  (291) 
-3.81095

>  <r_i_glide_ligand_efficiency>  (291) 
-0.190547

>  <r_i_glide_ligand_efficiency_sa>  (291) 
-0.517225

>  <r_i_glide_ligand_efficiency_ln>  (291) 
-0.953755

>  <r_i_glide_gscore>  (291) 
-3.81095

>  <r_i_glide_lipo>  (291) 
-0.630326

>  <r_i_glide_hbond>  (291) 
-0.248345

>  <r_i_glide_metal>  (291) 
-0

>  <r_i_glide_rewards>  (291) 
-1.53874

>  <r_i_glide_evdw>  (291) 
-24.9825

>  <r_i_glide_ecoul>  (291) 
-4.90547

>  <r_i_glide_erotb>  (291) 
0.7158

>  <r_i_glide_esite>  (291) 
-0.124392

>  <r_i_glide_emodel>  (291) 
-36.0939

>  <r_i_glide_energy>  (291) 
-29.888

>  <r_i_glide_einternal>  (291) 
2.64017

>  <r_i_glide_intrahb_reward>  (291) 
-0

>  <i_i_glide_confnum>  (291) 
5

>  <i_i_glide_posenum>  (291) 
7

>  <r_i_glide_eff_state_penalty>  (291) 
0

>  <ligand_id>  (291) 
82

>  <original_smiles>  (291) 
COCC(=O)N1CCC(n2nnc3ccccc32)CC1

>  <smiles>  (291) 
[H]c1c([H])c([H])c2c(nnn2C2([H])C([H])([H])C([H])([H])N(C(=O)C([H])([H])OC([H])([H])[H])C([H])([H])C2([H])[H])c1[H]

$$$$
82:0:1
     RDKit          3D

 38 40  0  0  1  0  0  0  0  0999 V2000
    0.2663   -8.9063    3.9634 C   0  0  0  0  0  0  0  0  0  0  0  0
    0.2543   -8.9139    2.5404 O   0  0  0  0  0  0  0  0  0  0  0  0
    1.3553   -8.2184    1.9488 C   0  0  0  0  0  0  0  0  0  0  0  0
    1.1697   -6.6967    2.0714 C   0  0  0  0  0  0  0  0  0  0  0  0
    0.0245   -6.2585    2.2316 O   0  0  0  0  0  0  0  0  0  0  0  0
    2.2643   -5.8906    2.0703 N   0  0  0  0  0  0  0  0  0  0  0  0
    3.5963   -6.3180    1.6191 C   0  0  0  0  0  0  0  0  0  0  0  0
    4.1413   -5.3592    0.5535 C   0  0  0  0  0  0  0  0  0  0  0  0
    4.1258   -3.8920    1.0256 C   0  0  0  0  0  0  0  0  0  0  0  0
    4.5267   -3.0078   -0.0566 N   0  0  0  0  0  0  0  0  0  0  0  0
    5.6895   -2.2981    0.0203 N   0  0  0  0  0  0  0  0  0  0  0  0
    5.8200   -1.5895   -1.0658 N   0  0  0  0  0  0  0  0  0  0  0  0
    4.7277   -1.8461   -1.8800 C   0  0  0  0  0  0  0  0  0  0  0  0
    4.3577   -1.3679   -3.1555 C   0  0  0  0  0  0  0  0  0  0  0  0
    3.1686   -1.8049   -3.7724 C   0  0  0  0  0  0  0  0  0  0  0  0
    2.3290   -2.7316   -3.1254 C   0  0  0  0  0  0  0  0  0  0  0  0
    2.6869   -3.2174   -1.8574 C   0  0  0  0  0  0  0  0  0  0  0  0
    3.8719   -2.7700   -1.2528 C   0  0  0  0  0  0  0  0  0  0  0  0
    2.7320   -3.5057    1.5635 C   0  0  0  0  0  0  0  0  0  0  0  0
    2.2237   -4.5141    2.6022 C   0  0  0  0  0  0  0  0  0  0  0  0
   -0.5922   -9.4597    4.3386 H   0  0  0  0  0  0  0  0  0  0  0  0
    0.2092   -7.8965    4.3722 H   0  0  0  0  0  0  0  0  0  0  0  0
    1.1698   -9.3800    4.3499 H   0  0  0  0  0  0  0  0  0  0  0  0
    2.2769   -8.5601    2.4200 H   0  0  0  0  0  0  0  0  0  0  0  0
    1.4154   -8.4579    0.8886 H   0  0  0  0  0  0  0  0  0  0  0  0
    4.2619   -6.3752    2.4784 H   0  0  0  0  0  0  0  0  0  0  0  0
    3.6061   -7.3000    1.1434 H   0  0  0  0  0  0  0  0  0  0  0  0
    5.1518   -5.6557    0.2638 H   0  0  0  0  0  0  0  0  0  0  0  0
    3.5246   -5.4671   -0.3383 H   0  0  0  0  0  0  0  0  0  0  0  0
    4.8503   -3.7870    1.8388 H   0  0  0  0  0  0  0  0  0  0  0  0
    4.9927   -0.6562   -3.6594 H   0  0  0  0  0  0  0  0  0  0  0  0
    2.8899   -1.4166   -4.7380 H   0  0  0  0  0  0  0  0  0  0  0  0
    1.4134   -3.0538   -3.5980 H   0  0  0  0  0  0  0  0  0  0  0  0
    2.0432   -3.9288   -1.3775 H   0  0  0  0  0  0  0  0  0  0  0  0
    2.7590   -2.4957    1.9822 H   0  0  0  0  0  0  0  0  0  0  0  0
    2.0085   -3.4720    0.7521 H   0  0  0  0  0  0  0  0  0  0  0  0
    1.2237   -4.2026    2.8997 H   0  0  0  0  0  0  0  0  0  0  0  0
    2.8347   -4.4606    3.5023 H   0  0  0  0  0  0  0  0  0  0  0  0
  1  2  1  0
  1 21  1  0
  1 22  1  0
  1 23  1  0
  2  3  1  0
  3  4  1  0
  3 24  1  0
  3 25  1  0
  4  5  2  0
  4  6  1  0
  6 20  1  0
  6  7  1  0
  7  8  1  0
  7 26  1  0
  7 27  1  0
  8  9  1  0
  8 28  1  0
  8 29  1  0
  9 10  1  0
  9 19  1  0
  9 30  1  0
 10 18  1  0
 10 11  1  0
 11 12  2  0
 12 13  1  0
 13 18  2  0
 13 14  1  0
 14 15  2  0
 14 31  1  0
 15 16  1  0
 15 32  1  0
 16 17  2  0
 16 33  1  0
 17 18  1  0
 17 34  1  0
 19 20  1  0
 19 35  1  0
 19 36  1  0
 20 37  1  0
 20 38  1  0
M  END
>  <i_m_ct_stereo_status>  (292) 
1

>  <s_m_source_file>  (292) 
/var/tmp/pbs.5083856.sched01/tmpktt3_xv9/115zij5tp5b.sdf

>  <i_m_source_file_index>  (292) 
2

>  <i_lp_mmshare_version>  (292) 
48012

>  <i_f3d_flags>  (292) 
0

>  <s_epik_input>  (292) 
W0NIM11PW0NIMl1DKD1PKU4xW0NIMl1bQ0gyXVtDSF0oW0NIMl1bQ0gyXTEpbihubjIpYyhjMjMpW2NIXVtjSF1bY0hdW2NIXTM=

>  <s_epik_cmdline>  (292) 
J2VwaWtfcHl0aG9uJywgJy1waHQnLCAnMi4wJywgJy1waCcsICc3LjAnLCAnLXRuJywgJzgnLCAnLW1hJywgJzIwMCcsICctaW1hZScsICc8aW5maWxlLm1hZT4nLCAnLW9tYWUnLCAnPG91dGZpbGUubWFlPic=

>  <r_lp_tautomer_probability>  (292) 
1

>  <r_epik_Ionization_Penalty>  (292) 
1.9704e-05

>  <r_epik_Ionization_Penalty_Charging>  (292) 
0

>  <r_epik_Ionization_Penalty_Neutral>  (292) 
1.9704e-05

>  <r_epik_State_Penalty>  (292) 
-0

>  <r_epik_Charging_Adjusted_Penalty>  (292) 
0

>  <i_epik_Tot_Q>  (292) 
0

>  <i_epik_Tot_abs_Q>  (292) 
0

>  <s_lp_Force_Field>  (292) 
OPLS3e

>  <r_lp_Energy>  (292) 
10.8248

>  <b_lp_Chiralities_Consistent>  (292) 
1

>  <s_lp_Variant>  (292) 
82:0-1

>  <s_i_glide_gridfile>  (292) 
pfpi4k_grid

>  <i_i_glide_lignum>  (292) 
2

>  <i_i_glide_rotatable_bonds>  (292) 
4

>  <r_i_docking_score>  (292) 
-3.52444

>  <r_i_glide_ligand_efficiency>  (292) 
-0.176222

>  <r_i_glide_ligand_efficiency_sa>  (292) 
-0.47834

>  <r_i_glide_ligand_efficiency_ln>  (292) 
-0.88205

>  <r_i_glide_gscore>  (292) 
-3.52444

>  <r_i_glide_lipo>  (292) 
-0.496839

>  <r_i_glide_hbond>  (292) 
-0.219702

>  <r_i_glide_metal>  (292) 
-0

>  <r_i_glide_rewards>  (292) 
-1.55736

>  <r_i_glide_evdw>  (292) 
-23.4455

>  <r_i_glide_ecoul>  (292) 
-4.43139

>  <r_i_glide_erotb>  (292) 
0.7158

>  <r_i_glide_esite>  (292) 
-0.129352

>  <r_i_glide_emodel>  (292) 
-33.7417

>  <r_i_glide_energy>  (292) 
-27.8768

>  <r_i_glide_einternal>  (292) 
2.18952

>  <r_i_glide_intrahb_reward>  (292) 
-0

>  <i_i_glide_confnum>  (292) 
5

>  <i_i_glide_posenum>  (292) 
22

>  <r_i_glide_eff_state_penalty>  (292) 
0

>  <ligand_id>  (292) 
82

>  <original_smiles>  (292) 
COCC(=O)N1CCC(n2nnc3ccccc32)CC1

>  <smiles>  (292) 
[H]c1c([H])c([H])c2c(nnn2C2([H])C([H])([H])C([H])([H])N(C(=O)C([H])([H])OC([H])([H])[H])C([H])([H])C2([H])[H])c1[H]

$$$$
82:0:2
     RDKit          3D

 38 40  0  0  1  0  0  0  0  0999 V2000
   -0.9015   -9.3367    2.7441 C   0  0  0  0  0  0  0  0  0  0  0  0
   -0.4497   -8.0066    2.9529 O   0  0  0  0  0  0  0  0  0  0  0  0
    0.8351   -7.7728    2.3911 C   0  0  0  0  0  0  0  0  0  0  0  0
    1.3415   -6.3725    2.7797 C   0  0  0  0  0  0  0  0  0  0  0  0
    0.6196   -5.6598    3.4812 O   0  0  0  0  0  0  0  0  0  0  0  0
    2.5792   -5.9789    2.3916 N   0  0  0  0  0  0  0  0  0  0  0  0
    3.4611   -6.7552    1.4992 C   0  0  0  0  0  0  0  0  0  0  0  0
    3.9360   -5.8878    0.3217 C   0  0  0  0  0  0  0  0  0  0  0  0
    4.5884   -4.5663    0.7901 C   0  0  0  0  0  0  0  0  0  0  0  0
    4.9131   -3.7120   -0.3440 N   0  0  0  0  0  0  0  0  0  0  0  0
    6.1817   -3.2449   -0.5261 N   0  0  0  0  0  0  0  0  0  0  0  0
    6.2095   -2.5081   -1.6002 N   0  0  0  0  0  0  0  0  0  0  0  0
    4.9333   -2.5005   -2.1451 C   0  0  0  0  0  0  0  0  0  0  0  0
    4.3955   -1.8823   -3.2996 C   0  0  0  0  0  0  0  0  0  0  0  0
    3.0327   -2.0469   -3.6264 C   0  0  0  0  0  0  0  0  0  0  0  0
    2.1997   -2.8266   -2.8033 C   0  0  0  0  0  0  0  0  0  0  0  0
    2.7055   -3.4154   -1.6402 C   0  0  0  0  0  0  0  0  0  0  0  0
    4.0652   -3.2628   -1.3382 C   0  0  0  0  0  0  0  0  0  0  0  0
    3.6673   -3.8275    1.7818 C   0  0  0  0  0  0  0  0  0  0  0  0
    3.2078   -4.7535    2.9216 C   0  0  0  0  0  0  0  0  0  0  0  0
   -1.8847   -9.4630    3.1967 H   0  0  0  0  0  0  0  0  0  0  0  0
   -0.2267  -10.0607    3.2035 H   0  0  0  0  0  0  0  0  0  0  0  0
   -0.9870   -9.5692    1.6815 H   0  0  0  0  0  0  0  0  0  0  0  0
    1.5412   -8.5244    2.7518 H   0  0  0  0  0  0  0  0  0  0  0  0
    0.7617   -7.8514    1.3071 H   0  0  0  0  0  0  0  0  0  0  0  0
    4.3072   -7.1389    2.0692 H   0  0  0  0  0  0  0  0  0  0  0  0
    2.9734   -7.6156    1.0388 H   0  0  0  0  0  0  0  0  0  0  0  0
    4.6311   -6.4476   -0.3095 H   0  0  0  0  0  0  0  0  0  0  0  0
    3.0602   -5.6926   -0.2993 H   0  0  0  0  0  0  0  0  0  0  0  0
    5.5226   -4.8146    1.3069 H   0  0  0  0  0  0  0  0  0  0  0  0
    5.0134   -1.2797   -3.9347 H   0  0  0  0  0  0  0  0  0  0  0  0
    2.6195   -1.5643   -4.5006 H   0  0  0  0  0  0  0  0  0  0  0  0
    1.1563   -2.9617   -3.0488 H   0  0  0  0  0  0  0  0  0  0  0  0
    2.0422   -3.9727   -1.0126 H   0  0  0  0  0  0  0  0  0  0  0  0
    4.1853   -2.9552    2.1900 H   0  0  0  0  0  0  0  0  0  0  0  0
    2.7889   -3.4392    1.2627 H   0  0  0  0  0  0  0  0  0  0  0  0
    2.5462   -4.1755    3.5669 H   0  0  0  0  0  0  0  0  0  0  0  0
    4.0573   -5.0287    3.5446 H   0  0  0  0  0  0  0  0  0  0  0  0
  1  2  1  0
  1 21  1  0
  1 22  1  0
  1 23  1  0
  2  3  1  0
  3  4  1  0
  3 24  1  0
  3 25  1  0
  4  5  2  0
  4  6  1  0
  6 20  1  0
  6  7  1  0
  7  8  1  0
  7 26  1  0
  7 27  1  0
  8  9  1  0
  8 28  1  0
  8 29  1  0
  9 10  1  0
  9 19  1  0
  9 30  1  0
 10 18  1  0
 10 11  1  0
 11 12  2  0
 12 13  1  0
 13 18  2  0
 13 14  1  0
 14 15  2  0
 14 31  1  0
 15 16  1  0
 15 32  1  0
 16 17  2  0
 16 33  1  0
 17 18  1  0
 17 34  1  0
 19 20  1  0
 19 35  1  0
 19 36  1  0
 20 37  1  0
 20 38  1  0
M  END
>  <i_m_ct_stereo_status>  (293) 
1

>  <s_m_source_file>  (293) 
/var/tmp/pbs.5083856.sched01/tmpktt3_xv9/115zij5tp5b.sdf

>  <i_m_source_file_index>  (293) 
2

>  <i_lp_mmshare_version>  (293) 
48012

>  <i_f3d_flags>  (293) 
0

>  <s_epik_input>  (293) 
W0NIM11PW0NIMl1DKD1PKU4xW0NIMl1bQ0gyXVtDSF0oW0NIMl1bQ0gyXTEpbihubjIpYyhjMjMpW2NIXVtjSF1bY0hdW2NIXTM=

>  <s_epik_cmdline>  (293) 
J2VwaWtfcHl0aG9uJywgJy1waHQnLCAnMi4wJywgJy1waCcsICc3LjAnLCAnLXRuJywgJzgnLCAnLW1hJywgJzIwMCcsICctaW1hZScsICc8aW5maWxlLm1hZT4nLCAnLW9tYWUnLCAnPG91dGZpbGUubWFlPic=

>  <r_lp_tautomer_probability>  (293) 
1

>  <r_epik_Ionization_Penalty>  (293) 
1.9704e-05

>  <r_epik_Ionization_Penalty_Charging>  (293) 
0

>  <r_epik_Ionization_Penalty_Neutral>  (293) 
1.9704e-05

>  <r_epik_State_Penalty>  (293) 
-0

>  <r_epik_Charging_Adjusted_Penalty>  (293) 
0

>  <i_epik_Tot_Q>  (293) 
0

>  <i_epik_Tot_abs_Q>  (293) 
0

>  <s_lp_Force_Field>  (293) 
OPLS3e

>  <r_lp_Energy>  (293) 
10.8248

>  <b_lp_Chiralities_Consistent>  (293) 
1

>  <s_lp_Variant>  (293) 
82:0-1

>  <s_i_glide_gridfile>  (293) 
pfpi4k_grid

>  <i_i_glide_lignum>  (293) 
2

>  <i_i_glide_rotatable_bonds>  (293) 
4

>  <r_i_docking_score>  (293) 
-3.26308

>  <r_i_glide_ligand_efficiency>  (293) 
-0.163154

>  <r_i_glide_ligand_efficiency_sa>  (293) 
-0.442868

>  <r_i_glide_ligand_efficiency_ln>  (293) 
-0.816641

>  <r_i_glide_gscore>  (293) 
-3.26308

>  <r_i_glide_lipo>  (293) 
-0.816895

>  <r_i_glide_hbond>  (293) 
-0.00893047

>  <r_i_glide_metal>  (293) 
-0

>  <r_i_glide_rewards>  (293) 
-1.59847

>  <r_i_glide_evdw>  (293) 
-25.193

>  <r_i_glide_ecoul>  (293) 
-1.4921

>  <r_i_glide_erotb>  (293) 
0.7158

>  <r_i_glide_esite>  (293) 
-0.0711159

>  <r_i_glide_emodel>  (293) 
-32.4739

>  <r_i_glide_energy>  (293) 
-26.6851

>  <r_i_glide_einternal>  (293) 
1.11343

>  <r_i_glide_intrahb_reward>  (293) 
-0

>  <i_i_glide_confnum>  (293) 
5

>  <i_i_glide_posenum>  (293) 
28

>  <r_i_glide_eff_state_penalty>  (293) 
0

>  <ligand_id>  (293) 
82

>  <original_smiles>  (293) 
COCC(=O)N1CCC(n2nnc3ccccc32)CC1

>  <smiles>  (293) 
[H]c1c([H])c([H])c2c(nnn2C2([H])C([H])([H])C([H])([H])N(C(=O)C([H])([H])OC([H])([H])[H])C([H])([H])C2([H])[H])c1[H]

$$$$
83:0:0
     RDKit          3D

 80 85  0  0  1  0  0  0  0  0999 V2000
   10.3865   -6.2116    6.0289 C   0  0  0  0  0  0  0  0  0  0  0  0
   10.9059   -7.0267    4.8146 C   0  0  0  0  0  0  0  0  0  0  0  0
   11.9900   -7.6208    4.8581 O   0  0  0  0  0  0  0  0  0  0  0  0
   10.0853   -7.0589    3.7236 O   0  0  0  0  0  0  0  0  0  0  0  0
    8.7753   -6.5109    3.7253 C   0  0  2  0  0  0  0  0  0  0  0  0
    7.8944   -7.2358    4.7781 C   0  0  0  0  0  0  0  0  0  0  0  0
    6.9652   -8.1087    3.9838 C   0  0  1  0  0  0  0  0  0  0  0  0
    7.8351   -9.3830    3.6317 C   0  0  0  0  0  0  0  0  0  0  0  0
    5.6600   -8.5779    4.7073 C   0  0  1  0  0  0  0  0  0  0  0  0
    4.8088   -7.5249    5.4676 C   0  0  0  0  0  0  0  0  0  0  0  0
    3.4629   -8.0725    5.8532 C   0  0  0  0  0  0  0  0  0  0  0  0
    2.9101   -9.2162    5.3843 C   0  0  0  0  0  0  0  0  0  0  0  0
    1.5992   -9.7422    5.9458 C   0  0  0  0  0  0  0  0  0  0  0  0
    0.6477  -10.2909    4.8723 C   0  0  1  0  0  0  0  0  0  0  0  0
    0.1186   -9.1704    4.0433 N   0  0  0  0  0  0  0  0  0  0  0  0
   -0.7098   -9.5360    2.8904 C   0  0  0  0  0  0  0  0  0  0  0  0
   -1.3170   -8.2180    2.4290 C   0  0  0  0  0  0  0  0  0  0  0  0
   -1.2847   -7.3041    3.6630 C   0  0  0  0  0  0  0  0  0  0  0  0
   -0.6707   -8.1563    4.7576 C   0  0  0  0  0  0  0  0  0  0  0  0
    1.3795  -11.3195    3.9824 C   0  0  0  0  0  0  0  0  0  0  0  0
    2.6155  -10.6893    3.3235 C   0  0  0  0  0  0  0  0  0  0  0  0
    3.6052  -10.1379    4.3746 C   0  0  2  0  0  0  0  0  0  0  0  0
    4.1651  -11.3228    5.1951 C   0  0  0  0  0  0  0  0  0  0  0  0
    4.8329   -9.4632    3.7017 C   0  0  1  0  0  0  0  0  0  0  0  0
    4.5987   -8.6920    2.3723 C   0  0  0  0  0  0  0  0  0  0  0  0
    5.8953   -8.1146    1.7271 C   0  0  0  0  0  0  0  0  0  0  0  0
    6.6381   -7.2032    2.7493 C   0  0  1  0  0  0  0  0  0  0  0  0
    5.7830   -5.9160    3.1043 C   0  0  0  0  0  0  0  0  0  0  0  0
    8.0658   -6.7238    2.3390 C   0  0  1  0  0  0  0  0  0  0  0  0
    8.0784   -5.4804    1.4238 C   0  0  0  0  0  0  0  0  0  0  0  0
    6.9556   -5.1306    0.5486 C   0  0  0  0  0  0  0  0  0  0  0  0
    6.8560   -3.9416   -0.0577 C   0  0  0  0  0  0  0  0  0  0  0  0
    7.9691   -3.0003    0.0189 C   0  0  0  0  0  0  0  0  0  0  0  0
    7.9378   -1.9283   -0.5869 O   0  0  0  0  0  0  0  0  0  0  0  0
    9.0546   -3.3875    0.7770 O   0  0  0  0  0  0  0  0  0  0  0  0
    9.0576   -4.5885    1.4675 C   0  0  0  0  0  0  0  0  0  0  0  0
   10.1665   -5.1784    5.6903 H   0  0  0  0  0  0  0  0  0  0  0  0
   11.1350   -6.1912    6.8263 H   0  0  0  0  0  0  0  0  0  0  0  0
    9.5003   -6.6090    6.4546 H   0  0  0  0  0  0  0  0  0  0  0  0
    8.8442   -5.4617    3.9647 H   0  0  0  0  0  0  0  0  0  0  0  0
    8.4089   -7.8971    5.4781 H   0  0  0  0  0  0  0  0  0  0  0  0
    7.3857   -6.5015    5.3987 H   0  0  0  0  0  0  0  0  0  0  0  0
    7.3941  -10.0362    2.8790 H   0  0  0  0  0  0  0  0  0  0  0  0
    8.0224   -9.9955    4.5177 H   0  0  0  0  0  0  0  0  0  0  0  0
    8.8097   -9.1206    3.2061 H   0  0  0  0  0  0  0  0  0  0  0  0
    6.0310   -9.2741    5.4994 H   0  0  0  0  0  0  0  0  0  0  0  0
    5.3553   -7.1503    6.3458 H   0  0  0  0  0  0  0  0  0  0  0  0
    4.4525   -6.6879    4.9780 H   0  0  0  0  0  0  0  0  0  0  0  0
    2.8997   -7.4467    6.5447 H   0  0  0  0  0  0  0  0  0  0  0  0
    1.8823  -10.5153    6.6300 H   0  0  0  0  0  0  0  0  0  0  0  0
    1.1480   -8.9778    6.5719 H   0  0  0  0  0  0  0  0  0  0  0  0
   -0.1789  -10.7681    5.3841 H   0  0  0  0  0  0  0  0  0  0  0  0
   -0.1675  -10.0444    2.0884 H   0  0  0  0  0  0  0  0  0  0  0  0
   -1.4859  -10.2048    3.2237 H   0  0  0  0  0  0  0  0  0  0  0  0
   -0.6824   -7.7967    1.6405 H   0  0  0  0  0  0  0  0  0  0  0  0
   -2.3228   -8.3559    2.0437 H   0  0  0  0  0  0  0  0  0  0  0  0
   -0.6409   -6.4500    3.4781 H   0  0  0  0  0  0  0  0  0  0  0  0
   -2.2693   -6.9525    3.9407 H   0  0  0  0  0  0  0  0  0  0  0  0
   -1.4625   -8.6715    5.3135 H   0  0  0  0  0  0  0  0  0  0  0  0
   -0.0956   -7.5581    5.4764 H   0  0  0  0  0  0  0  0  0  0  0  0
    1.6452  -12.1847    4.5712 H   0  0  0  0  0  0  0  0  0  0  0  0
    0.7205  -11.7325    3.2255 H   0  0  0  0  0  0  0  0  0  0  0  0
    3.1156  -11.4176    2.6859 H   0  0  0  0  0  0  0  0  0  0  0  0
    2.2898   -9.8988    2.6549 H   0  0  0  0  0  0  0  0  0  0  0  0
    4.6820  -12.0456    4.5577 H   0  0  0  0  0  0  0  0  0  0  0  0
    3.3839  -11.8651    5.7296 H   0  0  0  0  0  0  0  0  0  0  0  0
    4.8505  -10.9899    5.9834 H   0  0  0  0  0  0  0  0  0  0  0  0
    5.4283  -10.3134    3.3775 H   0  0  0  0  0  0  0  0  0  0  0  0
    4.1516   -9.3240    1.6100 H   0  0  0  0  0  0  0  0  0  0  0  0
    3.8699   -7.8971    2.5386 H   0  0  0  0  0  0  0  0  0  0  0  0
    6.5310   -8.9159    1.3460 H   0  0  0  0  0  0  0  0  0  0  0  0
    5.6217   -7.5803    0.8402 H   0  0  0  0  0  0  0  0  0  0  0  0
    5.6119   -5.2106    2.4002 H   0  0  0  0  0  0  0  0  0  0  0  0
    6.2122   -5.3772    3.9760 H   0  0  0  0  0  0  0  0  0  0  0  0
    4.7414   -6.1958    3.2270 H   0  0  0  0  0  0  0  0  0  0  0  0
    8.6029   -7.4838    1.7713 H   0  0  0  0  0  0  0  0  0  0  0  0
    6.0582   -5.7421    0.4451 H   0  0  0  0  0  0  0  0  0  0  0  0
    5.9649   -3.6895   -0.5723 H   0  0  0  0  0  0  0  0  0  0  0  0
    9.9249   -4.6950    2.0799 H   0  0  0  0  0  0  0  0  0  0  0  0
    0.9427   -8.6942    3.6684 H   0  0  0  0  0  0  0  0  0  0  0  0
  1  2  1  0
  1 37  1  0
  1 38  1  0
  1 39  1  0
  2  3  2  0
  2  4  1  0
  4  5  1  0
  5 29  1  0
  5  6  1  0
  5 40  1  1
  6  7  1  0
  6 41  1  0
  6 42  1  0
  7 27  1  0
  7  8  1  6
  7  9  1  0
  8 43  1  0
  8 44  1  0
  8 45  1  0
  9 24  1  0
  9 10  1  0
  9 46  1  1
 10 11  1  0
 10 47  1  0
 10 48  1  0
 11 12  2  0
 11 49  1  0
 12 22  1  0
 12 13  1  0
 13 14  1  0
 13 50  1  0
 13 51  1  0
 14 15  1  0
 14 20  1  0
 14 52  1  1
 15 19  1  0
 15 16  1  0
 15 80  1  0
 16 17  1  0
 16 53  1  0
 16 54  1  0
 17 18  1  0
 17 55  1  0
 17 56  1  0
 18 19  1  0
 18 57  1  0
 18 58  1  0
 19 59  1  0
 19 60  1  0
 20 21  1  0
 20 61  1  0
 20 62  1  0
 21 22  1  0
 21 63  1  0
 21 64  1  0
 22 23  1  1
 22 24  1  0
 23 65  1  0
 23 66  1  0
 23 67  1  0
 24 25  1  0
 24 68  1  6
 25 26  1  0
 25 69  1  0
 25 70  1  0
 26 27  1  0
 26 71  1  0
 26 72  1  0
 27 28  1  1
 27 29  1  0
 28 73  1  0
 28 74  1  0
 28 75  1  0
 29 30  1  0
 29 76  1  6
 30 36  2  0
 30 31  1  0
 31 32  2  0
 31 77  1  0
 32 33  1  0
 32 78  1  0
 33 34  2  0
 33 35  1  0
 35 36  1  0
 36 79  1  0
M  CHG  1  15   1
M  END
>  <i_m_ct_stereo_status>  (294) 
1

>  <s_m_source_file>  (294) 
/var/tmp/pbs.5083856.sched01/tmpktt3_xv9/115zij5tp5b.sdf

>  <i_m_source_file_index>  (294) 
3

>  <i_lp_mmshare_version>  (294) 
48012

>  <i_f3d_flags>  (294) 
0

>  <s_epik_input>  (294) 
W2NIXTFvYyg9TylbY0hdW2NIXWMxW0NAQEhdKFtDQEBIXShbQ0gyXTIpT0MoPU8pW0NIM10pW0NAQF0zKFtDSDNdKVtDSDJdW0NIMl1bQ0BASF0oW0NASF00W0NAXTIzW0NIM10pW0NAQF01KFtDSDNdKUMoPVtDSF1bQ0gyXTQpW0NIMl1bQ0BIXShbQ0gyXVtDSDJdNSlONltDSDJdW0NIMl1bQ0gyXVtDSDJdNg==

>  <s_epik_cmdline>  (294) 
J2VwaWtfcHl0aG9uJywgJy1waHQnLCAnMi4wJywgJy1waCcsICc3LjAnLCAnLXRuJywgJzgnLCAnLW1hJywgJzIwMCcsICctaW1hZScsICc8aW5maWxlLm1hZT4nLCAnLW9tYWUnLCAnPG91dGZpbGUubWFlPic=

>  <r_lp_tautomer_probability>  (294) 
1

>  <r_epik_Ionization_Penalty>  (294) 
0.000165155

>  <r_epik_Ionization_Penalty_Charging>  (294) 
0.000165145

>  <r_epik_Ionization_Penalty_Neutral>  (294) 
9.40885e-09

>  <r_epik_State_Penalty>  (294) 
-0

>  <r_epik_Charging_Adjusted_Penalty>  (294) 
0.000165145

>  <i_epik_Tot_Q>  (294) 
1

>  <i_epik_Tot_abs_Q>  (294) 
1

>  <s_epik_Chemistry_Notes>  (294) 
This compound has an ester and may undergo hydrolysis at high or low pH.

>  <s_lp_Force_Field>  (294) 
OPLS3e

>  <r_lp_Energy>  (294) 
79.037

>  <b_lp_Chiralities_Consistent>  (294) 
1

>  <s_lp_Variant>  (294) 
83:0-1

>  <s_i_glide_gridfile>  (294) 
pfpi4k_grid

>  <i_i_glide_lignum>  (294) 
3

>  <i_i_glide_rotatable_bonds>  (294) 
4

>  <r_i_docking_score>  (294) 
-2.77331

>  <r_i_glide_ligand_efficiency>  (294) 
-0.0770365

>  <r_i_glide_ligand_efficiency_sa>  (294) 
-0.254369

>  <r_i_glide_ligand_efficiency_ln>  (294) 
-0.605062

>  <r_i_glide_gscore>  (294) 
-2.77331

>  <r_i_glide_lipo>  (294) 
-0.753844

>  <r_i_glide_hbond>  (294) 
-0.150363

>  <r_i_glide_metal>  (294) 
-0

>  <r_i_glide_rewards>  (294) 
-0.0362362

>  <r_i_glide_evdw>  (294) 
-30.4398

>  <r_i_glide_ecoul>  (294) 
-6.66459

>  <r_i_glide_erotb>  (294) 
0.249845

>  <r_i_glide_esite>  (294) 
-0.0487808

>  <r_i_glide_emodel>  (294) 
-35.9691

>  <r_i_glide_energy>  (294) 
-37.1043

>  <r_i_glide_einternal>  (294) 
10.5045

>  <r_i_glide_intrahb_reward>  (294) 
-0

>  <i_i_glide_confnum>  (294) 
4

>  <i_i_glide_posenum>  (294) 
3

>  <r_i_glide_eff_state_penalty>  (294) 
0

>  <ligand_id>  (294) 
83

>  <original_smiles>  (294) 
CC(=O)OC1CC2(C)C3CC=C4CC(N5CCCC5)CCC4(C)C3CCC2(C)C1c1ccc(=O)oc1

>  <smiles>  (294) 
[H]C1=C2C([H])([H])C([H])([N+]3([H])C([H])([H])C([H])([H])C([H])([H])C3([H])[H])C([H])([H])C([H])([H])C2(C([H])([H])[H])C2([H])C([H])([H])C([H])([H])C3(C([H])([H])[H])C([H])(c4c([H])oc(=O)c([H])c4[H])C([H])(OC(=O)C([H])([H])[H])C([H])([H])C3(C([H])([H])[H])C2([H])C1([H])[H]

$$$$
83:0:1
     RDKit          3D

 80 85  0  0  1  0  0  0  0  0999 V2000
    0.8909    0.7843    2.0853 C   0  0  0  0  0  0  0  0  0  0  0  0
    1.7307    1.0156    3.3379 C   0  0  0  0  0  0  0  0  0  0  0  0
    1.7650    2.1203    3.8808 O   0  0  0  0  0  0  0  0  0  0  0  0
    2.4080   -0.0600    3.8064 O   0  0  0  0  0  0  0  0  0  0  0  0
    2.2970   -1.3461    3.2069 C   0  0  2  0  0  0  0  0  0  0  0  0
    1.2608   -2.2269    3.9353 C   0  0  0  0  0  0  0  0  0  0  0  0
    2.1289   -3.2650    4.6655 C   0  0  1  0  0  0  0  0  0  0  0  0
    2.6165   -2.5027    5.9691 C   0  0  0  0  0  0  0  0  0  0  0  0
    1.4512   -4.5977    5.1099 C   0  0  1  0  0  0  0  0  0  0  0  0
    0.6139   -5.3824    4.0715 C   0  0  0  0  0  0  0  0  0  0  0  0
    0.2074   -6.7514    4.5270 C   0  0  0  0  0  0  0  0  0  0  0  0
    0.7548   -7.3936    5.5899 C   0  0  0  0  0  0  0  0  0  0  0  0
    0.2137   -8.7296    6.0461 C   0  0  0  0  0  0  0  0  0  0  0  0
    1.3195   -9.7388    6.4089 C   0  0  1  0  0  0  0  0  0  0  0  0
    2.0255  -10.1856    5.1910 N   0  0  0  0  0  0  0  0  0  0  0  0
    3.1943  -11.0708    5.3918 C   0  0  0  0  0  0  0  0  0  0  0  0
    3.5382  -11.5686    3.9954 C   0  0  0  0  0  0  0  0  0  0  0  0
    2.2343  -11.4386    3.2136 C   0  0  0  0  0  0  0  0  0  0  0  0
    1.2074  -10.8986    4.1934 C   0  0  0  0  0  0  0  0  0  0  0  0
    2.3102   -9.1031    7.4173 C   0  0  0  0  0  0  0  0  0  0  0  0
    2.9354   -7.8287    6.8334 C   0  0  0  0  0  0  0  0  0  0  0  0
    1.8572   -6.7782    6.4528 C   0  0  2  0  0  0  0  0  0  0  0  0
    1.1578   -6.3048    7.7533 C   0  0  0  0  0  0  0  0  0  0  0  0
    2.5078   -5.5099    5.8072 C   0  0  1  0  0  0  0  0  0  0  0  0
    3.7647   -5.6982    4.9029 C   0  0  0  0  0  0  0  0  0  0  0  0
    4.3694   -4.3667    4.3534 C   0  0  0  0  0  0  0  0  0  0  0  0
    3.2821   -3.5289    3.6407 C   0  0  1  0  0  0  0  0  0  0  0  0
    2.8918   -4.3015    2.3451 C   0  0  0  0  0  0  0  0  0  0  0  0
    3.6548   -2.0775    3.2197 C   0  0  1  0  0  0  0  0  0  0  0  0
    4.4040   -1.9530    1.8858 C   0  0  0  0  0  0  0  0  0  0  0  0
    3.7249   -2.0887    0.5986 C   0  0  0  0  0  0  0  0  0  0  0  0
    4.4161   -2.0987   -0.5453 C   0  0  0  0  0  0  0  0  0  0  0  0
    5.8762   -1.9269   -0.5350 C   0  0  0  0  0  0  0  0  0  0  0  0
    6.5271   -1.8708   -1.5762 O   0  0  0  0  0  0  0  0  0  0  0  0
    6.4736   -1.8066    0.6963 O   0  0  0  0  0  0  0  0  0  0  0  0
    5.7226   -1.8150    1.8564 C   0  0  0  0  0  0  0  0  0  0  0  0
    1.5286    0.4237    1.2685 H   0  0  0  0  0  0  0  0  0  0  0  0
    0.4083    1.6861    1.7278 H   0  0  0  0  0  0  0  0  0  0  0  0
    0.1349    0.0190    2.2932 H   0  0  0  0  0  0  0  0  0  0  0  0
    2.0048   -1.3219    2.1849 H   0  0  0  0  0  0  0  0  0  0  0  0
    0.5952   -1.6562    4.5911 H   0  0  0  0  0  0  0  0  0  0  0  0
    0.6053   -2.6819    3.1979 H   0  0  0  0  0  0  0  0  0  0  0  0
    3.4136   -3.0015    6.5081 H   0  0  0  0  0  0  0  0  0  0  0  0
    1.7944   -2.3604    6.6740 H   0  0  0  0  0  0  0  0  0  0  0  0
    3.0542   -1.5235    5.7635 H   0  0  0  0  0  0  0  0  0  0  0  0
    0.7183   -4.2844    5.8779 H   0  0  0  0  0  0  0  0  0  0  0  0
   -0.2051   -4.7547    3.8150 H   0  0  0  0  0  0  0  0  0  0  0  0
    0.9999   -5.6680    3.1248 H   0  0  0  0  0  0  0  0  0  0  0  0
   -0.5464   -7.2489    3.9266 H   0  0  0  0  0  0  0  0  0  0  0  0
   -0.3911   -8.5342    6.9143 H   0  0  0  0  0  0  0  0  0  0  0  0
   -0.4828   -9.1136    5.3090 H   0  0  0  0  0  0  0  0  0  0  0  0
    0.8018  -10.5751    6.8513 H   0  0  0  0  0  0  0  0  0  0  0  0
    4.0433  -10.5694    5.8619 H   0  0  0  0  0  0  0  0  0  0  0  0
    2.9109  -11.8990    6.0410 H   0  0  0  0  0  0  0  0  0  0  0  0
    4.2928  -10.9148    3.5556 H   0  0  0  0  0  0  0  0  0  0  0  0
    3.9180  -12.5907    4.0157 H   0  0  0  0  0  0  0  0  0  0  0  0
    2.3589  -10.7381    2.3896 H   0  0  0  0  0  0  0  0  0  0  0  0
    1.9067  -12.3806    2.7934 H   0  0  0  0  0  0  0  0  0  0  0  0
    0.6764  -11.7150    4.6909 H   0  0  0  0  0  0  0  0  0  0  0  0
    0.4682  -10.2588    3.7012 H   0  0  0  0  0  0  0  0  0  0  0  0
    1.8084   -8.9052    8.3537 H   0  0  0  0  0  0  0  0  0  0  0  0
    3.0835   -9.8036    7.7119 H   0  0  0  0  0  0  0  0  0  0  0  0
    3.6448   -7.3971    7.5375 H   0  0  0  0  0  0  0  0  0  0  0  0
    3.5252   -8.0991    5.9614 H   0  0  0  0  0  0  0  0  0  0  0  0
    1.8686   -5.8572    8.4515 H   0  0  0  0  0  0  0  0  0  0  0  0
    0.6558   -7.1153    8.2764 H   0  0  0  0  0  0  0  0  0  0  0  0
    0.3598   -5.5860    7.5438 H   0  0  0  0  0  0  0  0  0  0  0  0
    2.9104   -5.0108    6.6839 H   0  0  0  0  0  0  0  0  0  0  0  0
    4.5599   -6.2107    5.4380 H   0  0  0  0  0  0  0  0  0  0  0  0
    3.5062   -6.3775    4.0894 H   0  0  0  0  0  0  0  0  0  0  0  0
    4.8606   -3.8227    5.1599 H   0  0  0  0  0  0  0  0  0  0  0  0
    5.1832   -4.5693    3.6579 H   0  0  0  0  0  0  0  0  0  0  0  0
    3.6873   -4.3258    1.6309 H   0  0  0  0  0  0  0  0  0  0  0  0
    1.9852   -3.8885    1.9046 H   0  0  0  0  0  0  0  0  0  0  0  0
    2.7861   -5.3704    2.4617 H   0  0  0  0  0  0  0  0  0  0  0  0
    4.3138   -1.6295    3.9767 H   0  0  0  0  0  0  0  0  0  0  0  0
    2.6722   -2.2871    0.5229 H   0  0  0  0  0  0  0  0  0  0  0  0
    3.9025   -2.2438   -1.4887 H   0  0  0  0  0  0  0  0  0  0  0  0
    6.3374   -1.7470    2.7475 H   0  0  0  0  0  0  0  0  0  0  0  0
    2.3818   -9.3661    4.7457 H   0  0  0  0  0  0  0  0  0  0  0  0
  1  2  1  0
  1 37  1  0
  1 38  1  0
  1 39  1  0
  2  3  2  0
  2  4  1  0
  4  5  1  0
  5 29  1  0
  5  6  1  0
  5 40  1  6
  6  7  1  0
  6 41  1  0
  6 42  1  0
  7 27  1  0
  7  8  1  1
  7  9  1  0
  8 43  1  0
  8 44  1  0
  8 45  1  0
  9 24  1  0
  9 10  1  0
  9 46  1  1
 10 11  1  0
 10 47  1  0
 10 48  1  0
 11 12  2  0
 11 49  1  0
 12 22  1  0
 12 13  1  0
 13 14  1  0
 13 50  1  0
 13 51  1  0
 14 15  1  0
 14 20  1  0
 14 52  1  1
 15 19  1  0
 15 16  1  0
 15 80  1  0
 16 17  1  0
 16 53  1  0
 16 54  1  0
 17 18  1  0
 17 55  1  0
 17 56  1  0
 18 19  1  0
 18 57  1  0
 18 58  1  0
 19 59  1  0
 19 60  1  0
 20 21  1  0
 20 61  1  0
 20 62  1  0
 21 22  1  0
 21 63  1  0
 21 64  1  0
 22 23  1  1
 22 24  1  0
 23 65  1  0
 23 66  1  0
 23 67  1  0
 24 25  1  0
 24 68  1  1
 25 26  1  0
 25 69  1  0
 25 70  1  0
 26 27  1  0
 26 71  1  0
 26 72  1  0
 27 28  1  6
 27 29  1  0
 28 73  1  0
 28 74  1  0
 28 75  1  0
 29 30  1  0
 29 76  1  1
 30 36  2  0
 30 31  1  0
 31 32  2  0
 31 77  1  0
 32 33  1  0
 32 78  1  0
 33 34  2  0
 33 35  1  0
 35 36  1  0
 36 79  1  0
M  CHG  1  15   1
M  END
>  <i_m_ct_stereo_status>  (295) 
1

>  <s_m_source_file>  (295) 
/var/tmp/pbs.5083856.sched01/tmpktt3_xv9/115zij5tp5b.sdf

>  <i_m_source_file_index>  (295) 
3

>  <i_lp_mmshare_version>  (295) 
48012

>  <i_f3d_flags>  (295) 
0

>  <s_epik_input>  (295) 
W2NIXTFvYyg9TylbY0hdW2NIXWMxW0NAQEhdKFtDQEBIXShbQ0gyXTIpT0MoPU8pW0NIM10pW0NAQF0zKFtDSDNdKVtDSDJdW0NIMl1bQ0BASF0oW0NASF00W0NAXTIzW0NIM10pW0NAQF01KFtDSDNdKUMoPVtDSF1bQ0gyXTQpW0NIMl1bQ0BIXShbQ0gyXVtDSDJdNSlONltDSDJdW0NIMl1bQ0gyXVtDSDJdNg==

>  <s_epik_cmdline>  (295) 
J2VwaWtfcHl0aG9uJywgJy1waHQnLCAnMi4wJywgJy1waCcsICc3LjAnLCAnLXRuJywgJzgnLCAnLW1hJywgJzIwMCcsICctaW1hZScsICc8aW5maWxlLm1hZT4nLCAnLW9tYWUnLCAnPG91dGZpbGUubWFlPic=

>  <r_lp_tautomer_probability>  (295) 
1

>  <r_epik_Ionization_Penalty>  (295) 
0.000165155

>  <r_epik_Ionization_Penalty_Charging>  (295) 
0.000165145

>  <r_epik_Ionization_Penalty_Neutral>  (295) 
9.40885e-09

>  <r_epik_State_Penalty>  (295) 
-0

>  <r_epik_Charging_Adjusted_Penalty>  (295) 
0.000165145

>  <i_epik_Tot_Q>  (295) 
1

>  <i_epik_Tot_abs_Q>  (295) 
1

>  <s_epik_Chemistry_Notes>  (295) 
This compound has an ester and may undergo hydrolysis at high or low pH.

>  <s_lp_Force_Field>  (295) 
OPLS3e

>  <r_lp_Energy>  (295) 
79.037

>  <b_lp_Chiralities_Consistent>  (295) 
1

>  <s_lp_Variant>  (295) 
83:0-1

>  <s_i_glide_gridfile>  (295) 
pfpi4k_grid

>  <i_i_glide_lignum>  (295) 
3

>  <i_i_glide_rotatable_bonds>  (295) 
4

>  <r_i_docking_score>  (295) 
-2.70962

>  <r_i_glide_ligand_efficiency>  (295) 
-0.0752673

>  <r_i_glide_ligand_efficiency_sa>  (295) 
-0.248527

>  <r_i_glide_ligand_efficiency_ln>  (295) 
-0.591167

>  <r_i_glide_gscore>  (295) 
-2.70962

>  <r_i_glide_lipo>  (295) 
-0.262669

>  <r_i_glide_hbond>  (295) 
-0.16

>  <r_i_glide_metal>  (295) 
-0

>  <r_i_glide_rewards>  (295) 
-0.0362362

>  <r_i_glide_evdw>  (295) 
-26.0074

>  <r_i_glide_ecoul>  (295) 
-7.60279

>  <r_i_glide_erotb>  (295) 
0.249845

>  <r_i_glide_esite>  (295) 
-0.0597746

>  <r_i_glide_emodel>  (295) 
-36.2298

>  <r_i_glide_energy>  (295) 
-33.6102

>  <r_i_glide_einternal>  (295) 
5.36951

>  <r_i_glide_intrahb_reward>  (295) 
-0

>  <i_i_glide_confnum>  (295) 
1

>  <i_i_glide_posenum>  (295) 
1

>  <r_i_glide_eff_state_penalty>  (295) 
0

>  <ligand_id>  (295) 
83

>  <original_smiles>  (295) 
CC(=O)OC1CC2(C)C3CC=C4CC(N5CCCC5)CCC4(C)C3CCC2(C)C1c1ccc(=O)oc1

>  <smiles>  (295) 
[H]C1=C2C([H])([H])C([H])([N+]3([H])C([H])([H])C([H])([H])C([H])([H])C3([H])[H])C([H])([H])C([H])([H])C2(C([H])([H])[H])C2([H])C([H])([H])C([H])([H])C3(C([H])([H])[H])C([H])(c4c([H])oc(=O)c([H])c4[H])C([H])(OC(=O)C([H])([H])[H])C([H])([H])C3(C([H])([H])[H])C2([H])C1([H])[H]

$$$$
83:0:2
     RDKit          3D

 80 85  0  0  1  0  0  0  0  0999 V2000
    1.2217    0.8375    2.0711 C   0  0  0  0  0  0  0  0  0  0  0  0
    2.5909    0.9732    2.7226 C   0  0  0  0  0  0  0  0  0  0  0  0
    2.9175    2.0333    3.2820 O   0  0  0  0  0  0  0  0  0  0  0  0
    3.3877   -0.1235    2.6566 O   0  0  0  0  0  0  0  0  0  0  0  0
    2.9101   -1.3950    2.2314 C   0  0  2  0  0  0  0  0  0  0  0  0
    2.0979   -2.0519    3.3660 C   0  0  0  0  0  0  0  0  0  0  0  0
    3.0109   -3.1864    3.8447 C   0  0  1  0  0  0  0  0  0  0  0  0
    4.0352   -2.4440    4.8293 C   0  0  0  0  0  0  0  0  0  0  0  0
    2.3179   -4.3545    4.6293 C   0  0  1  0  0  0  0  0  0  0  0  0
    1.0240   -4.9969    4.0345 C   0  0  0  0  0  0  0  0  0  0  0  0
    0.6771   -6.2855    4.7588 C   0  0  0  0  0  0  0  0  0  0  0  0
    1.4781   -6.9725    5.6195 C   0  0  0  0  0  0  0  0  0  0  0  0
    0.9781   -8.2066    6.3690 C   0  0  0  0  0  0  0  0  0  0  0  0
    1.9890   -9.3643    6.4345 C   0  0  1  0  0  0  0  0  0  0  0  0
    2.1278   -9.9906    5.0718 N   0  0  0  0  0  0  0  0  0  0  0  0
    3.1524  -11.0095    4.9305 C   0  0  0  0  0  0  0  0  0  0  0  0
    2.9031  -11.6136    3.5491 C   0  0  0  0  0  0  0  0  0  0  0  0
    1.4219  -11.3302    3.2721 C   0  0  0  0  0  0  0  0  0  0  0  0
    0.9178  -10.5796    4.4967 C   0  0  0  0  0  0  0  0  0  0  0  0
    3.3581   -8.8600    6.9380 C   0  0  0  0  0  0  0  0  0  0  0  0
    3.8936   -7.7252    6.0518 C   0  0  0  0  0  0  0  0  0  0  0  0
    2.9026   -6.5301    5.9824 C   0  0  2  0  0  0  0  0  0  0  0  0
    2.8069   -5.8761    7.3853 C   0  0  0  0  0  0  0  0  0  0  0  0
    3.4282   -5.4093    5.0284 C   0  0  1  0  0  0  0  0  0  0  0  0
    4.2455   -5.8569    3.7784 C   0  0  0  0  0  0  0  0  0  0  0  0
    4.8244   -4.6820    2.9310 C   0  0  0  0  0  0  0  0  0  0  0  0
    3.6821   -3.7024    2.5105 C   0  0  1  0  0  0  0  0  0  0  0  0
    2.7099   -4.4566    1.5116 C   0  0  0  0  0  0  0  0  0  0  0  0
    4.0990   -2.3373    1.8350 C   0  0  1  0  0  0  0  0  0  0  0  0
    4.3734   -2.4105    0.3164 C   0  0  0  0  0  0  0  0  0  0  0  0
    5.0144   -3.5662   -0.3023 C   0  0  0  0  0  0  0  0  0  0  0  0
    5.0461   -3.7280   -1.6181 C   0  0  0  0  0  0  0  0  0  0  0  0
    4.5007   -2.7075   -2.5590 C   0  0  0  0  0  0  0  0  0  0  0  0
    4.5766   -2.8362   -3.7730 O   0  0  0  0  0  0  0  0  0  0  0  0
    3.9407   -1.6000   -1.9402 O   0  0  0  0  0  0  0  0  0  0  0  0
    3.8774   -1.4732   -0.5606 C   0  0  0  0  0  0  0  0  0  0  0  0
    1.3338    0.5696    1.0146 H   0  0  0  0  0  0  0  0  0  0  0  0
    0.6406    1.7589    2.1169 H   0  0  0  0  0  0  0  0  0  0  0  0
    0.6441    0.0476    2.5609 H   0  0  0  0  0  0  0  0  0  0  0  0
    2.2345   -1.3143    1.3998 H   0  0  0  0  0  0  0  0  0  0  0  0
    1.7927   -1.3715    4.1693 H   0  0  0  0  0  0  0  0  0  0  0  0
    1.1563   -2.4256    2.9712 H   0  0  0  0  0  0  0  0  0  0  0  0
    4.9055   -3.0395    5.1216 H   0  0  0  0  0  0  0  0  0  0  0  0
    3.5481   -2.1282    5.7680 H   0  0  0  0  0  0  0  0  0  0  0  0
    4.5019   -1.5443    4.3930 H   0  0  0  0  0  0  0  0  0  0  0  0
    2.0143   -3.8857    5.5803 H   0  0  0  0  0  0  0  0  0  0  0  0
    0.1953   -4.2833    4.1187 H   0  0  0  0  0  0  0  0  0  0  0  0
    1.0547   -5.4098    3.0610 H   0  0  0  0  0  0  0  0  0  0  0  0
   -0.3012   -6.7048    4.5256 H   0  0  0  0  0  0  0  0  0  0  0  0
    0.7529   -7.8494    7.3591 H   0  0  0  0  0  0  0  0  0  0  0  0
    0.0091   -8.4827    5.9584 H   0  0  0  0  0  0  0  0  0  0  0  0
    1.5976  -10.1202    7.1183 H   0  0  0  0  0  0  0  0  0  0  0  0
    4.1751  -10.6273    5.0028 H   0  0  0  0  0  0  0  0  0  0  0  0
    2.9957  -11.7569    5.7226 H   0  0  0  0  0  0  0  0  0  0  0  0
    3.5337  -11.1146    2.8082 H   0  0  0  0  0  0  0  0  0  0  0  0
    3.1460  -12.6723    3.5463 H   0  0  0  0  0  0  0  0  0  0  0  0
    1.3288  -10.6770    2.4024 H   0  0  0  0  0  0  0  0  0  0  0  0
    0.8430  -12.2305    3.1098 H   0  0  0  0  0  0  0  0  0  0  0  0
    0.5040  -11.2763    5.2419 H   0  0  0  0  0  0  0  0  0  0  0  0
    0.1514   -9.8425    4.2381 H   0  0  0  0  0  0  0  0  0  0  0  0
    3.2589   -8.5352    7.9653 H   0  0  0  0  0  0  0  0  0  0  0  0
    4.0915   -9.6539    7.0112 H   0  0  0  0  0  0  0  0  0  0  0  0
    4.8633   -7.3815    6.4074 H   0  0  0  0  0  0  0  0  0  0  0  0
    4.0847   -8.1121    5.0540 H   0  0  0  0  0  0  0  0  0  0  0  0
    3.7829   -5.5188    7.7402 H   0  0  0  0  0  0  0  0  0  0  0  0
    2.4195   -6.5583    8.1425 H   0  0  0  0  0  0  0  0  0  0  0  0
    2.0999   -5.0346    7.3999 H   0  0  0  0  0  0  0  0  0  0  0  0
    4.2211   -4.9471    5.6284 H   0  0  0  0  0  0  0  0  0  0  0  0
    5.1156   -6.4611    4.0375 H   0  0  0  0  0  0  0  0  0  0  0  0
    3.6347   -6.5189    3.1600 H   0  0  0  0  0  0  0  0  0  0  0  0
    5.6268   -4.1553    3.4636 H   0  0  0  0  0  0  0  0  0  0  0  0
    5.3187   -5.1398    2.0847 H   0  0  0  0  0  0  0  0  0  0  0  0
    3.0718   -4.6232    0.5015 H   0  0  0  0  0  0  0  0  0  0  0  0
    1.8216   -3.8371    1.3477 H   0  0  0  0  0  0  0  0  0  0  0  0
    2.4497   -5.4653    1.8240 H   0  0  0  0  0  0  0  0  0  0  0  0
    5.0383   -1.9724    2.2650 H   0  0  0  0  0  0  0  0  0  0  0  0
    5.3519   -4.4395    0.2545 H   0  0  0  0  0  0  0  0  0  0  0  0
    5.3637   -4.6504   -2.0515 H   0  0  0  0  0  0  0  0  0  0  0  0
    3.3239   -0.5996   -0.2435 H   0  0  0  0  0  0  0  0  0  0  0  0
    2.4110   -9.2328    4.4368 H   0  0  0  0  0  0  0  0  0  0  0  0
  1  2  1  0
  1 37  1  0
  1 38  1  0
  1 39  1  0
  2  3  2  0
  2  4  1  0
  4  5  1  0
  5 29  1  0
  5  6  1  0
  5 40  1  6
  6  7  1  0
  6 41  1  0
  6 42  1  0
  7 27  1  0
  7  8  1  1
  7  9  1  0
  8 43  1  0
  8 44  1  0
  8 45  1  0
  9 24  1  0
  9 10  1  0
  9 46  1  1
 10 11  1  0
 10 47  1  0
 10 48  1  0
 11 12  2  0
 11 49  1  0
 12 22  1  0
 12 13  1  0
 13 14  1  0
 13 50  1  0
 13 51  1  0
 14 15  1  0
 14 20  1  0
 14 52  1  1
 15 19  1  0
 15 16  1  0
 15 80  1  0
 16 17  1  0
 16 53  1  0
 16 54  1  0
 17 18  1  0
 17 55  1  0
 17 56  1  0
 18 19  1  0
 18 57  1  0
 18 58  1  0
 19 59  1  0
 19 60  1  0
 20 21  1  0
 20 61  1  0
 20 62  1  0
 21 22  1  0
 21 63  1  0
 21 64  1  0
 22 23  1  1
 22 24  1  0
 23 65  1  0
 23 66  1  0
 23 67  1  0
 24 25  1  0
 24 68  1  1
 25 26  1  0
 25 69  1  0
 25 70  1  0
 26 27  1  0
 26 71  1  0
 26 72  1  0
 27 28  1  6
 27 29  1  0
 28 73  1  0
 28 74  1  0
 28 75  1  0
 29 30  1  0
 29 76  1  1
 30 36  2  0
 30 31  1  0
 31 32  2  0
 31 77  1  0
 32 33  1  0
 32 78  1  0
 33 34  2  0
 33 35  1  0
 35 36  1  0
 36 79  1  0
M  CHG  1  15   1
M  END
>  <i_m_ct_stereo_status>  (296) 
1

>  <s_m_source_file>  (296) 
/var/tmp/pbs.5083856.sched01/tmpktt3_xv9/115zij5tp5b.sdf

>  <i_m_source_file_index>  (296) 
3

>  <i_lp_mmshare_version>  (296) 
48012

>  <i_f3d_flags>  (296) 
0

>  <s_epik_input>  (296) 
W2NIXTFvYyg9TylbY0hdW2NIXWMxW0NAQEhdKFtDQEBIXShbQ0gyXTIpT0MoPU8pW0NIM10pW0NAQF0zKFtDSDNdKVtDSDJdW0NIMl1bQ0BASF0oW0NASF00W0NAXTIzW0NIM10pW0NAQF01KFtDSDNdKUMoPVtDSF1bQ0gyXTQpW0NIMl1bQ0BIXShbQ0gyXVtDSDJdNSlONltDSDJdW0NIMl1bQ0gyXVtDSDJdNg==

>  <s_epik_cmdline>  (296) 
J2VwaWtfcHl0aG9uJywgJy1waHQnLCAnMi4wJywgJy1waCcsICc3LjAnLCAnLXRuJywgJzgnLCAnLW1hJywgJzIwMCcsICctaW1hZScsICc8aW5maWxlLm1hZT4nLCAnLW9tYWUnLCAnPG91dGZpbGUubWFlPic=

>  <r_lp_tautomer_probability>  (296) 
1

>  <r_epik_Ionization_Penalty>  (296) 
0.000165155

>  <r_epik_Ionization_Penalty_Charging>  (296) 
0.000165145

>  <r_epik_Ionization_Penalty_Neutral>  (296) 
9.40885e-09

>  <r_epik_State_Penalty>  (296) 
-0

>  <r_epik_Charging_Adjusted_Penalty>  (296) 
0.000165145

>  <i_epik_Tot_Q>  (296) 
1

>  <i_epik_Tot_abs_Q>  (296) 
1

>  <s_epik_Chemistry_Notes>  (296) 
This compound has an ester and may undergo hydrolysis at high or low pH.

>  <s_lp_Force_Field>  (296) 
OPLS3e

>  <r_lp_Energy>  (296) 
79.037

>  <b_lp_Chiralities_Consistent>  (296) 
1

>  <s_lp_Variant>  (296) 
83:0-1

>  <s_i_glide_gridfile>  (296) 
pfpi4k_grid

>  <i_i_glide_lignum>  (296) 
3

>  <i_i_glide_rotatable_bonds>  (296) 
4

>  <r_i_docking_score>  (296) 
-2.65641

>  <r_i_glide_ligand_efficiency>  (296) 
-0.0737892

>  <r_i_glide_ligand_efficiency_sa>  (296) 
-0.243646

>  <r_i_glide_ligand_efficiency_ln>  (296) 
-0.579557

>  <r_i_glide_gscore>  (296) 
-2.65641

>  <r_i_glide_lipo>  (296) 
-0.346325

>  <r_i_glide_hbond>  (296) 
-0.00611188

>  <r_i_glide_metal>  (296) 
-0

>  <r_i_glide_rewards>  (296) 
-0.041627

>  <r_i_glide_evdw>  (296) 
-34.7021

>  <r_i_glide_ecoul>  (296) 
-5.89404

>  <r_i_glide_erotb>  (296) 
0.249845

>  <r_i_glide_esite>  (296) 
-0.0386846

>  <r_i_glide_emodel>  (296) 
-41.2797

>  <r_i_glide_energy>  (296) 
-40.5961

>  <r_i_glide_einternal>  (296) 
6.7695

>  <r_i_glide_intrahb_reward>  (296) 
-0

>  <i_i_glide_confnum>  (296) 
1

>  <i_i_glide_posenum>  (296) 
5

>  <r_i_glide_eff_state_penalty>  (296) 
0

>  <ligand_id>  (296) 
83

>  <original_smiles>  (296) 
CC(=O)OC1CC2(C)C3CC=C4CC(N5CCCC5)CCC4(C)C3CCC2(C)C1c1ccc(=O)oc1

>  <smiles>  (296) 
[H]C1=C2C([H])([H])C([H])([N+]3([H])C([H])([H])C([H])([H])C([H])([H])C3([H])[H])C([H])([H])C([H])([H])C2(C([H])([H])[H])C2([H])C([H])([H])C([H])([H])C3(C([H])([H])[H])C([H])(c4c([H])oc(=O)c([H])c4[H])C([H])(OC(=O)C([H])([H])[H])C([H])([H])C3(C([H])([H])[H])C2([H])C1([H])[H]

$$$$
86:0:0
     RDKit          3D

 40 43  0  0  1  0  0  0  0  0999 V2000
    2.6257   -4.3238   -0.0984 C   0  0  0  0  0  0  0  0  0  0  0  0
    3.8349   -3.5438   -0.6450 C   0  0  1  0  0  0  0  0  0  0  0  0
    5.0130   -4.5117   -0.8479 C   0  0  0  0  0  0  0  0  0  0  0  0
    5.5420   -5.0854    0.4709 C   0  0  0  0  0  0  0  0  0  0  0  0
    6.2111   -3.9720    1.2575 C   0  0  0  0  0  0  0  0  0  0  0  0
    5.3483   -2.6850    1.4564 C   0  0  1  0  0  0  0  0  0  0  0  0
    4.6852   -2.7516    2.8549 C   0  0  0  0  0  0  0  0  0  0  0  0
    6.2315   -1.4011    1.4205 C   0  0  1  0  0  0  0  0  0  0  0  0
    7.3593   -1.4537    0.5576 O   0  0  0  0  0  0  0  0  0  0  0  0
    5.3494   -0.2913    0.8758 C   0  0  0  0  0  0  0  0  0  0  0  0
    4.4475   -0.9751   -0.1540 C   0  0  1  0  0  0  0  0  0  0  0  0
    4.9629   -0.9141   -1.6079 C   0  0  0  0  0  0  0  0  0  0  0  0
    4.0430   -1.7011   -2.4468 C   0  0  0  0  0  0  0  0  0  0  0  0
    3.4966   -1.4936   -3.6789 C   0  0  0  0  0  0  0  0  0  0  0  0
    2.6876   -2.5797   -3.9193 N   0  0  0  0  0  0  0  0  0  0  0  0
    2.6723   -3.4449   -2.8905 N   0  0  0  0  0  0  0  0  0  0  0  0
    3.4823   -2.9123   -1.9847 C   0  0  0  0  0  0  0  0  0  0  0  0
    4.2175   -2.4142    0.3938 C   0  0  1  0  0  0  0  0  0  0  0  0
    2.1230   -2.7245   -4.7571 H   0  0  0  0  0  0  0  0  0  0  0  0
    2.7694   -4.6764    0.9224 H   0  0  0  0  0  0  0  0  0  0  0  0
    2.4088   -5.1906   -0.7225 H   0  0  0  0  0  0  0  0  0  0  0  0
    1.7653   -3.6717   -0.1233 H   0  0  0  0  0  0  0  0  0  0  0  0
    4.7176   -5.3265   -1.5086 H   0  0  0  0  0  0  0  0  0  0  0  0
    5.8260   -3.9909   -1.3532 H   0  0  0  0  0  0  0  0  0  0  0  0
    4.7685   -5.5844    1.0505 H   0  0  0  0  0  0  0  0  0  0  0  0
    6.2823   -5.8546    0.2520 H   0  0  0  0  0  0  0  0  0  0  0  0
    6.5130   -4.3703    2.2232 H   0  0  0  0  0  0  0  0  0  0  0  0
    7.1511   -3.7788    0.7505 H   0  0  0  0  0  0  0  0  0  0  0  0
    4.1177   -1.8472    3.0716 H   0  0  0  0  0  0  0  0  0  0  0  0
    5.4187   -2.8510    3.6547 H   0  0  0  0  0  0  0  0  0  0  0  0
    3.9937   -3.5887    2.9367 H   0  0  0  0  0  0  0  0  0  0  0  0
    6.6072   -1.1479    2.4127 H   0  0  0  0  0  0  0  0  0  0  0  0
    7.9508   -0.7804    0.8562 H   0  0  0  0  0  0  0  0  0  0  0  0
    4.7342    0.0992    1.6878 H   0  0  0  0  0  0  0  0  0  0  0  0
    5.9215    0.5446    0.4847 H   0  0  0  0  0  0  0  0  0  0  0  0
    3.4806   -0.4665   -0.1432 H   0  0  0  0  0  0  0  0  0  0  0  0
    5.0065    0.1089   -1.9615 H   0  0  0  0  0  0  0  0  0  0  0  0
    5.9677   -1.3276   -1.6691 H   0  0  0  0  0  0  0  0  0  0  0  0
    3.6105   -0.6889   -4.3848 H   0  0  0  0  0  0  0  0  0  0  0  0
    3.3012   -2.2650    0.9696 H   0  0  0  0  0  0  0  0  0  0  0  0
  2  1  1  1
  1 20  1  0
  1 21  1  0
  1 22  1  0
  2 17  1  0
  2 18  1  0
  2  3  1  0
  3  4  1  0
  3 23  1  0
  3 24  1  0
  4  5  1  0
  4 25  1  0
  4 26  1  0
  5  6  1  0
  5 27  1  0
  5 28  1  0
  6 18  1  0
  6  7  1  1
  6  8  1  0
  7 29  1  0
  7 30  1  0
  7 31  1  0
  8  9  1  0
  8 10  1  0
  8 32  1  1
  9 33  1  0
 10 11  1  0
 10 34  1  0
 10 35  1  0
 11 12  1  0
 11 18  1  0
 11 36  1  6
 12 13  1  0
 12 37  1  0
 12 38  1  0
 13 17  1  0
 13 14  2  0
 14 15  1  0
 14 39  1  0
 15 19  1  0
 15 16  1  0
 16 17  2  0
 18 40  1  1
M  END
>  <i_m_ct_stereo_status>  (297) 
1

>  <s_m_source_file>  (297) 
/var/tmp/pbs.5083856.sched01/tmpavn6uaiu/120a7lu6gm5.sdf

>  <i_m_source_file_index>  (297) 
1

>  <i_lp_mmshare_version>  (297) 
48012

>  <i_f3d_flags>  (297) 
0

>  <s_epik_input>  (297) 
W0NIM11bQ0BdMTJjM2MoW2NIXVtuSF1uMylbQ0gyXVtDQEhdNFtDQEBIXTJbQ0BdKFtDSDNdKShbQ0BASF0oW09IXSlbQ0gyXTQpW0NIMl1bQ0gyXVtDSDJdMQ==

>  <s_epik_cmdline>  (297) 
J2VwaWtfcHl0aG9uJywgJy1waHQnLCAnMi4wJywgJy1waCcsICc3LjAnLCAnLXRuJywgJzgnLCAnLW1hJywgJzIwMCcsICctaW1hZScsICc8aW5maWxlLm1hZT4nLCAnLW9tYWUnLCAnPG91dGZpbGUubWFlPic=

>  <r_lp_tautomer_probability>  (297) 
0.5

>  <r_epik_Ionization_Penalty>  (297) 
0.0108428

>  <r_epik_Ionization_Penalty_Charging>  (297) 
0

>  <r_epik_Ionization_Penalty_Neutral>  (297) 
0.0108428

>  <r_epik_State_Penalty>  (297) 
0.395368

>  <r_epik_Charging_Adjusted_Penalty>  (297) 
0.395368

>  <i_epik_Tot_Q>  (297) 
0

>  <i_epik_Tot_abs_Q>  (297) 
0

>  <s_lp_Force_Field>  (297) 
OPLS3e

>  <r_lp_Energy>  (297) 
37.4364

>  <b_lp_Chiralities_Consistent>  (297) 
1

>  <s_lp_Variant>  (297) 
86:0-1

>  <s_i_glide_gridfile>  (297) 
pfpi4k_grid

>  <i_i_glide_lignum>  (297) 
1

>  <i_i_glide_rotatable_bonds>  (297) 
1

>  <r_i_docking_score>  (297) 
-4.31143

>  <r_i_glide_ligand_efficiency>  (297) 
-0.239524

>  <r_i_glide_ligand_efficiency_sa>  (297) 
-0.62773

>  <r_i_glide_ligand_efficiency_ln>  (297) 
-1.10823

>  <r_i_glide_gscore>  (297) 
-4.31143

>  <r_i_glide_lipo>  (297) 
-0.839575

>  <r_i_glide_hbond>  (297) 
-0.432579

>  <r_i_glide_metal>  (297) 
-0

>  <r_i_glide_rewards>  (297) 
-1.72945

>  <r_i_glide_evdw>  (297) 
-23.1121

>  <r_i_glide_ecoul>  (297) 
-1.02815

>  <r_i_glide_erotb>  (297) 
0

>  <r_i_glide_esite>  (297) 
0

>  <r_i_glide_emodel>  (297) 
-28.9176

>  <r_i_glide_energy>  (297) 
-24.1402

>  <r_i_glide_einternal>  (297) 
0.637903

>  <r_i_glide_intrahb_reward>  (297) 
-0

>  <i_i_glide_confnum>  (297) 
1

>  <i_i_glide_posenum>  (297) 
17

>  <r_i_glide_eff_state_penalty>  (297) 
0

>  <ligand_id>  (297) 
86

>  <original_smiles>  (297) 
CC12CCCC3(C)C(O)CC(Cc4c[nH]nc41)C23

>  <smiles>  (297) 
[H]OC1([H])C([H])([H])C2([H])C([H])([H])c3c(nn([H])c3[H])C3(C([H])([H])[H])C([H])([H])C([H])([H])C([H])([H])C1(C([H])([H])[H])C23[H]

$$$$
86:0:1
     RDKit          3D

 40 43  0  0  1  0  0  0  0  0999 V2000
    2.6761   -4.2511    0.0186 C   0  0  0  0  0  0  0  0  0  0  0  0
    3.8822   -3.5382   -0.6356 C   0  0  1  0  0  0  0  0  0  0  0  0
    5.0051   -4.5639   -0.8996 C   0  0  0  0  0  0  0  0  0  0  0  0
    5.6072   -5.1284    0.3893 C   0  0  0  0  0  0  0  0  0  0  0  0
    6.3812   -4.0316    1.0978 C   0  0  0  0  0  0  0  0  0  0  0  0
    5.5932   -2.6986    1.3192 C   0  0  1  0  0  0  0  0  0  0  0  0
    5.0279   -2.7058    2.7624 C   0  0  0  0  0  0  0  0  0  0  0  0
    6.5259   -1.4594    1.1775 C   0  0  1  0  0  0  0  0  0  0  0  0
    7.5632   -1.5950    0.2177 O   0  0  0  0  0  0  0  0  0  0  0  0
    5.6405   -0.3339    0.6761 C   0  0  0  0  0  0  0  0  0  0  0  0
    4.6336   -0.9902   -0.2667 C   0  0  1  0  0  0  0  0  0  0  0  0
    5.0393   -0.9729   -1.7536 C   0  0  0  0  0  0  0  0  0  0  0  0
    4.0318   -1.7474   -2.4990 C   0  0  0  0  0  0  0  0  0  0  0  0
    3.4079   -1.5578   -3.6939 C   0  0  0  0  0  0  0  0  0  0  0  0
    2.5402   -2.6181   -3.8365 N   0  0  0  0  0  0  0  0  0  0  0  0
    2.5695   -3.4520   -2.7870 N   0  0  0  0  0  0  0  0  0  0  0  0
    3.4597   -2.9254   -1.9591 C   0  0  0  0  0  0  0  0  0  0  0  0
    4.3953   -2.4067    0.3361 C   0  0  1  0  0  0  0  0  0  0  0  0
    1.9037   -2.7582   -4.6107 H   0  0  0  0  0  0  0  0  0  0  0  0
    2.8972   -4.5940    1.0304 H   0  0  0  0  0  0  0  0  0  0  0  0
    2.3918   -5.1286   -0.5646 H   0  0  0  0  0  0  0  0  0  0  0  0
    1.8218   -3.5919    0.0659 H   0  0  0  0  0  0  0  0  0  0  0  0
    4.6274   -5.3810   -1.5124 H   0  0  0  0  0  0  0  0  0  0  0  0
    5.7994   -4.0949   -1.4815 H   0  0  0  0  0  0  0  0  0  0  0  0
    4.8605   -5.5798    1.0367 H   0  0  0  0  0  0  0  0  0  0  0  0
    6.2970   -5.9346    0.1341 H   0  0  0  0  0  0  0  0  0  0  0  0
    6.7437   -4.4194    2.0476 H   0  0  0  0  0  0  0  0  0  0  0  0
    7.2812   -3.9079    0.5058 H   0  0  0  0  0  0  0  0  0  0  0  0
    4.5177   -1.7719    2.9957 H   0  0  0  0  0  0  0  0  0  0  0  0
    5.8112   -2.8189    3.5090 H   0  0  0  0  0  0  0  0  0  0  0  0
    4.3096   -3.5097    2.9173 H   0  0  0  0  0  0  0  0  0  0  0  0
    6.9794   -1.1722    2.1249 H   0  0  0  0  0  0  0  0  0  0  0  0
    8.1325   -2.2863    0.5133 H   0  0  0  0  0  0  0  0  0  0  0  0
    5.1083    0.1037    1.5230 H   0  0  0  0  0  0  0  0  0  0  0  0
    6.2240    0.4629    0.2198 H   0  0  0  0  0  0  0  0  0  0  0  0
    3.6978   -0.4292   -0.1949 H   0  0  0  0  0  0  0  0  0  0  0  0
    5.1000    0.0469   -2.1298 H   0  0  0  0  0  0  0  0  0  0  0  0
    6.0187   -1.4272   -1.8854 H   0  0  0  0  0  0  0  0  0  0  0  0
    3.4976   -0.7759   -4.4372 H   0  0  0  0  0  0  0  0  0  0  0  0
    3.5303   -2.2017    0.9730 H   0  0  0  0  0  0  0  0  0  0  0  0
  2  1  1  1
  1 20  1  0
  1 21  1  0
  1 22  1  0
  2 17  1  0
  2 18  1  0
  2  3  1  0
  3  4  1  0
  3 23  1  0
  3 24  1  0
  4  5  1  0
  4 25  1  0
  4 26  1  0
  5  6  1  0
  5 27  1  0
  5 28  1  0
  6 18  1  0
  6  7  1  1
  6  8  1  0
  7 29  1  0
  7 30  1  0
  7 31  1  0
  8  9  1  0
  8 10  1  0
  8 32  1  1
  9 33  1  0
 10 11  1  0
 10 34  1  0
 10 35  1  0
 11 12  1  0
 11 18  1  0
 11 36  1  6
 12 13  1  0
 12 37  1  0
 12 38  1  0
 13 17  1  0
 13 14  2  0
 14 15  1  0
 14 39  1  0
 15 19  1  0
 15 16  1  0
 16 17  2  0
 18 40  1  1
M  END
>  <i_m_ct_stereo_status>  (298) 
1

>  <s_m_source_file>  (298) 
/var/tmp/pbs.5083856.sched01/tmpavn6uaiu/120a7lu6gm5.sdf

>  <i_m_source_file_index>  (298) 
1

>  <i_lp_mmshare_version>  (298) 
48012

>  <i_f3d_flags>  (298) 
0

>  <s_epik_input>  (298) 
W0NIM11bQ0BdMTJjM2MoW2NIXVtuSF1uMylbQ0gyXVtDQEhdNFtDQEBIXTJbQ0BdKFtDSDNdKShbQ0BASF0oW09IXSlbQ0gyXTQpW0NIMl1bQ0gyXVtDSDJdMQ==

>  <s_epik_cmdline>  (298) 
J2VwaWtfcHl0aG9uJywgJy1waHQnLCAnMi4wJywgJy1waCcsICc3LjAnLCAnLXRuJywgJzgnLCAnLW1hJywgJzIwMCcsICctaW1hZScsICc8aW5maWxlLm1hZT4nLCAnLW9tYWUnLCAnPG91dGZpbGUubWFlPic=

>  <r_lp_tautomer_probability>  (298) 
0.5

>  <r_epik_Ionization_Penalty>  (298) 
0.0108428

>  <r_epik_Ionization_Penalty_Charging>  (298) 
0

>  <r_epik_Ionization_Penalty_Neutral>  (298) 
0.0108428

>  <r_epik_State_Penalty>  (298) 
0.395368

>  <r_epik_Charging_Adjusted_Penalty>  (298) 
0.395368

>  <i_epik_Tot_Q>  (298) 
0

>  <i_epik_Tot_abs_Q>  (298) 
0

>  <s_lp_Force_Field>  (298) 
OPLS3e

>  <r_lp_Energy>  (298) 
37.4364

>  <b_lp_Chiralities_Consistent>  (298) 
1

>  <s_lp_Variant>  (298) 
86:0-1

>  <s_i_glide_gridfile>  (298) 
pfpi4k_grid

>  <i_i_glide_lignum>  (298) 
1

>  <i_i_glide_rotatable_bonds>  (298) 
1

>  <r_i_docking_score>  (298) 
-3.88741

>  <r_i_glide_ligand_efficiency>  (298) 
-0.215967

>  <r_i_glide_ligand_efficiency_sa>  (298) 
-0.565994

>  <r_i_glide_ligand_efficiency_ln>  (298) 
-0.999238

>  <r_i_glide_gscore>  (298) 
-3.88741

>  <r_i_glide_lipo>  (298) 
-0.775214

>  <r_i_glide_hbond>  (298) 
-0.286477

>  <r_i_glide_metal>  (298) 
-0

>  <r_i_glide_rewards>  (298) 
-1.72945

>  <r_i_glide_evdw>  (298) 
-21.7936

>  <r_i_glide_ecoul>  (298) 
-0.0439475

>  <r_i_glide_erotb>  (298) 
0

>  <r_i_glide_esite>  (298) 
0

>  <r_i_glide_emodel>  (298) 
-26.3886

>  <r_i_glide_energy>  (298) 
-21.8375

>  <r_i_glide_einternal>  (298) 
0.309203

>  <r_i_glide_intrahb_reward>  (298) 
-0

>  <i_i_glide_confnum>  (298) 
1

>  <i_i_glide_posenum>  (298) 
13

>  <r_i_glide_eff_state_penalty>  (298) 
0

>  <ligand_id>  (298) 
86

>  <original_smiles>  (298) 
CC12CCCC3(C)C(O)CC(Cc4c[nH]nc41)C23

>  <smiles>  (298) 
[H]OC1([H])C([H])([H])C2([H])C([H])([H])c3c(nn([H])c3[H])C3(C([H])([H])[H])C([H])([H])C([H])([H])C([H])([H])C1(C([H])([H])[H])C23[H]

$$$$
86:0:2
     RDKit          3D

 40 43  0  0  1  0  0  0  0  0999 V2000
    1.8135   -3.8477   -1.1226 C   0  0  0  0  0  0  0  0  0  0  0  0
    3.1837   -3.2066   -0.7953 C   0  0  1  0  0  0  0  0  0  0  0  0
    4.3179   -4.2276   -0.8944 C   0  0  0  0  0  0  0  0  0  0  0  0
    4.1969   -5.3247    0.1610 C   0  0  0  0  0  0  0  0  0  0  0  0
    4.5124   -4.7176    1.5190 C   0  0  0  0  0  0  0  0  0  0  0  0
    3.6856   -3.4335    1.8714 C   0  0  1  0  0  0  0  0  0  0  0  0
    2.4990   -3.8384    2.7751 C   0  0  0  0  0  0  0  0  0  0  0  0
    4.5355   -2.4119    2.6732 C   0  0  1  0  0  0  0  0  0  0  0  0
    5.8673   -2.3822    2.2487 O   0  0  0  0  0  0  0  0  0  0  0  0
    4.0271   -1.0228    2.3205 C   0  0  0  0  0  0  0  0  0  0  0  0
    3.6149   -1.1450    0.8505 C   0  0  1  0  0  0  0  0  0  0  0  0
    4.7064   -0.7160   -0.1359 C   0  0  0  0  0  0  0  0  0  0  0  0
    4.2202   -0.9991   -1.5381 C   0  0  0  0  0  0  0  0  0  0  0  0
    4.2174   -0.3200   -2.7119 C   0  0  0  0  0  0  0  0  0  0  0  0
    3.5426   -1.0945   -3.6321 N   0  0  0  0  0  0  0  0  0  0  0  0
    3.1451   -2.2685   -3.1142 N   0  0  0  0  0  0  0  0  0  0  0  0
    3.4671   -2.1532   -1.8285 C   0  0  0  0  0  0  0  0  0  0  0  0
    3.1228   -2.5997    0.6612 C   0  0  1  0  0  0  0  0  0  0  0  0
    3.3126   -0.8020   -4.5758 H   0  0  0  0  0  0  0  0  0  0  0  0
    1.5277   -4.5695   -0.3711 H   0  0  0  0  0  0  0  0  0  0  0  0
    1.7982   -4.3324   -2.0838 H   0  0  0  0  0  0  0  0  0  0  0  0
    1.0355   -3.0960   -1.1919 H   0  0  0  0  0  0  0  0  0  0  0  0
    4.3352   -4.6357   -1.9011 H   0  0  0  0  0  0  0  0  0  0  0  0
    5.2802   -3.7282   -0.7778 H   0  0  0  0  0  0  0  0  0  0  0  0
    3.2252   -5.8223    0.1569 H   0  0  0  0  0  0  0  0  0  0  0  0
    4.9162   -6.1117   -0.0498 H   0  0  0  0  0  0  0  0  0  0  0  0
    4.3446   -5.4741    2.2751 H   0  0  0  0  0  0  0  0  0  0  0  0
    5.5962   -4.5660    1.5298 H   0  0  0  0  0  0  0  0  0  0  0  0
    1.9330   -2.9642    3.0968 H   0  0  0  0  0  0  0  0  0  0  0  0
    2.8321   -4.3441    3.6789 H   0  0  0  0  0  0  0  0  0  0  0  0
    1.8114   -4.5001    2.2548 H   0  0  0  0  0  0  0  0  0  0  0  0
    4.5271   -2.5979    3.7440 H   0  0  0  0  0  0  0  0  0  0  0  0
    6.3404   -1.7505    2.7785 H   0  0  0  0  0  0  0  0  0  0  0  0
    3.1503   -0.8035    2.9285 H   0  0  0  0  0  0  0  0  0  0  0  0
    4.7560   -0.2227    2.5041 H   0  0  0  0  0  0  0  0  0  0  0  0
    2.7750   -0.4734    0.6727 H   0  0  0  0  0  0  0  0  0  0  0  0
    4.8980    0.3279    0.0724 H   0  0  0  0  0  0  0  0  0  0  0  0
    5.6410   -1.2387    0.0380 H   0  0  0  0  0  0  0  0  0  0  0  0
    4.5991    0.6653   -2.9515 H   0  0  0  0  0  0  0  0  0  0  0  0
    2.0553   -2.4656    0.8641 H   0  0  0  0  0  0  0  0  0  0  0  0
  2  1  1  6
  1 20  1  0
  1 21  1  0
  1 22  1  0
  2 17  1  0
  2 18  1  0
  2  3  1  0
  3  4  1  0
  3 23  1  0
  3 24  1  0
  4  5  1  0
  4 25  1  0
  4 26  1  0
  5  6  1  0
  5 27  1  0
  5 28  1  0
  6 18  1  0
  6  7  1  1
  6  8  1  0
  7 29  1  0
  7 30  1  0
  7 31  1  0
  8  9  1  0
  8 10  1  0
  8 32  1  1
  9 33  1  0
 10 11  1  0
 10 34  1  0
 10 35  1  0
 11 12  1  0
 11 18  1  0
 11 36  1  1
 12 13  1  0
 12 37  1  0
 12 38  1  0
 13 17  1  0
 13 14  2  0
 14 15  1  0
 14 39  1  0
 15 19  1  0
 15 16  1  0
 16 17  2  0
 18 40  1  1
M  END
>  <i_m_ct_stereo_status>  (299) 
1

>  <s_m_source_file>  (299) 
/var/tmp/pbs.5083856.sched01/tmpavn6uaiu/120a7lu6gm5.sdf

>  <i_m_source_file_index>  (299) 
1

>  <i_lp_mmshare_version>  (299) 
48012

>  <i_f3d_flags>  (299) 
0

>  <s_epik_input>  (299) 
W0NIM11bQ0BdMTJjM2MoW2NIXVtuSF1uMylbQ0gyXVtDQEhdNFtDQEBIXTJbQ0BdKFtDSDNdKShbQ0BASF0oW09IXSlbQ0gyXTQpW0NIMl1bQ0gyXVtDSDJdMQ==

>  <s_epik_cmdline>  (299) 
J2VwaWtfcHl0aG9uJywgJy1waHQnLCAnMi4wJywgJy1waCcsICc3LjAnLCAnLXRuJywgJzgnLCAnLW1hJywgJzIwMCcsICctaW1hZScsICc8aW5maWxlLm1hZT4nLCAnLW9tYWUnLCAnPG91dGZpbGUubWFlPic=

>  <r_lp_tautomer_probability>  (299) 
0.5

>  <r_epik_Ionization_Penalty>  (299) 
0.0108428

>  <r_epik_Ionization_Penalty_Charging>  (299) 
0

>  <r_epik_Ionization_Penalty_Neutral>  (299) 
0.0108428

>  <r_epik_State_Penalty>  (299) 
0.395368

>  <r_epik_Charging_Adjusted_Penalty>  (299) 
0.395368

>  <i_epik_Tot_Q>  (299) 
0

>  <i_epik_Tot_abs_Q>  (299) 
0

>  <s_lp_Force_Field>  (299) 
OPLS3e

>  <r_lp_Energy>  (299) 
37.4364

>  <b_lp_Chiralities_Consistent>  (299) 
1

>  <s_lp_Variant>  (299) 
86:0-1

>  <s_i_glide_gridfile>  (299) 
pfpi4k_grid

>  <i_i_glide_lignum>  (299) 
1

>  <i_i_glide_rotatable_bonds>  (299) 
1

>  <r_i_docking_score>  (299) 
-2.89526

>  <r_i_glide_ligand_efficiency>  (299) 
-0.160848

>  <r_i_glide_ligand_efficiency_sa>  (299) 
-0.421541

>  <r_i_glide_ligand_efficiency_ln>  (299) 
-0.744212

>  <r_i_glide_gscore>  (299) 
-2.89526

>  <r_i_glide_lipo>  (299) 
-0.292137

>  <r_i_glide_hbond>  (299) 
0

>  <r_i_glide_metal>  (299) 
-0

>  <r_i_glide_rewards>  (299) 
-1.72945

>  <r_i_glide_evdw>  (299) 
-18.3556

>  <r_i_glide_ecoul>  (299) 
0.294001

>  <r_i_glide_erotb>  (299) 
0

>  <r_i_glide_esite>  (299) 
0

>  <r_i_glide_emodel>  (299) 
-21.1666

>  <r_i_glide_energy>  (299) 
-18.0616

>  <r_i_glide_einternal>  (299) 
0.320686

>  <r_i_glide_intrahb_reward>  (299) 
-0

>  <i_i_glide_confnum>  (299) 
1

>  <i_i_glide_posenum>  (299) 
29

>  <r_i_glide_eff_state_penalty>  (299) 
0

>  <ligand_id>  (299) 
86

>  <original_smiles>  (299) 
CC12CCCC3(C)C(O)CC(Cc4c[nH]nc41)C23

>  <smiles>  (299) 
[H]OC1([H])C([H])([H])C2([H])C([H])([H])c3c(nn([H])c3[H])C3(C([H])([H])[H])C([H])([H])C([H])([H])C([H])([H])C1(C([H])([H])[H])C23[H]

$$$$
86:1:0
     RDKit          3D

 40 43  0  0  1  0  0  0  0  0999 V2000
    5.0238   -3.1384    2.8545 C   0  0  0  0  0  0  0  0  0  0  0  0
    5.3945   -3.4809    1.3884 C   0  0  1  0  0  0  0  0  0  0  0  0
    6.8776   -3.1397    1.2384 C   0  0  0  0  0  0  0  0  0  0  0  0
    7.4130   -3.3552   -0.1631 C   0  0  0  0  0  0  0  0  0  0  0  0
    6.7074   -2.3980   -1.1037 C   0  0  0  0  0  0  0  0  0  0  0  0
    5.1572   -2.3193   -1.0028 C   0  0  1  0  0  0  0  0  0  0  0  0
    4.7824   -0.8884   -1.4103 C   0  0  0  0  0  0  0  0  0  0  0  0
    4.4333   -3.2461   -1.9851 C   0  0  1  0  0  0  0  0  0  0  0  0
    5.0147   -4.5183   -1.9780 O   0  0  0  0  0  0  0  0  0  0  0  0
    3.0015   -3.3339   -1.4509 C   0  0  0  0  0  0  0  0  0  0  0  0
    3.0864   -3.1956    0.0796 C   0  0  1  0  0  0  0  0  0  0  0  0
    2.6922   -4.5311    0.7612 C   0  0  0  0  0  0  0  0  0  0  0  0
    3.8832   -5.4171    0.9097 C   0  0  0  0  0  0  0  0  0  0  0  0
    4.0881   -6.8200    0.8050 C   0  0  0  0  0  0  0  0  0  0  0  0
    5.3476   -7.1695    1.0191 N   0  0  0  0  0  0  0  0  0  0  0  0
    5.9685   -5.9970    1.2748 N   0  0  0  0  0  0  0  0  0  0  0  0
    5.1107   -4.9271    1.1846 C   0  0  0  0  0  0  0  0  0  0  0  0
    4.5199   -2.6160    0.4042 C   0  0  1  0  0  0  0  0  0  0  0  0
    6.9615   -5.9634    1.4431 H   0  0  0  0  0  0  0  0  0  0  0  0
    5.2019   -2.0894    3.0890 H   0  0  0  0  0  0  0  0  0  0  0  0
    5.6222   -3.7329    3.5487 H   0  0  0  0  0  0  0  0  0  0  0  0
    3.9774   -3.3578    3.0715 H   0  0  0  0  0  0  0  0  0  0  0  0
    7.0098   -2.0897    1.5069 H   0  0  0  0  0  0  0  0  0  0  0  0
    7.4723   -3.7489    1.9172 H   0  0  0  0  0  0  0  0  0  0  0  0
    8.4864   -3.1487   -0.1871 H   0  0  0  0  0  0  0  0  0  0  0  0
    7.2882   -4.3878   -0.4647 H   0  0  0  0  0  0  0  0  0  0  0  0
    7.1152   -1.4364   -0.8245 H   0  0  0  0  0  0  0  0  0  0  0  0
    7.0267   -2.6001   -2.1278 H   0  0  0  0  0  0  0  0  0  0  0  0
    3.7051   -0.7110   -1.3766 H   0  0  0  0  0  0  0  0  0  0  0  0
    5.1343   -0.6321   -2.4116 H   0  0  0  0  0  0  0  0  0  0  0  0
    5.2420   -0.2115   -0.6970 H   0  0  0  0  0  0  0  0  0  0  0  0
    4.4502   -2.8745   -3.0161 H   0  0  0  0  0  0  0  0  0  0  0  0
    4.3725   -5.1404   -2.3052 H   0  0  0  0  0  0  0  0  0  0  0  0
    2.4206   -2.5087   -1.8576 H   0  0  0  0  0  0  0  0  0  0  0  0
    2.4821   -4.2369   -1.7645 H   0  0  0  0  0  0  0  0  0  0  0  0
    2.3379   -2.4530    0.3587 H   0  0  0  0  0  0  0  0  0  0  0  0
    2.3010   -4.2910    1.7518 H   0  0  0  0  0  0  0  0  0  0  0  0
    1.8813   -5.0310    0.2351 H   0  0  0  0  0  0  0  0  0  0  0  0
    3.3706   -7.5873    0.5568 H   0  0  0  0  0  0  0  0  0  0  0  0
    4.3975   -1.6528    0.9000 H   0  0  0  0  0  0  0  0  0  0  0  0
  2  1  1  1
  1 20  1  0
  1 21  1  0
  1 22  1  0
  2 18  1  0
  2  3  1  0
  2 17  1  0
  3  4  1  0
  3 23  1  0
  3 24  1  0
  4  5  1  0
  4 25  1  0
  4 26  1  0
  5  6  1  0
  5 27  1  0
  5 28  1  0
  6 18  1  0
  6  7  1  6
  6  8  1  0
  7 29  1  0
  7 30  1  0
  7 31  1  0
  8  9  1  0
  8 10  1  0
  8 32  1  6
  9 33  1  0
 10 11  1  0
 10 34  1  0
 10 35  1  0
 11 12  1  0
 11 18  1  0
 11 36  1  1
 12 37  1  0
 12 38  1  0
 12 13  1  0
 13 17  2  0
 13 14  1  0
 14 39  1  0
 14 15  2  0
 15 16  1  0
 16 19  1  0
 16 17  1  0
 18 40  1  1
M  END
>  <i_m_ct_stereo_status>  (300) 
1

>  <s_m_source_file>  (300) 
/var/tmp/pbs.5083856.sched01/tmpavn6uaiu/120a7lu6gm5.sdf

>  <i_m_source_file_index>  (300) 
2

>  <i_lp_mmshare_version>  (300) 
48012

>  <i_f3d_flags>  (300) 
0

>  <s_epik_input>  (300) 
W0NIM11bQ0BdMTJjM2MoW2NIXVtuSF1uMylbQ0gyXVtDQEhdNFtDQEBIXTJbQ0BdKFtDSDNdKShbQ0BASF0oW09IXSlbQ0gyXTQpW0NIMl1bQ0gyXVtDSDJdMQ==

>  <s_epik_cmdline>  (300) 
J2VwaWtfcHl0aG9uJywgJy1waHQnLCAnMi4wJywgJy1waCcsICc3LjAnLCAnLXRuJywgJzgnLCAnLW1hJywgJzIwMCcsICctaW1hZScsICc8aW5maWxlLm1hZT4nLCAnLW9tYWUnLCAnPG91dGZpbGUubWFlPic=

>  <r_lp_tautomer_probability>  (300) 
0.5

>  <r_epik_Ionization_Penalty>  (300) 
0.0131176

>  <r_epik_Ionization_Penalty_Charging>  (300) 
0

>  <r_epik_Ionization_Penalty_Neutral>  (300) 
0.0131176

>  <r_epik_State_Penalty>  (300) 
0.435919

>  <r_epik_Charging_Adjusted_Penalty>  (300) 
0.435919

>  <i_epik_Tot_Q>  (300) 
0

>  <i_epik_Tot_abs_Q>  (300) 
0

>  <s_lp_Force_Field>  (300) 
OPLS3e

>  <r_lp_Energy>  (300) 
32.2644

>  <b_lp_Chiralities_Consistent>  (300) 
1

>  <s_lp_Variant>  (300) 
86:0-2

>  <s_i_glide_gridfile>  (300) 
pfpi4k_grid

>  <i_i_glide_lignum>  (300) 
2

>  <i_i_glide_rotatable_bonds>  (300) 
1

>  <r_i_docking_score>  (300) 
-4.08676

>  <r_i_glide_ligand_efficiency>  (300) 
-0.227042

>  <r_i_glide_ligand_efficiency_sa>  (300) 
-0.595018

>  <r_i_glide_ligand_efficiency_ln>  (300) 
-1.05048

>  <r_i_glide_gscore>  (300) 
-4.08676

>  <r_i_glide_lipo>  (300) 
-0.64248

>  <r_i_glide_hbond>  (300) 
-0.32

>  <r_i_glide_metal>  (300) 
-0

>  <r_i_glide_rewards>  (300) 
-1.72945

>  <r_i_glide_evdw>  (300) 
-14.388

>  <r_i_glide_ecoul>  (300) 
-4.50288

>  <r_i_glide_erotb>  (300) 
0

>  <r_i_glide_esite>  (300) 
0

>  <r_i_glide_emodel>  (300) 
-22.9073

>  <r_i_glide_energy>  (300) 
-18.8908

>  <r_i_glide_einternal>  (300) 
0.61633

>  <r_i_glide_intrahb_reward>  (300) 
-0

>  <i_i_glide_confnum>  (300) 
2

>  <i_i_glide_posenum>  (300) 
2

>  <r_i_glide_eff_state_penalty>  (300) 
0

>  <ligand_id>  (300) 
86

>  <original_smiles>  (300) 
CC12CCCC3(C)C(O)CC(Cc4c[nH]nc41)C23

>  <smiles>  (300) 
[H]OC1([H])C([H])([H])C2([H])C([H])([H])c3c([H])nn([H])c3C3(C([H])([H])[H])C([H])([H])C([H])([H])C([H])([H])C1(C([H])([H])[H])C23[H]

$$$$
86:1:1
     RDKit          3D

 40 43  0  0  1  0  0  0  0  0999 V2000
    5.7086   -0.9679    2.0793 C   0  0  0  0  0  0  0  0  0  0  0  0
    5.7632   -2.0490    0.9814 C   0  0  1  0  0  0  0  0  0  0  0  0
    7.1916   -2.0190    0.4207 C   0  0  0  0  0  0  0  0  0  0  0  0
    7.3967   -2.9943   -0.7295 C   0  0  0  0  0  0  0  0  0  0  0  0
    6.5247   -2.5753   -1.9044 C   0  0  0  0  0  0  0  0  0  0  0  0
    5.0437   -2.2318   -1.5812 C   0  0  1  0  0  0  0  0  0  0  0  0
    4.6059   -1.1603   -2.6088 C   0  0  0  0  0  0  0  0  0  0  0  0
    4.1259   -3.4499   -1.7684 C   0  0  1  0  0  0  0  0  0  0  0  0
    4.6341   -4.6319   -1.2007 O   0  0  0  0  0  0  0  0  0  0  0  0
    2.8441   -3.0868   -1.0377 C   0  0  0  0  0  0  0  0  0  0  0  0
    3.2519   -2.1904    0.1447 C   0  0  1  0  0  0  0  0  0  0  0  0
    2.9658   -2.9082    1.4891 C   0  0  0  0  0  0  0  0  0  0  0  0
    4.1309   -3.7443    1.8668 C   0  0  0  0  0  0  0  0  0  0  0  0
    4.2650   -5.0333    2.4660 C   0  0  0  0  0  0  0  0  0  0  0  0
    5.5331   -5.3934    2.5960 N   0  0  0  0  0  0  0  0  0  0  0  0
    6.2175   -4.3498    2.0843 N   0  0  0  0  0  0  0  0  0  0  0  0
    5.3961   -3.3530    1.6164 C   0  0  0  0  0  0  0  0  0  0  0  0
    4.7205   -1.7016   -0.1398 C   0  0  1  0  0  0  0  0  0  0  0  0
    7.2252   -4.3574    2.0416 H   0  0  0  0  0  0  0  0  0  0  0  0
    5.9323    0.0270    1.6831 H   0  0  0  0  0  0  0  0  0  0  0  0
    6.4439   -1.1759    2.8585 H   0  0  0  0  0  0  0  0  0  0  0  0
    4.7316   -0.9137    2.5641 H   0  0  0  0  0  0  0  0  0  0  0  0
    7.4180   -1.0035    0.0815 H   0  0  0  0  0  0  0  0  0  0  0  0
    7.9100   -2.2382    1.2015 H   0  0  0  0  0  0  0  0  0  0  0  0
    8.4419   -2.9771   -1.0444 H   0  0  0  0  0  0  0  0  0  0  0  0
    7.1840   -4.0213   -0.4287 H   0  0  0  0  0  0  0  0  0  0  0  0
    7.0004   -1.6982   -2.3164 H   0  0  0  0  0  0  0  0  0  0  0  0
    6.5835   -3.3325   -2.6830 H   0  0  0  0  0  0  0  0  0  0  0  0
    3.5643   -0.8565   -2.4865 H   0  0  0  0  0  0  0  0  0  0  0  0
    4.7259   -1.5192   -3.6329 H   0  0  0  0  0  0  0  0  0  0  0  0
    5.2060   -0.2569   -2.4958 H   0  0  0  0  0  0  0  0  0  0  0  0
    3.9227   -3.6483   -2.8211 H   0  0  0  0  0  0  0  0  0  0  0  0
    4.1070   -5.3308   -1.5681 H   0  0  0  0  0  0  0  0  0  0  0  0
    2.2281   -2.5152   -1.7261 H   0  0  0  0  0  0  0  0  0  0  0  0
    2.2516   -3.9611   -0.7564 H   0  0  0  0  0  0  0  0  0  0  0  0
    2.6121   -1.3099    0.1235 H   0  0  0  0  0  0  0  0  0  0  0  0
    2.8008   -2.1461    2.2480 H   0  0  0  0  0  0  0  0  0  0  0  0
    2.0478   -3.4908    1.4530 H   0  0  0  0  0  0  0  0  0  0  0  0
    3.4834   -5.7160    2.7777 H   0  0  0  0  0  0  0  0  0  0  0  0
    4.7124   -0.6083   -0.2062 H   0  0  0  0  0  0  0  0  0  0  0  0
  2  1  1  1
  1 20  1  0
  1 21  1  0
  1 22  1  0
  2 18  1  0
  2  3  1  0
  2 17  1  0
  3  4  1  0
  3 23  1  0
  3 24  1  0
  4  5  1  0
  4 25  1  0
  4 26  1  0
  5  6  1  0
  5 27  1  0
  5 28  1  0
  6 18  1  0
  6  7  1  6
  6  8  1  0
  7 29  1  0
  7 30  1  0
  7 31  1  0
  8  9  1  0
  8 10  1  0
  8 32  1  6
  9 33  1  0
 10 11  1  0
 10 34  1  0
 10 35  1  0
 11 12  1  0
 11 18  1  0
 11 36  1  1
 12 37  1  0
 12 38  1  0
 12 13  1  0
 13 17  2  0
 13 14  1  0
 14 39  1  0
 14 15  2  0
 15 16  1  0
 16 19  1  0
 16 17  1  0
 18 40  1  6
M  END
>  <i_m_ct_stereo_status>  (301) 
1

>  <s_m_source_file>  (301) 
/var/tmp/pbs.5083856.sched01/tmpavn6uaiu/120a7lu6gm5.sdf

>  <i_m_source_file_index>  (301) 
2

>  <i_lp_mmshare_version>  (301) 
48012

>  <i_f3d_flags>  (301) 
0

>  <s_epik_input>  (301) 
W0NIM11bQ0BdMTJjM2MoW2NIXVtuSF1uMylbQ0gyXVtDQEhdNFtDQEBIXTJbQ0BdKFtDSDNdKShbQ0BASF0oW09IXSlbQ0gyXTQpW0NIMl1bQ0gyXVtDSDJdMQ==

>  <s_epik_cmdline>  (301) 
J2VwaWtfcHl0aG9uJywgJy1waHQnLCAnMi4wJywgJy1waCcsICc3LjAnLCAnLXRuJywgJzgnLCAnLW1hJywgJzIwMCcsICctaW1hZScsICc8aW5maWxlLm1hZT4nLCAnLW9tYWUnLCAnPG91dGZpbGUubWFlPic=

>  <r_lp_tautomer_probability>  (301) 
0.5

>  <r_epik_Ionization_Penalty>  (301) 
0.0131176

>  <r_epik_Ionization_Penalty_Charging>  (301) 
0

>  <r_epik_Ionization_Penalty_Neutral>  (301) 
0.0131176

>  <r_epik_State_Penalty>  (301) 
0.435919

>  <r_epik_Charging_Adjusted_Penalty>  (301) 
0.435919

>  <i_epik_Tot_Q>  (301) 
0

>  <i_epik_Tot_abs_Q>  (301) 
0

>  <s_lp_Force_Field>  (301) 
OPLS3e

>  <r_lp_Energy>  (301) 
32.2644

>  <b_lp_Chiralities_Consistent>  (301) 
1

>  <s_lp_Variant>  (301) 
86:0-2

>  <s_i_glide_gridfile>  (301) 
pfpi4k_grid

>  <i_i_glide_lignum>  (301) 
2

>  <i_i_glide_rotatable_bonds>  (301) 
1

>  <r_i_docking_score>  (301) 
-3.90281

>  <r_i_glide_ligand_efficiency>  (301) 
-0.216823

>  <r_i_glide_ligand_efficiency_sa>  (301) 
-0.568237

>  <r_i_glide_ligand_efficiency_ln>  (301) 
-1.0032

>  <r_i_glide_gscore>  (301) 
-3.90281

>  <r_i_glide_lipo>  (301) 
-0.329434

>  <r_i_glide_hbond>  (301) 
-0.32

>  <r_i_glide_metal>  (301) 
-0

>  <r_i_glide_rewards>  (301) 
-1.72945

>  <r_i_glide_evdw>  (301) 
-17.0117

>  <r_i_glide_ecoul>  (301) 
-4.48901

>  <r_i_glide_erotb>  (301) 
0

>  <r_i_glide_esite>  (301) 
0

>  <r_i_glide_emodel>  (301) 
-25.4084

>  <r_i_glide_energy>  (301) 
-21.5007

>  <r_i_glide_einternal>  (301) 
0.511126

>  <r_i_glide_intrahb_reward>  (301) 
-0

>  <i_i_glide_confnum>  (301) 
1

>  <i_i_glide_posenum>  (301) 
10

>  <r_i_glide_eff_state_penalty>  (301) 
0

>  <ligand_id>  (301) 
86

>  <original_smiles>  (301) 
CC12CCCC3(C)C(O)CC(Cc4c[nH]nc41)C23

>  <smiles>  (301) 
[H]OC1([H])C([H])([H])C2([H])C([H])([H])c3c([H])nn([H])c3C3(C([H])([H])[H])C([H])([H])C([H])([H])C([H])([H])C1(C([H])([H])[H])C23[H]

$$$$
86:1:2
     RDKit          3D

 40 43  0  0  1  0  0  0  0  0999 V2000
    3.0033   -2.3225    2.2847 C   0  0  0  0  0  0  0  0  0  0  0  0
    4.1131   -2.6362    1.2356 C   0  0  1  0  0  0  0  0  0  0  0  0
    5.3750   -1.9105    1.7649 C   0  0  0  0  0  0  0  0  0  0  0  0
    6.5340   -2.0467    0.7969 C   0  0  0  0  0  0  0  0  0  0  0  0
    6.1713   -1.3360   -0.5023 C   0  0  0  0  0  0  0  0  0  0  0  0
    4.8178   -1.6991   -1.1670 C   0  0  1  0  0  0  0  0  0  0  0  0
    4.3933   -0.4980   -1.9926 C   0  0  0  0  0  0  0  0  0  0  0  0
    4.9278   -2.7991   -2.2150 C   0  0  1  0  0  0  0  0  0  0  0  0
    5.6943   -3.8644   -1.7282 O   0  0  0  0  0  0  0  0  0  0  0  0
    3.4880   -3.2447   -2.4237 C   0  0  0  0  0  0  0  0  0  0  0  0
    2.7583   -3.0706   -1.0620 C   0  0  1  0  0  0  0  0  0  0  0  0
    2.3795   -4.3934   -0.3888 C   0  0  0  0  0  0  0  0  0  0  0  0
    3.5017   -4.9205    0.4261 C   0  0  0  0  0  0  0  0  0  0  0  0
    4.0119   -6.2331    0.6339 C   0  0  0  0  0  0  0  0  0  0  0  0
    5.0526   -6.2279    1.4553 N   0  0  0  0  0  0  0  0  0  0  0  0
    5.1954   -4.9190    1.7972 N   0  0  0  0  0  0  0  0  0  0  0  0
    4.2722   -4.1148    1.1578 C   0  0  0  0  0  0  0  0  0  0  0  0
    3.6538   -2.0816   -0.1890 C   0  0  1  0  0  0  0  0  0  0  0  0
    5.9442   -4.6208    2.3993 H   0  0  0  0  0  0  0  0  0  0  0  0
    2.8301   -1.2570    2.3801 H   0  0  0  0  0  0  0  0  0  0  0  0
    3.2975   -2.7162    3.2565 H   0  0  0  0  0  0  0  0  0  0  0  0
    2.0634   -2.7977    2.0044 H   0  0  0  0  0  0  0  0  0  0  0  0
    5.1628   -0.8414    1.8757 H   0  0  0  0  0  0  0  0  0  0  0  0
    5.6662   -2.2735    2.7525 H   0  0  0  0  0  0  0  0  0  0  0  0
    7.4165   -1.5718    1.2151 H   0  0  0  0  0  0  0  0  0  0  0  0
    6.8084   -3.0904    0.6173 H   0  0  0  0  0  0  0  0  0  0  0  0
    6.2085   -0.2669   -0.3085 H   0  0  0  0  0  0  0  0  0  0  0  0
    6.9810   -1.5741   -1.2088 H   0  0  0  0  0  0  0  0  0  0  0  0
    3.4230   -0.5921   -2.5118 H   0  0  0  0  0  0  0  0  0  0  0  0
    5.1460   -0.1579   -2.6945 H   0  0  0  0  0  0  0  0  0  0  0  0
    4.2279    0.2533   -1.2344 H   0  0  0  0  0  0  0  0  0  0  0  0
    5.3653   -2.4515   -3.1587 H   0  0  0  0  0  0  0  0  0  0  0  0
    5.1115   -4.3835   -1.2095 H   0  0  0  0  0  0  0  0  0  0  0  0
    2.9856   -2.5905   -3.1359 H   0  0  0  0  0  0  0  0  0  0  0  0
    3.4329   -4.2359   -2.8507 H   0  0  0  0  0  0  0  0  0  0  0  0
    1.8057   -2.6594   -1.3443 H   0  0  0  0  0  0  0  0  0  0  0  0
    1.5617   -4.1918    0.2888 H   0  0  0  0  0  0  0  0  0  0  0  0
    1.9574   -5.0727   -1.1053 H   0  0  0  0  0  0  0  0  0  0  0  0
    3.6643   -7.1452    0.1927 H   0  0  0  0  0  0  0  0  0  0  0  0
    3.0899   -1.1765    0.0123 H   0  0  0  0  0  0  0  0  0  0  0  0
  2  1  1  1
  1 20  1  0
  1 21  1  0
  1 22  1  0
  2 18  1  0
  2  3  1  0
  2 17  1  0
  3  4  1  0
  3 23  1  0
  3 24  1  0
  4  5  1  0
  4 25  1  0
  4 26  1  0
  5  6  1  0
  5 27  1  0
  5 28  1  0
  6 18  1  0
  6  7  1  6
  6  8  1  0
  7 29  1  0
  7 30  1  0
  7 31  1  0
  8  9  1  0
  8 10  1  0
  8 32  1  6
  9 33  1  0
 10 11  1  0
 10 34  1  0
 10 35  1  0
 11 12  1  0
 11 18  1  0
 11 36  1  6
 12 37  1  0
 12 38  1  0
 12 13  1  0
 13 17  2  0
 13 14  1  0
 14 39  1  0
 14 15  2  0
 15 16  1  0
 16 19  1  0
 16 17  1  0
 18 40  1  1
M  END
>  <i_m_ct_stereo_status>  (302) 
1

>  <s_m_source_file>  (302) 
/var/tmp/pbs.5083856.sched01/tmpavn6uaiu/120a7lu6gm5.sdf

>  <i_m_source_file_index>  (302) 
2

>  <i_lp_mmshare_version>  (302) 
48012

>  <i_f3d_flags>  (302) 
0

>  <s_epik_input>  (302) 
W0NIM11bQ0BdMTJjM2MoW2NIXVtuSF1uMylbQ0gyXVtDQEhdNFtDQEBIXTJbQ0BdKFtDSDNdKShbQ0BASF0oW09IXSlbQ0gyXTQpW0NIMl1bQ0gyXVtDSDJdMQ==

>  <s_epik_cmdline>  (302) 
J2VwaWtfcHl0aG9uJywgJy1waHQnLCAnMi4wJywgJy1waCcsICc3LjAnLCAnLXRuJywgJzgnLCAnLW1hJywgJzIwMCcsICctaW1hZScsICc8aW5maWxlLm1hZT4nLCAnLW9tYWUnLCAnPG91dGZpbGUubWFlPic=

>  <r_lp_tautomer_probability>  (302) 
0.5

>  <r_epik_Ionization_Penalty>  (302) 
0.0131176

>  <r_epik_Ionization_Penalty_Charging>  (302) 
0

>  <r_epik_Ionization_Penalty_Neutral>  (302) 
0.0131176

>  <r_epik_State_Penalty>  (302) 
0.435919

>  <r_epik_Charging_Adjusted_Penalty>  (302) 
0.435919

>  <i_epik_Tot_Q>  (302) 
0

>  <i_epik_Tot_abs_Q>  (302) 
0

>  <s_lp_Force_Field>  (302) 
OPLS3e

>  <r_lp_Energy>  (302) 
32.2644

>  <b_lp_Chiralities_Consistent>  (302) 
1

>  <s_lp_Variant>  (302) 
86:0-2

>  <s_i_glide_gridfile>  (302) 
pfpi4k_grid

>  <i_i_glide_lignum>  (302) 
2

>  <i_i_glide_rotatable_bonds>  (302) 
1

>  <r_i_docking_score>  (302) 
-2.54881

>  <r_i_glide_ligand_efficiency>  (302) 
-0.141601

>  <r_i_glide_ligand_efficiency_sa>  (302) 
-0.371099

>  <r_i_glide_ligand_efficiency_ln>  (302) 
-0.655159

>  <r_i_glide_gscore>  (302) 
-2.54881

>  <r_i_glide_lipo>  (302) 
-0.365571

>  <r_i_glide_hbond>  (302) 
0

>  <r_i_glide_metal>  (302) 
-0

>  <r_i_glide_rewards>  (302) 
-1.72945

>  <r_i_glide_evdw>  (302) 
-6.39193

>  <r_i_glide_ecoul>  (302) 
-0.894656

>  <r_i_glide_erotb>  (302) 
0

>  <r_i_glide_esite>  (302) 
0

>  <r_i_glide_emodel>  (302) 
-8.19922

>  <r_i_glide_energy>  (302) 
-7.28659

>  <r_i_glide_einternal>  (302) 
0.556051

>  <r_i_glide_intrahb_reward>  (302) 
-0

>  <i_i_glide_confnum>  (302) 
2

>  <i_i_glide_posenum>  (302) 
27

>  <r_i_glide_eff_state_penalty>  (302) 
0

>  <ligand_id>  (302) 
86

>  <original_smiles>  (302) 
CC12CCCC3(C)C(O)CC(Cc4c[nH]nc41)C23

>  <smiles>  (302) 
[H]OC1([H])C([H])([H])C2([H])C([H])([H])c3c([H])nn([H])c3C3(C([H])([H])[H])C([H])([H])C([H])([H])C([H])([H])C1(C([H])([H])[H])C23[H]

$$$$
88:0:0
     RDKit          3D

 79 85  0  0  1  0  0  0  0  0999 V2000
    3.6011   -1.3067   -2.3641 C   0  0  0  0  0  0  0  0  0  0  0  0
    4.4582   -1.8687   -1.4943 C   0  0  0  0  0  0  0  0  0  0  0  0
    5.5225   -2.7822   -1.8997 C   0  0  0  0  0  0  0  0  0  0  0  0
    5.7284   -3.1963   -3.0388 O   0  0  0  0  0  0  0  0  0  0  0  0
    6.2173   -3.1071   -0.8105 O   0  0  0  0  0  0  0  0  0  0  0  0
    5.8452   -2.4099    0.3780 C   0  0  1  0  0  0  0  0  0  0  0  0
    4.5576   -1.6396   -0.0085 C   0  0  2  0  0  0  0  0  0  0  0  0
    3.3847   -2.1943    0.8676 C   0  0  1  0  0  0  0  0  0  0  0  0
    3.3609   -3.7057    0.5849 C   0  0  0  0  0  0  0  0  0  0  0  0
    4.4868   -4.4029    1.3623 C   0  0  2  0  0  0  0  0  0  0  0  0
    5.5620   -3.3360    1.5802 C   0  0  2  0  0  0  0  0  0  0  0  0
    5.0255   -2.4991    2.6238 O   0  0  0  0  0  0  0  0  0  0  0  0
    3.7008   -1.9635    2.3970 C   0  0  1  0  0  0  0  0  0  0  0  0
    3.9926   -0.4449    2.7343 C   0  0  0  0  0  0  0  0  0  0  0  0
    4.3210   -0.1639    4.2149 C   0  0  0  0  0  0  0  0  0  0  0  0
    2.9714    0.5857    2.2053 C   0  0  0  0  0  0  0  0  0  0  0  0
    2.6768   -2.6254    3.4559 C   0  0  1  0  0  0  0  0  0  0  0  0
    1.5619   -1.7749    3.6313 O   0  0  0  0  0  0  0  0  0  0  0  0
    2.0012   -4.0493    3.3194 C   0  0  0  0  0  0  0  0  0  0  0  0
    2.8851   -5.3341    3.3730 C   0  0  1  0  0  0  0  0  0  0  0  0
    2.1936   -6.6886    3.0340 C   0  0  0  0  0  0  0  0  0  0  0  0
    3.0039   -8.0625    2.8635 C   0  0  2  0  0  0  0  0  0  0  0  0
    2.2759   -9.2500    3.6053 C   0  0  0  0  0  0  0  0  0  0  0  0
    2.3266   -9.1265    5.1571 C   0  0  0  0  0  0  0  0  0  0  0  0
    0.7710   -9.3041    3.2102 C   0  0  0  0  0  0  0  0  0  0  0  0
    2.8510  -10.6178    3.1635 C   0  0  0  0  0  0  0  0  0  0  0  0
    4.3725  -10.7096    3.2840 C   0  0  1  0  0  0  0  0  0  0  0  0
    4.8361  -11.9827    2.8730 O   0  0  0  0  0  0  0  0  0  0  0  0
    5.0774   -9.5747    2.4973 C   0  0  1  0  0  0  0  0  0  0  0  0
    4.7934   -9.7500    1.1159 O   0  0  0  0  0  0  0  0  0  0  0  0
    4.6169   -8.1230    2.8823 C   0  0  2  0  0  0  0  0  0  0  0  0
    5.1623   -7.8526    4.3200 C   0  0  0  0  0  0  0  0  0  0  0  0
    5.3778   -7.1327    1.8699 C   0  0  0  0  0  0  0  0  0  0  0  0
    4.5471   -5.9593    1.4180 C   0  0  2  0  0  0  0  0  0  0  0  0
    3.5481   -6.3663    0.4837 O   0  0  0  0  0  0  0  0  0  0  0  0
    4.1541   -5.1388    2.6329 C   0  0  1  0  0  0  0  0  0  0  0  0
    5.2133   -5.0249    3.5901 O   0  0  0  0  0  0  0  0  0  0  0  0
    2.8246   -0.6496   -2.0196 H   0  0  0  0  0  0  0  0  0  0  0  0
    3.6570   -1.5099   -3.4238 H   0  0  0  0  0  0  0  0  0  0  0  0
    6.6344   -1.6993    0.6242 H   0  0  0  0  0  0  0  0  0  0  0  0
    4.6915   -0.5677    0.1258 H   0  0  0  0  0  0  0  0  0  0  0  0
    2.4379   -1.7383    0.5820 H   0  0  0  0  0  0  0  0  0  0  0  0
    2.3966   -4.1437    0.8206 H   0  0  0  0  0  0  0  0  0  0  0  0
    3.4491   -3.9431   -0.4713 H   0  0  0  0  0  0  0  0  0  0  0  0
    6.5064   -3.8014    1.8944 H   0  0  0  0  0  0  0  0  0  0  0  0
    4.9249   -0.1878    2.2309 H   0  0  0  0  0  0  0  0  0  0  0  0
    3.4431   -0.2606    4.8539 H   0  0  0  0  0  0  0  0  0  0  0  0
    4.6982    0.8534    4.3397 H   0  0  0  0  0  0  0  0  0  0  0  0
    5.0913   -0.8375    4.5912 H   0  0  0  0  0  0  0  0  0  0  0  0
    2.0061    0.5222    2.7068 H   0  0  0  0  0  0  0  0  0  0  0  0
    2.7990    0.4925    1.1321 H   0  0  0  0  0  0  0  0  0  0  0  0
    3.3370    1.6017    2.3709 H   0  0  0  0  0  0  0  0  0  0  0  0
    3.1933   -2.6407    4.4161 H   0  0  0  0  0  0  0  0  0  0  0  0
    1.1669   -1.6141    2.7919 H   0  0  0  0  0  0  0  0  0  0  0  0
    1.3272   -4.1463    4.1725 H   0  0  0  0  0  0  0  0  0  0  0  0
    1.3006   -4.0700    2.4897 H   0  0  0  0  0  0  0  0  0  0  0  0
    3.1367   -5.4338    4.4299 H   0  0  0  0  0  0  0  0  0  0  0  0
    1.4290   -6.8014    3.8001 H   0  0  0  0  0  0  0  0  0  0  0  0
    1.6096   -6.5524    2.1240 H   0  0  0  0  0  0  0  0  0  0  0  0
    2.7909   -8.3189    1.8262 H   0  0  0  0  0  0  0  0  0  0  0  0
    1.5992   -9.7805    5.6405 H   0  0  0  0  0  0  0  0  0  0  0  0
    2.1358   -8.1103    5.5030 H   0  0  0  0  0  0  0  0  0  0  0  0
    3.2918   -9.4195    5.5689 H   0  0  0  0  0  0  0  0  0  0  0  0
    0.3027  -10.2322    3.5438 H   0  0  0  0  0  0  0  0  0  0  0  0
    0.6536   -9.2632    2.1236 H   0  0  0  0  0  0  0  0  0  0  0  0
    0.1747   -8.4989    3.6366 H   0  0  0  0  0  0  0  0  0  0  0  0
    2.3923  -11.4205    3.7445 H   0  0  0  0  0  0  0  0  0  0  0  0
    2.5700  -10.7981    2.1261 H   0  0  0  0  0  0  0  0  0  0  0  0
    4.6395  -10.6716    4.3383 H   0  0  0  0  0  0  0  0  0  0  0  0
    4.6063  -12.1282    1.9439 H   0  0  0  0  0  0  0  0  0  0  0  0
    6.1528   -9.6765    2.6465 H   0  0  0  0  0  0  0  0  0  0  0  0
    4.6279  -10.6660    0.9006 H   0  0  0  0  0  0  0  0  0  0  0  0
    6.1722   -7.4413    4.3243 H   0  0  0  0  0  0  0  0  0  0  0  0
    5.2494   -8.7519    4.9269 H   0  0  0  0  0  0  0  0  0  0  0  0
    4.5100   -7.1848    4.8869 H   0  0  0  0  0  0  0  0  0  0  0  0
    6.3339   -6.7927    2.2753 H   0  0  0  0  0  0  0  0  0  0  0  0
    5.7124   -7.6178    0.9579 H   0  0  0  0  0  0  0  0  0  0  0  0
    3.8187   -6.1325   -0.3914 H   0  0  0  0  0  0  0  0  0  0  0  0
    5.3076   -5.8689    4.0076 H   0  0  0  0  0  0  0  0  0  0  0  0
  1  2  2  0
  1 38  1  0
  1 39  1  0
  2  7  1  0
  2  3  1  0
  3  4  2  0
  3  5  1  0
  5  6  1  0
  6 11  1  0
  6  7  1  0
  6 40  1  1
  7  8  1  0
  7 41  1  6
  8 13  1  0
  8  9  1  0
  8 42  1  6
 10  9  1  6
  9 43  1  0
  9 44  1  0
 10 34  1  0
 10 36  1  0
 10 11  1  0
 11 12  1  0
 11 45  1  1
 12 13  1  0
 13 14  1  6
 13 17  1  0
 14 15  1  0
 14 16  1  0
 14 46  1  0
 15 47  1  0
 15 48  1  0
 15 49  1  0
 16 50  1  0
 16 51  1  0
 16 52  1  0
 17 18  1  0
 17 19  1  0
 17 53  1  1
 18 54  1  0
 19 20  1  0
 19 55  1  0
 19 56  1  0
 20 36  1  0
 20 21  1  0
 20 57  1  1
 21 22  1  0
 21 58  1  0
 21 59  1  0
 22 31  1  0
 22 23  1  0
 22 60  1  6
 23 24  1  0
 23 25  1  0
 23 26  1  0
 24 61  1  0
 24 62  1  0
 24 63  1  0
 25 64  1  0
 25 65  1  0
 25 66  1  0
 26 27  1  0
 26 67  1  0
 26 68  1  0
 27 28  1  0
 27 29  1  0
 27 69  1  1
 28 70  1  0
 29 30  1  0
 29 31  1  0
 29 71  1  6
 30 72  1  0
 31 32  1  1
 31 33  1  0
 32 73  1  0
 32 74  1  0
 32 75  1  0
 33 34  1  0
 33 76  1  0
 33 77  1  0
 34 35  1  6
 34 36  1  0
 35 78  1  0
 36 37  1  1
 37 79  1  0
M  END
>  <i_m_ct_stereo_status>  (303) 
1

>  <s_m_source_file>  (303) 
/var/tmp/pbs.5083856.sched01/tmpavn6uaiu/120a7lu6gm5.sdf

>  <i_m_source_file_index>  (303) 
4

>  <i_lp_mmshare_version>  (303) 
48012

>  <i_f3d_flags>  (303) 
0

>  <s_epik_input>  (303) 
Tz1DKE8xKUMoPVtDSDJdKVtDQEhdKFtDQEhdMVtDQEBIXTJbQ0BAXTM0NSlbQ0BASF0oW0NIMl0zKVtDQEBdKE8yKShbQ0hdKFtDSDNdKVtDSDNdKVtDQEBIXShbT0hdKVtDSDJdW0NAQEhdNltDQEBdNShbT0hdKVtDQF00KFtPSF0pW0NIMl1bQ0BAXTcoW0NIM10pW0NASF0oW0NIMl02KUMoW0NIM10pKFtDSDNdKVtDSDJdW0NAQEhdKFtPSF0pW0NASF03W09IXQ==

>  <s_epik_cmdline>  (303) 
J2VwaWtfcHl0aG9uJywgJy1waHQnLCAnMi4wJywgJy1waCcsICc3LjAnLCAnLXRuJywgJzgnLCAnLW1hJywgJzIwMCcsICctaW1hZScsICc8aW5maWxlLm1hZT4nLCAnLW9tYWUnLCAnPG91dGZpbGUubWFlPic=

>  <r_lp_tautomer_probability>  (303) 
1

>  <r_epik_Ionization_Penalty>  (303) 
1.30174e-06

>  <r_epik_Ionization_Penalty_Charging>  (303) 
0

>  <r_epik_Ionization_Penalty_Neutral>  (303) 
1.30174e-06

>  <r_epik_State_Penalty>  (303) 
-0

>  <r_epik_Charging_Adjusted_Penalty>  (303) 
0

>  <i_epik_Tot_Q>  (303) 
0

>  <i_epik_Tot_abs_Q>  (303) 
0

>  <s_epik_Chemistry_Notes>  (303) 
This compound has an ester and may undergo hydrolysis at high or low pH.

>  <s_lp_Force_Field>  (303) 
OPLS3e

>  <r_lp_Energy>  (303) 
142.835

>  <b_lp_Chiralities_Consistent>  (303) 
1

>  <s_lp_Variant>  (303) 
88:0-1

>  <s_i_glide_gridfile>  (303) 
pfpi4k_grid

>  <i_i_glide_lignum>  (303) 
4

>  <i_i_glide_rotatable_bonds>  (303) 
6

>  <r_i_docking_score>  (303) 
-3.73085

>  <r_i_glide_ligand_efficiency>  (303) 
-0.100834

>  <r_i_glide_ligand_efficiency_sa>  (303) 
-0.336

>  <r_i_glide_ligand_efficiency_ln>  (303) 
-0.809133

>  <r_i_glide_gscore>  (303) 
-3.73085

>  <r_i_glide_lipo>  (303) 
-0.381185

>  <r_i_glide_hbond>  (303) 
-0.0490237

>  <r_i_glide_metal>  (303) 
-0

>  <r_i_glide_rewards>  (303) 
-0.0539214

>  <r_i_glide_evdw>  (303) 
-26.5912

>  <r_i_glide_ecoul>  (303) 
-12.781

>  <r_i_glide_erotb>  (303) 
0

>  <r_i_glide_esite>  (303) 
0

>  <r_i_glide_emodel>  (303) 
-48.1102

>  <r_i_glide_energy>  (303) 
-39.3723

>  <r_i_glide_einternal>  (303) 
1.81855

>  <r_i_glide_intrahb_reward>  (303) 
-0

>  <i_i_glide_confnum>  (303) 
1

>  <i_i_glide_posenum>  (303) 
25

>  <r_i_glide_eff_state_penalty>  (303) 
0

>  <ligand_id>  (303) 
88

>  <original_smiles>  (303) 
C=C1C(=O)OC2C1C1CC34C2OC1(C(C)C)C(O)CC1CC2C(C)(C)CC(O)C(O)C2(C)CC3(O)C14O

>  <smiles>  (303) 
[H]OC1([H])C([H])([H])C(C([H])([H])[H])(C([H])([H])[H])C2([H])C([H])([H])C3([H])C([H])([H])C([H])(O[H])C4(C([H])(C([H])([H])[H])C([H])([H])[H])OC5([H])C6([H])OC(=O)C(=C([H])[H])C6([H])C4([H])C([H])([H])C54C(O[H])(C([H])([H])C2(C([H])([H])[H])C1([H])O[H])C34O[H]

$$$$
88:0:1
     RDKit          3D

 79 85  0  0  1  0  0  0  0  0999 V2000
    4.0007   -1.1311   -2.0611 C   0  0  0  0  0  0  0  0  0  0  0  0
    4.6290   -1.8859   -1.1289 C   0  0  0  0  0  0  0  0  0  0  0  0
    5.5327   -2.9794   -1.4776 C   0  0  0  0  0  0  0  0  0  0  0  0
    5.7942   -3.3940   -2.6036 O   0  0  0  0  0  0  0  0  0  0  0  0
    6.0856   -3.4210   -0.3365 O   0  0  0  0  0  0  0  0  0  0  0  0
    5.7521   -2.6607    0.8226 C   0  0  1  0  0  0  0  0  0  0  0  0
    4.6657   -1.6590    0.3575 C   0  0  2  0  0  0  0  0  0  0  0  0
    3.3635   -1.9770    1.1587 C   0  0  1  0  0  0  0  0  0  0  0  0
    3.0508   -3.4562    0.8534 C   0  0  0  0  0  0  0  0  0  0  0  0
    3.9737   -4.3673    1.6768 C   0  0  2  0  0  0  0  0  0  0  0  0
    5.2319   -3.5472    1.9875 C   0  0  2  0  0  0  0  0  0  0  0  0
    4.7784   -2.6527    3.0289 O   0  0  0  0  0  0  0  0  0  0  0  0
    3.6324   -1.8147    2.7155 C   0  0  1  0  0  0  0  0  0  0  0  0
    4.1755   -0.3838    3.1229 C   0  0  0  0  0  0  0  0  0  0  0  0
    3.3848    0.8005    2.5346 C   0  0  0  0  0  0  0  0  0  0  0  0
    5.6975   -0.1204    2.9400 C   0  0  0  0  0  0  0  0  0  0  0  0
    2.4453   -2.2836    3.7101 C   0  0  1  0  0  0  0  0  0  0  0  0
    1.5035   -1.2431    3.8462 O   0  0  0  0  0  0  0  0  0  0  0  0
    1.4963   -3.5296    3.5059 C   0  0  0  0  0  0  0  0  0  0  0  0
    2.0847   -4.9744    3.5630 C   0  0  1  0  0  0  0  0  0  0  0  0
    1.1551   -6.1559    3.1419 C   0  0  0  0  0  0  0  0  0  0  0  0
    1.6885   -7.6638    2.9811 C   0  0  2  0  0  0  0  0  0  0  0  0
    0.6819   -8.6855    3.6524 C   0  0  0  0  0  0  0  0  0  0  0  0
    0.6523   -8.5966    5.2035 C   0  0  0  0  0  0  0  0  0  0  0  0
   -0.7663   -8.4347    3.1500 C   0  0  0  0  0  0  0  0  0  0  0  0
    1.0169  -10.1370    3.2103 C   0  0  0  0  0  0  0  0  0  0  0  0
    2.4826  -10.5260    3.4474 C   0  0  1  0  0  0  0  0  0  0  0  0
    2.7575  -11.8540    3.0530 O   0  0  0  0  0  0  0  0  0  0  0  0
    3.4468   -9.5733    2.7163 C   0  0  1  0  0  0  0  0  0  0  0  0
    3.2420   -9.7889    1.3197 O   0  0  0  0  0  0  0  0  0  0  0  0
    3.2562   -8.0568    3.1076 C   0  0  2  0  0  0  0  0  0  0  0  0
    3.7349   -7.9108    4.5859 C   0  0  0  0  0  0  0  0  0  0  0  0
    4.2558   -7.2277    2.1684 C   0  0  0  0  0  0  0  0  0  0  0  0
    3.6910   -5.8958    1.6897 C   0  0  2  0  0  0  0  0  0  0  0  0
    2.7225   -6.1011    0.6793 O   0  0  0  0  0  0  0  0  0  0  0  0
    3.4341   -5.0399    2.9125 C   0  0  1  0  0  0  0  0  0  0  0  0
    4.4012   -5.1421    3.9512 O   0  0  0  0  0  0  0  0  0  0  0  0
    3.4264   -0.2916   -1.7593 H   0  0  0  0  0  0  0  0  0  0  0  0
    4.1140   -1.3150   -3.1135 H   0  0  0  0  0  0  0  0  0  0  0  0
    6.6394   -2.1317    1.1540 H   0  0  0  0  0  0  0  0  0  0  0  0
    4.9371   -0.6201    0.4753 H   0  0  0  0  0  0  0  0  0  0  0  0
    2.5414   -1.3397    0.8382 H   0  0  0  0  0  0  0  0  0  0  0  0
    2.0190   -3.6942    1.0264 H   0  0  0  0  0  0  0  0  0  0  0  0
    3.1681   -3.7049   -0.2044 H   0  0  0  0  0  0  0  0  0  0  0  0
    6.0216   -4.1911    2.3689 H   0  0  0  0  0  0  0  0  0  0  0  0
    4.0483   -0.3487    4.2041 H   0  0  0  0  0  0  0  0  0  0  0  0
    3.5275    0.8926    1.4558 H   0  0  0  0  0  0  0  0  0  0  0  0
    3.7152    1.7338    2.9926 H   0  0  0  0  0  0  0  0  0  0  0  0
    2.3077    0.7670    2.6955 H   0  0  0  0  0  0  0  0  0  0  0  0
    6.0347   -0.0672    1.9184 H   0  0  0  0  0  0  0  0  0  0  0  0
    6.2743   -0.8904    3.4369 H   0  0  0  0  0  0  0  0  0  0  0  0
    6.0111    0.8035    3.4444 H   0  0  0  0  0  0  0  0  0  0  0  0
    2.8986   -2.3920    4.6988 H   0  0  0  0  0  0  0  0  0  0  0  0
    1.9709   -0.4248    3.9481 H   0  0  0  0  0  0  0  0  0  0  0  0
    0.7471   -3.4961    4.3009 H   0  0  0  0  0  0  0  0  0  0  0  0
    0.8855   -3.3694    2.6297 H   0  0  0  0  0  0  0  0  0  0  0  0
    2.2340   -5.1401    4.6389 H   0  0  0  0  0  0  0  0  0  0  0  0
    0.3369   -6.1239    3.8539 H   0  0  0  0  0  0  0  0  0  0  0  0
    0.6860   -5.8908    2.1985 H   0  0  0  0  0  0  0  0  0  0  0  0
    1.5086   -7.8603    1.9213 H   0  0  0  0  0  0  0  0  0  0  0  0
   -0.2265   -9.0989    5.6123 H   0  0  0  0  0  0  0  0  0  0  0  0
    0.6379   -7.5677    5.5607 H   0  0  0  0  0  0  0  0  0  0  0  0
    1.5030   -9.0803    5.6709 H   0  0  0  0  0  0  0  0  0  0  0  0
   -1.4233   -9.2569    3.4337 H   0  0  0  0  0  0  0  0  0  0  0  0
   -0.7927   -8.3598    2.0625 H   0  0  0  0  0  0  0  0  0  0  0  0
   -1.2157   -7.5327    3.5635 H   0  0  0  0  0  0  0  0  0  0  0  0
    0.3721  -10.8353    3.7437 H   0  0  0  0  0  0  0  0  0  0  0  0
    0.7690  -10.2547    2.1510 H   0  0  0  0  0  0  0  0  0  0  0  0
    2.6613  -10.5374    4.5158 H   0  0  0  0  0  0  0  0  0  0  0  0
    2.9167  -11.8661    2.1169 H   0  0  0  0  0  0  0  0  0  0  0  0
    4.4727   -9.8648    2.9521 H   0  0  0  0  0  0  0  0  0  0  0  0
    3.6188  -10.6310    1.0585 H   0  0  0  0  0  0  0  0  0  0  0  0
    4.8027   -7.7073    4.6697 H   0  0  0  0  0  0  0  0  0  0  0  0
    3.6009   -8.8076    5.1760 H   0  0  0  0  0  0  0  0  0  0  0  0
    3.1934   -7.1316    5.1213 H   0  0  0  0  0  0  0  0  0  0  0  0
    5.2300   -7.0900    2.6563 H   0  0  0  0  0  0  0  0  0  0  0  0
    4.5365   -7.7861    1.2767 H   0  0  0  0  0  0  0  0  0  0  0  0
    3.1885   -6.1297   -0.1485 H   0  0  0  0  0  0  0  0  0  0  0  0
    4.2811   -5.9932    4.3505 H   0  0  0  0  0  0  0  0  0  0  0  0
  1  2  2  0
  1 38  1  0
  1 39  1  0
  2  7  1  0
  2  3  1  0
  3  4  2  0
  3  5  1  0
  5  6  1  0
  6 11  1  0
  6  7  1  0
  6 40  1  1
  7  8  1  0
  7 41  1  6
  8 13  1  0
  8  9  1  0
  8 42  1  6
 10  9  1  6
  9 43  1  0
  9 44  1  0
 10 34  1  0
 10 36  1  0
 10 11  1  0
 11 12  1  0
 11 45  1  1
 12 13  1  0
 13 14  1  6
 13 17  1  0
 14 15  1  0
 14 16  1  0
 14 46  1  0
 15 47  1  0
 15 48  1  0
 15 49  1  0
 16 50  1  0
 16 51  1  0
 16 52  1  0
 17 18  1  0
 17 19  1  0
 17 53  1  1
 18 54  1  0
 19 20  1  0
 19 55  1  0
 19 56  1  0
 20 36  1  0
 20 21  1  0
 20 57  1  1
 21 22  1  0
 21 58  1  0
 21 59  1  0
 22 31  1  0
 22 23  1  0
 22 60  1  6
 23 24  1  0
 23 25  1  0
 23 26  1  0
 24 61  1  0
 24 62  1  0
 24 63  1  0
 25 64  1  0
 25 65  1  0
 25 66  1  0
 26 27  1  0
 26 67  1  0
 26 68  1  0
 27 28  1  0
 27 29  1  0
 27 69  1  1
 28 70  1  0
 29 30  1  0
 29 31  1  0
 29 71  1  1
 30 72  1  0
 31 32  1  1
 31 33  1  0
 32 73  1  0
 32 74  1  0
 32 75  1  0
 33 34  1  0
 33 76  1  0
 33 77  1  0
 34 35  1  6
 34 36  1  0
 35 78  1  0
 36 37  1  1
 37 79  1  0
M  END
>  <i_m_ct_stereo_status>  (304) 
1

>  <s_m_source_file>  (304) 
/var/tmp/pbs.5083856.sched01/tmpavn6uaiu/120a7lu6gm5.sdf

>  <i_m_source_file_index>  (304) 
4

>  <i_lp_mmshare_version>  (304) 
48012

>  <i_f3d_flags>  (304) 
0

>  <s_epik_input>  (304) 
Tz1DKE8xKUMoPVtDSDJdKVtDQEhdKFtDQEhdMVtDQEBIXTJbQ0BAXTM0NSlbQ0BASF0oW0NIMl0zKVtDQEBdKE8yKShbQ0hdKFtDSDNdKVtDSDNdKVtDQEBIXShbT0hdKVtDSDJdW0NAQEhdNltDQEBdNShbT0hdKVtDQF00KFtPSF0pW0NIMl1bQ0BAXTcoW0NIM10pW0NASF0oW0NIMl02KUMoW0NIM10pKFtDSDNdKVtDSDJdW0NAQEhdKFtPSF0pW0NASF03W09IXQ==

>  <s_epik_cmdline>  (304) 
J2VwaWtfcHl0aG9uJywgJy1waHQnLCAnMi4wJywgJy1waCcsICc3LjAnLCAnLXRuJywgJzgnLCAnLW1hJywgJzIwMCcsICctaW1hZScsICc8aW5maWxlLm1hZT4nLCAnLW9tYWUnLCAnPG91dGZpbGUubWFlPic=

>  <r_lp_tautomer_probability>  (304) 
1

>  <r_epik_Ionization_Penalty>  (304) 
1.30174e-06

>  <r_epik_Ionization_Penalty_Charging>  (304) 
0

>  <r_epik_Ionization_Penalty_Neutral>  (304) 
1.30174e-06

>  <r_epik_State_Penalty>  (304) 
-0

>  <r_epik_Charging_Adjusted_Penalty>  (304) 
0

>  <i_epik_Tot_Q>  (304) 
0

>  <i_epik_Tot_abs_Q>  (304) 
0

>  <s_epik_Chemistry_Notes>  (304) 
This compound has an ester and may undergo hydrolysis at high or low pH.

>  <s_lp_Force_Field>  (304) 
OPLS3e

>  <r_lp_Energy>  (304) 
142.835

>  <b_lp_Chiralities_Consistent>  (304) 
1

>  <s_lp_Variant>  (304) 
88:0-1

>  <s_i_glide_gridfile>  (304) 
pfpi4k_grid

>  <i_i_glide_lignum>  (304) 
4

>  <i_i_glide_rotatable_bonds>  (304) 
6

>  <r_i_docking_score>  (304) 
-2.49232

>  <r_i_glide_ligand_efficiency>  (304) 
-0.0673601

>  <r_i_glide_ligand_efficiency_sa>  (304) 
-0.224459

>  <r_i_glide_ligand_efficiency_ln>  (304) 
-0.540527

>  <r_i_glide_gscore>  (304) 
-2.49232

>  <r_i_glide_lipo>  (304) 
-0.446492

>  <r_i_glide_hbond>  (304) 
0

>  <r_i_glide_metal>  (304) 
-0

>  <r_i_glide_rewards>  (304) 
-0.0510967

>  <r_i_glide_evdw>  (304) 
-25.9812

>  <r_i_glide_ecoul>  (304) 
-4.63782

>  <r_i_glide_erotb>  (304) 
0

>  <r_i_glide_esite>  (304) 
0

>  <r_i_glide_emodel>  (304) 
-33.3516

>  <r_i_glide_energy>  (304) 
-30.6191

>  <r_i_glide_einternal>  (304) 
5.97868

>  <r_i_glide_intrahb_reward>  (304) 
-0

>  <i_i_glide_confnum>  (304) 
1

>  <i_i_glide_posenum>  (304) 
10

>  <r_i_glide_eff_state_penalty>  (304) 
0

>  <ligand_id>  (304) 
88

>  <original_smiles>  (304) 
C=C1C(=O)OC2C1C1CC34C2OC1(C(C)C)C(O)CC1CC2C(C)(C)CC(O)C(O)C2(C)CC3(O)C14O

>  <smiles>  (304) 
[H]OC1([H])C([H])([H])C(C([H])([H])[H])(C([H])([H])[H])C2([H])C([H])([H])C3([H])C([H])([H])C([H])(O[H])C4(C([H])(C([H])([H])[H])C([H])([H])[H])OC5([H])C6([H])OC(=O)C(=C([H])[H])C6([H])C4([H])C([H])([H])C54C(O[H])(C([H])([H])C2(C([H])([H])[H])C1([H])O[H])C34O[H]

$$$$
88:0:2
     RDKit          3D

 79 85  0  0  1  0  0  0  0  0999 V2000
    4.6150   -5.8594    1.2216 C   0  0  0  0  0  0  0  0  0  0  0  0
    3.5931   -5.4632    1.9737 C   0  0  0  0  0  0  0  0  0  0  0  0
    2.2199   -5.3461    1.5123 C   0  0  0  0  0  0  0  0  0  0  0  0
    1.8201   -5.4729    0.3513 O   0  0  0  0  0  0  0  0  0  0  0  0
    1.4364   -5.0594    2.5578 O   0  0  0  0  0  0  0  0  0  0  0  0
    2.0973   -5.0530    3.8164 C   0  0  1  0  0  0  0  0  0  0  0  0
    3.5963   -5.2193    3.4653 C   0  0  2  0  0  0  0  0  0  0  0  0
    4.3545   -3.9585    3.9769 C   0  0  1  0  0  0  0  0  0  0  0  0
    3.6622   -2.7702    3.2800 C   0  0  0  0  0  0  0  0  0  0  0  0
    2.3276   -2.4516    3.9770 C   0  0  2  0  0  0  0  0  0  0  0  0
    1.8725   -3.7532    4.6416 C   0  0  2  0  0  0  0  0  0  0  0  0
    2.7296   -3.8260    5.8003 O   0  0  0  0  0  0  0  0  0  0  0  0
    4.1551   -3.8242    5.5437 C   0  0  1  0  0  0  0  0  0  0  0  0
    4.6364   -5.1007    6.3610 C   0  0  0  0  0  0  0  0  0  0  0  0
    5.9862   -5.6967    5.8938 C   0  0  0  0  0  0  0  0  0  0  0  0
    3.5970   -6.2558    6.5726 C   0  0  0  0  0  0  0  0  0  0  0  0
    4.7446   -2.4793    6.2141 C   0  0  1  0  0  0  0  0  0  0  0  0
    6.1242   -2.6412    6.4778 O   0  0  0  0  0  0  0  0  0  0  0  0
    4.6853   -1.0251    5.5840 C   0  0  0  0  0  0  0  0  0  0  0  0
    3.3034   -0.3221    5.3803 C   0  0  1  0  0  0  0  0  0  0  0  0
    3.2717    1.0041    4.5678 C   0  0  0  0  0  0  0  0  0  0  0  0
    1.9120    1.7356    4.1295 C   0  0  2  0  0  0  0  0  0  0  0  0
    1.9904    3.2922    4.4015 C   0  0  0  0  0  0  0  0  0  0  0  0
    1.9909    3.6634    5.9058 C   0  0  0  0  0  0  0  0  0  0  0  0
    3.2822    3.8827    3.7805 C   0  0  0  0  0  0  0  0  0  0  0  0
    0.8419    4.0302    3.6810 C   0  0  0  0  0  0  0  0  0  0  0  0
   -0.5495    3.4748    3.9787 C   0  0  1  0  0  0  0  0  0  0  0  0
   -1.5081    4.2402    3.2712 O   0  0  0  0  0  0  0  0  0  0  0  0
   -0.6324    1.9677    3.6356 C   0  0  1  0  0  0  0  0  0  0  0  0
   -0.5341    1.8434    2.2208 O   0  0  0  0  0  0  0  0  0  0  0  0
    0.4548    1.0819    4.3623 C   0  0  2  0  0  0  0  0  0  0  0  0
    0.0935    1.0751    5.8801 C   0  0  0  0  0  0  0  0  0  0  0  0
    0.2570   -0.4074    3.8103 C   0  0  0  0  0  0  0  0  0  0  0  0
    1.5504   -1.1642    3.5778 C   0  0  2  0  0  0  0  0  0  0  0  0
    2.2040   -0.6987    2.4105 O   0  0  0  0  0  0  0  0  0  0  0  0
    2.2537   -1.2777    4.9179 C   0  0  1  0  0  0  0  0  0  0  0  0
    1.3898   -1.5294    6.0214 O   0  0  0  0  0  0  0  0  0  0  0  0
    5.6040   -6.0054    1.6452 H   0  0  0  0  0  0  0  0  0  0  0  0
    4.4843   -6.0830    0.1702 H   0  0  0  0  0  0  0  0  0  0  0  0
    1.7356   -5.9127    4.3785 H   0  0  0  0  0  0  0  0  0  0  0  0
    4.0364   -6.1419    3.8476 H   0  0  0  0  0  0  0  0  0  0  0  0
    5.4086   -4.0059    3.7130 H   0  0  0  0  0  0  0  0  0  0  0  0
    4.2999   -1.9025    3.2390 H   0  0  0  0  0  0  0  0  0  0  0  0
    3.4763   -2.9584    2.2229 H   0  0  0  0  0  0  0  0  0  0  0  0
    0.8321   -3.6848    4.9457 H   0  0  0  0  0  0  0  0  0  0  0  0
    4.7870   -4.7500    7.3810 H   0  0  0  0  0  0  0  0  0  0  0  0
    5.9249   -6.1612    4.9111 H   0  0  0  0  0  0  0  0  0  0  0  0
    6.3249   -6.4742    6.5775 H   0  0  0  0  0  0  0  0  0  0  0  0
    6.7859   -4.9641    5.8307 H   0  0  0  0  0  0  0  0  0  0  0  0
    3.3161   -6.8063    5.6731 H   0  0  0  0  0  0  0  0  0  0  0  0
    2.6654   -5.9018    7.0252 H   0  0  0  0  0  0  0  0  0  0  0  0
    3.9863   -7.0200    7.2526 H   0  0  0  0  0  0  0  0  0  0  0  0
    4.2788   -2.3982    7.2006 H   0  0  0  0  0  0  0  0  0  0  0  0
    6.2374   -3.4030    7.0260 H   0  0  0  0  0  0  0  0  0  0  0  0
    5.2313   -0.3671    6.2646 H   0  0  0  0  0  0  0  0  0  0  0  0
    5.3068   -0.9603    4.6949 H   0  0  0  0  0  0  0  0  0  0  0  0
    3.0237   -0.0032    6.3903 H   0  0  0  0  0  0  0  0  0  0  0  0
    3.8867    1.6849    5.1487 H   0  0  0  0  0  0  0  0  0  0  0  0
    3.8555    0.8525    3.6600 H   0  0  0  0  0  0  0  0  0  0  0  0
    1.9867    1.7024    3.0419 H   0  0  0  0  0  0  0  0  0  0  0  0
    2.3255    4.6900    6.0607 H   0  0  0  0  0  0  0  0  0  0  0  0
    2.6417    3.0151    6.4904 H   0  0  0  0  0  0  0  0  0  0  0  0
    1.0016    3.6084    6.3524 H   0  0  0  0  0  0  0  0  0  0  0  0
    3.2550    4.9731    3.7628 H   0  0  0  0  0  0  0  0  0  0  0  0
    3.4080    3.5537    2.7488 H   0  0  0  0  0  0  0  0  0  0  0  0
    4.1827    3.6071    4.3227 H   0  0  0  0  0  0  0  0  0  0  0  0
    0.8671    5.0957    3.9190 H   0  0  0  0  0  0  0  0  0  0  0  0
    1.0378    3.9631    2.6119 H   0  0  0  0  0  0  0  0  0  0  0  0
   -0.7860    3.6441    5.0226 H   0  0  0  0  0  0  0  0  0  0  0  0
   -1.2446    4.2587    2.3585 H   0  0  0  0  0  0  0  0  0  0  0  0
   -1.6213    1.5970    3.9141 H   0  0  0  0  0  0  0  0  0  0  0  0
   -0.1656    2.6367    1.8463 H   0  0  0  0  0  0  0  0  0  0  0  0
   -0.5871    0.2686    6.1497 H   0  0  0  0  0  0  0  0  0  0  0  0
   -0.4099    1.9732    6.2198 H   0  0  0  0  0  0  0  0  0  0  0  0
    0.9784    0.9719    6.5049 H   0  0  0  0  0  0  0  0  0  0  0  0
   -0.4182   -0.9900    4.4376 H   0  0  0  0  0  0  0  0  0  0  0  0
   -0.2592   -0.4215    2.8567 H   0  0  0  0  0  0  0  0  0  0  0  0
    1.6089   -0.7548    1.6752 H   0  0  0  0  0  0  0  0  0  0  0  0
    1.9007   -1.9989    6.6628 H   0  0  0  0  0  0  0  0  0  0  0  0
  1  2  2  0
  1 38  1  0
  1 39  1  0
  2  7  1  0
  2  3  1  0
  3  4  2  0
  3  5  1  0
  5  6  1  0
  6 11  1  0
  6  7  1  0
  6 40  1  1
  7  8  1  0
  7 41  1  1
  8 13  1  0
  8  9  1  0
  8 42  1  1
 10  9  1  6
  9 43  1  0
  9 44  1  0
 10 34  1  0
 10 36  1  0
 10 11  1  0
 11 12  1  0
 11 45  1  1
 12 13  1  0
 13 14  1  1
 13 17  1  0
 14 15  1  0
 14 16  1  0
 14 46  1  0
 15 47  1  0
 15 48  1  0
 15 49  1  0
 16 50  1  0
 16 51  1  0
 16 52  1  0
 17 18  1  0
 17 19  1  0
 17 53  1  1
 18 54  1  0
 19 20  1  0
 19 55  1  0
 19 56  1  0
 20 36  1  0
 20 21  1  0
 20 57  1  1
 21 22  1  0
 21 58  1  0
 21 59  1  0
 22 31  1  0
 22 23  1  0
 22 60  1  6
 23 24  1  0
 23 25  1  0
 23 26  1  0
 24 61  1  0
 24 62  1  0
 24 63  1  0
 25 64  1  0
 25 65  1  0
 25 66  1  0
 26 27  1  0
 26 67  1  0
 26 68  1  0
 27 28  1  0
 27 29  1  0
 27 69  1  1
 28 70  1  0
 29 30  1  0
 29 31  1  0
 29 71  1  1
 30 72  1  0
 31 32  1  1
 31 33  1  0
 32 73  1  0
 32 74  1  0
 32 75  1  0
 33 34  1  0
 33 76  1  0
 33 77  1  0
 34 35  1  6
 34 36  1  0
 35 78  1  0
 36 37  1  1
 37 79  1  0
M  END
>  <i_m_ct_stereo_status>  (305) 
1

>  <s_m_source_file>  (305) 
/var/tmp/pbs.5083856.sched01/tmpavn6uaiu/120a7lu6gm5.sdf

>  <i_m_source_file_index>  (305) 
4

>  <i_lp_mmshare_version>  (305) 
48012

>  <i_f3d_flags>  (305) 
0

>  <s_epik_input>  (305) 
Tz1DKE8xKUMoPVtDSDJdKVtDQEhdKFtDQEhdMVtDQEBIXTJbQ0BAXTM0NSlbQ0BASF0oW0NIMl0zKVtDQEBdKE8yKShbQ0hdKFtDSDNdKVtDSDNdKVtDQEBIXShbT0hdKVtDSDJdW0NAQEhdNltDQEBdNShbT0hdKVtDQF00KFtPSF0pW0NIMl1bQ0BAXTcoW0NIM10pW0NASF0oW0NIMl02KUMoW0NIM10pKFtDSDNdKVtDSDJdW0NAQEhdKFtPSF0pW0NASF03W09IXQ==

>  <s_epik_cmdline>  (305) 
J2VwaWtfcHl0aG9uJywgJy1waHQnLCAnMi4wJywgJy1waCcsICc3LjAnLCAnLXRuJywgJzgnLCAnLW1hJywgJzIwMCcsICctaW1hZScsICc8aW5maWxlLm1hZT4nLCAnLW9tYWUnLCAnPG91dGZpbGUubWFlPic=

>  <r_lp_tautomer_probability>  (305) 
1

>  <r_epik_Ionization_Penalty>  (305) 
1.30174e-06

>  <r_epik_Ionization_Penalty_Charging>  (305) 
0

>  <r_epik_Ionization_Penalty_Neutral>  (305) 
1.30174e-06

>  <r_epik_State_Penalty>  (305) 
-0

>  <r_epik_Charging_Adjusted_Penalty>  (305) 
0

>  <i_epik_Tot_Q>  (305) 
0

>  <i_epik_Tot_abs_Q>  (305) 
0

>  <s_epik_Chemistry_Notes>  (305) 
This compound has an ester and may undergo hydrolysis at high or low pH.

>  <s_lp_Force_Field>  (305) 
OPLS3e

>  <r_lp_Energy>  (305) 
142.835

>  <b_lp_Chiralities_Consistent>  (305) 
1

>  <s_lp_Variant>  (305) 
88:0-1

>  <s_i_glide_gridfile>  (305) 
pfpi4k_grid

>  <i_i_glide_lignum>  (305) 
4

>  <i_i_glide_rotatable_bonds>  (305) 
6

>  <r_i_docking_score>  (305) 
-2.38202

>  <r_i_glide_ligand_efficiency>  (305) 
-0.064379

>  <r_i_glide_ligand_efficiency_sa>  (305) 
-0.214525

>  <r_i_glide_ligand_efficiency_ln>  (305) 
-0.516605

>  <r_i_glide_gscore>  (305) 
-2.38202

>  <r_i_glide_lipo>  (305) 
-0.0986725

>  <r_i_glide_hbond>  (305) 
-0.0922893

>  <r_i_glide_metal>  (305) 
-0

>  <r_i_glide_rewards>  (305) 
0

>  <r_i_glide_evdw>  (305) 
-19.4885

>  <r_i_glide_ecoul>  (305) 
-7.88324

>  <r_i_glide_erotb>  (305) 
0

>  <r_i_glide_esite>  (305) 
-0.0341502

>  <r_i_glide_emodel>  (305) 
-30.3944

>  <r_i_glide_energy>  (305) 
-27.3717

>  <r_i_glide_einternal>  (305) 
5.37111

>  <r_i_glide_intrahb_reward>  (305) 
-0

>  <i_i_glide_confnum>  (305) 
2

>  <i_i_glide_posenum>  (305) 
11

>  <r_i_glide_eff_state_penalty>  (305) 
0

>  <ligand_id>  (305) 
88

>  <original_smiles>  (305) 
C=C1C(=O)OC2C1C1CC34C2OC1(C(C)C)C(O)CC1CC2C(C)(C)CC(O)C(O)C2(C)CC3(O)C14O

>  <smiles>  (305) 
[H]OC1([H])C([H])([H])C(C([H])([H])[H])(C([H])([H])[H])C2([H])C([H])([H])C3([H])C([H])([H])C([H])(O[H])C4(C([H])(C([H])([H])[H])C([H])([H])[H])OC5([H])C6([H])OC(=O)C(=C([H])[H])C6([H])C4([H])C([H])([H])C54C(O[H])(C([H])([H])C2(C([H])([H])[H])C1([H])O[H])C34O[H]

$$$$
89:0:0
     RDKit          3D

 89 97  0  0  1  0  0  0  0  0999 V2000
    1.5437    3.7140    3.7595 C   0  0  0  0  0  0  0  0  0  0  0  0
    1.2473    2.4238    4.5631 C   0  0  2  0  0  0  0  0  0  0  0  0
    1.4416    1.2327    3.7935 O   0  0  0  0  0  0  0  0  0  0  0  0
    1.0704    0.0053    4.4274 C   0  0  1  0  0  0  0  0  0  0  0  0
    1.7932   -0.2242    5.6203 O   0  0  0  0  0  0  0  0  0  0  0  0
    3.1124   -0.8239    5.5383 C   0  0  2  0  0  0  0  0  0  0  0  0
    3.9065   -0.6919    4.1890 C   0  0  2  0  0  0  0  0  0  0  0  0
    2.9894   -1.3174    3.3271 O   0  0  0  0  0  0  0  0  0  0  0  0
    3.1735   -1.7052    2.0276 C   0  0  1  0  0  0  0  0  0  0  0  0
    1.8887   -2.3676    1.5504 C   0  0  0  0  0  0  0  0  0  0  0  0
    3.4761   -0.4849    1.1344 C   0  0  0  0  0  0  0  0  0  0  0  0
    4.1409   -1.0595   -0.1017 C   0  0  0  0  0  0  0  0  0  0  0  0
    4.8634   -2.3582    0.3622 C   0  0  1  0  0  0  0  0  0  0  0  0
    6.3836   -2.4304    0.0053 C   0  0  0  0  0  0  0  0  0  0  0  0
    7.0945   -3.6585    0.6053 C   0  0  0  0  0  0  0  0  0  0  0  0
    6.5772   -2.4336   -1.5205 C   0  0  0  0  0  0  0  0  0  0  0  0
    7.0560   -1.2774    0.4744 O   0  0  0  0  0  0  0  0  0  0  0  0
    4.5070   -2.5525    1.8810 C   0  0  2  0  0  0  0  0  0  0  0  0
    4.5240   -4.0036    2.0817 O   0  0  0  0  0  0  0  0  0  0  0  0
    3.6195   -4.8302    2.7996 C   0  0  0  0  0  0  0  0  0  0  0  0
    2.4798   -5.0989    2.4673 O   0  0  0  0  0  0  0  0  0  0  0  0
    4.2487   -5.4166    4.1210 C   0  0  2  0  0  0  0  0  0  0  0  0
    3.5414   -5.8314    5.2982 O   0  0  0  0  0  0  0  0  0  0  0  0
    4.1868   -4.5629    5.4403 C   0  0  2  0  0  0  0  0  0  0  0  0
    3.6076   -3.2094    5.1716 C   0  0  2  0  0  0  0  0  0  0  0  0
    5.0381   -2.8608    4.8157 C   0  0  1  0  0  0  0  0  0  0  0  0
    5.2498   -1.5255    4.0726 C   0  0  1  0  0  0  0  0  0  0  0  0
    5.5063   -1.8642    2.6651 O   0  0  0  0  0  0  0  0  0  0  0  0
    5.5775   -3.9618    5.8311 C   0  0  0  0  0  0  0  0  0  0  0  0
    5.6183   -3.7424    7.3564 C   0  0  0  0  0  0  0  0  0  0  0  0
    6.8302   -4.8105    5.5033 C   0  0  0  0  0  0  0  0  0  0  0  0
    3.0771   -2.2193    6.2019 C   0  0  1  0  0  0  0  0  0  0  0  0
    3.7006   -0.9909    6.9289 C   0  0  0  0  0  0  0  0  0  0  0  0
    5.1723   -0.6492    7.1810 C   0  0  0  0  0  0  0  0  0  0  0  0
    2.9351   -0.5179    8.1674 C   0  0  0  0  0  0  0  0  0  0  0  0
   -0.4176   -0.0509    4.6851 C   0  0  0  0  0  0  0  0  0  0  0  0
   -1.0216    1.2317    5.1725 C   0  0  1  0  0  0  0  0  0  0  0  0
   -0.1849    2.4888    5.0913 C   0  0  2  0  0  0  0  0  0  0  0  0
   -1.3936    2.3274    4.1954 C   0  0  0  0  0  0  0  0  0  0  0  0
   -1.2392    2.1318    2.6811 C   0  0  0  0  0  0  0  0  0  0  0  0
   -2.6265    3.1308    4.5197 C   0  0  0  0  0  0  0  0  0  0  0  0
    1.3318    4.6025    4.3780 H   0  0  0  0  0  0  0  0  0  0  0  0
    0.9126    3.8363    2.8872 H   0  0  0  0  0  0  0  0  0  0  0  0
    2.5813    3.7979    3.4253 H   0  0  0  0  0  0  0  0  0  0  0  0
    1.9403    2.4003    5.4045 H   0  0  0  0  0  0  0  0  0  0  0  0
    1.0920   -0.7818    3.7352 H   0  0  0  0  0  0  0  0  0  0  0  0
    4.1123    0.3609    3.9525 H   0  0  0  0  0  0  0  0  0  0  0  0
    1.9931   -3.0105    0.6880 H   0  0  0  0  0  0  0  0  0  0  0  0
    1.1425   -1.6098    1.3060 H   0  0  0  0  0  0  0  0  0  0  0  0
    1.4293   -2.9194    2.3716 H   0  0  0  0  0  0  0  0  0  0  0  0
    2.5829    0.0911    0.8833 H   0  0  0  0  0  0  0  0  0  0  0  0
    4.1657    0.2077    1.6092 H   0  0  0  0  0  0  0  0  0  0  0  0
    3.3810   -1.3115   -0.8517 H   0  0  0  0  0  0  0  0  0  0  0  0
    4.8056   -0.3194   -0.5700 H   0  0  0  0  0  0  0  0  0  0  0  0
    4.3660   -3.1756   -0.1682 H   0  0  0  0  0  0  0  0  0  0  0  0
    6.6088   -4.5856    0.2957 H   0  0  0  0  0  0  0  0  0  0  0  0
    7.0945   -3.6354    1.6942 H   0  0  0  0  0  0  0  0  0  0  0  0
    8.1352   -3.6990    0.2900 H   0  0  0  0  0  0  0  0  0  0  0  0
    6.0967   -3.3034   -1.9669 H   0  0  0  0  0  0  0  0  0  0  0  0
    7.6331   -2.4691   -1.7826 H   0  0  0  0  0  0  0  0  0  0  0  0
    6.1425   -1.5483   -1.9813 H   0  0  0  0  0  0  0  0  0  0  0  0
    6.9024   -1.2215    1.4100 H   0  0  0  0  0  0  0  0  0  0  0  0
    5.0716   -6.0774    3.9229 H   0  0  0  0  0  0  0  0  0  0  0  0
    2.8629   -3.2428    4.3907 H   0  0  0  0  0  0  0  0  0  0  0  0
    5.5270   -3.4291    4.0425 H   0  0  0  0  0  0  0  0  0  0  0  0
    6.1078   -0.9742    4.4588 H   0  0  0  0  0  0  0  0  0  0  0  0
    6.4301   -3.0785    7.6452 H   0  0  0  0  0  0  0  0  0  0  0  0
    5.7573   -4.6758    7.9028 H   0  0  0  0  0  0  0  0  0  0  0  0
    4.6965   -3.3276    7.7507 H   0  0  0  0  0  0  0  0  0  0  0  0
    7.7242   -4.2616    5.7830 H   0  0  0  0  0  0  0  0  0  0  0  0
    6.9480   -5.0830    4.4564 H   0  0  0  0  0  0  0  0  0  0  0  0
    6.8640   -5.7252    6.0967 H   0  0  0  0  0  0  0  0  0  0  0  0
    2.1533   -2.5720    6.6619 H   0  0  0  0  0  0  0  0  0  0  0  0
    5.4667   -0.9261    8.1912 H   0  0  0  0  0  0  0  0  0  0  0  0
    5.3362    0.4219    7.0712 H   0  0  0  0  0  0  0  0  0  0  0  0
    5.8524   -1.1573    6.5250 H   0  0  0  0  0  0  0  0  0  0  0  0
    3.2001   -1.1221    9.0312 H   0  0  0  0  0  0  0  0  0  0  0  0
    1.8597   -0.5967    8.0440 H   0  0  0  0  0  0  0  0  0  0  0  0
    3.1644    0.5161    8.4087 H   0  0  0  0  0  0  0  0  0  0  0  0
   -0.8933   -0.2776    3.7219 H   0  0  0  0  0  0  0  0  0  0  0  0
   -0.6532   -0.9032    5.3316 H   0  0  0  0  0  0  0  0  0  0  0  0
   -1.6439    1.0936    6.0593 H   0  0  0  0  0  0  0  0  0  0  0  0
   -0.2838    3.1956    5.9274 H   0  0  0  0  0  0  0  0  0  0  0  0
   -1.0491    3.0867    2.1956 H   0  0  0  0  0  0  0  0  0  0  0  0
   -2.1316    1.6845    2.2357 H   0  0  0  0  0  0  0  0  0  0  0  0
   -0.4039    1.4882    2.4126 H   0  0  0  0  0  0  0  0  0  0  0  0
   -2.5605    4.1164    4.0681 H   0  0  0  0  0  0  0  0  0  0  0  0
   -2.7221    3.2411    5.5963 H   0  0  0  0  0  0  0  0  0  0  0  0
   -3.5055    2.6132    4.1399 H   0  0  0  0  0  0  0  0  0  0  0  0
  1  2  1  0
  1 42  1  0
  1 43  1  0
  1 44  1  0
  2 38  1  0
  2  3  1  0
  2 45  1  1
  3  4  1  0
  4  5  1  0
  4 36  1  0
  4 46  1  6
  6  5  1  1
  6 32  1  0
  6 33  1  0
  6  7  1  0
  7 27  1  0
  7  8  1  0
  7 47  1  6
  8  9  1  0
  9 18  1  0
  9 10  1  6
  9 11  1  0
 10 48  1  0
 10 49  1  0
 10 50  1  0
 11 12  1  0
 11 51  1  0
 11 52  1  0
 12 13  1  0
 12 53  1  0
 12 54  1  0
 13 14  1  0
 13 18  1  0
 13 55  1  6
 14 15  1  0
 14 16  1  0
 14 17  1  0
 15 56  1  0
 15 57  1  0
 15 58  1  0
 16 59  1  0
 16 60  1  0
 16 61  1  0
 17 62  1  0
 18 28  1  0
 18 19  1  1
 19 20  1  0
 20 21  2  0
 20 22  1  0
 22 24  1  0
 22 23  1  0
 22 63  1  6
 24 23  1  1
 24 29  1  0
 24 25  1  0
 25 26  1  0
 25 32  1  0
 25 64  1  6
 26 27  1  0
 26 29  1  0
 26 65  1  6
 27 28  1  0
 27 66  1  1
 29 30  1  0
 29 31  1  0
 30 67  1  0
 30 68  1  0
 30 69  1  0
 31 70  1  0
 31 71  1  0
 31 72  1  0
 32 33  1  0
 32 73  1  1
 33 34  1  0
 33 35  1  0
 34 74  1  0
 34 75  1  0
 34 76  1  0
 35 77  1  0
 35 78  1  0
 35 79  1  0
 36 37  1  0
 36 80  1  0
 36 81  1  0
 37 39  1  0
 37 38  1  0
 37 82  1  1
 38 39  1  0
 38 83  1  1
 39 40  1  0
 39 41  1  0
 40 84  1  0
 40 85  1  0
 40 86  1  0
 41 87  1  0
 41 88  1  0
 41 89  1  0
M  END
>  <i_m_ct_stereo_status>  (306) 
1

>  <s_m_source_file>  (306) 
/var/tmp/pbs.5083856.sched01/tmpavn6uaiu/120a7lu6gm5.sdf

>  <i_m_source_file_index>  (306) 
5

>  <i_lp_mmshare_version>  (306) 
48012

>  <i_f3d_flags>  (306) 
0

>  <s_epik_input>  (306) 
TzFbQ0BASF0yW0NIXTNDKFtDSDNdKShbQ0gzXSlbQ0BdNChbQ0hdKE80KUMoTzUpPU8pW0NASF0zW0NAQEhdKEM2KFtDSDNdKVtDSDNdKVtDQF02KE9bQ0BASF0oW0NIMl03KU9bQ0BASF0oW0NIM10pW0NASF0oW0NASF03OClDOChbQ0gzXSlbQ0gzXSlbQ0BASF0yT1tDQEBdKFtDQEBdMTU5KShbQ0gzXSlbQ0gyXVtDSDJdW0NASF05QyhbQ0gzXSkoW0NIM10pW09IXQ==

>  <s_epik_cmdline>  (306) 
J2VwaWtfcHl0aG9uJywgJy1waHQnLCAnMi4wJywgJy1waCcsICc3LjAnLCAnLXRuJywgJzgnLCAnLW1hJywgJzIwMCcsICctaW1hZScsICc8aW5maWxlLm1hZT4nLCAnLW9tYWUnLCAnPG91dGZpbGUubWFlPic=

>  <r_lp_tautomer_probability>  (306) 
1

>  <r_epik_Ionization_Penalty>  (306) 
5.25274e-08

>  <r_epik_Ionization_Penalty_Charging>  (306) 
0

>  <r_epik_Ionization_Penalty_Neutral>  (306) 
5.25274e-08

>  <r_epik_State_Penalty>  (306) 
-0

>  <r_epik_Charging_Adjusted_Penalty>  (306) 
0

>  <i_epik_Tot_Q>  (306) 
0

>  <i_epik_Tot_abs_Q>  (306) 
0

>  <s_epik_Chemistry_Notes>  (306) 
This compound has an ester and may undergo hydrolysis at high or low pH. This compound contains an acetal/aminal-like group ( X-CH(R)-Y where X, Y are N, S, or O) that may be acid/base labile, releasing an aldehyde.

>  <s_lp_Force_Field>  (306) 
OPLS3e

>  <r_lp_Energy>  (306) 
216.929

>  <b_lp_Chiralities_Consistent>  (306) 
1

>  <s_lp_Variant>  (306) 
89:0-1

>  <s_i_glide_gridfile>  (306) 
pfpi4k_grid

>  <i_i_glide_lignum>  (306) 
5

>  <i_i_glide_rotatable_bonds>  (306) 
4

>  <r_i_docking_score>  (306) 
-2.05379

>  <r_i_glide_ligand_efficiency>  (306) 
-0.0500923

>  <r_i_glide_ligand_efficiency_sa>  (306) 
-0.172729

>  <r_i_glide_ligand_efficiency_ln>  (306) 
-0.435717

>  <r_i_glide_gscore>  (306) 
-2.05379

>  <r_i_glide_lipo>  (306) 
-0.251586

>  <r_i_glide_hbond>  (306) 
0

>  <r_i_glide_metal>  (306) 
-0

>  <r_i_glide_rewards>  (306) 
-0.52813

>  <r_i_glide_evdw>  (306) 
-23.1648

>  <r_i_glide_ecoul>  (306) 
-1.41328

>  <r_i_glide_erotb>  (306) 
0.0982699

>  <r_i_glide_esite>  (306) 
-0.00210583

>  <r_i_glide_emodel>  (306) 
-17.932

>  <r_i_glide_energy>  (306) 
-24.5781

>  <r_i_glide_einternal>  (306) 
22.069

>  <r_i_glide_intrahb_reward>  (306) 
-0.5

>  <i_i_glide_confnum>  (306) 
6

>  <i_i_glide_posenum>  (306) 
13

>  <r_i_glide_eff_state_penalty>  (306) 
0

>  <ligand_id>  (306) 
89

>  <original_smiles>  (306) 
CC1OC(OC23C4OC5(C)CCC(C(C)(C)O)C56OC(=O)C5OC57C(C(C4O6)C7(C)C)C2C3(C)C)CC2C1C2(C)C

>  <smiles>  (306) 
[H]OC(C([H])([H])[H])(C([H])([H])[H])C1([H])C([H])([H])C([H])([H])C2(C([H])([H])[H])OC3([H])C4([H])OC12OC(=O)C1([H])OC12C([H])(C4([H])C2(C([H])([H])[H])C([H])([H])[H])C1([H])C3(OC2([H])OC([H])(C([H])([H])[H])C3([H])C([H])(C2([H])[H])C3(C([H])([H])[H])C([H])([H])[H])C1(C([H])([H])[H])C([H])([H])[H]

$$$$
89:0:1
     RDKit          3D

 89 97  0  0  1  0  0  0  0  0999 V2000
    7.0283   -2.9084   -1.8572 C   0  0  0  0  0  0  0  0  0  0  0  0
    6.7923   -3.6049   -0.5155 C   0  0  2  0  0  0  0  0  0  0  0  0
    5.5853   -4.4395   -0.6580 O   0  0  0  0  0  0  0  0  0  0  0  0
    5.1627   -5.0431    0.5841 C   0  0  1  0  0  0  0  0  0  0  0  0
    6.0754   -6.0002    1.0737 O   0  0  0  0  0  0  0  0  0  0  0  0
    5.6520   -6.9136    2.0877 C   0  0  2  0  0  0  0  0  0  0  0  0
    4.1746   -7.4596    1.9609 C   0  0  2  0  0  0  0  0  0  0  0  0
    3.4453   -6.2132    2.0614 O   0  0  0  0  0  0  0  0  0  0  0  0
    2.1273   -6.0817    2.4438 C   0  0  1  0  0  0  0  0  0  0  0  0
    1.7852   -4.5983    2.7128 C   0  0  0  0  0  0  0  0  0  0  0  0
    1.3326   -6.5542    1.2207 C   0  0  0  0  0  0  0  0  0  0  0  0
   -0.0693   -6.7959    1.7161 C   0  0  0  0  0  0  0  0  0  0  0  0
    0.1150   -7.2301    3.2069 C   0  0  1  0  0  0  0  0  0  0  0  0
   -0.5394   -8.5907    3.5940 C   0  0  0  0  0  0  0  0  0  0  0  0
   -2.0312   -8.3776    3.8202 C   0  0  0  0  0  0  0  0  0  0  0  0
   -0.3560   -9.6941    2.5404 C   0  0  0  0  0  0  0  0  0  0  0  0
   -0.0736   -9.0574    4.8392 O   0  0  0  0  0  0  0  0  0  0  0  0
    1.6373   -7.0976    3.5588 C   0  0  2  0  0  0  0  0  0  0  0  0
    1.6632   -6.7497    4.9909 O   0  0  0  0  0  0  0  0  0  0  0  0
    2.5027   -5.8157    5.6706 C   0  0  0  0  0  0  0  0  0  0  0  0
    2.3916   -4.5964    5.6181 O   0  0  0  0  0  0  0  0  0  0  0  0
    3.5937   -6.4842    6.5754 C   0  0  2  0  0  0  0  0  0  0  0  0
    4.8412   -5.9046    6.9649 O   0  0  0  0  0  0  0  0  0  0  0  0
    4.9572   -6.8987    5.9329 C   0  0  2  0  0  0  0  0  0  0  0  0
    4.9581   -6.6661    4.4488 C   0  0  2  0  0  0  0  0  0  0  0  0
    4.3368   -8.0414    4.4276 C   0  0  1  0  0  0  0  0  0  0  0  0
    3.7033   -8.4713    3.1049 C   0  0  1  0  0  0  0  0  0  0  0  0
    2.2573   -8.3626    3.2750 O   0  0  0  0  0  0  0  0  0  0  0  0
    5.0899   -8.4380    5.7545 C   0  0  0  0  0  0  0  0  0  0  0  0
    6.5773   -8.8247    5.8109 C   0  0  0  0  0  0  0  0  0  0  0  0
    4.3953   -9.3284    6.8269 C   0  0  0  0  0  0  0  0  0  0  0  0
    6.1763   -6.6095    3.5153 C   0  0  1  0  0  0  0  0  0  0  0  0
    6.8398   -7.6724    2.6290 C   0  0  0  0  0  0  0  0  0  0  0  0
    6.8161   -9.2013    2.7043 C   0  0  0  0  0  0  0  0  0  0  0  0
    8.2468   -7.3090    2.1716 C   0  0  0  0  0  0  0  0  0  0  0  0
    4.7684   -3.9666    1.6312 C   0  0  0  0  0  0  0  0  0  0  0  0
    5.6879   -2.7882    1.6886 C   0  0  1  0  0  0  0  0  0  0  0  0
    6.6841   -2.5620    0.5747 C   0  0  2  0  0  0  0  0  0  0  0  0
    5.4923   -1.6258    0.7339 C   0  0  0  0  0  0  0  0  0  0  0  0
    4.3204   -1.5929   -0.2614 C   0  0  0  0  0  0  0  0  0  0  0  0
    5.7528   -0.2595    1.2810 C   0  0  0  0  0  0  0  0  0  0  0  0
    7.9233   -2.3188   -1.7613 H   0  0  0  0  0  0  0  0  0  0  0  0
    6.2128   -2.2382   -2.1512 H   0  0  0  0  0  0  0  0  0  0  0  0
    7.1547   -3.6176   -2.6752 H   0  0  0  0  0  0  0  0  0  0  0  0
    7.5877   -4.3196   -0.2669 H   0  0  0  0  0  0  0  0  0  0  0  0
    4.2721   -5.5744    0.2947 H   0  0  0  0  0  0  0  0  0  0  0  0
    4.0050   -7.8892    0.9695 H   0  0  0  0  0  0  0  0  0  0  0  0
    0.8274   -4.4267    3.2295 H   0  0  0  0  0  0  0  0  0  0  0  0
    1.7937   -4.0700    1.7567 H   0  0  0  0  0  0  0  0  0  0  0  0
    2.6086   -4.1294    3.2469 H   0  0  0  0  0  0  0  0  0  0  0  0
    1.3841   -5.8434    0.3938 H   0  0  0  0  0  0  0  0  0  0  0  0
    1.7143   -7.4997    0.8548 H   0  0  0  0  0  0  0  0  0  0  0  0
   -0.5967   -5.8622    1.6736 H   0  0  0  0  0  0  0  0  0  0  0  0
   -0.6161   -7.4873    1.0562 H   0  0  0  0  0  0  0  0  0  0  0  0
   -0.3906   -6.4577    3.7944 H   0  0  0  0  0  0  0  0  0  0  0  0
   -2.5446   -7.9476    2.9579 H   0  0  0  0  0  0  0  0  0  0  0  0
   -2.1234   -7.7142    4.6805 H   0  0  0  0  0  0  0  0  0  0  0  0
   -2.5423   -9.3138    4.0403 H   0  0  0  0  0  0  0  0  0  0  0  0
   -0.9371   -9.3930    1.6703 H   0  0  0  0  0  0  0  0  0  0  0  0
   -0.7537  -10.6588    2.8723 H   0  0  0  0  0  0  0  0  0  0  0  0
    0.6885   -9.8568    2.2559 H   0  0  0  0  0  0  0  0  0  0  0  0
   -0.4961   -9.8975    5.0047 H   0  0  0  0  0  0  0  0  0  0  0  0
    3.1702   -7.0540    7.3759 H   0  0  0  0  0  0  0  0  0  0  0  0
    4.3457   -5.8169    4.1770 H   0  0  0  0  0  0  0  0  0  0  0  0
    3.4286   -8.1983    4.9557 H   0  0  0  0  0  0  0  0  0  0  0  0
    3.9206   -9.5237    2.8666 H   0  0  0  0  0  0  0  0  0  0  0  0
    6.7364   -9.8285    5.4267 H   0  0  0  0  0  0  0  0  0  0  0  0
    6.9640   -8.7832    6.8319 H   0  0  0  0  0  0  0  0  0  0  0  0
    7.1808   -8.1320    5.2428 H   0  0  0  0  0  0  0  0  0  0  0  0
    4.5222  -10.3771    6.5672 H   0  0  0  0  0  0  0  0  0  0  0  0
    3.3185   -9.1740    6.9606 H   0  0  0  0  0  0  0  0  0  0  0  0
    4.8704   -9.2092    7.8031 H   0  0  0  0  0  0  0  0  0  0  0  0
    6.7619   -5.7092    3.6947 H   0  0  0  0  0  0  0  0  0  0  0  0
    7.7215   -9.5776    3.1858 H   0  0  0  0  0  0  0  0  0  0  0  0
    6.7827   -9.6240    1.6965 H   0  0  0  0  0  0  0  0  0  0  0  0
    5.9868   -9.5976    3.2637 H   0  0  0  0  0  0  0  0  0  0  0  0
    8.9717   -7.5678    2.9427 H   0  0  0  0  0  0  0  0  0  0  0  0
    8.3545   -6.2454    1.9648 H   0  0  0  0  0  0  0  0  0  0  0  0
    8.5193   -7.8562    1.2681 H   0  0  0  0  0  0  0  0  0  0  0  0
    3.7763   -3.6148    1.3585 H   0  0  0  0  0  0  0  0  0  0  0  0
    4.7080   -4.3726    2.6316 H   0  0  0  0  0  0  0  0  0  0  0  0
    5.9890   -2.5421    2.7069 H   0  0  0  0  0  0  0  0  0  0  0  0
    7.6612   -2.2024    0.8919 H   0  0  0  0  0  0  0  0  0  0  0  0
    4.5966   -1.0285   -1.1529 H   0  0  0  0  0  0  0  0  0  0  0  0
    3.4315   -1.1236    0.1784 H   0  0  0  0  0  0  0  0  0  0  0  0
    4.0280   -2.5787   -0.5984 H   0  0  0  0  0  0  0  0  0  0  0  0
    6.0582    0.3969    0.4686 H   0  0  0  0  0  0  0  0  0  0  0  0
    6.5583   -0.3266    2.0115 H   0  0  0  0  0  0  0  0  0  0  0  0
    4.8664    0.1331    1.7745 H   0  0  0  0  0  0  0  0  0  0  0  0
  1  2  1  0
  1 42  1  0
  1 43  1  0
  1 44  1  0
  2 38  1  0
  2  3  1  0
  2 45  1  1
  3  4  1  0
  4  5  1  0
  4 36  1  0
  4 46  1  6
  6  5  1  6
  6 32  1  0
  6 33  1  0
  6  7  1  0
  7 27  1  0
  7  8  1  0
  7 47  1  6
  8  9  1  0
  9 18  1  0
  9 10  1  1
  9 11  1  0
 10 48  1  0
 10 49  1  0
 10 50  1  0
 11 12  1  0
 11 51  1  0
 11 52  1  0
 12 13  1  0
 12 53  1  0
 12 54  1  0
 13 14  1  0
 13 18  1  0
 13 55  1  1
 14 15  1  0
 14 16  1  0
 14 17  1  0
 15 56  1  0
 15 57  1  0
 15 58  1  0
 16 59  1  0
 16 60  1  0
 16 61  1  0
 17 62  1  0
 18 28  1  0
 18 19  1  1
 19 20  1  0
 20 21  2  0
 20 22  1  0
 22 24  1  0
 22 23  1  0
 22 63  1  1
 24 23  1  1
 24 29  1  0
 24 25  1  0
 25 26  1  0
 25 32  1  0
 25 64  1  1
 26 27  1  0
 26 29  1  0
 26 65  1  1
 27 28  1  0
 27 66  1  6
 29 30  1  0
 29 31  1  0
 30 67  1  0
 30 68  1  0
 30 69  1  0
 31 70  1  0
 31 71  1  0
 31 72  1  0
 32 33  1  0
 32 73  1  6
 33 34  1  0
 33 35  1  0
 34 74  1  0
 34 75  1  0
 34 76  1  0
 35 77  1  0
 35 78  1  0
 35 79  1  0
 36 37  1  0
 36 80  1  0
 36 81  1  0
 37 39  1  0
 37 38  1  0
 37 82  1  1
 38 39  1  0
 38 83  1  1
 39 40  1  0
 39 41  1  0
 40 84  1  0
 40 85  1  0
 40 86  1  0
 41 87  1  0
 41 88  1  0
 41 89  1  0
M  END
>  <i_m_ct_stereo_status>  (307) 
1

>  <s_m_source_file>  (307) 
/var/tmp/pbs.5083856.sched01/tmpavn6uaiu/120a7lu6gm5.sdf

>  <i_m_source_file_index>  (307) 
5

>  <i_lp_mmshare_version>  (307) 
48012

>  <i_f3d_flags>  (307) 
0

>  <s_epik_input>  (307) 
TzFbQ0BASF0yW0NIXTNDKFtDSDNdKShbQ0gzXSlbQ0BdNChbQ0hdKE80KUMoTzUpPU8pW0NASF0zW0NAQEhdKEM2KFtDSDNdKVtDSDNdKVtDQF02KE9bQ0BASF0oW0NIMl03KU9bQ0BASF0oW0NIM10pW0NASF0oW0NASF03OClDOChbQ0gzXSlbQ0gzXSlbQ0BASF0yT1tDQEBdKFtDQEBdMTU5KShbQ0gzXSlbQ0gyXVtDSDJdW0NASF05QyhbQ0gzXSkoW0NIM10pW09IXQ==

>  <s_epik_cmdline>  (307) 
J2VwaWtfcHl0aG9uJywgJy1waHQnLCAnMi4wJywgJy1waCcsICc3LjAnLCAnLXRuJywgJzgnLCAnLW1hJywgJzIwMCcsICctaW1hZScsICc8aW5maWxlLm1hZT4nLCAnLW9tYWUnLCAnPG91dGZpbGUubWFlPic=

>  <r_lp_tautomer_probability>  (307) 
1

>  <r_epik_Ionization_Penalty>  (307) 
5.25274e-08

>  <r_epik_Ionization_Penalty_Charging>  (307) 
0

>  <r_epik_Ionization_Penalty_Neutral>  (307) 
5.25274e-08

>  <r_epik_State_Penalty>  (307) 
-0

>  <r_epik_Charging_Adjusted_Penalty>  (307) 
0

>  <i_epik_Tot_Q>  (307) 
0

>  <i_epik_Tot_abs_Q>  (307) 
0

>  <s_epik_Chemistry_Notes>  (307) 
This compound has an ester and may undergo hydrolysis at high or low pH. This compound contains an acetal/aminal-like group ( X-CH(R)-Y where X, Y are N, S, or O) that may be acid/base labile, releasing an aldehyde.

>  <s_lp_Force_Field>  (307) 
OPLS3e

>  <r_lp_Energy>  (307) 
216.929

>  <b_lp_Chiralities_Consistent>  (307) 
1

>  <s_lp_Variant>  (307) 
89:0-1

>  <s_i_glide_gridfile>  (307) 
pfpi4k_grid

>  <i_i_glide_lignum>  (307) 
5

>  <i_i_glide_rotatable_bonds>  (307) 
4

>  <r_i_docking_score>  (307) 
-2.04513

>  <r_i_glide_ligand_efficiency>  (307) 
-0.0498813

>  <r_i_glide_ligand_efficiency_sa>  (307) 
-0.172002

>  <r_i_glide_ligand_efficiency_ln>  (307) 
-0.433882

>  <r_i_glide_gscore>  (307) 
-2.04513

>  <r_i_glide_lipo>  (307) 
-0.621311

>  <r_i_glide_hbond>  (307) 
0

>  <r_i_glide_metal>  (307) 
-0

>  <r_i_glide_rewards>  (307) 
-0.106017

>  <r_i_glide_evdw>  (307) 
-26.0938

>  <r_i_glide_ecoul>  (307) 
-1.48213

>  <r_i_glide_erotb>  (307) 
0.0982699

>  <r_i_glide_esite>  (307) 
-0.00942537

>  <r_i_glide_emodel>  (307) 
-11.7687

>  <r_i_glide_energy>  (307) 
-27.576

>  <r_i_glide_einternal>  (307) 
29.5267

>  <r_i_glide_intrahb_reward>  (307) 
-0

>  <i_i_glide_confnum>  (307) 
4

>  <i_i_glide_posenum>  (307) 
1

>  <r_i_glide_eff_state_penalty>  (307) 
0

>  <ligand_id>  (307) 
89

>  <original_smiles>  (307) 
CC1OC(OC23C4OC5(C)CCC(C(C)(C)O)C56OC(=O)C5OC57C(C(C4O6)C7(C)C)C2C3(C)C)CC2C1C2(C)C

>  <smiles>  (307) 
[H]OC(C([H])([H])[H])(C([H])([H])[H])C1([H])C([H])([H])C([H])([H])C2(C([H])([H])[H])OC3([H])C4([H])OC12OC(=O)C1([H])OC12C([H])(C4([H])C2(C([H])([H])[H])C([H])([H])[H])C1([H])C3(OC2([H])OC([H])(C([H])([H])[H])C3([H])C([H])(C2([H])[H])C3(C([H])([H])[H])C([H])([H])[H])C1(C([H])([H])[H])C([H])([H])[H]

$$$$
89:0:2
     RDKit          3D

 89 97  0  0  1  0  0  0  0  0999 V2000
    1.0046    5.3143    4.7429 C   0  0  0  0  0  0  0  0  0  0  0  0
    1.1902    3.8630    5.2533 C   0  0  2  0  0  0  0  0  0  0  0  0
    1.7315    3.0178    4.2482 O   0  0  0  0  0  0  0  0  0  0  0  0
    1.8256    1.6585    4.5393 C   0  0  1  0  0  0  0  0  0  0  0  0
    2.6771    1.3802    5.6238 O   0  0  0  0  0  0  0  0  0  0  0  0
    3.7290    0.3986    5.5642 C   0  0  2  0  0  0  0  0  0  0  0  0
    4.3444    0.1622    4.1382 C   0  0  2  0  0  0  0  0  0  0  0  0
    3.1842   -0.3326    3.4963 O   0  0  0  0  0  0  0  0  0  0  0  0
    3.1261   -0.8800    2.2157 C   0  0  1  0  0  0  0  0  0  0  0  0
    1.6407   -1.2352    1.9976 C   0  0  0  0  0  0  0  0  0  0  0  0
    3.5658    0.1269    1.1566 C   0  0  0  0  0  0  0  0  0  0  0  0
    3.9232   -0.7402   -0.0551 C   0  0  0  0  0  0  0  0  0  0  0  0
    4.3856   -2.1013    0.5183 C   0  0  1  0  0  0  0  0  0  0  0  0
    5.7970   -2.5820    0.0288 C   0  0  0  0  0  0  0  0  0  0  0  0
    6.2667   -3.8758    0.7241 C   0  0  0  0  0  0  0  0  0  0  0  0
    5.7790   -2.8074   -1.4938 C   0  0  0  0  0  0  0  0  0  0  0  0
    6.7768   -1.5885    0.2748 O   0  0  0  0  0  0  0  0  0  0  0  0
    4.1838   -2.0204    2.0747 C   0  0  2  0  0  0  0  0  0  0  0  0
    3.9081   -3.4082    2.4864 O   0  0  0  0  0  0  0  0  0  0  0  0
    2.9465   -3.8697    3.4130 C   0  0  0  0  0  0  0  0  0  0  0  0
    1.7282   -3.8974    3.2132 O   0  0  0  0  0  0  0  0  0  0  0  0
    3.5862   -4.4562    4.7123 C   0  0  2  0  0  0  0  0  0  0  0  0
    2.9597   -4.5477    6.0119 O   0  0  0  0  0  0  0  0  0  0  0  0
    3.9120   -3.4580    5.9184 C   0  0  2  0  0  0  0  0  0  0  0  0
    3.6194   -2.0646    5.5195 C   0  0  2  0  0  0  0  0  0  0  0  0
    5.0233   -2.1261    4.9537 C   0  0  1  0  0  0  0  0  0  0  0  0
    5.4165   -0.9752    4.0200 C   0  0  1  0  0  0  0  0  0  0  0  0
    5.4066   -1.4941    2.6395 O   0  0  0  0  0  0  0  0  0  0  0  0
    5.4323   -3.1764    6.0714 C   0  0  0  0  0  0  0  0  0  0  0  0
    5.7190   -2.7724    7.5387 C   0  0  0  0  0  0  0  0  0  0  0  0
    6.4103   -4.3210    5.7496 C   0  0  0  0  0  0  0  0  0  0  0  0
    3.4755   -0.8388    6.4391 C   0  0  1  0  0  0  0  0  0  0  0  0
    4.4534    0.2859    6.8970 C   0  0  0  0  0  0  0  0  0  0  0  0
    5.9885    0.2812    6.9399 C   0  0  0  0  0  0  0  0  0  0  0  0
    3.9897    1.0803    8.1262 C   0  0  0  0  0  0  0  0  0  0  0  0
    0.4574    0.9900    4.7276 C   0  0  0  0  0  0  0  0  0  0  0  0
   -0.4799    1.8466    5.5344 C   0  0  1  0  0  0  0  0  0  0  0  0
   -0.1182    3.3022    5.7713 C   0  0  2  0  0  0  0  0  0  0  0  0
   -1.2643    2.9588    4.8593 C   0  0  0  0  0  0  0  0  0  0  0  0
   -1.1562    3.1622    3.3377 C   0  0  0  0  0  0  0  0  0  0  0  0
   -2.6599    3.2086    5.3681 C   0  0  0  0  0  0  0  0  0  0  0  0
    0.5817    5.9104    5.5446 H   0  0  0  0  0  0  0  0  0  0  0  0
    0.3248    5.3806    3.9013 H   0  0  0  0  0  0  0  0  0  0  0  0
    1.9428    5.7722    4.4367 H   0  0  0  0  0  0  0  0  0  0  0  0
    1.9396    3.8819    6.0538 H   0  0  0  0  0  0  0  0  0  0  0  0
    2.1639    1.4127    3.5414 H   0  0  0  0  0  0  0  0  0  0  0  0
    4.7241    1.0822    3.7201 H   0  0  0  0  0  0  0  0  0  0  0  0
    1.4908   -1.9935    1.2350 H   0  0  0  0  0  0  0  0  0  0  0  0
    1.0652   -0.3663    1.6941 H   0  0  0  0  0  0  0  0  0  0  0  0
    1.1641   -1.5572    2.9132 H   0  0  0  0  0  0  0  0  0  0  0  0
    2.8248    0.8862    0.9071 H   0  0  0  0  0  0  0  0  0  0  0  0
    4.4651    0.6637    1.4450 H   0  0  0  0  0  0  0  0  0  0  0  0
    3.0340   -0.8789   -0.6768 H   0  0  0  0  0  0  0  0  0  0  0  0
    4.6727   -0.2516   -0.6854 H   0  0  0  0  0  0  0  0  0  0  0  0
    3.6486   -2.8285    0.1675 H   0  0  0  0  0  0  0  0  0  0  0  0
    5.5453   -4.6828    0.5948 H   0  0  0  0  0  0  0  0  0  0  0  0
    6.4183   -3.7376    1.7959 H   0  0  0  0  0  0  0  0  0  0  0  0
    7.2165   -4.2151    0.3158 H   0  0  0  0  0  0  0  0  0  0  0  0
    5.0567   -3.5756   -1.7677 H   0  0  0  0  0  0  0  0  0  0  0  0
    6.7520   -3.1298   -1.8545 H   0  0  0  0  0  0  0  0  0  0  0  0
    5.5133   -1.9043   -2.0399 H   0  0  0  0  0  0  0  0  0  0  0  0
    6.8030   -1.4386    1.2146 H   0  0  0  0  0  0  0  0  0  0  0  0
    4.2000   -5.3218    4.5258 H   0  0  0  0  0  0  0  0  0  0  0  0
    2.7655   -2.0208    4.8722 H   0  0  0  0  0  0  0  0  0  0  0  0
    5.2834   -2.8860    4.2236 H   0  0  0  0  0  0  0  0  0  0  0  0
    6.4051   -0.5788    4.2246 H   0  0  0  0  0  0  0  0  0  0  0  0
    6.6858   -2.2979    7.6481 H   0  0  0  0  0  0  0  0  0  0  0  0
    5.7164   -3.6240    8.2079 H   0  0  0  0  0  0  0  0  0  0  0  0
    4.9869   -2.0996    7.9709 H   0  0  0  0  0  0  0  0  0  0  0  0
    7.4332   -3.9580    5.8433 H   0  0  0  0  0  0  0  0  0  0  0  0
    6.3159   -4.7363    4.7442 H   0  0  0  0  0  0  0  0  0  0  0  0
    6.3168   -5.1456    6.4617 H   0  0  0  0  0  0  0  0  0  0  0  0
    2.5711   -0.8886    7.0385 H   0  0  0  0  0  0  0  0  0  0  0  0
    6.3554    0.0524    7.9398 H   0  0  0  0  0  0  0  0  0  0  0  0
    6.3933    1.2530    6.6588 H   0  0  0  0  0  0  0  0  0  0  0  0
    6.4454   -0.4541    6.2956 H   0  0  0  0  0  0  0  0  0  0  0  0
    4.2123    0.5343    9.0452 H   0  0  0  0  0  0  0  0  0  0  0  0
    2.9120    1.2563    8.1235 H   0  0  0  0  0  0  0  0  0  0  0  0
    4.4769    2.0541    8.1978 H   0  0  0  0  0  0  0  0  0  0  0  0
   -0.0099    0.8108    3.7584 H   0  0  0  0  0  0  0  0  0  0  0  0
    0.5492   -0.0028    5.1735 H   0  0  0  0  0  0  0  0  0  0  0  0
   -0.9629    1.3346    6.3672 H   0  0  0  0  0  0  0  0  0  0  0  0
   -0.3776    3.7415    6.7282 H   0  0  0  0  0  0  0  0  0  0  0  0
   -1.2871    4.2082    3.0759 H   0  0  0  0  0  0  0  0  0  0  0  0
   -1.8844    2.5567    2.8019 H   0  0  0  0  0  0  0  0  0  0  0  0
   -0.1836    2.8771    2.9388 H   0  0  0  0  0  0  0  0  0  0  0  0
   -2.9491    4.2224    5.1588 H   0  0  0  0  0  0  0  0  0  0  0  0
   -2.7158    3.0672    6.4496 H   0  0  0  0  0  0  0  0  0  0  0  0
   -3.3697    2.5423    4.8917 H   0  0  0  0  0  0  0  0  0  0  0  0
  1  2  1  0
  1 42  1  0
  1 43  1  0
  1 44  1  0
  2 38  1  0
  2  3  1  0
  2 45  1  1
  3  4  1  0
  4  5  1  0
  4 36  1  0
  4 46  1  6
  6  5  1  6
  6 32  1  0
  6 33  1  0
  6  7  1  0
  7 27  1  0
  7  8  1  0
  7 47  1  6
  8  9  1  0
  9 18  1  0
  9 10  1  6
  9 11  1  0
 10 48  1  0
 10 49  1  0
 10 50  1  0
 11 12  1  0
 11 51  1  0
 11 52  1  0
 12 13  1  0
 12 53  1  0
 12 54  1  0
 13 14  1  0
 13 18  1  0
 13 55  1  6
 14 15  1  0
 14 16  1  0
 14 17  1  0
 15 56  1  0
 15 57  1  0
 15 58  1  0
 16 59  1  0
 16 60  1  0
 16 61  1  0
 17 62  1  0
 18 28  1  0
 18 19  1  1
 19 20  1  0
 20 21  2  0
 20 22  1  0
 22 24  1  0
 22 23  1  0
 22 63  1  6
 24 23  1  1
 24 29  1  0
 24 25  1  0
 25 26  1  0
 25 32  1  0
 25 64  1  6
 26 27  1  0
 26 29  1  0
 26 65  1  6
 27 28  1  0
 27 66  1  1
 29 30  1  0
 29 31  1  0
 30 67  1  0
 30 68  1  0
 30 69  1  0
 31 70  1  0
 31 71  1  0
 31 72  1  0
 32 33  1  0
 32 73  1  1
 33 34  1  0
 33 35  1  0
 34 74  1  0
 34 75  1  0
 34 76  1  0
 35 77  1  0
 35 78  1  0
 35 79  1  0
 36 37  1  0
 36 80  1  0
 36 81  1  0
 37 39  1  0
 37 38  1  0
 37 82  1  1
 38 39  1  0
 38 83  1  1
 39 40  1  0
 39 41  1  0
 40 84  1  0
 40 85  1  0
 40 86  1  0
 41 87  1  0
 41 88  1  0
 41 89  1  0
M  END
>  <i_m_ct_stereo_status>  (308) 
1

>  <s_m_source_file>  (308) 
/var/tmp/pbs.5083856.sched01/tmpavn6uaiu/120a7lu6gm5.sdf

>  <i_m_source_file_index>  (308) 
5

>  <i_lp_mmshare_version>  (308) 
48012

>  <i_f3d_flags>  (308) 
0

>  <s_epik_input>  (308) 
TzFbQ0BASF0yW0NIXTNDKFtDSDNdKShbQ0gzXSlbQ0BdNChbQ0hdKE80KUMoTzUpPU8pW0NASF0zW0NAQEhdKEM2KFtDSDNdKVtDSDNdKVtDQF02KE9bQ0BASF0oW0NIMl03KU9bQ0BASF0oW0NIM10pW0NASF0oW0NASF03OClDOChbQ0gzXSlbQ0gzXSlbQ0BASF0yT1tDQEBdKFtDQEBdMTU5KShbQ0gzXSlbQ0gyXVtDSDJdW0NASF05QyhbQ0gzXSkoW0NIM10pW09IXQ==

>  <s_epik_cmdline>  (308) 
J2VwaWtfcHl0aG9uJywgJy1waHQnLCAnMi4wJywgJy1waCcsICc3LjAnLCAnLXRuJywgJzgnLCAnLW1hJywgJzIwMCcsICctaW1hZScsICc8aW5maWxlLm1hZT4nLCAnLW9tYWUnLCAnPG91dGZpbGUubWFlPic=

>  <r_lp_tautomer_probability>  (308) 
1

>  <r_epik_Ionization_Penalty>  (308) 
5.25274e-08

>  <r_epik_Ionization_Penalty_Charging>  (308) 
0

>  <r_epik_Ionization_Penalty_Neutral>  (308) 
5.25274e-08

>  <r_epik_State_Penalty>  (308) 
-0

>  <r_epik_Charging_Adjusted_Penalty>  (308) 
0

>  <i_epik_Tot_Q>  (308) 
0

>  <i_epik_Tot_abs_Q>  (308) 
0

>  <s_epik_Chemistry_Notes>  (308) 
This compound has an ester and may undergo hydrolysis at high or low pH. This compound contains an acetal/aminal-like group ( X-CH(R)-Y where X, Y are N, S, or O) that may be acid/base labile, releasing an aldehyde.

>  <s_lp_Force_Field>  (308) 
OPLS3e

>  <r_lp_Energy>  (308) 
216.929

>  <b_lp_Chiralities_Consistent>  (308) 
1

>  <s_lp_Variant>  (308) 
89:0-1

>  <s_i_glide_gridfile>  (308) 
pfpi4k_grid

>  <i_i_glide_lignum>  (308) 
5

>  <i_i_glide_rotatable_bonds>  (308) 
4

>  <r_i_docking_score>  (308) 
-1.57834

>  <r_i_glide_ligand_efficiency>  (308) 
-0.038496

>  <r_i_glide_ligand_efficiency_sa>  (308) 
-0.132743

>  <r_i_glide_ligand_efficiency_ln>  (308) 
-0.33485

>  <r_i_glide_gscore>  (308) 
-1.57834

>  <r_i_glide_lipo>  (308) 
-0.29691

>  <r_i_glide_hbond>  (308) 
0

>  <r_i_glide_metal>  (308) 
-0

>  <r_i_glide_rewards>  (308) 
-0.505068

>  <r_i_glide_evdw>  (308) 
-20.6885

>  <r_i_glide_ecoul>  (308) 
-0.477487

>  <r_i_glide_erotb>  (308) 
0.0982699

>  <r_i_glide_esite>  (308) 
-0.00242121

>  <r_i_glide_emodel>  (308) 
-12.2554

>  <r_i_glide_energy>  (308) 
-21.166

>  <r_i_glide_einternal>  (308) 
23.7039

>  <r_i_glide_intrahb_reward>  (308) 
-0.5

>  <i_i_glide_confnum>  (308) 
6

>  <i_i_glide_posenum>  (308) 
38

>  <r_i_glide_eff_state_penalty>  (308) 
0

>  <ligand_id>  (308) 
89

>  <original_smiles>  (308) 
CC1OC(OC23C4OC5(C)CCC(C(C)(C)O)C56OC(=O)C5OC57C(C(C4O6)C7(C)C)C2C3(C)C)CC2C1C2(C)C

>  <smiles>  (308) 
[H]OC(C([H])([H])[H])(C([H])([H])[H])C1([H])C([H])([H])C([H])([H])C2(C([H])([H])[H])OC3([H])C4([H])OC12OC(=O)C1([H])OC12C([H])(C4([H])C2(C([H])([H])[H])C([H])([H])[H])C1([H])C3(OC2([H])OC([H])(C([H])([H])[H])C3([H])C([H])(C2([H])[H])C3(C([H])([H])[H])C([H])([H])[H])C1(C([H])([H])[H])C([H])([H])[H]

$$$$
89:1:0
     RDKit          3D

 89 97  0  0  1  0  0  0  0  0999 V2000
    4.4824   -9.0363    4.3615 C   0  0  0  0  0  0  0  0  0  0  0  0
    3.4821   -8.2980    3.4648 C   0  0  2  0  0  0  0  0  0  0  0  0
    2.9187   -7.1704    4.0992 O   0  0  0  0  0  0  0  0  0  0  0  0
    1.9760   -6.4467    3.3595 C   0  0  1  0  0  0  0  0  0  0  0  0
    2.4232   -5.9246    2.1372 O   0  0  0  0  0  0  0  0  0  0  0  0
    3.6180   -5.1359    2.1557 C   0  0  2  0  0  0  0  0  0  0  0  0
    3.7811   -4.2412    3.4111 C   0  0  2  0  0  0  0  0  0  0  0  0
    2.5122   -3.5784    3.3801 O   0  0  0  0  0  0  0  0  0  0  0  0
    2.2610   -2.3871    4.0960 C   0  0  1  0  0  0  0  0  0  0  0  0
    0.8462   -1.9525    3.6754 C   0  0  0  0  0  0  0  0  0  0  0  0
    2.2282   -2.6856    5.6018 C   0  0  0  0  0  0  0  0  0  0  0  0
    2.3479   -1.3216    6.2706 C   0  0  0  0  0  0  0  0  0  0  0  0
    3.2029   -0.4590    5.3000 C   0  0  1  0  0  0  0  0  0  0  0  0
    4.4947    0.1999    5.9170 C   0  0  0  0  0  0  0  0  0  0  0  0
    4.0977    1.4044    6.7878 C   0  0  0  0  0  0  0  0  0  0  0  0
    5.4021   -0.7385    6.7672 C   0  0  0  0  0  0  0  0  0  0  0  0
    5.2872    0.7779    4.8908 O   0  0  0  0  0  0  0  0  0  0  0  0
    3.4325   -1.3178    4.0002 C   0  0  2  0  0  0  0  0  0  0  0  0
    3.5827   -0.4076    2.8737 O   0  0  0  0  0  0  0  0  0  0  0  0
    2.7572   -0.3318    1.7509 C   0  0  0  0  0  0  0  0  0  0  0  0
    1.6392    0.1518    1.8083 O   0  0  0  0  0  0  0  0  0  0  0  0
    3.3458   -0.8064    0.3583 C   0  0  1  0  0  0  0  0  0  0  0  0
    4.6417   -0.4594    0.1409 O   0  0  0  0  0  0  0  0  0  0  0  0
    4.5064   -1.9343    0.0427 C   0  0  2  0  0  0  0  0  0  0  0  0
    3.9009   -2.9398    1.0322 C   0  0  2  0  0  0  0  0  0  0  0  0
    5.0321   -2.6969    1.9171 C   0  0  1  0  0  0  0  0  0  0  0  0
    4.9398   -3.1932    3.3456 C   0  0  1  0  0  0  0  0  0  0  0  0
    4.6298   -2.0674    4.2024 O   0  0  0  0  0  0  0  0  0  0  0  0
    5.8876   -2.3230    0.6971 C   0  0  0  0  0  0  0  0  0  0  0  0
    6.5564   -3.3760   -0.2209 C   0  0  0  0  0  0  0  0  0  0  0  0
    6.9681   -1.2370    0.7552 C   0  0  0  0  0  0  0  0  0  0  0  0
    3.8065   -4.4484    0.7866 C   0  0  1  0  0  0  0  0  0  0  0  0
    4.6878   -5.6666    1.1951 C   0  0  0  0  0  0  0  0  0  0  0  0
    6.1167   -5.7437    1.7173 C   0  0  0  0  0  0  0  0  0  0  0  0
    4.4932   -6.8604    0.2957 C   0  0  0  0  0  0  0  0  0  0  0  0
    0.7135   -7.2671    3.0861 C   0  0  0  0  0  0  0  0  0  0  0  0
    0.9832   -8.7145    2.7649 C   0  0  1  0  0  0  0  0  0  0  0  0
    2.3991   -9.2322    2.9400 C   0  0  2  0  0  0  0  0  0  0  0  0
    1.2987   -9.7577    3.8385 C   0  0  0  0  0  0  0  0  0  0  0  0
    1.2297   -9.4552    5.3351 C   0  0  0  0  0  0  0  0  0  0  0  0
    0.8410  -11.1707    3.6135 C   0  0  0  0  0  0  0  0  0  0  0  0
    4.8573   -9.8792    3.7888 H   0  0  0  0  0  0  0  0  0  0  0  0
    4.0767   -9.4441    5.2956 H   0  0  0  0  0  0  0  0  0  0  0  0
    5.3326   -8.4015    4.6099 H   0  0  0  0  0  0  0  0  0  0  0  0
    4.0332   -7.8776    2.6318 H   0  0  0  0  0  0  0  0  0  0  0  0
    1.7132   -5.6836    4.0675 H   0  0  0  0  0  0  0  0  0  0  0  0
    3.8884   -4.8350    4.3226 H   0  0  0  0  0  0  0  0  0  0  0  0
    0.5728   -0.9540    4.0189 H   0  0  0  0  0  0  0  0  0  0  0  0
    0.1165   -2.6598    4.0848 H   0  0  0  0  0  0  0  0  0  0  0  0
    0.7271   -2.0228    2.5960 H   0  0  0  0  0  0  0  0  0  0  0  0
    1.3406   -3.2356    5.9233 H   0  0  0  0  0  0  0  0  0  0  0  0
    3.0823   -3.2925    5.8955 H   0  0  0  0  0  0  0  0  0  0  0  0
    1.3551   -0.8761    6.3842 H   0  0  0  0  0  0  0  0  0  0  0  0
    2.7188   -1.4250    7.2924 H   0  0  0  0  0  0  0  0  0  0  0  0
    2.5302    0.3469    4.9861 H   0  0  0  0  0  0  0  0  0  0  0  0
    3.4299    1.1163    7.6007 H   0  0  0  0  0  0  0  0  0  0  0  0
    3.6014    2.1915    6.2156 H   0  0  0  0  0  0  0  0  0  0  0  0
    4.9866    1.8412    7.2409 H   0  0  0  0  0  0  0  0  0  0  0  0
    4.9095   -1.1204    7.6628 H   0  0  0  0  0  0  0  0  0  0  0  0
    6.2862   -0.1953    7.1081 H   0  0  0  0  0  0  0  0  0  0  0  0
    5.7745   -1.6018    6.2182 H   0  0  0  0  0  0  0  0  0  0  0  0
    4.7445    1.3231    4.3469 H   0  0  0  0  0  0  0  0  0  0  0  0
    2.7114   -0.6718   -0.4969 H   0  0  0  0  0  0  0  0  0  0  0  0
    2.8981   -2.7212    1.3642 H   0  0  0  0  0  0  0  0  0  0  0  0
    5.1854   -1.6826    2.1795 H   0  0  0  0  0  0  0  0  0  0  0  0
    5.8660   -3.6259    3.6933 H   0  0  0  0  0  0  0  0  0  0  0  0
    7.4228   -3.8284    0.2675 H   0  0  0  0  0  0  0  0  0  0  0  0
    6.9208   -2.9209   -1.1516 H   0  0  0  0  0  0  0  0  0  0  0  0
    5.8637   -4.1407   -0.5432 H   0  0  0  0  0  0  0  0  0  0  0  0
    7.8623   -1.5874    1.2507 H   0  0  0  0  0  0  0  0  0  0  0  0
    6.6303   -0.3254    1.2580 H   0  0  0  0  0  0  0  0  0  0  0  0
    7.2841   -0.9848   -0.2539 H   0  0  0  0  0  0  0  0  0  0  0  0
    3.1032   -4.6406   -0.0046 H   0  0  0  0  0  0  0  0  0  0  0  0
    6.7795   -6.0942    0.9205 H   0  0  0  0  0  0  0  0  0  0  0  0
    6.1568   -6.4736    2.5306 H   0  0  0  0  0  0  0  0  0  0  0  0
    6.4991   -4.8000    2.0724 H   0  0  0  0  0  0  0  0  0  0  0  0
    5.0148   -6.6848   -0.6521 H   0  0  0  0  0  0  0  0  0  0  0  0
    3.4305   -7.0032    0.1268 H   0  0  0  0  0  0  0  0  0  0  0  0
    4.9028   -7.7711    0.7318 H   0  0  0  0  0  0  0  0  0  0  0  0
    0.1798   -7.2481    4.0289 H   0  0  0  0  0  0  0  0  0  0  0  0
    0.0824   -6.7700    2.3487 H   0  0  0  0  0  0  0  0  0  0  0  0
    0.4340   -9.0615    1.8772 H   0  0  0  0  0  0  0  0  0  0  0  0
    2.7653   -9.8812    2.1564 H   0  0  0  0  0  0  0  0  0  0  0  0
    1.9302  -10.0854    5.8936 H   0  0  0  0  0  0  0  0  0  0  0  0
    0.2250   -9.6245    5.7343 H   0  0  0  0  0  0  0  0  0  0  0  0
    1.4926   -8.4284    5.5493 H   0  0  0  0  0  0  0  0  0  0  0  0
    1.5002  -11.8624    4.1467 H   0  0  0  0  0  0  0  0  0  0  0  0
    0.8530  -11.3907    2.5469 H   0  0  0  0  0  0  0  0  0  0  0  0
   -0.1700  -11.2567    3.9953 H   0  0  0  0  0  0  0  0  0  0  0  0
  1  2  1  0
  1 42  1  0
  1 43  1  0
  1 44  1  0
  2 38  1  0
  2  3  1  0
  2 45  1  6
  3  4  1  0
  4  5  1  0
  4 36  1  0
  4 46  1  1
  6  5  1  6
  6 32  1  0
  6 33  1  0
  6  7  1  0
  7 27  1  0
  7  8  1  0
  7 47  1  1
  8  9  1  0
  9 18  1  0
  9 10  1  6
  9 11  1  0
 10 48  1  0
 10 49  1  0
 10 50  1  0
 11 12  1  0
 11 51  1  0
 11 52  1  0
 12 13  1  0
 12 53  1  0
 12 54  1  0
 13 14  1  0
 13 18  1  0
 13 55  1  6
 14 15  1  0
 14 16  1  0
 14 17  1  0
 15 56  1  0
 15 57  1  0
 15 58  1  0
 16 59  1  0
 16 60  1  0
 16 61  1  0
 17 62  1  0
 18 28  1  0
 18 19  1  6
 19 20  1  0
 20 21  2  0
 20 22  1  0
 22 24  1  0
 22 23  1  0
 22 63  1  6
 24 23  1  6
 24 29  1  0
 24 25  1  0
 25 26  1  0
 25 32  1  0
 25 64  1  1
 26 27  1  0
 26 29  1  0
 26 65  1  1
 27 28  1  0
 27 66  1  1
 29 30  1  0
 29 31  1  0
 30 67  1  0
 30 68  1  0
 30 69  1  0
 31 70  1  0
 31 71  1  0
 31 72  1  0
 32 33  1  0
 32 73  1  6
 33 34  1  0
 33 35  1  0
 34 74  1  0
 34 75  1  0
 34 76  1  0
 35 77  1  0
 35 78  1  0
 35 79  1  0
 36 37  1  0
 36 80  1  0
 36 81  1  0
 37 39  1  0
 37 38  1  0
 37 82  1  6
 38 39  1  0
 38 83  1  6
 39 40  1  0
 39 41  1  0
 40 84  1  0
 40 85  1  0
 40 86  1  0
 41 87  1  0
 41 88  1  0
 41 89  1  0
M  END
>  <i_m_ct_stereo_status>  (309) 
1

>  <s_m_source_file>  (309) 
/var/tmp/pbs.5083856.sched01/tmps7bodu2b/125l1e4tfmj.sdf

>  <i_m_source_file_index>  (309) 
1

>  <i_lp_mmshare_version>  (309) 
48012

>  <i_f3d_flags>  (309) 
0

>  <s_epik_input>  (309) 
TzFbQ0BASF0yW0NIXTNDKFtDSDNdKShbQ0gzXSlbQ0BdNChbQ0hdKE80KUMoTzUpPU8pW0NASF0zW0NAQEhdKEM2KFtDSDNdKVtDSDNdKVtDQF02KE9bQ0BASF0oW0NIMl03KU9bQ0BASF0oW0NIM10pW0NASF0oW0NASF03OClDOChbQ0gzXSlbQ0gzXSlbQ0BASF0yT1tDQEBdKFtDQEBdMTU5KShbQ0gzXSlbQ0gyXVtDSDJdW0NASF05QyhbQ0gzXSkoW0NIM10pW09IXQ==

>  <s_epik_cmdline>  (309) 
J2VwaWtfcHl0aG9uJywgJy1waHQnLCAnMi4wJywgJy1waCcsICc3LjAnLCAnLXRuJywgJzgnLCAnLW1hJywgJzIwMCcsICctaW1hZScsICc8aW5maWxlLm1hZT4nLCAnLW9tYWUnLCAnPG91dGZpbGUubWFlPic=

>  <r_lp_tautomer_probability>  (309) 
1

>  <r_epik_Ionization_Penalty>  (309) 
5.25274e-08

>  <r_epik_Ionization_Penalty_Charging>  (309) 
0

>  <r_epik_Ionization_Penalty_Neutral>  (309) 
5.25274e-08

>  <r_epik_State_Penalty>  (309) 
0

>  <r_epik_Charging_Adjusted_Penalty>  (309) 
0

>  <i_epik_Tot_Q>  (309) 
0

>  <i_epik_Tot_abs_Q>  (309) 
0

>  <s_epik_Chemistry_Notes>  (309) 
This compound has an ester and may undergo hydrolysis at high or low pH. This compound contains an acetal/aminal-like group ( X-CH(R)-Y where X, Y are N, S, or O) that may be acid/base labile, releasing an aldehyde.

>  <s_lp_Force_Field>  (309) 
OPLS3e

>  <r_lp_Energy>  (309) 
238.014

>  <b_lp_Chiralities_Consistent>  (309) 
1

>  <s_lp_Variant>  (309) 
89:0-2

>  <s_i_glide_gridfile>  (309) 
pfpi4k_grid

>  <i_i_glide_lignum>  (309) 
1

>  <i_i_glide_rotatable_bonds>  (309) 
4

>  <r_i_docking_score>  (309) 
-1.96844

>  <r_i_glide_ligand_efficiency>  (309) 
-0.0480107

>  <r_i_glide_ligand_efficiency_sa>  (309) 
-0.165551

>  <r_i_glide_ligand_efficiency_ln>  (309) 
-0.417611

>  <r_i_glide_gscore>  (309) 
-1.96844

>  <r_i_glide_lipo>  (309) 
-0.702661

>  <r_i_glide_hbond>  (309) 
0

>  <r_i_glide_metal>  (309) 
-0

>  <r_i_glide_rewards>  (309) 
-0.000312033

>  <r_i_glide_evdw>  (309) 
-23.8414

>  <r_i_glide_ecoul>  (309) 
-0.835642

>  <r_i_glide_erotb>  (309) 
0.0982699

>  <r_i_glide_esite>  (309) 
-0.0463187

>  <r_i_glide_emodel>  (309) 
-22.5051

>  <r_i_glide_energy>  (309) 
-24.677

>  <r_i_glide_einternal>  (309) 
6.7352

>  <r_i_glide_intrahb_reward>  (309) 
-0

>  <i_i_glide_confnum>  (309) 
2

>  <i_i_glide_posenum>  (309) 
33

>  <r_i_glide_eff_state_penalty>  (309) 
0

>  <ligand_id>  (309) 
89

>  <original_smiles>  (309) 
CC1OC(OC23C4OC5(C)CCC(C(C)(C)O)C56OC(=O)C5OC57C(C(C4O6)C7(C)C)C2C3(C)C)CC2C1C2(C)C

>  <smiles>  (309) 
[H]OC(C([H])([H])[H])(C([H])([H])[H])C1([H])C([H])([H])C([H])([H])C2(C([H])([H])[H])OC3([H])C4([H])OC12OC(=O)C1([H])OC12C([H])(C4([H])C2(C([H])([H])[H])C([H])([H])[H])C1([H])C3(OC2([H])OC([H])(C([H])([H])[H])C3([H])C([H])(C2([H])[H])C3(C([H])([H])[H])C([H])([H])[H])C1(C([H])([H])[H])C([H])([H])[H]

$$$$
89:1:1
     RDKit          3D

 89 97  0  0  1  0  0  0  0  0999 V2000
    2.6145   -7.5388    5.5960 C   0  0  0  0  0  0  0  0  0  0  0  0
    2.4247   -7.3617    4.0701 C   0  0  2  0  0  0  0  0  0  0  0  0
    1.8203   -6.1143    3.7576 O   0  0  0  0  0  0  0  0  0  0  0  0
    1.5794   -5.8784    2.3938 C   0  0  1  0  0  0  0  0  0  0  0  0
    2.7365   -5.9827    1.6299 O   0  0  0  0  0  0  0  0  0  0  0  0
    3.7708   -4.9911    1.7644 C   0  0  2  0  0  0  0  0  0  0  0  0
    3.9148   -4.2727    3.1792 C   0  0  2  0  0  0  0  0  0  0  0  0
    2.6428   -3.6589    3.2112 O   0  0  0  0  0  0  0  0  0  0  0  0
    2.2347   -2.6726    4.1057 C   0  0  1  0  0  0  0  0  0  0  0  0
    0.7707   -2.3523    3.6976 C   0  0  0  0  0  0  0  0  0  0  0  0
    2.2070   -3.2235    5.5330 C   0  0  0  0  0  0  0  0  0  0  0  0
    2.1975   -1.9718    6.4034 C   0  0  0  0  0  0  0  0  0  0  0  0
    2.9311   -0.8805    5.5590 C   0  0  1  0  0  0  0  0  0  0  0  0
    4.1480   -0.1914    6.2424 C   0  0  0  0  0  0  0  0  0  0  0  0
    5.1337   -1.1311    6.9753 C   0  0  0  0  0  0  0  0  0  0  0  0
    4.8988    0.7720    5.2911 C   0  0  0  0  0  0  0  0  0  0  0  0
    3.5954    0.6097    7.2609 O   0  0  0  0  0  0  0  0  0  0  0  0
    3.2636   -1.5330    4.1662 C   0  0  2  0  0  0  0  0  0  0  0  0
    3.3016   -0.4489    3.1788 O   0  0  0  0  0  0  0  0  0  0  0  0
    2.4996   -0.3260    2.0605 C   0  0  0  0  0  0  0  0  0  0  0  0
    1.3149    0.0230    2.1405 O   0  0  0  0  0  0  0  0  0  0  0  0
    3.1547   -0.5202    0.6292 C   0  0  1  0  0  0  0  0  0  0  0  0
    4.3932   -0.0282    0.4929 O   0  0  0  0  0  0  0  0  0  0  0  0
    4.3995   -1.4717    0.1602 C   0  0  2  0  0  0  0  0  0  0  0  0
    3.9027   -2.6634    0.9779 C   0  0  2  0  0  0  0  0  0  0  0  0
    4.9940   -2.4383    1.9251 C   0  0  1  0  0  0  0  0  0  0  0  0
    4.9760   -3.1374    3.2638 C   0  0  1  0  0  0  0  0  0  0  0  0
    4.5463   -2.1693    4.2696 O   0  0  0  0  0  0  0  0  0  0  0  0
    5.7970   -1.8596    0.7643 C   0  0  0  0  0  0  0  0  0  0  0  0
    6.5861   -2.6898   -0.2764 C   0  0  0  0  0  0  0  0  0  0  0  0
    6.7583   -0.6874    0.9950 C   0  0  0  0  0  0  0  0  0  0  0  0
    3.9359   -4.1158    0.5262 C   0  0  1  0  0  0  0  0  0  0  0  0
    4.8912   -5.2895    0.8320 C   0  0  0  0  0  0  0  0  0  0  0  0
    6.3346   -5.3216    1.3223 C   0  0  0  0  0  0  0  0  0  0  0  0
    4.7828   -6.4300   -0.1578 C   0  0  0  0  0  0  0  0  0  0  0  0
    0.4713   -6.7589    1.8673 C   0  0  0  0  0  0  0  0  0  0  0  0
    0.5620   -8.1487    2.4008 C   0  0  1  0  0  0  0  0  0  0  0  0
    1.5395   -8.4400    3.5186 C   0  0  2  0  0  0  0  0  0  0  0  0
    0.0583   -8.4694    3.7806 C   0  0  0  0  0  0  0  0  0  0  0  0
   -0.6801   -7.4875    4.7189 C   0  0  0  0  0  0  0  0  0  0  0  0
   -0.5265   -9.7950    3.9202 C   0  0  0  0  0  0  0  0  0  0  0  0
    2.9914   -8.5492    5.7913 H   0  0  0  0  0  0  0  0  0  0  0  0
    1.7019   -7.4560    6.1772 H   0  0  0  0  0  0  0  0  0  0  0  0
    3.3306   -6.8387    6.0153 H   0  0  0  0  0  0  0  0  0  0  0  0
    3.3880   -7.4047    3.5661 H   0  0  0  0  0  0  0  0  0  0  0  0
    1.1255   -4.8994    2.2891 H   0  0  0  0  0  0  0  0  0  0  0  0
    4.0638   -5.0010    3.9727 H   0  0  0  0  0  0  0  0  0  0  0  0
    0.3644   -1.4430    4.1609 H   0  0  0  0  0  0  0  0  0  0  0  0
    0.1276   -3.1829    3.9829 H   0  0  0  0  0  0  0  0  0  0  0  0
    0.6775   -2.2856    2.6199 H   0  0  0  0  0  0  0  0  0  0  0  0
    1.3583   -3.8769    5.7401 H   0  0  0  0  0  0  0  0  0  0  0  0
    3.0998   -3.8049    5.7593 H   0  0  0  0  0  0  0  0  0  0  0  0
    1.1741   -1.6585    6.5910 H   0  0  0  0  0  0  0  0  0  0  0  0
    2.6090   -2.1672    7.3867 H   0  0  0  0  0  0  0  0  0  0  0  0
    2.1645   -0.1229    5.3532 H   0  0  0  0  0  0  0  0  0  0  0  0
    5.5935   -1.8817    6.3384 H   0  0  0  0  0  0  0  0  0  0  0  0
    4.6626   -1.6648    7.8012 H   0  0  0  0  0  0  0  0  0  0  0  0
    5.9543   -0.5524    7.4022 H   0  0  0  0  0  0  0  0  0  0  0  0
    5.3971    0.2367    4.4819 H   0  0  0  0  0  0  0  0  0  0  0  0
    5.6858    1.3193    5.8105 H   0  0  0  0  0  0  0  0  0  0  0  0
    4.2213    1.4973    4.8349 H   0  0  0  0  0  0  0  0  0  0  0  0
    3.0781    1.2957    6.8517 H   0  0  0  0  0  0  0  0  0  0  0  0
    2.5347   -0.2848   -0.2016 H   0  0  0  0  0  0  0  0  0  0  0  0
    2.8653   -2.5942    1.2903 H   0  0  0  0  0  0  0  0  0  0  0  0
    5.0277   -1.4672    2.3380 H   0  0  0  0  0  0  0  0  0  0  0  0
    5.9543   -3.5047    3.5651 H   0  0  0  0  0  0  0  0  0  0  0  0
    7.4876   -3.1302    0.1616 H   0  0  0  0  0  0  0  0  0  0  0  0
    6.9155   -2.0849   -1.1276 H   0  0  0  0  0  0  0  0  0  0  0  0
    5.9742   -3.4843   -0.7278 H   0  0  0  0  0  0  0  0  0  0  0  0
    7.6862   -1.0524    1.4452 H   0  0  0  0  0  0  0  0  0  0  0  0
    6.2653    0.0279    1.6563 H   0  0  0  0  0  0  0  0  0  0  0  0
    7.0330   -0.1800    0.0891 H   0  0  0  0  0  0  0  0  0  0  0  0
    3.2707   -4.2621   -0.3260 H   0  0  0  0  0  0  0  0  0  0  0  0
    7.0215   -5.4814    0.4904 H   0  0  0  0  0  0  0  0  0  0  0  0
    6.4679   -6.1496    2.0185 H   0  0  0  0  0  0  0  0  0  0  0  0
    6.6455   -4.4026    1.8144 H   0  0  0  0  0  0  0  0  0  0  0  0
    5.3238   -6.1335   -1.0422 H   0  0  0  0  0  0  0  0  0  0  0  0
    3.7625   -6.6083   -0.4483 H   0  0  0  0  0  0  0  0  0  0  0  0
    5.1784   -7.3386    0.2806 H   0  0  0  0  0  0  0  0  0  0  0  0
   -0.4366   -6.3300    2.2621 H   0  0  0  0  0  0  0  0  0  0  0  0
    0.3886   -6.7181    0.7686 H   0  0  0  0  0  0  0  0  0  0  0  0
    0.4176   -8.9290    1.6753 H   0  0  0  0  0  0  0  0  0  0  0  0
    2.0448   -9.4244    3.4544 H   0  0  0  0  0  0  0  0  0  0  0  0
   -0.5169   -7.7588    5.7622 H   0  0  0  0  0  0  0  0  0  0  0  0
   -1.7578   -7.4925    4.5394 H   0  0  0  0  0  0  0  0  0  0  0  0
   -0.3505   -6.4602    4.6074 H   0  0  0  0  0  0  0  0  0  0  0  0
   -0.3114  -10.0679    4.9597 H   0  0  0  0  0  0  0  0  0  0  0  0
   -0.0486  -10.5246    3.2597 H   0  0  0  0  0  0  0  0  0  0  0  0
   -1.5826   -9.7155    3.6581 H   0  0  0  0  0  0  0  0  0  0  0  0
  1  2  1  0
  1 42  1  0
  1 43  1  0
  1 44  1  0
  2 38  1  0
  2  3  1  0
  2 45  1  6
  3  4  1  0
  4  5  1  0
  4 36  1  0
  4 46  1  1
  6  5  1  1
  6 32  1  0
  6 33  1  0
  6  7  1  0
  7 27  1  0
  7  8  1  0
  7 47  1  1
  8  9  1  0
  9 18  1  0
  9 10  1  6
  9 11  1  0
 10 48  1  0
 10 49  1  0
 10 50  1  0
 11 12  1  0
 11 51  1  0
 11 52  1  0
 12 13  1  0
 12 53  1  0
 12 54  1  0
 13 14  1  0
 13 18  1  0
 13 55  1  6
 14 15  1  0
 14 16  1  0
 14 17  1  0
 15 56  1  0
 15 57  1  0
 15 58  1  0
 16 59  1  0
 16 60  1  0
 16 61  1  0
 17 62  1  0
 18 28  1  0
 18 19  1  6
 19 20  1  0
 20 21  2  0
 20 22  1  0
 22 24  1  0
 22 23  1  0
 22 63  1  6
 24 23  1  6
 24 29  1  0
 24 25  1  0
 25 26  1  0
 25 32  1  0
 25 64  1  1
 26 27  1  0
 26 29  1  0
 26 65  1  1
 27 28  1  0
 27 66  1  1
 29 30  1  0
 29 31  1  0
 30 67  1  0
 30 68  1  0
 30 69  1  0
 31 70  1  0
 31 71  1  0
 31 72  1  0
 32 33  1  0
 32 73  1  6
 33 34  1  0
 33 35  1  0
 34 74  1  0
 34 75  1  0
 34 76  1  0
 35 77  1  0
 35 78  1  0
 35 79  1  0
 36 37  1  0
 36 80  1  0
 36 81  1  0
 37 39  1  0
 37 38  1  0
 37 82  1  6
 38 39  1  0
 38 83  1  6
 39 40  1  0
 39 41  1  0
 40 84  1  0
 40 85  1  0
 40 86  1  0
 41 87  1  0
 41 88  1  0
 41 89  1  0
M  END
>  <i_m_ct_stereo_status>  (310) 
1

>  <s_m_source_file>  (310) 
/var/tmp/pbs.5083856.sched01/tmps7bodu2b/125l1e4tfmj.sdf

>  <i_m_source_file_index>  (310) 
1

>  <i_lp_mmshare_version>  (310) 
48012

>  <i_f3d_flags>  (310) 
0

>  <s_epik_input>  (310) 
TzFbQ0BASF0yW0NIXTNDKFtDSDNdKShbQ0gzXSlbQ0BdNChbQ0hdKE80KUMoTzUpPU8pW0NASF0zW0NAQEhdKEM2KFtDSDNdKVtDSDNdKVtDQF02KE9bQ0BASF0oW0NIMl03KU9bQ0BASF0oW0NIM10pW0NASF0oW0NASF03OClDOChbQ0gzXSlbQ0gzXSlbQ0BASF0yT1tDQEBdKFtDQEBdMTU5KShbQ0gzXSlbQ0gyXVtDSDJdW0NASF05QyhbQ0gzXSkoW0NIM10pW09IXQ==

>  <s_epik_cmdline>  (310) 
J2VwaWtfcHl0aG9uJywgJy1waHQnLCAnMi4wJywgJy1waCcsICc3LjAnLCAnLXRuJywgJzgnLCAnLW1hJywgJzIwMCcsICctaW1hZScsICc8aW5maWxlLm1hZT4nLCAnLW9tYWUnLCAnPG91dGZpbGUubWFlPic=

>  <r_lp_tautomer_probability>  (310) 
1

>  <r_epik_Ionization_Penalty>  (310) 
5.25274e-08

>  <r_epik_Ionization_Penalty_Charging>  (310) 
0

>  <r_epik_Ionization_Penalty_Neutral>  (310) 
5.25274e-08

>  <r_epik_State_Penalty>  (310) 
0

>  <r_epik_Charging_Adjusted_Penalty>  (310) 
0

>  <i_epik_Tot_Q>  (310) 
0

>  <i_epik_Tot_abs_Q>  (310) 
0

>  <s_epik_Chemistry_Notes>  (310) 
This compound has an ester and may undergo hydrolysis at high or low pH. This compound contains an acetal/aminal-like group ( X-CH(R)-Y where X, Y are N, S, or O) that may be acid/base labile, releasing an aldehyde.

>  <s_lp_Force_Field>  (310) 
OPLS3e

>  <r_lp_Energy>  (310) 
238.014

>  <b_lp_Chiralities_Consistent>  (310) 
1

>  <s_lp_Variant>  (310) 
89:0-2

>  <s_i_glide_gridfile>  (310) 
pfpi4k_grid

>  <i_i_glide_lignum>  (310) 
1

>  <i_i_glide_rotatable_bonds>  (310) 
4

>  <r_i_docking_score>  (310) 
-1.25825

>  <r_i_glide_ligand_efficiency>  (310) 
-0.0306891

>  <r_i_glide_ligand_efficiency_sa>  (310) 
-0.105823

>  <r_i_glide_ligand_efficiency_ln>  (310) 
-0.266943

>  <r_i_glide_gscore>  (310) 
-1.25825

>  <r_i_glide_lipo>  (310) 
-0.496302

>  <r_i_glide_hbond>  (310) 
0

>  <r_i_glide_metal>  (310) 
-0

>  <r_i_glide_rewards>  (310) 
-2.91442e-05

>  <r_i_glide_evdw>  (310) 
-17.0063

>  <r_i_glide_ecoul>  (310) 
0.4177

>  <r_i_glide_erotb>  (310) 
0.0982699

>  <r_i_glide_esite>  (310) 
-0.0725325

>  <r_i_glide_emodel>  (310) 
-0.486906

>  <r_i_glide_energy>  (310) 
-16.5886

>  <r_i_glide_einternal>  (310) 
28.1796

>  <r_i_glide_intrahb_reward>  (310) 
-0

>  <i_i_glide_confnum>  (310) 
2

>  <i_i_glide_posenum>  (310) 
8

>  <r_i_glide_eff_state_penalty>  (310) 
0

>  <ligand_id>  (310) 
89

>  <original_smiles>  (310) 
CC1OC(OC23C4OC5(C)CCC(C(C)(C)O)C56OC(=O)C5OC57C(C(C4O6)C7(C)C)C2C3(C)C)CC2C1C2(C)C

>  <smiles>  (310) 
[H]OC(C([H])([H])[H])(C([H])([H])[H])C1([H])C([H])([H])C([H])([H])C2(C([H])([H])[H])OC3([H])C4([H])OC12OC(=O)C1([H])OC12C([H])(C4([H])C2(C([H])([H])[H])C([H])([H])[H])C1([H])C3(OC2([H])OC([H])(C([H])([H])[H])C3([H])C([H])(C2([H])[H])C3(C([H])([H])[H])C([H])([H])[H])C1(C([H])([H])[H])C([H])([H])[H]

$$$$
89:1:2
     RDKit          3D

 89 97  0  0  1  0  0  0  0  0999 V2000
    3.0474   -8.9306    5.0176 C   0  0  0  0  0  0  0  0  0  0  0  0
    2.6431   -8.1873    3.7178 C   0  0  2  0  0  0  0  0  0  0  0  0
    2.1626   -6.8739    3.9458 O   0  0  0  0  0  0  0  0  0  0  0  0
    1.6758   -6.1771    2.8245 C   0  0  1  0  0  0  0  0  0  0  0  0
    2.6348   -5.9897    1.8067 O   0  0  0  0  0  0  0  0  0  0  0  0
    3.6646   -4.9719    1.9798 C   0  0  2  0  0  0  0  0  0  0  0  0
    3.9665   -4.4271    3.4165 C   0  0  2  0  0  0  0  0  0  0  0  0
    2.6500   -3.9537    3.7004 O   0  0  0  0  0  0  0  0  0  0  0  0
    2.2959   -3.1288    4.7629 C   0  0  1  0  0  0  0  0  0  0  0  0
    0.7808   -2.9114    4.6264 C   0  0  0  0  0  0  0  0  0  0  0  0
    2.5607   -3.8103    6.1241 C   0  0  0  0  0  0  0  0  0  0  0  0
    2.5837   -2.6642    7.1231 C   0  0  0  0  0  0  0  0  0  0  0  0
    3.0685   -1.4163    6.3165 C   0  0  1  0  0  0  0  0  0  0  0  0
    4.3170   -0.6745    6.8868 C   0  0  0  0  0  0  0  0  0  0  0  0
    5.4847   -1.5857    7.3460 C   0  0  0  0  0  0  0  0  0  0  0  0
    4.8144    0.4497    5.9576 C   0  0  0  0  0  0  0  0  0  0  0  0
    3.8767   -0.0181    8.0607 O   0  0  0  0  0  0  0  0  0  0  0  0
    3.2312   -1.8652    4.8227 C   0  0  2  0  0  0  0  0  0  0  0  0
    3.0178   -0.7149    3.9697 O   0  0  0  0  0  0  0  0  0  0  0  0
    2.0302   -0.5202    3.0160 C   0  0  0  0  0  0  0  0  0  0  0  0
    0.8544   -0.3380    3.3006 O   0  0  0  0  0  0  0  0  0  0  0  0
    2.4520   -0.4796    1.4999 C   0  0  1  0  0  0  0  0  0  0  0  0
    3.6192    0.1392    1.2283 O   0  0  0  0  0  0  0  0  0  0  0  0
    3.6952   -1.2447    0.7167 C   0  0  2  0  0  0  0  0  0  0  0  0
    3.4563   -2.5620    1.4704 C   0  0  2  0  0  0  0  0  0  0  0  0
    4.6671   -2.3131    2.2674 C   0  0  1  0  0  0  0  0  0  0  0  0
    4.9203   -3.1746    3.4907 C   0  0  1  0  0  0  0  0  0  0  0  0
    4.5596   -2.3825    4.6557 O   0  0  0  0  0  0  0  0  0  0  0  0
    5.2274   -1.5273    1.0620 C   0  0  0  0  0  0  0  0  0  0  0  0
    5.8858   -2.1931   -0.1743 C   0  0  0  0  0  0  0  0  0  0  0  0
    6.1435   -0.3242    1.2956 C   0  0  0  0  0  0  0  0  0  0  0  0
    3.5575   -3.9512    0.8377 C   0  0  1  0  0  0  0  0  0  0  0  0
    4.6520   -5.0615    0.8298 C   0  0  0  0  0  0  0  0  0  0  0  0
    6.1500   -4.9877    1.1146 C   0  0  0  0  0  0  0  0  0  0  0  0
    4.4971   -6.0978   -0.2547 C   0  0  0  0  0  0  0  0  0  0  0  0
    0.4193   -6.8036    2.2833 C   0  0  0  0  0  0  0  0  0  0  0  0
    0.4544   -8.2832    2.2655 C   0  0  1  0  0  0  0  0  0  0  0  0
    1.5795   -8.9967    2.9950 C   0  0  2  0  0  0  0  0  0  0  0  0
    0.1579   -9.0763    3.5076 C   0  0  0  0  0  0  0  0  0  0  0  0
   -0.2904   -8.4371    4.8301 C   0  0  0  0  0  0  0  0  0  0  0  0
   -0.5413  -10.3539    3.2846 C   0  0  0  0  0  0  0  0  0  0  0  0
    3.3387   -9.9613    4.7785 H   0  0  0  0  0  0  0  0  0  0  0  0
    2.2475   -9.0388    5.7550 H   0  0  0  0  0  0  0  0  0  0  0  0
    3.8917   -8.4747    5.5342 H   0  0  0  0  0  0  0  0  0  0  0  0
    3.5249   -8.1236    3.0748 H   0  0  0  0  0  0  0  0  0  0  0  0
    1.1806   -5.2707    3.1200 H   0  0  0  0  0  0  0  0  0  0  0  0
    4.3285   -5.2288    4.0786 H   0  0  0  0  0  0  0  0  0  0  0  0
    0.3743   -2.1106    5.2323 H   0  0  0  0  0  0  0  0  0  0  0  0
    0.2400   -3.8280    4.8908 H   0  0  0  0  0  0  0  0  0  0  0  0
    0.5101   -2.7540    3.5790 H   0  0  0  0  0  0  0  0  0  0  0  0
    1.8185   -4.5665    6.3845 H   0  0  0  0  0  0  0  0  0  0  0  0
    3.5238   -4.3141    6.1466 H   0  0  0  0  0  0  0  0  0  0  0  0
    1.5751   -2.4813    7.5128 H   0  0  0  0  0  0  0  0  0  0  0  0
    3.1776   -2.9144    8.0098 H   0  0  0  0  0  0  0  0  0  0  0  0
    2.2217   -0.7210    6.3284 H   0  0  0  0  0  0  0  0  0  0  0  0
    5.8754   -2.2040    6.5414 H   0  0  0  0  0  0  0  0  0  0  0  0
    5.2035   -2.2636    8.1522 H   0  0  0  0  0  0  0  0  0  0  0  0
    6.3247   -0.9886    7.6984 H   0  0  0  0  0  0  0  0  0  0  0  0
    5.1983    0.0334    5.0255 H   0  0  0  0  0  0  0  0  0  0  0  0
    5.6369    1.0114    6.3990 H   0  0  0  0  0  0  0  0  0  0  0  0
    4.0035    1.1421    5.7121 H   0  0  0  0  0  0  0  0  0  0  0  0
    4.6036    0.4718    8.4065 H   0  0  0  0  0  0  0  0  0  0  0  0
    1.6456   -0.1717    0.8668 H   0  0  0  0  0  0  0  0  0  0  0  0
    2.4939   -2.6260    1.9530 H   0  0  0  0  0  0  0  0  0  0  0  0
    4.6928   -1.3677    2.7654 H   0  0  0  0  0  0  0  0  0  0  0  0
    5.9601   -3.4355    3.5726 H   0  0  0  0  0  0  0  0  0  0  0  0
    6.8725   -2.5867    0.0659 H   0  0  0  0  0  0  0  0  0  0  0  0
    6.0292   -1.4758   -0.9879 H   0  0  0  0  0  0  0  0  0  0  0  0
    5.2847   -2.9787   -0.6107 H   0  0  0  0  0  0  0  0  0  0  0  0
    7.1363   -0.6483    1.5526 H   0  0  0  0  0  0  0  0  0  0  0  0
    5.8258    0.3178    2.1157 H   0  0  0  0  0  0  0  0  0  0  0  0
    6.2650    0.2895    0.4037 H   0  0  0  0  0  0  0  0  0  0  0  0
    2.7914   -4.0834    0.0749 H   0  0  0  0  0  0  0  0  0  0  0  0
    6.7132   -4.9715    0.1827 H   0  0  0  0  0  0  0  0  0  0  0  0
    6.4648   -5.8666    1.6749 H   0  0  0  0  0  0  0  0  0  0  0  0
    6.4308   -4.1093    1.6641 H   0  0  0  0  0  0  0  0  0  0  0  0
    4.8924   -5.7179   -1.1988 H   0  0  0  0  0  0  0  0  0  0  0  0
    3.4524   -6.3364   -0.3895 H   0  0  0  0  0  0  0  0  0  0  0  0
    5.0029   -7.0236   -0.0255 H   0  0  0  0  0  0  0  0  0  0  0  0
   -0.3878   -6.5297    2.9771 H   0  0  0  0  0  0  0  0  0  0  0  0
    0.1550   -6.3728    1.3122 H   0  0  0  0  0  0  0  0  0  0  0  0
    0.1296   -8.6761    1.3122 H   0  0  0  0  0  0  0  0  0  0  0  0
    1.9755   -9.8962    2.5141 H   0  0  0  0  0  0  0  0  0  0  0  0
    0.0238   -9.0404    5.6850 H   0  0  0  0  0  0  0  0  0  0  0  0
   -1.3750   -8.3092    4.8684 H   0  0  0  0  0  0  0  0  0  0  0  0
    0.1438   -7.4518    4.9768 H   0  0  0  0  0  0  0  0  0  0  0  0
   -0.2466  -11.0385    4.0679 H   0  0  0  0  0  0  0  0  0  0  0  0
   -0.2209  -10.7907    2.3313 H   0  0  0  0  0  0  0  0  0  0  0  0
   -1.6153  -10.1718    3.2362 H   0  0  0  0  0  0  0  0  0  0  0  0
  1  2  1  0
  1 42  1  0
  1 43  1  0
  1 44  1  0
  2 38  1  0
  2  3  1  0
  2 45  1  6
  3  4  1  0
  4  5  1  0
  4 36  1  0
  4 46  1  1
  6  5  1  1
  6 32  1  0
  6 33  1  0
  6  7  1  0
  7 27  1  0
  7  8  1  0
  7 47  1  1
  8  9  1  0
  9 18  1  0
  9 10  1  6
  9 11  1  0
 10 48  1  0
 10 49  1  0
 10 50  1  0
 11 12  1  0
 11 51  1  0
 11 52  1  0
 12 13  1  0
 12 53  1  0
 12 54  1  0
 13 14  1  0
 13 18  1  0
 13 55  1  6
 14 15  1  0
 14 16  1  0
 14 17  1  0
 15 56  1  0
 15 57  1  0
 15 58  1  0
 16 59  1  0
 16 60  1  0
 16 61  1  0
 17 62  1  0
 18 28  1  0
 18 19  1  6
 19 20  1  0
 20 21  2  0
 20 22  1  0
 22 24  1  0
 22 23  1  0
 22 63  1  6
 24 23  1  6
 24 29  1  0
 24 25  1  0
 25 26  1  0
 25 32  1  0
 25 64  1  1
 26 27  1  0
 26 29  1  0
 26 65  1  1
 27 28  1  0
 27 66  1  1
 29 30  1  0
 29 31  1  0
 30 67  1  0
 30 68  1  0
 30 69  1  0
 31 70  1  0
 31 71  1  0
 31 72  1  0
 32 33  1  0
 32 73  1  6
 33 34  1  0
 33 35  1  0
 34 74  1  0
 34 75  1  0
 34 76  1  0
 35 77  1  0
 35 78  1  0
 35 79  1  0
 36 37  1  0
 36 80  1  0
 36 81  1  0
 37 39  1  0
 37 38  1  0
 37 82  1  6
 38 39  1  0
 38 83  1  6
 39 40  1  0
 39 41  1  0
 40 84  1  0
 40 85  1  0
 40 86  1  0
 41 87  1  0
 41 88  1  0
 41 89  1  0
M  END
>  <i_m_ct_stereo_status>  (311) 
1

>  <s_m_source_file>  (311) 
/var/tmp/pbs.5083856.sched01/tmps7bodu2b/125l1e4tfmj.sdf

>  <i_m_source_file_index>  (311) 
1

>  <i_lp_mmshare_version>  (311) 
48012

>  <i_f3d_flags>  (311) 
0

>  <s_epik_input>  (311) 
TzFbQ0BASF0yW0NIXTNDKFtDSDNdKShbQ0gzXSlbQ0BdNChbQ0hdKE80KUMoTzUpPU8pW0NASF0zW0NAQEhdKEM2KFtDSDNdKVtDSDNdKVtDQF02KE9bQ0BASF0oW0NIMl03KU9bQ0BASF0oW0NIM10pW0NASF0oW0NASF03OClDOChbQ0gzXSlbQ0gzXSlbQ0BASF0yT1tDQEBdKFtDQEBdMTU5KShbQ0gzXSlbQ0gyXVtDSDJdW0NASF05QyhbQ0gzXSkoW0NIM10pW09IXQ==

>  <s_epik_cmdline>  (311) 
J2VwaWtfcHl0aG9uJywgJy1waHQnLCAnMi4wJywgJy1waCcsICc3LjAnLCAnLXRuJywgJzgnLCAnLW1hJywgJzIwMCcsICctaW1hZScsICc8aW5maWxlLm1hZT4nLCAnLW9tYWUnLCAnPG91dGZpbGUubWFlPic=

>  <r_lp_tautomer_probability>  (311) 
1

>  <r_epik_Ionization_Penalty>  (311) 
5.25274e-08

>  <r_epik_Ionization_Penalty_Charging>  (311) 
0

>  <r_epik_Ionization_Penalty_Neutral>  (311) 
5.25274e-08

>  <r_epik_State_Penalty>  (311) 
0

>  <r_epik_Charging_Adjusted_Penalty>  (311) 
0

>  <i_epik_Tot_Q>  (311) 
0

>  <i_epik_Tot_abs_Q>  (311) 
0

>  <s_epik_Chemistry_Notes>  (311) 
This compound has an ester and may undergo hydrolysis at high or low pH. This compound contains an acetal/aminal-like group ( X-CH(R)-Y where X, Y are N, S, or O) that may be acid/base labile, releasing an aldehyde.

>  <s_lp_Force_Field>  (311) 
OPLS3e

>  <r_lp_Energy>  (311) 
238.014

>  <b_lp_Chiralities_Consistent>  (311) 
1

>  <s_lp_Variant>  (311) 
89:0-2

>  <s_i_glide_gridfile>  (311) 
pfpi4k_grid

>  <i_i_glide_lignum>  (311) 
1

>  <i_i_glide_rotatable_bonds>  (311) 
4

>  <r_i_docking_score>  (311) 
-1.09428

>  <r_i_glide_ligand_efficiency>  (311) 
-0.0266899

>  <r_i_glide_ligand_efficiency_sa>  (311) 
-0.0920324

>  <r_i_glide_ligand_efficiency_ln>  (311) 
-0.232156

>  <r_i_glide_gscore>  (311) 
-1.09428

>  <r_i_glide_lipo>  (311) 
-0.342348

>  <r_i_glide_hbond>  (311) 
0

>  <r_i_glide_metal>  (311) 
-0

>  <r_i_glide_rewards>  (311) 
0

>  <r_i_glide_evdw>  (311) 
-17.7036

>  <r_i_glide_ecoul>  (311) 
-0.321497

>  <r_i_glide_erotb>  (311) 
0.0982699

>  <r_i_glide_esite>  (311) 
-0.032036

>  <r_i_glide_emodel>  (311) 
-0.461277

>  <r_i_glide_energy>  (311) 
-18.0251

>  <r_i_glide_einternal>  (311) 
29.4883

>  <r_i_glide_intrahb_reward>  (311) 
-0

>  <i_i_glide_confnum>  (311) 
2

>  <i_i_glide_posenum>  (311) 
15

>  <r_i_glide_eff_state_penalty>  (311) 
0

>  <ligand_id>  (311) 
89

>  <original_smiles>  (311) 
CC1OC(OC23C4OC5(C)CCC(C(C)(C)O)C56OC(=O)C5OC57C(C(C4O6)C7(C)C)C2C3(C)C)CC2C1C2(C)C

>  <smiles>  (311) 
[H]OC(C([H])([H])[H])(C([H])([H])[H])C1([H])C([H])([H])C([H])([H])C2(C([H])([H])[H])OC3([H])C4([H])OC12OC(=O)C1([H])OC12C([H])(C4([H])C2(C([H])([H])[H])C([H])([H])[H])C1([H])C3(OC2([H])OC([H])(C([H])([H])[H])C3([H])C([H])(C2([H])[H])C3(C([H])([H])[H])C([H])([H])[H])C1(C([H])([H])[H])C([H])([H])[H]

$$$$
91:0:0
     RDKit          3D

 40 43  0  0  1  0  0  0  0  0999 V2000
   -3.3847    3.3478    2.5905 C   0  0  0  0  0  0  0  0  0  0  0  0
   -2.2385    3.6437    3.3667 O   0  0  0  0  0  0  0  0  0  0  0  0
   -1.7534    2.5584    4.0602 C   0  0  0  0  0  0  0  0  0  0  0  0
   -2.0535    2.4336    5.4275 C   0  0  0  0  0  0  0  0  0  0  0  0
   -2.8558    3.3455    6.0589 O   0  0  0  0  0  0  0  0  0  0  0  0
   -1.5850    1.3231    6.1387 C   0  0  0  0  0  0  0  0  0  0  0  0
   -0.7763    0.3581    5.5169 C   0  0  0  0  0  0  0  0  0  0  0  0
   -0.4838   -0.7669    6.2439 O   0  0  0  0  0  0  0  0  0  0  0  0
   -0.0418   -1.9159    5.6673 C   0  0  0  0  0  0  0  0  0  0  0  0
   -0.1649   -2.9744    6.2778 O   0  0  0  0  0  0  0  0  0  0  0  0
    0.6383   -1.7697    4.3328 C   0  0  0  0  0  0  0  0  0  0  0  0
    1.3855   -2.8673    3.8008 C   0  0  0  0  0  0  0  0  0  0  0  0
    1.3461   -4.0917    4.4475 O   0  0  0  0  0  0  0  0  0  0  0  0
    2.1021   -5.1898    3.9689 C   0  0  0  0  0  0  0  0  0  0  0  0
    2.1598   -2.6304    2.6501 C   0  0  0  0  0  0  0  0  0  0  0  0
    2.2263   -1.3777    2.0837 C   0  0  0  0  0  0  0  0  0  0  0  0
    1.4858   -0.2906    2.5660 C   0  0  0  0  0  0  0  0  0  0  0  0
    1.7145    0.9282    1.9687 O   0  0  0  0  0  0  0  0  0  0  0  0
    2.2887    1.9354    2.8073 C   0  0  0  0  0  0  0  0  0  0  0  0
    0.5884   -0.5144    3.6562 C   0  0  0  0  0  0  0  0  0  0  0  0
   -0.3687    0.5083    4.1746 C   0  0  0  0  0  0  0  0  0  0  0  0
   -0.9466    1.5762    3.4321 C   0  0  0  0  0  0  0  0  0  0  0  0
   -0.7884    1.6711    2.0801 O   0  0  0  0  0  0  0  0  0  0  0  0
    3.1186   -1.3914    1.0581 O   0  0  0  0  0  0  0  0  0  0  0  0
    3.6762   -2.6751    1.0390 C   0  0  0  0  0  0  0  0  0  0  0  0
    2.9931   -3.4686    1.9662 O   0  0  0  0  0  0  0  0  0  0  0  0
   -3.7229    4.2480    2.0730 H   0  0  0  0  0  0  0  0  0  0  0  0
   -4.1829    3.0052    3.2461 H   0  0  0  0  0  0  0  0  0  0  0  0
   -3.1893    2.5716    1.8463 H   0  0  0  0  0  0  0  0  0  0  0  0
   -2.9826    3.1698    6.9795 H   0  0  0  0  0  0  0  0  0  0  0  0
   -1.8907    1.1993    7.1670 H   0  0  0  0  0  0  0  0  0  0  0  0
    1.9568   -6.0438    4.6324 H   0  0  0  0  0  0  0  0  0  0  0  0
    3.1631   -4.9560    3.9680 H   0  0  0  0  0  0  0  0  0  0  0  0
    1.7761   -5.4762    2.9708 H   0  0  0  0  0  0  0  0  0  0  0  0
    2.4810    2.8360    2.2198 H   0  0  0  0  0  0  0  0  0  0  0  0
    3.2334    1.5985    3.2396 H   0  0  0  0  0  0  0  0  0  0  0  0
    1.6372    2.2361    3.6293 H   0  0  0  0  0  0  0  0  0  0  0  0
   -0.0818    1.1609    1.7035 H   0  0  0  0  0  0  0  0  0  0  0  0
    3.6419   -3.1142    0.0385 H   0  0  0  0  0  0  0  0  0  0  0  0
    4.7137   -2.5908    1.3581 H   0  0  0  0  0  0  0  0  0  0  0  0
  1  2  1  0
  1 27  1  0
  1 28  1  0
  1 29  1  0
  2  3  1  0
  3 22  2  0
  3  4  1  0
  4  5  1  0
  4  6  2  0
  5 30  1  0
  6  7  1  0
  6 31  1  0
  7 21  2  0
  7  8  1  0
  8  9  1  0
  9 10  2  0
  9 11  1  0
 11 20  2  0
 11 12  1  0
 12 13  1  0
 12 15  2  0
 13 14  1  0
 14 32  1  0
 14 33  1  0
 14 34  1  0
 15 26  1  0
 15 16  1  0
 16 17  2  0
 16 24  1  0
 17 18  1  0
 17 20  1  0
 18 19  1  0
 19 35  1  0
 19 36  1  0
 19 37  1  0
 20 21  1  0
 21 22  1  0
 22 23  1  0
 23 38  1  0
 24 25  1  0
 25 26  1  0
 25 39  1  0
 25 40  1  0
M  END
>  <i_m_ct_stereo_status>  (312) 
1

>  <s_m_source_file>  (312) 
/var/tmp/pbs.5083856.sched01/tmp9abifats/1301k9tyfmu.sdf

>  <i_m_source_file_index>  (312) 
1

>  <i_lp_mmshare_version>  (312) 
48012

>  <i_f3d_flags>  (312) 
0

>  <s_epik_input>  (312) 
W0NIM11PYyhjKFtPSF0pW2NIXTEpYyhbT0hdKWMoYzEyKWMzYyhjKG8yKT1PKWMoT1tDSDNdKWM0YyhPW0NIMl1PNCljM09bQ0gzXQ==

>  <s_epik_cmdline>  (312) 
J2VwaWtfcHl0aG9uJywgJy1waHQnLCAnMi4wJywgJy1waCcsICc3LjAnLCAnLXRuJywgJzgnLCAnLW1hJywgJzIwMCcsICctaW1hZScsICc8aW5maWxlLm1hZT4nLCAnLW9tYWUnLCAnPG91dGZpbGUubWFlPic=

>  <r_epik_Ionization_Penalty>  (312) 
0.0630183

>  <r_epik_Ionization_Penalty_Charging>  (312) 
0

>  <r_epik_Ionization_Penalty_Neutral>  (312) 
0.0630183

>  <r_epik_State_Penalty>  (312) 
0.0517063

>  <r_epik_Charging_Adjusted_Penalty>  (312) 
0.0517063

>  <i_epik_Tot_Q>  (312) 
0

>  <i_epik_Tot_abs_Q>  (312) 
0

>  <s_epik_Chemistry_Notes>  (312) 
This compound contains an acetal/aminal-like group ( X-CH(R)-Y where X, Y are N, S, or O) that may be acid/base labile, releasing an aldehyde.

>  <s_lp_Force_Field>  (312) 
OPLS3e

>  <r_lp_Energy>  (312) 
65.6951

>  <b_lp_Chiralities_Consistent>  (312) 
1

>  <s_lp_Variant>  (312) 
91:0-1

>  <s_i_glide_gridfile>  (312) 
pfpi4k_grid

>  <i_i_glide_lignum>  (312) 
1

>  <i_i_glide_rotatable_bonds>  (312) 
5

>  <r_i_docking_score>  (312) 
-3.00225

>  <r_i_glide_ligand_efficiency>  (312) 
-0.115471

>  <r_i_glide_ligand_efficiency_sa>  (312) 
-0.342083

>  <r_i_glide_ligand_efficiency_ln>  (312) 
-0.705068

>  <r_i_glide_gscore>  (312) 
-3.00225

>  <r_i_glide_lipo>  (312) 
-0.0795392

>  <r_i_glide_hbond>  (312) 
0

>  <r_i_glide_metal>  (312) 
-0

>  <r_i_glide_rewards>  (312) 
-1.43895

>  <r_i_glide_evdw>  (312) 
-27.5253

>  <r_i_glide_ecoul>  (312) 
-0.656463

>  <r_i_glide_erotb>  (312) 
0

>  <r_i_glide_esite>  (312) 
-0.0090254

>  <r_i_glide_emodel>  (312) 
-38.5717

>  <r_i_glide_energy>  (312) 
-28.1818

>  <r_i_glide_einternal>  (312) 
0.535306

>  <r_i_glide_intrahb_reward>  (312) 
-0.5

>  <i_i_glide_confnum>  (312) 
2

>  <i_i_glide_posenum>  (312) 
26

>  <r_i_glide_eff_state_penalty>  (312) 
0

>  <ligand_id>  (312) 
91

>  <original_smiles>  (312) 
COc1c(O)cc2oc(=O)c3c(OC)c4c(c(OC)c3c2c1O)OCO4

>  <smiles>  (312) 
[H]Oc1c(OC([H])([H])[H])c(O[H])c2c(oc(=O)c3c(OC([H])([H])[H])c4c(c(OC([H])([H])[H])c32)OC([H])([H])O4)c1[H]

$$$$
91:0:1
     RDKit          3D

 40 43  0  0  1  0  0  0  0  0999 V2000
   -3.3805    3.3170    2.5903 C   0  0  0  0  0  0  0  0  0  0  0  0
   -2.2634    3.5946    3.4172 O   0  0  0  0  0  0  0  0  0  0  0  0
   -1.7664    2.4889    4.0671 C   0  0  0  0  0  0  0  0  0  0  0  0
   -2.0828    2.3235    5.4243 C   0  0  0  0  0  0  0  0  0  0  0  0
   -2.9046    3.2162    6.0492 O   0  0  0  0  0  0  0  0  0  0  0  0
   -1.6220    1.1931    6.1074 C   0  0  0  0  0  0  0  0  0  0  0  0
   -0.7997    0.2490    5.4673 C   0  0  0  0  0  0  0  0  0  0  0  0
   -0.5126   -0.8997    6.1590 O   0  0  0  0  0  0  0  0  0  0  0  0
   -0.0522   -2.0255    5.5544 C   0  0  0  0  0  0  0  0  0  0  0  0
   -0.1749   -3.1017    6.1297 O   0  0  0  0  0  0  0  0  0  0  0  0
    0.6498   -1.8319    4.2367 C   0  0  0  0  0  0  0  0  0  0  0  0
    1.4174   -2.9069    3.6858 C   0  0  0  0  0  0  0  0  0  0  0  0
    1.3754   -4.1524    4.2892 O   0  0  0  0  0  0  0  0  0  0  0  0
    2.1565   -5.2275    3.7971 C   0  0  0  0  0  0  0  0  0  0  0  0
    2.2149   -2.6243    2.5589 C   0  0  0  0  0  0  0  0  0  0  0  0
    2.2790   -1.3573    2.0333 C   0  0  0  0  0  0  0  0  0  0  0  0
    1.5222   -0.2914    2.5373 C   0  0  0  0  0  0  0  0  0  0  0  0
    1.7542    0.9470    1.9872 O   0  0  0  0  0  0  0  0  0  0  0  0
    2.3100    1.9260    2.8688 C   0  0  0  0  0  0  0  0  0  0  0  0
    0.6037   -0.5534    3.6015 C   0  0  0  0  0  0  0  0  0  0  0  0
   -0.3663    0.4487    4.1366 C   0  0  0  0  0  0  0  0  0  0  0  0
   -0.9377    1.5380    3.4191 C   0  0  0  0  0  0  0  0  0  0  0  0
   -0.7587    1.6773    2.0793 O   0  0  0  0  0  0  0  0  0  0  0  0
    3.1927   -1.3301    1.0255 O   0  0  0  0  0  0  0  0  0  0  0  0
    3.7630   -2.6076    0.9786 C   0  0  0  0  0  0  0  0  0  0  0  0
    3.0666   -3.4354    1.8654 O   0  0  0  0  0  0  0  0  0  0  0  0
   -3.7055    4.2254    2.0775 H   0  0  0  0  0  0  0  0  0  0  0  0
   -4.1933    2.9506    3.2126 H   0  0  0  0  0  0  0  0  0  0  0  0
   -3.1594    2.5581    1.8384 H   0  0  0  0  0  0  0  0  0  0  0  0
   -3.2658    3.8239    5.4240 H   0  0  0  0  0  0  0  0  0  0  0  0
   -1.9532    1.0398    7.1231 H   0  0  0  0  0  0  0  0  0  0  0  0
    2.0018   -6.1029    4.4286 H   0  0  0  0  0  0  0  0  0  0  0  0
    3.2156   -4.9821    3.8271 H   0  0  0  0  0  0  0  0  0  0  0  0
    1.8567   -5.4851    2.7836 H   0  0  0  0  0  0  0  0  0  0  0  0
    2.5059    2.8498    2.3171 H   0  0  0  0  0  0  0  0  0  0  0  0
    3.2490    1.5789    3.3059 H   0  0  0  0  0  0  0  0  0  0  0  0
    1.6434    2.1929    3.6893 H   0  0  0  0  0  0  0  0  0  0  0  0
   -0.0528    1.1683    1.6928 H   0  0  0  0  0  0  0  0  0  0  0  0
    3.7508   -3.0137   -0.0369 H   0  0  0  0  0  0  0  0  0  0  0  0
    4.7939   -2.5268    1.3230 H   0  0  0  0  0  0  0  0  0  0  0  0
  1  2  1  0
  1 27  1  0
  1 28  1  0
  1 29  1  0
  2  3  1  0
  3 22  2  0
  3  4  1  0
  4  5  1  0
  4  6  2  0
  5 30  1  0
  6  7  1  0
  6 31  1  0
  7 21  2  0
  7  8  1  0
  8  9  1  0
  9 10  2  0
  9 11  1  0
 11 20  2  0
 11 12  1  0
 12 13  1  0
 12 15  2  0
 13 14  1  0
 14 32  1  0
 14 33  1  0
 14 34  1  0
 15 26  1  0
 15 16  1  0
 16 17  2  0
 16 24  1  0
 17 18  1  0
 17 20  1  0
 18 19  1  0
 19 35  1  0
 19 36  1  0
 19 37  1  0
 20 21  1  0
 21 22  1  0
 22 23  1  0
 23 38  1  0
 24 25  1  0
 25 26  1  0
 25 39  1  0
 25 40  1  0
M  END
>  <i_m_ct_stereo_status>  (313) 
1

>  <s_m_source_file>  (313) 
/var/tmp/pbs.5083856.sched01/tmp9abifats/1301k9tyfmu.sdf

>  <i_m_source_file_index>  (313) 
1

>  <i_lp_mmshare_version>  (313) 
48012

>  <i_f3d_flags>  (313) 
0

>  <s_epik_input>  (313) 
W0NIM11PYyhjKFtPSF0pW2NIXTEpYyhbT0hdKWMoYzEyKWMzYyhjKG8yKT1PKWMoT1tDSDNdKWM0YyhPW0NIMl1PNCljM09bQ0gzXQ==

>  <s_epik_cmdline>  (313) 
J2VwaWtfcHl0aG9uJywgJy1waHQnLCAnMi4wJywgJy1waCcsICc3LjAnLCAnLXRuJywgJzgnLCAnLW1hJywgJzIwMCcsICctaW1hZScsICc8aW5maWxlLm1hZT4nLCAnLW9tYWUnLCAnPG91dGZpbGUubWFlPic=

>  <r_epik_Ionization_Penalty>  (313) 
0.0630183

>  <r_epik_Ionization_Penalty_Charging>  (313) 
0

>  <r_epik_Ionization_Penalty_Neutral>  (313) 
0.0630183

>  <r_epik_State_Penalty>  (313) 
0.0517063

>  <r_epik_Charging_Adjusted_Penalty>  (313) 
0.0517063

>  <i_epik_Tot_Q>  (313) 
0

>  <i_epik_Tot_abs_Q>  (313) 
0

>  <s_epik_Chemistry_Notes>  (313) 
This compound contains an acetal/aminal-like group ( X-CH(R)-Y where X, Y are N, S, or O) that may be acid/base labile, releasing an aldehyde.

>  <s_lp_Force_Field>  (313) 
OPLS3e

>  <r_lp_Energy>  (313) 
65.6951

>  <b_lp_Chiralities_Consistent>  (313) 
1

>  <s_lp_Variant>  (313) 
91:0-1

>  <s_i_glide_gridfile>  (313) 
pfpi4k_grid

>  <i_i_glide_lignum>  (313) 
1

>  <i_i_glide_rotatable_bonds>  (313) 
5

>  <r_i_docking_score>  (313) 
-2.87583

>  <r_i_glide_ligand_efficiency>  (313) 
-0.110609

>  <r_i_glide_ligand_efficiency_sa>  (313) 
-0.327679

>  <r_i_glide_ligand_efficiency_ln>  (313) 
-0.67538

>  <r_i_glide_gscore>  (313) 
-2.87583

>  <r_i_glide_lipo>  (313) 
-0.0685207

>  <r_i_glide_hbond>  (313) 
0

>  <r_i_glide_metal>  (313) 
-0

>  <r_i_glide_rewards>  (313) 
-1.43895

>  <r_i_glide_evdw>  (313) 
-27.4739

>  <r_i_glide_ecoul>  (313) 
0.0963616

>  <r_i_glide_erotb>  (313) 
0

>  <r_i_glide_esite>  (313) 
-0.00912507

>  <r_i_glide_emodel>  (313) 
-37.4403

>  <r_i_glide_energy>  (313) 
-27.3775

>  <r_i_glide_einternal>  (313) 
0.603673

>  <r_i_glide_intrahb_reward>  (313) 
-0.5

>  <i_i_glide_confnum>  (313) 
1

>  <i_i_glide_posenum>  (313) 
28

>  <r_i_glide_eff_state_penalty>  (313) 
0

>  <ligand_id>  (313) 
91

>  <original_smiles>  (313) 
COc1c(O)cc2oc(=O)c3c(OC)c4c(c(OC)c3c2c1O)OCO4

>  <smiles>  (313) 
[H]Oc1c(OC([H])([H])[H])c(O[H])c2c(oc(=O)c3c(OC([H])([H])[H])c4c(c(OC([H])([H])[H])c32)OC([H])([H])O4)c1[H]

$$$$
91:0:2
     RDKit          3D

 40 43  0  0  1  0  0  0  0  0999 V2000
   -3.2953    3.7311    2.6370 C   0  0  0  0  0  0  0  0  0  0  0  0
   -2.1118    3.9279    3.3908 O   0  0  0  0  0  0  0  0  0  0  0  0
   -1.6945    2.7838    4.0286 C   0  0  0  0  0  0  0  0  0  0  0  0
   -2.1299    2.5100    5.3379 C   0  0  0  0  0  0  0  0  0  0  0  0
   -2.9866    3.3442    5.9883 O   0  0  0  0  0  0  0  0  0  0  0  0
   -1.7416    1.3156    5.9661 C   0  0  0  0  0  0  0  0  0  0  0  0
   -0.8723    0.4207    5.3192 C   0  0  0  0  0  0  0  0  0  0  0  0
   -0.6417   -0.7739    5.9519 O   0  0  0  0  0  0  0  0  0  0  0  0
   -0.1377   -1.8586    5.3151 C   0  0  0  0  0  0  0  0  0  0  0  0
   -0.3038   -2.9743    5.8077 O   0  0  0  0  0  0  0  0  0  0  0  0
    0.6586   -1.5827    4.0691 C   0  0  0  0  0  0  0  0  0  0  0  0
    1.4537   -2.6290    3.4976 C   0  0  0  0  0  0  0  0  0  0  0  0
    1.3649   -3.9109    4.0135 O   0  0  0  0  0  0  0  0  0  0  0  0
    2.1536   -4.9624    3.4799 C   0  0  0  0  0  0  0  0  0  0  0  0
    2.3247   -2.2817    2.4410 C   0  0  0  0  0  0  0  0  0  0  0  0
    2.4398   -0.9811    2.0107 C   0  0  0  0  0  0  0  0  0  0  0  0
    1.6681    0.0605    2.5393 C   0  0  0  0  0  0  0  0  0  0  0  0
    1.9915    1.3219    2.0987 O   0  0  0  0  0  0  0  0  0  0  0  0
    2.4416    2.2337    3.0973 C   0  0  0  0  0  0  0  0  0  0  0  0
    0.6700   -0.2562    3.5170 C   0  0  0  0  0  0  0  0  0  0  0  0
   -0.3353    0.7104    4.0463 C   0  0  0  0  0  0  0  0  0  0  0  0
   -0.8255    1.8787    3.3776 C   0  0  0  0  0  0  0  0  0  0  0  0
   -0.5032    2.1424    2.0821 O   0  0  0  0  0  0  0  0  0  0  0  0
    3.4260   -0.8922    1.0827 O   0  0  0  0  0  0  0  0  0  0  0  0
    3.9936   -2.1679    0.9962 C   0  0  0  0  0  0  0  0  0  0  0  0
    3.2263   -3.0497    1.7658 O   0  0  0  0  0  0  0  0  0  0  0  0
   -3.5871    4.6716    2.1695 H   0  0  0  0  0  0  0  0  0  0  0  0
   -4.1050    3.3880    3.2800 H   0  0  0  0  0  0  0  0  0  0  0  0
   -3.1521    2.9824    1.8558 H   0  0  0  0  0  0  0  0  0  0  0  0
   -3.2395    3.0478    6.8468 H   0  0  0  0  0  0  0  0  0  0  0  0
   -2.1404    1.0765    6.9361 H   0  0  0  0  0  0  0  0  0  0  0  0
    1.9524   -5.8779    4.0359 H   0  0  0  0  0  0  0  0  0  0  0  0
    3.2147   -4.7502    3.5850 H   0  0  0  0  0  0  0  0  0  0  0  0
    1.9094   -5.1445    2.4345 H   0  0  0  0  0  0  0  0  0  0  0  0
    2.6741    3.1922    2.6292 H   0  0  0  0  0  0  0  0  0  0  0  0
    3.3385    1.8555    3.5888 H   0  0  0  0  0  0  0  0  0  0  0  0
    1.7008    2.4346    3.8703 H   0  0  0  0  0  0  0  0  0  0  0  0
   -0.4511    3.0588    1.7831 H   0  0  0  0  0  0  0  0  0  0  0  0
    4.0700   -2.5056   -0.0398 H   0  0  0  0  0  0  0  0  0  0  0  0
    4.9895   -2.1152    1.4331 H   0  0  0  0  0  0  0  0  0  0  0  0
  1  2  1  0
  1 27  1  0
  1 28  1  0
  1 29  1  0
  2  3  1  0
  3 22  2  0
  3  4  1  0
  4  5  1  0
  4  6  2  0
  5 30  1  0
  6  7  1  0
  6 31  1  0
  7 21  2  0
  7  8  1  0
  8  9  1  0
  9 10  2  0
  9 11  1  0
 11 20  2  0
 11 12  1  0
 12 13  1  0
 12 15  2  0
 13 14  1  0
 14 32  1  0
 14 33  1  0
 14 34  1  0
 15 26  1  0
 15 16  1  0
 16 17  2  0
 16 24  1  0
 17 18  1  0
 17 20  1  0
 18 19  1  0
 19 35  1  0
 19 36  1  0
 19 37  1  0
 20 21  1  0
 21 22  1  0
 22 23  1  0
 23 38  1  0
 24 25  1  0
 25 26  1  0
 25 39  1  0
 25 40  1  0
M  END
>  <i_m_ct_stereo_status>  (314) 
1

>  <s_m_source_file>  (314) 
/var/tmp/pbs.5083856.sched01/tmp9abifats/1301k9tyfmu.sdf

>  <i_m_source_file_index>  (314) 
1

>  <i_lp_mmshare_version>  (314) 
48012

>  <i_f3d_flags>  (314) 
0

>  <s_epik_input>  (314) 
W0NIM11PYyhjKFtPSF0pW2NIXTEpYyhbT0hdKWMoYzEyKWMzYyhjKG8yKT1PKWMoT1tDSDNdKWM0YyhPW0NIMl1PNCljM09bQ0gzXQ==

>  <s_epik_cmdline>  (314) 
J2VwaWtfcHl0aG9uJywgJy1waHQnLCAnMi4wJywgJy1waCcsICc3LjAnLCAnLXRuJywgJzgnLCAnLW1hJywgJzIwMCcsICctaW1hZScsICc8aW5maWxlLm1hZT4nLCAnLW9tYWUnLCAnPG91dGZpbGUubWFlPic=

>  <r_epik_Ionization_Penalty>  (314) 
0.0630183

>  <r_epik_Ionization_Penalty_Charging>  (314) 
0

>  <r_epik_Ionization_Penalty_Neutral>  (314) 
0.0630183

>  <r_epik_State_Penalty>  (314) 
0.0517063

>  <r_epik_Charging_Adjusted_Penalty>  (314) 
0.0517063

>  <i_epik_Tot_Q>  (314) 
0

>  <i_epik_Tot_abs_Q>  (314) 
0

>  <s_epik_Chemistry_Notes>  (314) 
This compound contains an acetal/aminal-like group ( X-CH(R)-Y where X, Y are N, S, or O) that may be acid/base labile, releasing an aldehyde.

>  <s_lp_Force_Field>  (314) 
OPLS3e

>  <r_lp_Energy>  (314) 
65.6951

>  <b_lp_Chiralities_Consistent>  (314) 
1

>  <s_lp_Variant>  (314) 
91:0-1

>  <s_i_glide_gridfile>  (314) 
pfpi4k_grid

>  <i_i_glide_lignum>  (314) 
1

>  <i_i_glide_rotatable_bonds>  (314) 
5

>  <r_i_docking_score>  (314) 
-2.84253

>  <r_i_glide_ligand_efficiency>  (314) 
-0.109328

>  <r_i_glide_ligand_efficiency_sa>  (314) 
-0.323884

>  <r_i_glide_ligand_efficiency_ln>  (314) 
-0.667558

>  <r_i_glide_gscore>  (314) 
-2.84253

>  <r_i_glide_lipo>  (314) 
-0.0636748

>  <r_i_glide_hbond>  (314) 
0

>  <r_i_glide_metal>  (314) 
-0

>  <r_i_glide_rewards>  (314) 
-0.938948

>  <r_i_glide_evdw>  (314) 
-26.155

>  <r_i_glide_ecoul>  (314) 
-3.48794

>  <r_i_glide_erotb>  (314) 
0

>  <r_i_glide_esite>  (314) 
-0.00896185

>  <r_i_glide_emodel>  (314) 
-34.0055

>  <r_i_glide_energy>  (314) 
-29.643

>  <r_i_glide_einternal>  (314) 
1.37417

>  <r_i_glide_intrahb_reward>  (314) 
-0

>  <i_i_glide_confnum>  (314) 
2

>  <i_i_glide_posenum>  (314) 
7

>  <r_i_glide_eff_state_penalty>  (314) 
0

>  <ligand_id>  (314) 
91

>  <original_smiles>  (314) 
COc1c(O)cc2oc(=O)c3c(OC)c4c(c(OC)c3c2c1O)OCO4

>  <smiles>  (314) 
[H]Oc1c(OC([H])([H])[H])c(O[H])c2c(oc(=O)c3c(OC([H])([H])[H])c4c(c(OC([H])([H])[H])c32)OC([H])([H])O4)c1[H]

$$$$
91:1:0
     RDKit          3D

 39 42  0  0  1  0  0  0  0  0999 V2000
   -2.1641    3.5487    6.7844 C   0  0  0  0  0  0  0  0  0  0  0  0
   -2.5268    3.0680    5.4968 O   0  0  0  0  0  0  0  0  0  0  0  0
   -1.5767    2.2587    4.9080 C   0  0  0  0  0  0  0  0  0  0  0  0
   -0.8766    2.7531    3.7825 C   0  0  0  0  0  0  0  0  0  0  0  0
   -1.1200    4.0037    3.2857 O   0  0  0  0  0  0  0  0  0  0  0  0
    0.0602    1.9434    3.1356 C   0  0  0  0  0  0  0  0  0  0  0  0
    0.3672    0.6700    3.6398 C   0  0  0  0  0  0  0  0  0  0  0  0
    1.2243   -0.0898    2.8876 O   0  0  0  0  0  0  0  0  0  0  0  0
    1.3371   -1.4370    3.0127 C   0  0  0  0  0  0  0  0  0  0  0  0
    1.8367   -2.1045    2.1061 O   0  0  0  0  0  0  0  0  0  0  0  0
    0.9073   -2.0036    4.3371 C   0  0  0  0  0  0  0  0  0  0  0  0
    1.2531   -3.3552    4.6602 C   0  0  0  0  0  0  0  0  0  0  0  0
    1.8331   -4.1876    3.7220 O   0  0  0  0  0  0  0  0  0  0  0  0
    2.8783   -5.0480    4.1595 C   0  0  0  0  0  0  0  0  0  0  0  0
    0.9927   -3.7986    5.9674 C   0  0  0  0  0  0  0  0  0  0  0  0
    0.5016   -2.9526    6.9277 C   0  0  0  0  0  0  0  0  0  0  0  0
    0.1757   -1.6180    6.6532 C   0  0  0  0  0  0  0  0  0  0  0  0
   -0.1697   -0.8606    7.7436 O   0  0  0  0  0  0  0  0  0  0  0  0
    0.6389    0.2839    7.9844 C   0  0  0  0  0  0  0  0  0  0  0  0
    0.2553   -1.1595    5.2959 C   0  0  0  0  0  0  0  0  0  0  0  0
   -0.2419    0.1713    4.8195 C   0  0  0  0  0  0  0  0  0  0  0  0
   -1.3080    0.9437    5.3899 C   0  0  0  0  0  0  0  0  0  0  0  0
   -2.1231    0.4388    6.3685 O   0  0  0  0  0  0  0  0  0  0  0  0
    0.4638   -3.5929    8.1278 O   0  0  0  0  0  0  0  0  0  0  0  0
    1.0417   -4.8511    7.9059 C   0  0  0  0  0  0  0  0  0  0  0  0
    1.2418   -5.0128    6.5342 O   0  0  0  0  0  0  0  0  0  0  0  0
   -2.9837    4.1431    7.1786 H   0  0  0  0  0  0  0  0  0  0  0  0
   -1.2773    4.1803    6.7215 H   0  0  0  0  0  0  0  0  0  0  0  0
   -1.9704    2.7543    7.5055 H   0  0  0  0  0  0  0  0  0  0  0  0
   -0.7211    4.1495    2.4320 H   0  0  0  0  0  0  0  0  0  0  0  0
    0.5405    2.2988    2.2327 H   0  0  0  0  0  0  0  0  0  0  0  0
    3.3874   -5.4851    3.2991 H   0  0  0  0  0  0  0  0  0  0  0  0
    2.5114   -5.8864    4.7482 H   0  0  0  0  0  0  0  0  0  0  0  0
    3.6106   -4.4868    4.7417 H   0  0  0  0  0  0  0  0  0  0  0  0
    0.2682    0.7907    8.8770 H   0  0  0  0  0  0  0  0  0  0  0  0
    0.6100    1.0120    7.1779 H   0  0  0  0  0  0  0  0  0  0  0  0
    1.6799   -0.0015    8.1415 H   0  0  0  0  0  0  0  0  0  0  0  0
    2.0171   -4.8829    8.3934 H   0  0  0  0  0  0  0  0  0  0  0  0
    0.4239   -5.6612    8.2960 H   0  0  0  0  0  0  0  0  0  0  0  0
  1  2  1  0
  1 27  1  0
  1 28  1  0
  1 29  1  0
  2  3  1  0
  3 22  2  0
  3  4  1  0
  4  5  1  0
  4  6  2  0
  5 30  1  0
  6  7  1  0
  6 31  1  0
  7 21  2  0
  7  8  1  0
  8  9  1  0
  9 10  2  0
  9 11  1  0
 11 20  2  0
 11 12  1  0
 12 13  1  0
 12 15  2  0
 13 14  1  0
 14 32  1  0
 14 33  1  0
 14 34  1  0
 15 26  1  0
 15 16  1  0
 16 17  2  0
 16 24  1  0
 17 18  1  0
 17 20  1  0
 18 19  1  0
 19 35  1  0
 19 36  1  0
 19 37  1  0
 20 21  1  0
 21 22  1  0
 22 23  1  0
 24 25  1  0
 25 26  1  0
 25 38  1  0
 25 39  1  0
M  CHG  1  23  -1
M  END
>  <i_m_ct_stereo_status>  (315) 
1

>  <s_m_source_file>  (315) 
/var/tmp/pbs.5083856.sched01/tmp9abifats/1301k9tyfmu.sdf

>  <i_m_source_file_index>  (315) 
2

>  <i_lp_mmshare_version>  (315) 
48012

>  <i_f3d_flags>  (315) 
0

>  <s_epik_input>  (315) 
W0NIM11PYyhjKFtPSF0pW2NIXTEpYyhbT0hdKWMoYzEyKWMzYyhjKG8yKT1PKWMoT1tDSDNdKWM0YyhPW0NIMl1PNCljM09bQ0gzXQ==

>  <s_epik_cmdline>  (315) 
J2VwaWtfcHl0aG9uJywgJy1waHQnLCAnMi4wJywgJy1waCcsICc3LjAnLCAnLXRuJywgJzgnLCAnLW1hJywgJzIwMCcsICctaW1hZScsICc8aW5maWxlLm1hZT4nLCAnLW9tYWUnLCAnPG91dGZpbGUubWFlPic=

>  <r_epik_Ionization_Penalty>  (315) 
1.53641

>  <r_epik_Ionization_Penalty_Charging>  (315) 
1.53623

>  <r_epik_Ionization_Penalty_Neutral>  (315) 
0.000180332

>  <r_epik_State_Penalty>  (315) 
1.64183

>  <r_epik_Charging_Adjusted_Penalty>  (315) 
3.17806

>  <i_epik_Tot_Q>  (315) 
-1

>  <i_epik_Tot_abs_Q>  (315) 
1

>  <s_epik_Chemistry_Notes>  (315) 
This compound contains an acetal/aminal-like group ( X-CH(R)-Y where X, Y are N, S, or O) that may be acid/base labile, releasing an aldehyde.

>  <s_lp_Force_Field>  (315) 
OPLS3e

>  <r_lp_Energy>  (315) 
68.0382

>  <b_lp_Chiralities_Consistent>  (315) 
1

>  <s_lp_Variant>  (315) 
91:0-2

>  <s_i_glide_gridfile>  (315) 
pfpi4k_grid

>  <i_i_glide_lignum>  (315) 
2

>  <i_i_glide_rotatable_bonds>  (315) 
4

>  <r_i_docking_score>  (315) 
-3.26512

>  <r_i_glide_ligand_efficiency>  (315) 
-0.125582

>  <r_i_glide_ligand_efficiency_sa>  (315) 
-0.372035

>  <r_i_glide_ligand_efficiency_ln>  (315) 
-0.766803

>  <r_i_glide_gscore>  (315) 
-3.26512

>  <r_i_glide_lipo>  (315) 
-0.107265

>  <r_i_glide_hbond>  (315) 
-0.215895

>  <r_i_glide_metal>  (315) 
-0

>  <r_i_glide_rewards>  (315) 
-0.94582

>  <r_i_glide_evdw>  (315) 
-18.6007

>  <r_i_glide_ecoul>  (315) 
-7.10497

>  <r_i_glide_erotb>  (315) 
0

>  <r_i_glide_esite>  (315) 
-0.000358478

>  <r_i_glide_emodel>  (315) 
-34.5433

>  <r_i_glide_energy>  (315) 
-25.7057

>  <r_i_glide_einternal>  (315) 
0.103928

>  <r_i_glide_intrahb_reward>  (315) 
-0

>  <i_i_glide_confnum>  (315) 
2

>  <i_i_glide_posenum>  (315) 
37

>  <r_i_glide_eff_state_penalty>  (315) 
0

>  <ligand_id>  (315) 
91

>  <original_smiles>  (315) 
COc1c(O)cc2oc(=O)c3c(OC)c4c(c(OC)c3c2c1O)OCO4

>  <smiles>  (315) 
[H]Oc1c(OC([H])([H])[H])c([O-])c2c(oc(=O)c3c(OC([H])([H])[H])c4c(c(OC([H])([H])[H])c32)OC([H])([H])O4)c1[H]

$$$$
91:1:1
     RDKit          3D

 39 42  0  0  1  0  0  0  0  0999 V2000
    2.9246   -3.2850   -2.3352 C   0  0  0  0  0  0  0  0  0  0  0  0
    3.3862   -2.9916   -1.0229 O   0  0  0  0  0  0  0  0  0  0  0  0
    3.9206   -4.0630   -0.3396 C   0  0  0  0  0  0  0  0  0  0  0  0
    5.3215   -4.1267   -0.1547 C   0  0  0  0  0  0  0  0  0  0  0  0
    6.1381   -3.1719   -0.6808 O   0  0  0  0  0  0  0  0  0  0  0  0
    5.8756   -5.2342    0.4989 C   0  0  0  0  0  0  0  0  0  0  0  0
    5.0571   -6.2355    1.0522 C   0  0  0  0  0  0  0  0  0  0  0  0
    5.6674   -7.3542    1.5446 O   0  0  0  0  0  0  0  0  0  0  0  0
    5.0184   -8.5340    1.7427 C   0  0  0  0  0  0  0  0  0  0  0  0
    5.6685   -9.5700    1.8475 O   0  0  0  0  0  0  0  0  0  0  0  0
    3.5212   -8.4454    1.9239 C   0  0  0  0  0  0  0  0  0  0  0  0
    2.8059   -9.5738    2.4530 C   0  0  0  0  0  0  0  0  0  0  0  0
    3.4781  -10.7547    2.7112 O   0  0  0  0  0  0  0  0  0  0  0  0
    2.9091  -11.7282    3.5757 C   0  0  0  0  0  0  0  0  0  0  0  0
    1.4334   -9.4051    2.7384 C   0  0  0  0  0  0  0  0  0  0  0  0
    0.8212   -8.1862    2.6183 C   0  0  0  0  0  0  0  0  0  0  0  0
    1.4975   -7.0483    2.1542 C   0  0  0  0  0  0  0  0  0  0  0  0
    0.7918   -5.8746    2.2406 O   0  0  0  0  0  0  0  0  0  0  0  0
    1.3878   -4.8455    3.0199 C   0  0  0  0  0  0  0  0  0  0  0  0
    2.8516   -7.2056    1.6807 C   0  0  0  0  0  0  0  0  0  0  0  0
    3.6437   -6.1404    0.9916 C   0  0  0  0  0  0  0  0  0  0  0  0
    3.1011   -5.0979    0.1871 C   0  0  0  0  0  0  0  0  0  0  0  0
    1.7930   -5.1062   -0.1647 O   0  0  0  0  0  0  0  0  0  0  0  0
   -0.4443   -8.2599    3.1174 O   0  0  0  0  0  0  0  0  0  0  0  0
   -0.5755   -9.5590    3.6233 C   0  0  0  0  0  0  0  0  0  0  0  0
    0.5465  -10.2942    3.2675 O   0  0  0  0  0  0  0  0  0  0  0  0
    2.5489   -2.3827   -2.8148 H   0  0  0  0  0  0  0  0  0  0  0  0
    2.0997   -3.9939   -2.3440 H   0  0  0  0  0  0  0  0  0  0  0  0
    3.7431   -3.6887   -2.9328 H   0  0  0  0  0  0  0  0  0  0  0  0
    7.0597   -3.3740   -0.5709 H   0  0  0  0  0  0  0  0  0  0  0  0
    6.9549   -5.3377    0.5537 H   0  0  0  0  0  0  0  0  0  0  0  0
    3.6169  -12.5286    3.7938 H   0  0  0  0  0  0  0  0  0  0  0  0
    2.0339  -12.1983    3.1298 H   0  0  0  0  0  0  0  0  0  0  0  0
    2.6432  -11.2566    4.5207 H   0  0  0  0  0  0  0  0  0  0  0  0
    0.7189   -3.9828    3.0208 H   0  0  0  0  0  0  0  0  0  0  0  0
    2.3393   -4.5093    2.6165 H   0  0  0  0  0  0  0  0  0  0  0  0
    1.5421   -5.1753    4.0491 H   0  0  0  0  0  0  0  0  0  0  0  0
   -0.6117   -9.5187    4.7114 H   0  0  0  0  0  0  0  0  0  0  0  0
   -1.4658  -10.0511    3.2382 H   0  0  0  0  0  0  0  0  0  0  0  0
  1  2  1  0
  1 27  1  0
  1 28  1  0
  1 29  1  0
  2  3  1  0
  3 22  2  0
  3  4  1  0
  4  5  1  0
  4  6  2  0
  5 30  1  0
  6  7  1  0
  6 31  1  0
  7 21  2  0
  7  8  1  0
  8  9  1  0
  9 10  2  0
  9 11  1  0
 11 20  2  0
 11 12  1  0
 12 13  1  0
 12 15  2  0
 13 14  1  0
 14 32  1  0
 14 33  1  0
 14 34  1  0
 15 26  1  0
 15 16  1  0
 16 17  2  0
 16 24  1  0
 17 18  1  0
 17 20  1  0
 18 19  1  0
 19 35  1  0
 19 36  1  0
 19 37  1  0
 20 21  1  0
 21 22  1  0
 22 23  1  0
 24 25  1  0
 25 26  1  0
 25 38  1  0
 25 39  1  0
M  CHG  1  23  -1
M  END
>  <i_m_ct_stereo_status>  (316) 
1

>  <s_m_source_file>  (316) 
/var/tmp/pbs.5083856.sched01/tmp9abifats/1301k9tyfmu.sdf

>  <i_m_source_file_index>  (316) 
2

>  <i_lp_mmshare_version>  (316) 
48012

>  <i_f3d_flags>  (316) 
0

>  <s_epik_input>  (316) 
W0NIM11PYyhjKFtPSF0pW2NIXTEpYyhbT0hdKWMoYzEyKWMzYyhjKG8yKT1PKWMoT1tDSDNdKWM0YyhPW0NIMl1PNCljM09bQ0gzXQ==

>  <s_epik_cmdline>  (316) 
J2VwaWtfcHl0aG9uJywgJy1waHQnLCAnMi4wJywgJy1waCcsICc3LjAnLCAnLXRuJywgJzgnLCAnLW1hJywgJzIwMCcsICctaW1hZScsICc8aW5maWxlLm1hZT4nLCAnLW9tYWUnLCAnPG91dGZpbGUubWFlPic=

>  <r_epik_Ionization_Penalty>  (316) 
1.53641

>  <r_epik_Ionization_Penalty_Charging>  (316) 
1.53623

>  <r_epik_Ionization_Penalty_Neutral>  (316) 
0.000180332

>  <r_epik_State_Penalty>  (316) 
1.64183

>  <r_epik_Charging_Adjusted_Penalty>  (316) 
3.17806

>  <i_epik_Tot_Q>  (316) 
-1

>  <i_epik_Tot_abs_Q>  (316) 
1

>  <s_epik_Chemistry_Notes>  (316) 
This compound contains an acetal/aminal-like group ( X-CH(R)-Y where X, Y are N, S, or O) that may be acid/base labile, releasing an aldehyde.

>  <s_lp_Force_Field>  (316) 
OPLS3e

>  <r_lp_Energy>  (316) 
68.0382

>  <b_lp_Chiralities_Consistent>  (316) 
1

>  <s_lp_Variant>  (316) 
91:0-2

>  <s_i_glide_gridfile>  (316) 
pfpi4k_grid

>  <i_i_glide_lignum>  (316) 
2

>  <i_i_glide_rotatable_bonds>  (316) 
4

>  <r_i_docking_score>  (316) 
-3.13728

>  <r_i_glide_ligand_efficiency>  (316) 
-0.120664

>  <r_i_glide_ligand_efficiency_sa>  (316) 
-0.357468

>  <r_i_glide_ligand_efficiency_ln>  (316) 
-0.736779

>  <r_i_glide_gscore>  (316) 
-3.13728

>  <r_i_glide_lipo>  (316) 
-0.393446

>  <r_i_glide_hbond>  (316) 
-0.173571

>  <r_i_glide_metal>  (316) 
-0

>  <r_i_glide_rewards>  (316) 
-0.94582

>  <r_i_glide_evdw>  (316) 
-26.7515

>  <r_i_glide_ecoul>  (316) 
-1.39387

>  <r_i_glide_erotb>  (316) 
0

>  <r_i_glide_esite>  (316) 
-0.0777841

>  <r_i_glide_emodel>  (316) 
-36.0831

>  <r_i_glide_energy>  (316) 
-28.1454

>  <r_i_glide_einternal>  (316) 
0.979115

>  <r_i_glide_intrahb_reward>  (316) 
-0

>  <i_i_glide_confnum>  (316) 
2

>  <i_i_glide_posenum>  (316) 
32

>  <r_i_glide_eff_state_penalty>  (316) 
0

>  <ligand_id>  (316) 
91

>  <original_smiles>  (316) 
COc1c(O)cc2oc(=O)c3c(OC)c4c(c(OC)c3c2c1O)OCO4

>  <smiles>  (316) 
[H]Oc1c(OC([H])([H])[H])c([O-])c2c(oc(=O)c3c(OC([H])([H])[H])c4c(c(OC([H])([H])[H])c32)OC([H])([H])O4)c1[H]

$$$$
91:1:2
     RDKit          3D

 39 42  0  0  1  0  0  0  0  0999 V2000
    3.3004   -2.0330   -2.0554 C   0  0  0  0  0  0  0  0  0  0  0  0
    3.4586   -1.8654   -0.6582 O   0  0  0  0  0  0  0  0  0  0  0  0
    4.1533   -2.8957   -0.0653 C   0  0  0  0  0  0  0  0  0  0  0  0
    5.5120   -2.6859    0.2260 C   0  0  0  0  0  0  0  0  0  0  0  0
    6.0859   -1.4889   -0.0962 O   0  0  0  0  0  0  0  0  0  0  0  0
    6.2683   -3.7171    0.7996 C   0  0  0  0  0  0  0  0  0  0  0  0
    5.6441   -4.9341    1.1513 C   0  0  0  0  0  0  0  0  0  0  0  0
    6.4673   -5.9355    1.6021 O   0  0  0  0  0  0  0  0  0  0  0  0
    6.1028   -7.2427    1.6244 C   0  0  0  0  0  0  0  0  0  0  0  0
    6.9763   -8.1091    1.6823 O   0  0  0  0  0  0  0  0  0  0  0  0
    4.6269   -7.5204    1.6593 C   0  0  0  0  0  0  0  0  0  0  0  0
    4.1691   -8.8399    1.9804 C   0  0  0  0  0  0  0  0  0  0  0  0
    5.0770   -9.8712    2.1332 O   0  0  0  0  0  0  0  0  0  0  0  0
    4.7239  -10.9932    2.9396 C   0  0  0  0  0  0  0  0  0  0  0  0
    2.7846   -9.0233    2.1657 C   0  0  0  0  0  0  0  0  0  0  0  0
    1.9098   -7.9673    2.1383 C   0  0  0  0  0  0  0  0  0  0  0  0
    2.3285   -6.6579    1.8544 C   0  0  0  0  0  0  0  0  0  0  0  0
    1.3618   -5.6937    2.0168 O   0  0  0  0  0  0  0  0  0  0  0  0
    1.6657   -4.6638    2.9492 C   0  0  0  0  0  0  0  0  0  0  0  0
    3.6963   -6.4392    1.4783 C   0  0  0  0  0  0  0  0  0  0  0  0
    4.2553   -5.1408    0.9698 C   0  0  0  0  0  0  0  0  0  0  0  0
    3.5370   -4.1270    0.2628 C   0  0  0  0  0  0  0  0  0  0  0  0
    2.2403   -4.3207   -0.1525 O   0  0  0  0  0  0  0  0  0  0  0  0
    0.6717   -8.3890    2.5088 O   0  0  0  0  0  0  0  0  0  0  0  0
    0.8114   -9.7440    2.8430 C   0  0  0  0  0  0  0  0  0  0  0  0
    2.1002  -10.1482    2.5111 O   0  0  0  0  0  0  0  0  0  0  0  0
    2.7329   -1.1970   -2.4600 H   0  0  0  0  0  0  0  0  0  0  0  0
    2.7717   -2.9523   -2.3070 H   0  0  0  0  0  0  0  0  0  0  0  0
    4.2794   -2.0551   -2.5327 H   0  0  0  0  0  0  0  0  0  0  0  0
    5.4188   -0.8564   -0.3250 H   0  0  0  0  0  0  0  0  0  0  0  0
    7.3198   -3.5836    0.9501 H   0  0  0  0  0  0  0  0  0  0  0  0
    5.5859  -11.6383    3.1220 H   0  0  0  0  0  0  0  0  0  0  0  0
    3.9686  -11.6210    2.4763 H   0  0  0  0  0  0  0  0  0  0  0  0
    4.3495  -10.6457    3.9028 H   0  0  0  0  0  0  0  0  0  0  0  0
    0.8233   -3.9714    2.9857 H   0  0  0  0  0  0  0  0  0  0  0  0
    2.5393   -4.0777    2.6758 H   0  0  0  0  0  0  0  0  0  0  0  0
    1.8318   -5.0762    3.9455 H   0  0  0  0  0  0  0  0  0  0  0  0
    0.6935   -9.8630    3.9208 H   0  0  0  0  0  0  0  0  0  0  0  0
    0.0813  -10.3729    2.3338 H   0  0  0  0  0  0  0  0  0  0  0  0
  1  2  1  0
  1 27  1  0
  1 28  1  0
  1 29  1  0
  2  3  1  0
  3 22  2  0
  3  4  1  0
  4  5  1  0
  4  6  2  0
  5 30  1  0
  6  7  1  0
  6 31  1  0
  7 21  2  0
  7  8  1  0
  8  9  1  0
  9 10  2  0
  9 11  1  0
 11 20  2  0
 11 12  1  0
 12 13  1  0
 12 15  2  0
 13 14  1  0
 14 32  1  0
 14 33  1  0
 14 34  1  0
 15 26  1  0
 15 16  1  0
 16 17  2  0
 16 24  1  0
 17 18  1  0
 17 20  1  0
 18 19  1  0
 19 35  1  0
 19 36  1  0
 19 37  1  0
 20 21  1  0
 21 22  1  0
 22 23  1  0
 24 25  1  0
 25 26  1  0
 25 38  1  0
 25 39  1  0
M  CHG  1  23  -1
M  END
>  <i_m_ct_stereo_status>  (317) 
1

>  <s_m_source_file>  (317) 
/var/tmp/pbs.5083856.sched01/tmp9abifats/1301k9tyfmu.sdf

>  <i_m_source_file_index>  (317) 
2

>  <i_lp_mmshare_version>  (317) 
48012

>  <i_f3d_flags>  (317) 
0

>  <s_epik_input>  (317) 
W0NIM11PYyhjKFtPSF0pW2NIXTEpYyhbT0hdKWMoYzEyKWMzYyhjKG8yKT1PKWMoT1tDSDNdKWM0YyhPW0NIMl1PNCljM09bQ0gzXQ==

>  <s_epik_cmdline>  (317) 
J2VwaWtfcHl0aG9uJywgJy1waHQnLCAnMi4wJywgJy1waCcsICc3LjAnLCAnLXRuJywgJzgnLCAnLW1hJywgJzIwMCcsICctaW1hZScsICc8aW5maWxlLm1hZT4nLCAnLW9tYWUnLCAnPG91dGZpbGUubWFlPic=

>  <r_epik_Ionization_Penalty>  (317) 
1.53641

>  <r_epik_Ionization_Penalty_Charging>  (317) 
1.53623

>  <r_epik_Ionization_Penalty_Neutral>  (317) 
0.000180332

>  <r_epik_State_Penalty>  (317) 
1.64183

>  <r_epik_Charging_Adjusted_Penalty>  (317) 
3.17806

>  <i_epik_Tot_Q>  (317) 
-1

>  <i_epik_Tot_abs_Q>  (317) 
1

>  <s_epik_Chemistry_Notes>  (317) 
This compound contains an acetal/aminal-like group ( X-CH(R)-Y where X, Y are N, S, or O) that may be acid/base labile, releasing an aldehyde.

>  <s_lp_Force_Field>  (317) 
OPLS3e

>  <r_lp_Energy>  (317) 
68.0382

>  <b_lp_Chiralities_Consistent>  (317) 
1

>  <s_lp_Variant>  (317) 
91:0-2

>  <s_i_glide_gridfile>  (317) 
pfpi4k_grid

>  <i_i_glide_lignum>  (317) 
2

>  <i_i_glide_rotatable_bonds>  (317) 
4

>  <r_i_docking_score>  (317) 
-2.8875

>  <r_i_glide_ligand_efficiency>  (317) 
-0.111058

>  <r_i_glide_ligand_efficiency_sa>  (317) 
-0.329008

>  <r_i_glide_ligand_efficiency_ln>  (317) 
-0.678119

>  <r_i_glide_gscore>  (317) 
-2.8875

>  <r_i_glide_lipo>  (317) 
-0.426356

>  <r_i_glide_hbond>  (317) 
-0.0612278

>  <r_i_glide_metal>  (317) 
-0

>  <r_i_glide_rewards>  (317) 
-1.01114

>  <r_i_glide_evdw>  (317) 
-26.337

>  <r_i_glide_ecoul>  (317) 
-0.479523

>  <r_i_glide_erotb>  (317) 
0

>  <r_i_glide_esite>  (317) 
0

>  <r_i_glide_emodel>  (317) 
-34.3312

>  <r_i_glide_energy>  (317) 
-26.8165

>  <r_i_glide_einternal>  (317) 
0.592802

>  <r_i_glide_intrahb_reward>  (317) 
-0

>  <i_i_glide_confnum>  (317) 
1

>  <i_i_glide_posenum>  (317) 
27

>  <r_i_glide_eff_state_penalty>  (317) 
0

>  <ligand_id>  (317) 
91

>  <original_smiles>  (317) 
COc1c(O)cc2oc(=O)c3c(OC)c4c(c(OC)c3c2c1O)OCO4

>  <smiles>  (317) 
[H]Oc1c(OC([H])([H])[H])c([O-])c2c(oc(=O)c3c(OC([H])([H])[H])c4c(c(OC([H])([H])[H])c32)OC([H])([H])O4)c1[H]

$$$$
91:2:0
     RDKit          3D

 39 42  0  0  1  0  0  0  0  0999 V2000
    4.5690   -0.1426    0.2745 C   0  0  0  0  0  0  0  0  0  0  0  0
    5.6144   -0.6194    1.1158 O   0  0  0  0  0  0  0  0  0  0  0  0
    5.9035   -1.9573    0.9562 C   0  0  0  0  0  0  0  0  0  0  0  0
    7.1897   -2.3490    0.5262 C   0  0  0  0  0  0  0  0  0  0  0  0
    8.1824   -1.4693    0.2643 O   0  0  0  0  0  0  0  0  0  0  0  0
    7.5252   -3.6958    0.4370 C   0  0  0  0  0  0  0  0  0  0  0  0
    6.5691   -4.6809    0.7030 C   0  0  0  0  0  0  0  0  0  0  0  0
    7.0286   -5.9668    0.7402 O   0  0  0  0  0  0  0  0  0  0  0  0
    6.3418   -6.9842    1.3077 C   0  0  0  0  0  0  0  0  0  0  0  0
    6.9352   -8.0247    1.5874 O   0  0  0  0  0  0  0  0  0  0  0  0
    4.8554   -6.7743    1.4585 C   0  0  0  0  0  0  0  0  0  0  0  0
    4.0161   -7.8833    1.7974 C   0  0  0  0  0  0  0  0  0  0  0  0
    4.5964   -9.0975    2.1161 O   0  0  0  0  0  0  0  0  0  0  0  0
    3.7945  -10.1848    2.5355 C   0  0  0  0  0  0  0  0  0  0  0  0
    2.6241   -7.6651    1.7843 C   0  0  0  0  0  0  0  0  0  0  0  0
    2.0884   -6.4573    1.4108 C   0  0  0  0  0  0  0  0  0  0  0  0
    2.8912   -5.3649    1.0700 C   0  0  0  0  0  0  0  0  0  0  0  0
    2.2708   -4.2379    0.6164 O   0  0  0  0  0  0  0  0  0  0  0  0
    2.0354   -4.2454   -0.7836 C   0  0  0  0  0  0  0  0  0  0  0  0
    4.3066   -5.4789    1.2031 C   0  0  0  0  0  0  0  0  0  0  0  0
    5.2380   -4.3381    1.0284 C   0  0  0  0  0  0  0  0  0  0  0  0
    4.9517   -2.9643    1.2713 C   0  0  0  0  0  0  0  0  0  0  0  0
    3.7967   -2.5997    1.9051 O   0  0  0  0  0  0  0  0  0  0  0  0
    0.7305   -6.5152    1.4503 O   0  0  0  0  0  0  0  0  0  0  0  0
    0.4302   -7.7614    2.0132 C   0  0  0  0  0  0  0  0  0  0  0  0
    1.6043   -8.5160    2.0794 O   0  0  0  0  0  0  0  0  0  0  0  0
    4.3993    0.9154    0.4807 H   0  0  0  0  0  0  0  0  0  0  0  0
    3.6095   -0.6406    0.4114 H   0  0  0  0  0  0  0  0  0  0  0  0
    4.8593   -0.2552   -0.7732 H   0  0  0  0  0  0  0  0  0  0  0  0
    8.5419   -3.9694    0.1993 H   0  0  0  0  0  0  0  0  0  0  0  0
    4.4405  -11.0007    2.8603 H   0  0  0  0  0  0  0  0  0  0  0  0
    3.1681  -10.5459    1.7211 H   0  0  0  0  0  0  0  0  0  0  0  0
    3.1740   -9.9092    3.3863 H   0  0  0  0  0  0  0  0  0  0  0  0
    1.4795   -3.3606   -1.0894 H   0  0  0  0  0  0  0  0  0  0  0  0
    1.4459   -5.1135   -1.0860 H   0  0  0  0  0  0  0  0  0  0  0  0
    2.9824   -4.2447   -1.3227 H   0  0  0  0  0  0  0  0  0  0  0  0
    3.1362   -3.2817    1.8795 H   0  0  0  0  0  0  0  0  0  0  0  0
    0.0856   -7.6073    3.0352 H   0  0  0  0  0  0  0  0  0  0  0  0
   -0.3435   -8.2750    1.4390 H   0  0  0  0  0  0  0  0  0  0  0  0
  1  2  1  0
  1 27  1  0
  1 28  1  0
  1 29  1  0
  2  3  1  0
  3 22  2  0
  3  4  1  0
  4  5  1  0
  4  6  2  0
  6  7  1  0
  6 30  1  0
  7 21  2  0
  7  8  1  0
  8  9  1  0
  9 10  2  0
  9 11  1  0
 11 20  2  0
 11 12  1  0
 12 13  1  0
 12 15  2  0
 13 14  1  0
 14 31  1  0
 14 32  1  0
 14 33  1  0
 15 26  1  0
 15 16  1  0
 16 17  2  0
 16 24  1  0
 17 18  1  0
 17 20  1  0
 18 19  1  0
 19 34  1  0
 19 35  1  0
 19 36  1  0
 20 21  1  0
 21 22  1  0
 22 23  1  0
 23 37  1  0
 24 25  1  0
 25 26  1  0
 25 38  1  0
 25 39  1  0
M  CHG  1   5  -1
M  END
>  <i_m_ct_stereo_status>  (318) 
1

>  <s_m_source_file>  (318) 
/var/tmp/pbs.5083856.sched01/tmp9abifats/1301k9tyfmu.sdf

>  <i_m_source_file_index>  (318) 
3

>  <i_lp_mmshare_version>  (318) 
48012

>  <i_f3d_flags>  (318) 
0

>  <s_epik_input>  (318) 
W0NIM11PYyhjKFtPSF0pW2NIXTEpYyhbT0hdKWMoYzEyKWMzYyhjKG8yKT1PKWMoT1tDSDNdKWM0YyhPW0NIMl1PNCljM09bQ0gzXQ==

>  <s_epik_cmdline>  (318) 
J2VwaWtfcHl0aG9uJywgJy1waHQnLCAnMi4wJywgJy1waCcsICc3LjAnLCAnLXRuJywgJzgnLCAnLW1hJywgJzIwMCcsICctaW1hZScsICc8aW5maWxlLm1hZT4nLCAnLW9tYWUnLCAnPG91dGZpbGUubWFlPic=

>  <r_epik_Ionization_Penalty>  (318) 
2.11464

>  <r_epik_Ionization_Penalty_Charging>  (318) 
2.11414

>  <r_epik_Ionization_Penalty_Neutral>  (318) 
0.000500774

>  <r_epik_State_Penalty>  (318) 
2.28957

>  <r_epik_Charging_Adjusted_Penalty>  (318) 
4.40371

>  <i_epik_Tot_Q>  (318) 
-1

>  <i_epik_Tot_abs_Q>  (318) 
1

>  <s_epik_Chemistry_Notes>  (318) 
This compound contains an acetal/aminal-like group ( X-CH(R)-Y where X, Y are N, S, or O) that may be acid/base labile, releasing an aldehyde.

>  <s_lp_Force_Field>  (318) 
OPLS3e

>  <r_lp_Energy>  (318) 
64.2173

>  <b_lp_Chiralities_Consistent>  (318) 
1

>  <s_lp_Variant>  (318) 
91:0-3

>  <s_i_glide_gridfile>  (318) 
pfpi4k_grid

>  <i_i_glide_lignum>  (318) 
3

>  <i_i_glide_rotatable_bonds>  (318) 
4

>  <r_i_docking_score>  (318) 
-3.71529

>  <r_i_glide_ligand_efficiency>  (318) 
-0.142896

>  <r_i_glide_ligand_efficiency_sa>  (318) 
-0.423328

>  <r_i_glide_ligand_efficiency_ln>  (318) 
-0.872524

>  <r_i_glide_gscore>  (318) 
-3.71529

>  <r_i_glide_lipo>  (318) 
-0.906311

>  <r_i_glide_hbond>  (318) 
-0.175871

>  <r_i_glide_metal>  (318) 
-0

>  <r_i_glide_rewards>  (318) 
-0.94582

>  <r_i_glide_evdw>  (318) 
-24.4666

>  <r_i_glide_ecoul>  (318) 
-2.70303

>  <r_i_glide_erotb>  (318) 
0

>  <r_i_glide_esite>  (318) 
-0.0585069

>  <r_i_glide_emodel>  (318) 
-33.993

>  <r_i_glide_energy>  (318) 
-27.1696

>  <r_i_glide_einternal>  (318) 
1.60577

>  <r_i_glide_intrahb_reward>  (318) 
-0

>  <i_i_glide_confnum>  (318) 
2

>  <i_i_glide_posenum>  (318) 
1

>  <r_i_glide_eff_state_penalty>  (318) 
0

>  <ligand_id>  (318) 
91

>  <original_smiles>  (318) 
COc1c(O)cc2oc(=O)c3c(OC)c4c(c(OC)c3c2c1O)OCO4

>  <smiles>  (318) 
[H]Oc1c(OC([H])([H])[H])c([O-])c([H])c2oc(=O)c3c(OC([H])([H])[H])c4c(c(OC([H])([H])[H])c3c12)OC([H])([H])O4

$$$$
91:2:1
     RDKit          3D

 39 42  0  0  1  0  0  0  0  0999 V2000
    4.4519   -0.2237    0.2660 C   0  0  0  0  0  0  0  0  0  0  0  0
    5.5236   -0.6805    1.0908 O   0  0  0  0  0  0  0  0  0  0  0  0
    5.8610   -2.0089    0.9291 C   0  0  0  0  0  0  0  0  0  0  0  0
    7.1362   -2.3651    0.4466 C   0  0  0  0  0  0  0  0  0  0  0  0
    8.0732   -1.4534    0.1037 O   0  0  0  0  0  0  0  0  0  0  0  0
    7.4906   -3.7116    0.3565 C   0  0  0  0  0  0  0  0  0  0  0  0
    6.5752   -4.7212    0.6817 C   0  0  0  0  0  0  0  0  0  0  0  0
    7.0705   -5.9921    0.7023 O   0  0  0  0  0  0  0  0  0  0  0  0
    6.4363   -7.0201    1.3057 C   0  0  0  0  0  0  0  0  0  0  0  0
    7.0682   -8.0402    1.5740 O   0  0  0  0  0  0  0  0  0  0  0  0
    4.9527   -6.8449    1.5304 C   0  0  0  0  0  0  0  0  0  0  0  0
    4.1667   -7.9697    1.9270 C   0  0  0  0  0  0  0  0  0  0  0  0
    4.7986   -9.1620    2.2258 O   0  0  0  0  0  0  0  0  0  0  0  0
    4.0645  -10.2345    2.7808 C   0  0  0  0  0  0  0  0  0  0  0  0
    2.7736   -7.7883    1.9853 C   0  0  0  0  0  0  0  0  0  0  0  0
    2.1834   -6.6012    1.6276 C   0  0  0  0  0  0  0  0  0  0  0  0
    2.9289   -5.4934    1.2252 C   0  0  0  0  0  0  0  0  0  0  0  0
    2.2305   -4.4038    0.7895 O   0  0  0  0  0  0  0  0  0  0  0  0
    2.2362   -4.2331   -0.6193 C   0  0  0  0  0  0  0  0  0  0  0  0
    4.3541   -5.5666    1.2885 C   0  0  0  0  0  0  0  0  0  0  0  0
    5.2536   -4.4098    1.0638 C   0  0  0  0  0  0  0  0  0  0  0  0
    4.9540   -3.0375    1.2972 C   0  0  0  0  0  0  0  0  0  0  0  0
    3.8275   -2.6618    1.9583 O   0  0  0  0  0  0  0  0  0  0  0  0
    0.8341   -6.6965    1.7347 O   0  0  0  0  0  0  0  0  0  0  0  0
    0.5971   -7.9462    2.3150 C   0  0  0  0  0  0  0  0  0  0  0  0
    1.7969   -8.6623    2.3371 O   0  0  0  0  0  0  0  0  0  0  0  0
    4.2681    0.8341    0.4733 H   0  0  0  0  0  0  0  0  0  0  0  0
    3.5016   -0.7348    0.4298 H   0  0  0  0  0  0  0  0  0  0  0  0
    4.7155   -0.3305   -0.7896 H   0  0  0  0  0  0  0  0  0  0  0  0
    8.4940   -3.9641    0.0595 H   0  0  0  0  0  0  0  0  0  0  0  0
    4.7528  -11.0298    3.0684 H   0  0  0  0  0  0  0  0  0  0  0  0
    3.3584  -10.6445    2.0602 H   0  0  0  0  0  0  0  0  0  0  0  0
    3.5344   -9.9188    3.6783 H   0  0  0  0  0  0  0  0  0  0  0  0
    1.6313   -3.3728   -0.9033 H   0  0  0  0  0  0  0  0  0  0  0  0
    1.7902   -5.1020   -1.0983 H   0  0  0  0  0  0  0  0  0  0  0  0
    3.2457   -4.0803   -1.0062 H   0  0  0  0  0  0  0  0  0  0  0  0
    3.7080   -1.7223    1.9338 H   0  0  0  0  0  0  0  0  0  0  0  0
    0.2944   -7.7860    3.3497 H   0  0  0  0  0  0  0  0  0  0  0  0
   -0.1827   -8.4965    1.7802 H   0  0  0  0  0  0  0  0  0  0  0  0
  1  2  1  0
  1 27  1  0
  1 28  1  0
  1 29  1  0
  2  3  1  0
  3 22  2  0
  3  4  1  0
  4  5  1  0
  4  6  2  0
  6  7  1  0
  6 30  1  0
  7 21  2  0
  7  8  1  0
  8  9  1  0
  9 10  2  0
  9 11  1  0
 11 20  2  0
 11 12  1  0
 12 13  1  0
 12 15  2  0
 13 14  1  0
 14 31  1  0
 14 32  1  0
 14 33  1  0
 15 26  1  0
 15 16  1  0
 16 17  2  0
 16 24  1  0
 17 18  1  0
 17 20  1  0
 18 19  1  0
 19 34  1  0
 19 35  1  0
 19 36  1  0
 20 21  1  0
 21 22  1  0
 22 23  1  0
 23 37  1  0
 24 25  1  0
 25 26  1  0
 25 38  1  0
 25 39  1  0
M  CHG  1   5  -1
M  END
>  <i_m_ct_stereo_status>  (319) 
1

>  <s_m_source_file>  (319) 
/var/tmp/pbs.5083856.sched01/tmp9abifats/1301k9tyfmu.sdf

>  <i_m_source_file_index>  (319) 
3

>  <i_lp_mmshare_version>  (319) 
48012

>  <i_f3d_flags>  (319) 
0

>  <s_epik_input>  (319) 
W0NIM11PYyhjKFtPSF0pW2NIXTEpYyhbT0hdKWMoYzEyKWMzYyhjKG8yKT1PKWMoT1tDSDNdKWM0YyhPW0NIMl1PNCljM09bQ0gzXQ==

>  <s_epik_cmdline>  (319) 
J2VwaWtfcHl0aG9uJywgJy1waHQnLCAnMi4wJywgJy1waCcsICc3LjAnLCAnLXRuJywgJzgnLCAnLW1hJywgJzIwMCcsICctaW1hZScsICc8aW5maWxlLm1hZT4nLCAnLW9tYWUnLCAnPG91dGZpbGUubWFlPic=

>  <r_epik_Ionization_Penalty>  (319) 
2.11464

>  <r_epik_Ionization_Penalty_Charging>  (319) 
2.11414

>  <r_epik_Ionization_Penalty_Neutral>  (319) 
0.000500774

>  <r_epik_State_Penalty>  (319) 
2.28957

>  <r_epik_Charging_Adjusted_Penalty>  (319) 
4.40371

>  <i_epik_Tot_Q>  (319) 
-1

>  <i_epik_Tot_abs_Q>  (319) 
1

>  <s_epik_Chemistry_Notes>  (319) 
This compound contains an acetal/aminal-like group ( X-CH(R)-Y where X, Y are N, S, or O) that may be acid/base labile, releasing an aldehyde.

>  <s_lp_Force_Field>  (319) 
OPLS3e

>  <r_lp_Energy>  (319) 
64.2173

>  <b_lp_Chiralities_Consistent>  (319) 
1

>  <s_lp_Variant>  (319) 
91:0-3

>  <s_i_glide_gridfile>  (319) 
pfpi4k_grid

>  <i_i_glide_lignum>  (319) 
3

>  <i_i_glide_rotatable_bonds>  (319) 
4

>  <r_i_docking_score>  (319) 
-3.57144

>  <r_i_glide_ligand_efficiency>  (319) 
-0.137363

>  <r_i_glide_ligand_efficiency_sa>  (319) 
-0.406937

>  <r_i_glide_ligand_efficiency_ln>  (319) 
-0.838741

>  <r_i_glide_gscore>  (319) 
-3.57144

>  <r_i_glide_lipo>  (319) 
-0.911348

>  <r_i_glide_hbond>  (319) 
-0.103455

>  <r_i_glide_metal>  (319) 
-0

>  <r_i_glide_rewards>  (319) 
-0.94582

>  <r_i_glide_evdw>  (319) 
-24.0584

>  <r_i_glide_ecoul>  (319) 
-2.43934

>  <r_i_glide_erotb>  (319) 
0

>  <r_i_glide_esite>  (319) 
-0.0419928

>  <r_i_glide_emodel>  (319) 
-33.3678

>  <r_i_glide_energy>  (319) 
-26.4978

>  <r_i_glide_einternal>  (319) 
1.0948

>  <r_i_glide_intrahb_reward>  (319) 
-0

>  <i_i_glide_confnum>  (319) 
2

>  <i_i_glide_posenum>  (319) 
12

>  <r_i_glide_eff_state_penalty>  (319) 
0

>  <ligand_id>  (319) 
91

>  <original_smiles>  (319) 
COc1c(O)cc2oc(=O)c3c(OC)c4c(c(OC)c3c2c1O)OCO4

>  <smiles>  (319) 
[H]Oc1c(OC([H])([H])[H])c([O-])c([H])c2oc(=O)c3c(OC([H])([H])[H])c4c(c(OC([H])([H])[H])c3c12)OC([H])([H])O4

$$$$
91:2:2
     RDKit          3D

 39 42  0  0  1  0  0  0  0  0999 V2000
    1.0432   -5.0761    6.8587 C   0  0  0  0  0  0  0  0  0  0  0  0
    0.3537   -5.0090    5.6156 O   0  0  0  0  0  0  0  0  0  0  0  0
    0.5983   -3.8518    4.9154 C   0  0  0  0  0  0  0  0  0  0  0  0
    1.4834   -3.8572    3.8223 C   0  0  0  0  0  0  0  0  0  0  0  0
    2.1024   -5.0070    3.4199 O   0  0  0  0  0  0  0  0  0  0  0  0
    1.6832   -2.6755    3.0913 C   0  0  0  0  0  0  0  0  0  0  0  0
    1.0320   -1.4847    3.4598 C   0  0  0  0  0  0  0  0  0  0  0  0
    1.1760   -0.4124    2.6230 O   0  0  0  0  0  0  0  0  0  0  0  0
    0.3383    0.6592    2.6260 C   0  0  0  0  0  0  0  0  0  0  0  0
    0.2913    1.4030    1.6549 O   0  0  0  0  0  0  0  0  0  0  0  0
   -0.4098    0.9015    3.9099 C   0  0  0  0  0  0  0  0  0  0  0  0
   -1.0971    2.1436    4.1034 C   0  0  0  0  0  0  0  0  0  0  0  0
   -1.1967    3.0333    3.0516 O   0  0  0  0  0  0  0  0  0  0  0  0
   -2.1233    4.0958    3.1081 C   0  0  0  0  0  0  0  0  0  0  0  0
   -1.6412    2.3930    5.3790 C   0  0  0  0  0  0  0  0  0  0  0  0
   -1.4627    1.5007    6.4103 C   0  0  0  0  0  0  0  0  0  0  0  0
   -0.7716    0.2945    6.2501 C   0  0  0  0  0  0  0  0  0  0  0  0
   -0.5519   -0.4316    7.3888 O   0  0  0  0  0  0  0  0  0  0  0  0
    0.8149   -0.6629    7.7166 C   0  0  0  0  0  0  0  0  0  0  0  0
   -0.3503   -0.0883    4.9403 C   0  0  0  0  0  0  0  0  0  0  0  0
    0.1966   -1.4275    4.5970 C   0  0  0  0  0  0  0  0  0  0  0  0
   -0.0770   -2.6612    5.2597 C   0  0  0  0  0  0  0  0  0  0  0  0
   -1.0264   -2.7802    6.2266 O   0  0  0  0  0  0  0  0  0  0  0  0
   -2.0375    1.9838    7.5435 O   0  0  0  0  0  0  0  0  0  0  0  0
   -2.6928    3.1580    7.1616 C   0  0  0  0  0  0  0  0  0  0  0  0
   -2.3360    3.4662    5.8443 O   0  0  0  0  0  0  0  0  0  0  0  0
    0.8179   -6.0279    7.3378 H   0  0  0  0  0  0  0  0  0  0  0  0
    0.7357   -4.2822    7.5416 H   0  0  0  0  0  0  0  0  0  0  0  0
    2.1256   -5.0124    6.7268 H   0  0  0  0  0  0  0  0  0  0  0  0
    2.3053   -2.6837    2.2059 H   0  0  0  0  0  0  0  0  0  0  0  0
   -2.1459    4.5899    2.1386 H   0  0  0  0  0  0  0  0  0  0  0  0
   -1.8256    4.8387    3.8452 H   0  0  0  0  0  0  0  0  0  0  0  0
   -3.1240    3.7220    3.3200 H   0  0  0  0  0  0  0  0  0  0  0  0
    0.8673   -1.2206    8.6529 H   0  0  0  0  0  0  0  0  0  0  0  0
    1.3492    0.2805    7.8359 H   0  0  0  0  0  0  0  0  0  0  0  0
    1.3475   -1.2556    6.9752 H   0  0  0  0  0  0  0  0  0  0  0  0
   -1.0062   -3.6565    6.5838 H   0  0  0  0  0  0  0  0  0  0  0  0
   -3.7615    2.9529    7.1699 H   0  0  0  0  0  0  0  0  0  0  0  0
   -2.4698    3.9795    7.8465 H   0  0  0  0  0  0  0  0  0  0  0  0
  1  2  1  0
  1 27  1  0
  1 28  1  0
  1 29  1  0
  2  3  1  0
  3 22  2  0
  3  4  1  0
  4  5  1  0
  4  6  2  0
  6  7  1  0
  6 30  1  0
  7 21  2  0
  7  8  1  0
  8  9  1  0
  9 10  2  0
  9 11  1  0
 11 20  2  0
 11 12  1  0
 12 13  1  0
 12 15  2  0
 13 14  1  0
 14 31  1  0
 14 32  1  0
 14 33  1  0
 15 26  1  0
 15 16  1  0
 16 17  2  0
 16 24  1  0
 17 18  1  0
 17 20  1  0
 18 19  1  0
 19 34  1  0
 19 35  1  0
 19 36  1  0
 20 21  1  0
 21 22  1  0
 22 23  1  0
 23 37  1  0
 24 25  1  0
 25 26  1  0
 25 38  1  0
 25 39  1  0
M  CHG  1   5  -1
M  END
>  <i_m_ct_stereo_status>  (320) 
1

>  <s_m_source_file>  (320) 
/var/tmp/pbs.5083856.sched01/tmp9abifats/1301k9tyfmu.sdf

>  <i_m_source_file_index>  (320) 
3

>  <i_lp_mmshare_version>  (320) 
48012

>  <i_f3d_flags>  (320) 
0

>  <s_epik_input>  (320) 
W0NIM11PYyhjKFtPSF0pW2NIXTEpYyhbT0hdKWMoYzEyKWMzYyhjKG8yKT1PKWMoT1tDSDNdKWM0YyhPW0NIMl1PNCljM09bQ0gzXQ==

>  <s_epik_cmdline>  (320) 
J2VwaWtfcHl0aG9uJywgJy1waHQnLCAnMi4wJywgJy1waCcsICc3LjAnLCAnLXRuJywgJzgnLCAnLW1hJywgJzIwMCcsICctaW1hZScsICc8aW5maWxlLm1hZT4nLCAnLW9tYWUnLCAnPG91dGZpbGUubWFlPic=

>  <r_epik_Ionization_Penalty>  (320) 
2.11464

>  <r_epik_Ionization_Penalty_Charging>  (320) 
2.11414

>  <r_epik_Ionization_Penalty_Neutral>  (320) 
0.000500774

>  <r_epik_State_Penalty>  (320) 
2.28957

>  <r_epik_Charging_Adjusted_Penalty>  (320) 
4.40371

>  <i_epik_Tot_Q>  (320) 
-1

>  <i_epik_Tot_abs_Q>  (320) 
1

>  <s_epik_Chemistry_Notes>  (320) 
This compound contains an acetal/aminal-like group ( X-CH(R)-Y where X, Y are N, S, or O) that may be acid/base labile, releasing an aldehyde.

>  <s_lp_Force_Field>  (320) 
OPLS3e

>  <r_lp_Energy>  (320) 
64.2173

>  <b_lp_Chiralities_Consistent>  (320) 
1

>  <s_lp_Variant>  (320) 
91:0-3

>  <s_i_glide_gridfile>  (320) 
pfpi4k_grid

>  <i_i_glide_lignum>  (320) 
3

>  <i_i_glide_rotatable_bonds>  (320) 
4

>  <r_i_docking_score>  (320) 
-2.25174

>  <r_i_glide_ligand_efficiency>  (320) 
-0.0866055

>  <r_i_glide_ligand_efficiency_sa>  (320) 
-0.256568

>  <r_i_glide_ligand_efficiency_ln>  (320) 
-0.528814

>  <r_i_glide_gscore>  (320) 
-2.25174

>  <r_i_glide_lipo>  (320) 
-0.0345539

>  <r_i_glide_hbond>  (320) 
-0.0431111

>  <r_i_glide_metal>  (320) 
-0

>  <r_i_glide_rewards>  (320) 
-1.14542

>  <r_i_glide_evdw>  (320) 
-23.1373

>  <r_i_glide_ecoul>  (320) 
0.854698

>  <r_i_glide_erotb>  (320) 
0

>  <r_i_glide_esite>  (320) 
0

>  <r_i_glide_emodel>  (320) 
-26.7015

>  <r_i_glide_energy>  (320) 
-22.2826

>  <r_i_glide_einternal>  (320) 
0.34112

>  <r_i_glide_intrahb_reward>  (320) 
-0

>  <i_i_glide_confnum>  (320) 
2

>  <i_i_glide_posenum>  (320) 
3

>  <r_i_glide_eff_state_penalty>  (320) 
0

>  <ligand_id>  (320) 
91

>  <original_smiles>  (320) 
COc1c(O)cc2oc(=O)c3c(OC)c4c(c(OC)c3c2c1O)OCO4

>  <smiles>  (320) 
[H]Oc1c(OC([H])([H])[H])c([O-])c([H])c2oc(=O)c3c(OC([H])([H])[H])c4c(c(OC([H])([H])[H])c3c12)OC([H])([H])O4

$$$$
92:0:0
     RDKit          3D

 52 55  0  0  1  0  0  0  0  0999 V2000
    4.7388   -9.4359    4.3420 C   0  0  0  0  0  0  0  0  0  0  0  0
    4.7526   -8.3067    3.2939 C   0  0  2  0  0  0  0  0  0  0  0  0
    3.5079   -8.3378    2.3749 C   0  0  0  0  0  0  0  0  0  0  0  0
    3.5140   -7.2239    1.2938 C   0  0  0  0  0  0  0  0  0  0  0  0
    4.0033   -5.8303    1.8026 C   0  0  1  0  0  0  0  0  0  0  0  0
    5.2584   -6.0222    2.7167 C   0  0  2  0  0  0  0  0  0  0  0  0
    5.7366   -4.6705    3.2107 C   0  0  0  0  0  0  0  0  0  0  0  0
    6.0460   -3.7438    2.0430 C   0  0  0  0  0  0  0  0  0  0  0  0
    4.7673   -3.3610    1.2611 C   0  0  1  0  0  0  0  0  0  0  0  0
    5.0223   -2.2245    0.1766 C   0  0  1  0  0  0  0  0  0  0  0  0
    3.7202   -1.5002   -0.2626 C   0  0  0  0  0  0  0  0  0  0  0  0
    5.9186   -1.0996    0.7595 C   0  0  0  0  0  0  0  0  0  0  0  0
    5.3991   -0.3041    1.5763 O   0  0  0  0  0  0  0  0  0  0  0  0
    7.1179   -1.0526    0.3996 O   0  0  0  0  0  0  0  0  0  0  0  0
    5.7319   -2.8157   -1.0720 C   0  0  0  0  0  0  0  0  0  0  0  0
    5.0077   -4.0271   -1.6382 C   0  0  0  0  0  0  0  0  0  0  0  0
    4.8455   -5.1193   -0.5632 C   0  0  0  0  0  0  0  0  0  0  0  0
    4.0763   -4.6745    0.7091 C   0  0  1  0  0  0  0  0  0  0  0  0
    2.6059   -4.3579    0.3441 C   0  0  0  0  0  0  0  0  0  0  0  0
    6.4037   -6.8702    2.0990 C   0  0  0  0  0  0  0  0  0  0  0  0
    6.0261   -8.2979    2.4528 C   0  0  0  0  0  0  0  0  0  0  0  0
    6.6608   -9.2933    2.1119 O   0  0  0  0  0  0  0  0  0  0  0  0
    4.8340   -6.9083    3.9147 C   0  0  0  0  0  0  0  0  0  0  0  0
    3.9395   -9.2971    5.0686 H   0  0  0  0  0  0  0  0  0  0  0  0
    5.6779   -9.4769    4.8964 H   0  0  0  0  0  0  0  0  0  0  0  0
    4.5960  -10.4144    3.8795 H   0  0  0  0  0  0  0  0  0  0  0  0
    3.4311   -9.3112    1.8823 H   0  0  0  0  0  0  0  0  0  0  0  0
    2.6130   -8.2428    2.9877 H   0  0  0  0  0  0  0  0  0  0  0  0
    4.1405   -7.5629    0.4691 H   0  0  0  0  0  0  0  0  0  0  0  0
    2.5044   -7.1648    0.8969 H   0  0  0  0  0  0  0  0  0  0  0  0
    3.2266   -5.4887    2.4896 H   0  0  0  0  0  0  0  0  0  0  0  0
    4.9804   -4.2089    3.8455 H   0  0  0  0  0  0  0  0  0  0  0  0
    6.6103   -4.8176    3.8436 H   0  0  0  0  0  0  0  0  0  0  0  0
    6.5080   -2.8622    2.4764 H   0  0  0  0  0  0  0  0  0  0  0  0
    6.7904   -4.1921    1.3842 H   0  0  0  0  0  0  0  0  0  0  0  0
    4.1018   -2.9185    2.0069 H   0  0  0  0  0  0  0  0  0  0  0  0
    3.1005   -2.0778   -0.9393 H   0  0  0  0  0  0  0  0  0  0  0  0
    3.9458   -0.5819   -0.8042 H   0  0  0  0  0  0  0  0  0  0  0  0
    3.1005   -1.2254    0.5936 H   0  0  0  0  0  0  0  0  0  0  0  0
    5.8320   -2.0511   -1.8444 H   0  0  0  0  0  0  0  0  0  0  0  0
    6.7459   -3.1339   -0.8230 H   0  0  0  0  0  0  0  0  0  0  0  0
    4.0491   -3.7465   -2.0820 H   0  0  0  0  0  0  0  0  0  0  0  0
    5.5852   -4.4168   -2.4701 H   0  0  0  0  0  0  0  0  0  0  0  0
    4.3619   -5.9800   -1.0113 H   0  0  0  0  0  0  0  0  0  0  0  0
    5.8447   -5.4477   -0.3067 H   0  0  0  0  0  0  0  0  0  0  0  0
    2.4633   -4.0817   -0.6957 H   0  0  0  0  0  0  0  0  0  0  0  0
    2.2179   -3.5476    0.9603 H   0  0  0  0  0  0  0  0  0  0  0  0
    1.9306   -5.1960    0.4942 H   0  0  0  0  0  0  0  0  0  0  0  0
    6.5235   -6.7719    1.0287 H   0  0  0  0  0  0  0  0  0  0  0  0
    7.3627   -6.6448    2.5658 H   0  0  0  0  0  0  0  0  0  0  0  0
    3.8938   -6.5996    4.3720 H   0  0  0  0  0  0  0  0  0  0  0  0
    5.5967   -6.8918    4.6972 H   0  0  0  0  0  0  0  0  0  0  0  0
  2  1  1  1
  1 24  1  0
  1 25  1  0
  1 26  1  0
  2 21  1  0
  2 23  1  0
  2  3  1  0
  3  4  1  0
  3 27  1  0
  3 28  1  0
  4  5  1  0
  4 29  1  0
  4 30  1  0
  5 18  1  0
  5  6  1  0
  5 31  1  1
  6  7  1  1
  6 20  1  0
  6 23  1  0
  7  8  1  0
  7 32  1  0
  7 33  1  0
  8  9  1  0
  8 34  1  0
  8 35  1  0
  9 18  1  0
  9 10  1  0
  9 36  1  1
 10 11  1  6
 10 12  1  0
 10 15  1  0
 11 37  1  0
 11 38  1  0
 11 39  1  0
 12 13  2  0
 12 14  1  0
 15 16  1  0
 15 40  1  0
 15 41  1  0
 16 17  1  0
 16 42  1  0
 16 43  1  0
 17 18  1  0
 17 44  1  0
 17 45  1  0
 18 19  1  6
 19 46  1  0
 19 47  1  0
 19 48  1  0
 20 21  1  0
 20 49  1  0
 20 50  1  0
 21 22  2  0
 23 51  1  0
 23 52  1  0
M  CHG  1  14  -1
M  END
>  <i_m_ct_stereo_status>  (321) 
1

>  <s_m_source_file>  (321) 
/var/tmp/pbs.5083856.sched01/tmp9abifats/1301k9tyfmu.sdf

>  <i_m_source_file_index>  (321) 
4

>  <i_lp_mmshare_version>  (321) 
48012

>  <i_f3d_flags>  (321) 
0

>  <s_epik_input>  (321) 
W0NIMl0xQyg9TylbQ0BAXShbQ0gzXSkoW0NIMl0yKVtDSDJdW0NIMl1bQ0BASF0oW0NAXTEyMylbQ0BAXTQoW0NIM10pW0NAQEhdKFtDSDJdW0NIMl0zKVtDQEBdKFtDSDNdKShDKD1PKVtPSF0pW0NIMl1bQ0gyXVtDSDJdNA==

>  <s_epik_cmdline>  (321) 
J2VwaWtfcHl0aG9uJywgJy1waHQnLCAnMi4wJywgJy1waCcsICc3LjAnLCAnLXRuJywgJzgnLCAnLW1hJywgJzIwMCcsICctaW1hZScsICc8aW5maWxlLm1hZT4nLCAnLW9tYWUnLCAnPG91dGZpbGUubWFlPic=

>  <r_lp_tautomer_probability>  (321) 
0.99995

>  <r_epik_Ionization_Penalty>  (321) 
0.00564547

>  <r_epik_Ionization_Penalty_Charging>  (321) 
0.00564547

>  <r_epik_Ionization_Penalty_Neutral>  (321) 
1.67079e-14

>  <r_epik_State_Penalty>  (321) 
0.00413832

>  <r_epik_Charging_Adjusted_Penalty>  (321) 
0.00978379

>  <i_epik_Tot_Q>  (321) 
-1

>  <i_epik_Tot_abs_Q>  (321) 
1

>  <s_lp_Force_Field>  (321) 
OPLS3e

>  <r_lp_Energy>  (321) 
59.6584

>  <b_lp_Chiralities_Consistent>  (321) 
1

>  <s_lp_Variant>  (321) 
92:0-1

>  <s_i_glide_gridfile>  (321) 
pfpi4k_grid

>  <i_i_glide_lignum>  (321) 
4

>  <i_i_glide_rotatable_bonds>  (321) 
1

>  <r_i_docking_score>  (321) 
-2.76649

>  <r_i_glide_ligand_efficiency>  (321) 
-0.120282

>  <r_i_glide_ligand_efficiency_sa>  (321) 
-0.342067

>  <r_i_glide_ligand_efficiency_ln>  (321) 
-0.668963

>  <r_i_glide_gscore>  (321) 
-2.76649

>  <r_i_glide_lipo>  (321) 
-0.251936

>  <r_i_glide_hbond>  (321) 
-0.12958

>  <r_i_glide_metal>  (321) 
-0

>  <r_i_glide_rewards>  (321) 
-1.44981

>  <r_i_glide_evdw>  (321) 
-16.9032

>  <r_i_glide_ecoul>  (321) 
-0.600002

>  <r_i_glide_erotb>  (321) 
0

>  <r_i_glide_esite>  (321) 
0

>  <r_i_glide_emodel>  (321) 
-20.7254

>  <r_i_glide_energy>  (321) 
-17.5032

>  <r_i_glide_einternal>  (321) 
0.436388

>  <r_i_glide_intrahb_reward>  (321) 
-0

>  <i_i_glide_confnum>  (321) 
2

>  <i_i_glide_posenum>  (321) 
39

>  <r_i_glide_eff_state_penalty>  (321) 
0

>  <ligand_id>  (321) 
92

>  <original_smiles>  (321) 
CC12CCC3C(CCC4C(C)(C(=O)O)CCCC34C)(CC1=O)C2

>  <smiles>  (321) 
[H]C([H])([H])C12C(=O)C([H])([H])C3(C([H])([H])C([H])([H])C4([H])C(C(=O)[O-])(C([H])([H])[H])C([H])([H])C([H])([H])C([H])([H])C4(C([H])([H])[H])C3([H])C([H])([H])C1([H])[H])C2([H])[H]

$$$$
92:0:1
     RDKit          3D

 52 55  0  0  1  0  0  0  0  0999 V2000
    0.7586   -7.5525    2.9927 C   0  0  0  0  0  0  0  0  0  0  0  0
    1.6639   -6.6668    2.1236 C   0  0  2  0  0  0  0  0  0  0  0  0
    1.0579   -6.4334    0.7281 C   0  0  0  0  0  0  0  0  0  0  0  0
    1.9497   -5.5364   -0.1578 C   0  0  0  0  0  0  0  0  0  0  0  0
    2.6509   -4.3416    0.5262 C   0  0  1  0  0  0  0  0  0  0  0  0
    3.1743   -4.7942    1.9255 C   0  0  2  0  0  0  0  0  0  0  0  0
    3.8282   -3.6143    2.6289 C   0  0  0  0  0  0  0  0  0  0  0  0
    4.9521   -3.0496    1.7803 C   0  0  0  0  0  0  0  0  0  0  0  0
    4.4101   -2.4360    0.4524 C   0  0  1  0  0  0  0  0  0  0  0  0
    5.5168   -1.6878   -0.3874 C   0  0  1  0  0  0  0  0  0  0  0  0
    4.9496   -0.6845   -1.3993 C   0  0  0  0  0  0  0  0  0  0  0  0
    6.3537   -0.8765    0.5769 C   0  0  0  0  0  0  0  0  0  0  0  0
    5.7422   -0.0489    1.2692 O   0  0  0  0  0  0  0  0  0  0  0  0
    7.6017   -1.0892    0.6265 O   0  0  0  0  0  0  0  0  0  0  0  0
    6.4847   -2.6308   -1.1144 C   0  0  0  0  0  0  0  0  0  0  0  0
    5.7170   -3.5668   -1.9911 C   0  0  0  0  0  0  0  0  0  0  0  0
    4.7461   -4.3595   -1.1029 C   0  0  0  0  0  0  0  0  0  0  0  0
    3.6552   -3.5236   -0.3880 C   0  0  1  0  0  0  0  0  0  0  0  0
    2.8006   -2.8452   -1.4802 C   0  0  0  0  0  0  0  0  0  0  0  0
    4.0821   -6.0544    1.9221 C   0  0  0  0  0  0  0  0  0  0  0  0
    3.0923   -7.2005    2.0151 C   0  0  0  0  0  0  0  0  0  0  0  0
    3.4045   -8.3871    2.0073 O   0  0  0  0  0  0  0  0  0  0  0  0
    1.9511   -5.2927    2.7292 C   0  0  0  0  0  0  0  0  0  0  0  0
   -0.1773   -7.0459    3.2280 H   0  0  0  0  0  0  0  0  0  0  0  0
    1.2441   -7.8043    3.9345 H   0  0  0  0  0  0  0  0  0  0  0  0
    0.5136   -8.4917    2.4923 H   0  0  0  0  0  0  0  0  0  0  0  0
    0.9114   -7.3930    0.2296 H   0  0  0  0  0  0  0  0  0  0  0  0
    0.0601   -6.0097    0.8077 H   0  0  0  0  0  0  0  0  0  0  0  0
    2.7614   -6.1727   -0.4881 H   0  0  0  0  0  0  0  0  0  0  0  0
    1.3954   -5.2503   -1.0467 H   0  0  0  0  0  0  0  0  0  0  0  0
    1.8565   -3.6269    0.7296 H   0  0  0  0  0  0  0  0  0  0  0  0
    3.0875   -2.8299    2.7902 H   0  0  0  0  0  0  0  0  0  0  0  0
    4.2096   -3.9083    3.6076 H   0  0  0  0  0  0  0  0  0  0  0  0
    5.4473   -2.3216    2.4224 H   0  0  0  0  0  0  0  0  0  0  0  0
    5.6967   -3.8112    1.5622 H   0  0  0  0  0  0  0  0  0  0  0  0
    3.6920   -1.6755    0.7735 H   0  0  0  0  0  0  0  0  0  0  0  0
    4.5157   -1.0921   -2.2989 H   0  0  0  0  0  0  0  0  0  0  0  0
    5.7433   -0.0365   -1.7734 H   0  0  0  0  0  0  0  0  0  0  0  0
    4.2166   -0.0447   -0.8901 H   0  0  0  0  0  0  0  0  0  0  0  0
    7.1958   -2.0633   -1.7127 H   0  0  0  0  0  0  0  0  0  0  0  0
    7.0706   -3.2099   -0.3994 H   0  0  0  0  0  0  0  0  0  0  0  0
    5.2526   -3.0368   -2.8264 H   0  0  0  0  0  0  0  0  0  0  0  0
    6.4075   -4.2350   -2.4639 H   0  0  0  0  0  0  0  0  0  0  0  0
    4.2835   -5.0380   -1.7664 H   0  0  0  0  0  0  0  0  0  0  0  0
    5.3246   -4.9441   -0.3995 H   0  0  0  0  0  0  0  0  0  0  0  0
    3.2454   -2.7342   -2.4668 H   0  0  0  0  0  0  0  0  0  0  0  0
    2.6385   -1.8411   -1.1198 H   0  0  0  0  0  0  0  0  0  0  0  0
    1.8271   -3.2921   -1.6588 H   0  0  0  0  0  0  0  0  0  0  0  0
    4.7121   -6.1752    1.0467 H   0  0  0  0  0  0  0  0  0  0  0  0
    4.7190   -6.0817    2.8052 H   0  0  0  0  0  0  0  0  0  0  0  0
    1.0921   -4.6207    2.6639 H   0  0  0  0  0  0  0  0  0  0  0  0
    2.2064   -5.3945    3.7835 H   0  0  0  0  0  0  0  0  0  0  0  0
  2  1  1  1
  1 24  1  0
  1 25  1  0
  1 26  1  0
  2 21  1  0
  2 23  1  0
  2  3  1  0
  3  4  1  0
  3 27  1  0
  3 28  1  0
  4  5  1  0
  4 29  1  0
  4 30  1  0
  5 18  1  0
  5  6  1  0
  5 31  1  1
  6  7  1  1
  6 20  1  0
  6 23  1  0
  7  8  1  0
  7 32  1  0
  7 33  1  0
  8  9  1  0
  8 34  1  0
  8 35  1  0
  9 18  1  0
  9 10  1  0
  9 36  1  1
 10 11  1  6
 10 12  1  0
 10 15  1  0
 11 37  1  0
 11 38  1  0
 11 39  1  0
 12 13  2  0
 12 14  1  0
 15 16  1  0
 15 40  1  0
 15 41  1  0
 16 17  1  0
 16 42  1  0
 16 43  1  0
 17 18  1  0
 17 44  1  0
 17 45  1  0
 18 19  1  6
 19 46  1  0
 19 47  1  0
 19 48  1  0
 20 21  1  0
 20 49  1  0
 20 50  1  0
 21 22  2  0
 23 51  1  0
 23 52  1  0
M  CHG  1  14  -1
M  END
>  <i_m_ct_stereo_status>  (322) 
1

>  <s_m_source_file>  (322) 
/var/tmp/pbs.5083856.sched01/tmp9abifats/1301k9tyfmu.sdf

>  <i_m_source_file_index>  (322) 
4

>  <i_lp_mmshare_version>  (322) 
48012

>  <i_f3d_flags>  (322) 
0

>  <s_epik_input>  (322) 
W0NIMl0xQyg9TylbQ0BAXShbQ0gzXSkoW0NIMl0yKVtDSDJdW0NIMl1bQ0BASF0oW0NAXTEyMylbQ0BAXTQoW0NIM10pW0NAQEhdKFtDSDJdW0NIMl0zKVtDQEBdKFtDSDNdKShDKD1PKVtPSF0pW0NIMl1bQ0gyXVtDSDJdNA==

>  <s_epik_cmdline>  (322) 
J2VwaWtfcHl0aG9uJywgJy1waHQnLCAnMi4wJywgJy1waCcsICc3LjAnLCAnLXRuJywgJzgnLCAnLW1hJywgJzIwMCcsICctaW1hZScsICc8aW5maWxlLm1hZT4nLCAnLW9tYWUnLCAnPG91dGZpbGUubWFlPic=

>  <r_lp_tautomer_probability>  (322) 
0.99995

>  <r_epik_Ionization_Penalty>  (322) 
0.00564547

>  <r_epik_Ionization_Penalty_Charging>  (322) 
0.00564547

>  <r_epik_Ionization_Penalty_Neutral>  (322) 
1.67079e-14

>  <r_epik_State_Penalty>  (322) 
0.00413832

>  <r_epik_Charging_Adjusted_Penalty>  (322) 
0.00978379

>  <i_epik_Tot_Q>  (322) 
-1

>  <i_epik_Tot_abs_Q>  (322) 
1

>  <s_lp_Force_Field>  (322) 
OPLS3e

>  <r_lp_Energy>  (322) 
59.6584

>  <b_lp_Chiralities_Consistent>  (322) 
1

>  <s_lp_Variant>  (322) 
92:0-1

>  <s_i_glide_gridfile>  (322) 
pfpi4k_grid

>  <i_i_glide_lignum>  (322) 
4

>  <i_i_glide_rotatable_bonds>  (322) 
1

>  <r_i_docking_score>  (322) 
-1.98696

>  <r_i_glide_ligand_efficiency>  (322) 
-0.0863896

>  <r_i_glide_ligand_efficiency_sa>  (322) 
-0.245681

>  <r_i_glide_ligand_efficiency_ln>  (322) 
-0.480465

>  <r_i_glide_gscore>  (322) 
-1.98696

>  <r_i_glide_lipo>  (322) 
-0.232803

>  <r_i_glide_hbond>  (322) 
-0.166169

>  <r_i_glide_metal>  (322) 
-0

>  <r_i_glide_rewards>  (322) 
-1.34119

>  <r_i_glide_evdw>  (322) 
-6.05039

>  <r_i_glide_ecoul>  (322) 
0.371474

>  <r_i_glide_erotb>  (322) 
0

>  <r_i_glide_esite>  (322) 
0

>  <r_i_glide_emodel>  (322) 
-7.56993

>  <r_i_glide_energy>  (322) 
-5.67892

>  <r_i_glide_einternal>  (322) 
0.361336

>  <r_i_glide_intrahb_reward>  (322) 
-0

>  <i_i_glide_confnum>  (322) 
2

>  <i_i_glide_posenum>  (322) 
8

>  <r_i_glide_eff_state_penalty>  (322) 
0

>  <ligand_id>  (322) 
92

>  <original_smiles>  (322) 
CC12CCC3C(CCC4C(C)(C(=O)O)CCCC34C)(CC1=O)C2

>  <smiles>  (322) 
[H]C([H])([H])C12C(=O)C([H])([H])C3(C([H])([H])C([H])([H])C4([H])C(C(=O)[O-])(C([H])([H])[H])C([H])([H])C([H])([H])C([H])([H])C4(C([H])([H])[H])C3([H])C([H])([H])C1([H])[H])C2([H])[H]

$$$$
93:0:0
     RDKit          3D

 22 23  0  0  1  0  0  0  0  0999 V2000
    3.6261    0.9470   -5.0465 C   0  0  0  0  0  0  0  0  0  0  0  0
    2.8836   -0.2214   -4.7159 O   0  0  0  0  0  0  0  0  0  0  0  0
    3.3256   -1.0313   -3.6906 C   0  0  0  0  0  0  0  0  0  0  0  0
    2.6415   -2.2306   -3.4628 C   0  0  0  0  0  0  0  0  0  0  0  0
    3.0091   -3.1212   -2.4401 C   0  0  0  0  0  0  0  0  0  0  0  0
    4.1309   -2.7096   -1.7184 N   0  0  0  0  0  0  0  0  0  0  0  0
    4.8056   -3.2900   -0.6925 C   0  0  0  0  0  0  0  0  0  0  0  0
    4.4011   -4.8250    0.0612 S   0  0  0  0  0  0  0  0  0  0  0  0
    2.7982   -4.3351    0.7378 C   0  0  0  0  0  0  0  0  0  0  0  0
    1.8127   -5.4202    0.5987 C   0  0  0  0  0  0  0  0  0  0  0  0
    1.0178   -6.2552    0.4889 N   0  0  0  0  0  0  0  0  0  0  0  0
    5.8223   -2.4944   -0.3510 N   0  0  0  0  0  0  0  0  0  0  0  0
    5.8014   -1.3686   -1.1552 N   0  0  0  0  0  0  0  0  0  0  0  0
    4.7704   -1.4920   -1.9937 C   0  0  0  0  0  0  0  0  0  0  0  0
    4.3863   -0.6318   -2.9648 N   0  0  0  0  0  0  0  0  0  0  0  0
    3.0996    1.4864   -5.8372 H   0  0  0  0  0  0  0  0  0  0  0  0
    4.6135    0.6825   -5.4135 H   0  0  0  0  0  0  0  0  0  0  0  0
    3.7723    1.6291   -4.2086 H   0  0  0  0  0  0  0  0  0  0  0  0
    1.7944   -2.4684   -4.0837 H   0  0  0  0  0  0  0  0  0  0  0  0
    2.5043   -4.0451   -2.2120 H   0  0  0  0  0  0  0  0  0  0  0  0
    2.8975   -4.0673    1.7882 H   0  0  0  0  0  0  0  0  0  0  0  0
    2.4033   -3.4658    0.2142 H   0  0  0  0  0  0  0  0  0  0  0  0
  1  2  1  0
  1 16  1  0
  1 17  1  0
  1 18  1  0
  2  3  1  0
  3 15  2  0
  3  4  1  0
  4  5  2  0
  4 19  1  0
  5  6  1  0
  5 20  1  0
  6 14  1  0
  6  7  1  0
  7  8  1  0
  7 12  2  0
  8  9  1  0
  9 10  1  0
  9 21  1  0
  9 22  1  0
 10 11  3  0
 12 13  1  0
 13 14  2  0
 14 15  1  0
M  END
>  <i_m_ct_stereo_status>  (323) 
1

>  <s_m_source_file>  (323) 
/var/tmp/pbs.5083856.sched01/tmp9abifats/1301k9tyfmu.sdf

>  <i_m_source_file_index>  (323) 
5

>  <i_lp_mmshare_version>  (323) 
48012

>  <i_f3d_flags>  (323) 
0

>  <s_epik_input>  (323) 
W0NIM11PYyhbY0hdW2NIXTEpbmMobjEyKW5uYzJTW0NIMl1DI04=

>  <s_epik_cmdline>  (323) 
J2VwaWtfcHl0aG9uJywgJy1waHQnLCAnMi4wJywgJy1waCcsICc3LjAnLCAnLXRuJywgJzgnLCAnLW1hJywgJzIwMCcsICctaW1hZScsICc8aW5maWxlLm1hZT4nLCAnLW9tYWUnLCAnPG91dGZpbGUubWFlPic=

>  <r_lp_tautomer_probability>  (323) 
1

>  <r_epik_Ionization_Penalty>  (323) 
8.24959e-07

>  <r_epik_Ionization_Penalty_Charging>  (323) 
0

>  <r_epik_Ionization_Penalty_Neutral>  (323) 
8.24959e-07

>  <r_epik_State_Penalty>  (323) 
-0

>  <r_epik_Charging_Adjusted_Penalty>  (323) 
0

>  <i_epik_Tot_Q>  (323) 
0

>  <i_epik_Tot_abs_Q>  (323) 
0

>  <s_lp_Force_Field>  (323) 
OPLS3e

>  <r_lp_Energy>  (323) 
15.8286

>  <b_lp_Chiralities_Consistent>  (323) 
1

>  <s_lp_Variant>  (323) 
93:0-1

>  <s_i_glide_gridfile>  (323) 
pfpi4k_grid

>  <i_i_glide_lignum>  (323) 
5

>  <i_i_glide_rotatable_bonds>  (323) 
4

>  <r_i_docking_score>  (323) 
-4.22628

>  <r_i_glide_ligand_efficiency>  (323) 
-0.281752

>  <r_i_glide_ligand_efficiency_sa>  (323) 
-0.69486

>  <r_i_glide_ligand_efficiency_ln>  (323) 
-1.13976

>  <r_i_glide_gscore>  (323) 
-4.22628

>  <r_i_glide_lipo>  (323) 
-0.43926

>  <r_i_glide_hbond>  (323) 
-0.19352

>  <r_i_glide_metal>  (323) 
-0

>  <r_i_glide_rewards>  (323) 
-1.95964

>  <r_i_glide_evdw>  (323) 
-23.7394

>  <r_i_glide_ecoul>  (323) 
-5.99893

>  <r_i_glide_erotb>  (323) 
0.68945

>  <r_i_glide_esite>  (323) 
-0.236493

>  <r_i_glide_emodel>  (323) 
-37.2252

>  <r_i_glide_energy>  (323) 
-29.7384

>  <r_i_glide_einternal>  (323) 
1.92548

>  <r_i_glide_intrahb_reward>  (323) 
-0

>  <i_i_glide_confnum>  (323) 
2

>  <i_i_glide_posenum>  (323) 
32

>  <r_i_glide_eff_state_penalty>  (323) 
0

>  <ligand_id>  (323) 
93

>  <original_smiles>  (323) 
COc1ccn2c(SCC#N)nnc2n1

>  <smiles>  (323) 
[H]c1c(OC([H])([H])[H])nc2nnc(SC([H])([H])C#N)n2c1[H]

$$$$
93:0:1
     RDKit          3D

 22 23  0  0  1  0  0  0  0  0999 V2000
    3.0096   -0.6693   -4.3262 C   0  0  0  0  0  0  0  0  0  0  0  0
    4.2523   -1.2411   -3.9329 O   0  0  0  0  0  0  0  0  0  0  0  0
    4.2817   -2.0001   -2.7823 C   0  0  0  0  0  0  0  0  0  0  0  0
    3.1181   -2.4544   -2.1191 C   0  0  0  0  0  0  0  0  0  0  0  0
    3.1853   -3.2212   -0.9492 C   0  0  0  0  0  0  0  0  0  0  0  0
    4.4838   -3.4854   -0.5261 N   0  0  0  0  0  0  0  0  0  0  0  0
    4.9416   -4.1773    0.5444 C   0  0  0  0  0  0  0  0  0  0  0  0
    3.9158   -4.9677    1.7320 S   0  0  0  0  0  0  0  0  0  0  0  0
    3.2997   -6.3079    0.6866 C   0  0  0  0  0  0  0  0  0  0  0  0
    1.8288   -6.2773    0.6072 C   0  0  0  0  0  0  0  0  0  0  0  0
    0.6703   -6.2587    0.5425 N   0  0  0  0  0  0  0  0  0  0  0  0
    6.2728   -4.1438    0.5352 N   0  0  0  0  0  0  0  0  0  0  0  0
    6.6946   -3.4180   -0.5800 N   0  0  0  0  0  0  0  0  0  0  0  0
    5.6001   -3.0107   -1.2284 C   0  0  0  0  0  0  0  0  0  0  0  0
    5.5262   -2.2693   -2.3526 N   0  0  0  0  0  0  0  0  0  0  0  0
    3.1089   -0.1083   -5.2635 H   0  0  0  0  0  0  0  0  0  0  0  0
    2.6479    0.0218   -3.5580 H   0  0  0  0  0  0  0  0  0  0  0  0
    2.2538   -1.4404   -4.4917 H   0  0  0  0  0  0  0  0  0  0  0  0
    2.1289   -2.2165   -2.4771 H   0  0  0  0  0  0  0  0  0  0  0  0
    2.3301   -3.5829   -0.3954 H   0  0  0  0  0  0  0  0  0  0  0  0
    3.7032   -6.2222   -0.3198 H   0  0  0  0  0  0  0  0  0  0  0  0
    3.6195   -7.2801    1.0815 H   0  0  0  0  0  0  0  0  0  0  0  0
  1  2  1  0
  1 16  1  0
  1 17  1  0
  1 18  1  0
  2  3  1  0
  3 15  2  0
  3  4  1  0
  4  5  2  0
  4 19  1  0
  5  6  1  0
  5 20  1  0
  6 14  1  0
  6  7  1  0
  7  8  1  0
  7 12  2  0
  8  9  1  0
  9 10  1  0
  9 21  1  0
  9 22  1  0
 10 11  3  0
 12 13  1  0
 13 14  2  0
 14 15  1  0
M  END
>  <i_m_ct_stereo_status>  (324) 
1

>  <s_m_source_file>  (324) 
/var/tmp/pbs.5083856.sched01/tmp9abifats/1301k9tyfmu.sdf

>  <i_m_source_file_index>  (324) 
5

>  <i_lp_mmshare_version>  (324) 
48012

>  <i_f3d_flags>  (324) 
0

>  <s_epik_input>  (324) 
W0NIM11PYyhbY0hdW2NIXTEpbmMobjEyKW5uYzJTW0NIMl1DI04=

>  <s_epik_cmdline>  (324) 
J2VwaWtfcHl0aG9uJywgJy1waHQnLCAnMi4wJywgJy1waCcsICc3LjAnLCAnLXRuJywgJzgnLCAnLW1hJywgJzIwMCcsICctaW1hZScsICc8aW5maWxlLm1hZT4nLCAnLW9tYWUnLCAnPG91dGZpbGUubWFlPic=

>  <r_lp_tautomer_probability>  (324) 
1

>  <r_epik_Ionization_Penalty>  (324) 
8.24959e-07

>  <r_epik_Ionization_Penalty_Charging>  (324) 
0

>  <r_epik_Ionization_Penalty_Neutral>  (324) 
8.24959e-07

>  <r_epik_State_Penalty>  (324) 
-0

>  <r_epik_Charging_Adjusted_Penalty>  (324) 
0

>  <i_epik_Tot_Q>  (324) 
0

>  <i_epik_Tot_abs_Q>  (324) 
0

>  <s_lp_Force_Field>  (324) 
OPLS3e

>  <r_lp_Energy>  (324) 
15.8286

>  <b_lp_Chiralities_Consistent>  (324) 
1

>  <s_lp_Variant>  (324) 
93:0-1

>  <s_i_glide_gridfile>  (324) 
pfpi4k_grid

>  <i_i_glide_lignum>  (324) 
5

>  <i_i_glide_rotatable_bonds>  (324) 
4

>  <r_i_docking_score>  (324) 
-4.19648

>  <r_i_glide_ligand_efficiency>  (324) 
-0.279766

>  <r_i_glide_ligand_efficiency_sa>  (324) 
-0.689961

>  <r_i_glide_ligand_efficiency_ln>  (324) 
-1.13172

>  <r_i_glide_gscore>  (324) 
-4.19648

>  <r_i_glide_lipo>  (324) 
-0.309849

>  <r_i_glide_hbond>  (324) 
-0.202262

>  <r_i_glide_metal>  (324) 
-0

>  <r_i_glide_rewards>  (324) 
-2.06441

>  <r_i_glide_evdw>  (324) 
-21.2836

>  <r_i_glide_ecoul>  (324) 
-7.96523

>  <r_i_glide_erotb>  (324) 
0.68945

>  <r_i_glide_esite>  (324) 
-0.0504478

>  <r_i_glide_emodel>  (324) 
-34.0685

>  <r_i_glide_energy>  (324) 
-29.2489

>  <r_i_glide_einternal>  (324) 
7.05776

>  <r_i_glide_intrahb_reward>  (324) 
-0

>  <i_i_glide_confnum>  (324) 
3

>  <i_i_glide_posenum>  (324) 
22

>  <r_i_glide_eff_state_penalty>  (324) 
0

>  <ligand_id>  (324) 
93

>  <original_smiles>  (324) 
COc1ccn2c(SCC#N)nnc2n1

>  <smiles>  (324) 
[H]c1c(OC([H])([H])[H])nc2nnc(SC([H])([H])C#N)n2c1[H]

$$$$
93:0:2
     RDKit          3D

 22 23  0  0  1  0  0  0  0  0999 V2000
    3.5919    0.1431   -4.7718 C   0  0  0  0  0  0  0  0  0  0  0  0
    2.9545   -1.0279   -4.3151 O   0  0  0  0  0  0  0  0  0  0  0  0
    3.4554   -1.6513   -3.1848 C   0  0  0  0  0  0  0  0  0  0  0  0
    2.6451   -2.6029   -2.5945 C   0  0  0  0  0  0  0  0  0  0  0  0
    2.9922   -3.2504   -1.3907 C   0  0  0  0  0  0  0  0  0  0  0  0
    4.2853   -2.9145   -0.9525 N   0  0  0  0  0  0  0  0  0  0  0  0
    5.0141   -3.3775    0.1067 C   0  0  0  0  0  0  0  0  0  0  0  0
    4.5351   -4.6063    1.2799 S   0  0  0  0  0  0  0  0  0  0  0  0
    3.9367   -5.9121    0.1613 C   0  0  0  0  0  0  0  0  0  0  0  0
    2.4712   -5.9679    0.2050 C   0  0  0  0  0  0  0  0  0  0  0  0
    1.3106   -6.0077    0.2461 N   0  0  0  0  0  0  0  0  0  0  0  0
    6.1782   -2.7170    0.1273 N   0  0  0  0  0  0  0  0  0  0  0  0
    6.2348   -1.8514   -0.9604 N   0  0  0  0  0  0  0  0  0  0  0  0
    5.0729   -1.9562   -1.6028 C   0  0  0  0  0  0  0  0  0  0  0  0
    4.6684   -1.2754   -2.7080 N   0  0  0  0  0  0  0  0  0  0  0  0
    3.0572    0.5063   -5.6481 H   0  0  0  0  0  0  0  0  0  0  0  0
    4.6168   -0.0858   -5.0561 H   0  0  0  0  0  0  0  0  0  0  0  0
    3.5871    0.9125   -3.9958 H   0  0  0  0  0  0  0  0  0  0  0  0
    1.6824   -2.8451   -3.0087 H   0  0  0  0  0  0  0  0  0  0  0  0
    2.3336   -3.9206   -0.8646 H   0  0  0  0  0  0  0  0  0  0  0  0
    4.2865   -5.7063   -0.8453 H   0  0  0  0  0  0  0  0  0  0  0  0
    4.3384   -6.9037    0.4341 H   0  0  0  0  0  0  0  0  0  0  0  0
  1  2  1  0
  1 16  1  0
  1 17  1  0
  1 18  1  0
  2  3  1  0
  3 15  2  0
  3  4  1  0
  4  5  2  0
  4 19  1  0
  5  6  1  0
  5 20  1  0
  6 14  1  0
  6  7  1  0
  7  8  1  0
  7 12  2  0
  8  9  1  0
  9 10  1  0
  9 21  1  0
  9 22  1  0
 10 11  3  0
 12 13  1  0
 13 14  2  0
 14 15  1  0
M  END
>  <i_m_ct_stereo_status>  (325) 
1

>  <s_m_source_file>  (325) 
/var/tmp/pbs.5083856.sched01/tmp9abifats/1301k9tyfmu.sdf

>  <i_m_source_file_index>  (325) 
5

>  <i_lp_mmshare_version>  (325) 
48012

>  <i_f3d_flags>  (325) 
0

>  <s_epik_input>  (325) 
W0NIM11PYyhbY0hdW2NIXTEpbmMobjEyKW5uYzJTW0NIMl1DI04=

>  <s_epik_cmdline>  (325) 
J2VwaWtfcHl0aG9uJywgJy1waHQnLCAnMi4wJywgJy1waCcsICc3LjAnLCAnLXRuJywgJzgnLCAnLW1hJywgJzIwMCcsICctaW1hZScsICc8aW5maWxlLm1hZT4nLCAnLW9tYWUnLCAnPG91dGZpbGUubWFlPic=

>  <r_lp_tautomer_probability>  (325) 
1

>  <r_epik_Ionization_Penalty>  (325) 
8.24959e-07

>  <r_epik_Ionization_Penalty_Charging>  (325) 
0

>  <r_epik_Ionization_Penalty_Neutral>  (325) 
8.24959e-07

>  <r_epik_State_Penalty>  (325) 
-0

>  <r_epik_Charging_Adjusted_Penalty>  (325) 
0

>  <i_epik_Tot_Q>  (325) 
0

>  <i_epik_Tot_abs_Q>  (325) 
0

>  <s_lp_Force_Field>  (325) 
OPLS3e

>  <r_lp_Energy>  (325) 
15.8286

>  <b_lp_Chiralities_Consistent>  (325) 
1

>  <s_lp_Variant>  (325) 
93:0-1

>  <s_i_glide_gridfile>  (325) 
pfpi4k_grid

>  <i_i_glide_lignum>  (325) 
5

>  <i_i_glide_rotatable_bonds>  (325) 
4

>  <r_i_docking_score>  (325) 
-4.11992

>  <r_i_glide_ligand_efficiency>  (325) 
-0.274661

>  <r_i_glide_ligand_efficiency_sa>  (325) 
-0.677373

>  <r_i_glide_ligand_efficiency_ln>  (325) 
-1.11107

>  <r_i_glide_gscore>  (325) 
-4.11992

>  <r_i_glide_lipo>  (325) 
-0.356807

>  <r_i_glide_hbond>  (325) 
-0.22833

>  <r_i_glide_metal>  (325) 
-0

>  <r_i_glide_rewards>  (325) 
-1.95253

>  <r_i_glide_evdw>  (325) 
-21.5749

>  <r_i_glide_ecoul>  (325) 
-7.04106

>  <r_i_glide_erotb>  (325) 
0.68945

>  <r_i_glide_esite>  (325) 
-0.136794

>  <r_i_glide_emodel>  (325) 
-34.6767

>  <r_i_glide_energy>  (325) 
-28.616

>  <r_i_glide_einternal>  (325) 
3.2101

>  <r_i_glide_intrahb_reward>  (325) 
-0

>  <i_i_glide_confnum>  (325) 
3

>  <i_i_glide_posenum>  (325) 
13

>  <r_i_glide_eff_state_penalty>  (325) 
0

>  <ligand_id>  (325) 
93

>  <original_smiles>  (325) 
COc1ccn2c(SCC#N)nnc2n1

>  <smiles>  (325) 
[H]c1c(OC([H])([H])[H])nc2nnc(SC([H])([H])C#N)n2c1[H]

$$$$
94:0:0
     RDKit          3D

 51 56  0  0  1  0  0  0  0  0999 V2000
    9.7172   -5.3082    1.9680 O   0  0  0  0  0  0  0  0  0  0  0  0
    8.5621   -5.5774    2.2865 C   0  0  0  0  0  0  0  0  0  0  0  0
    7.4561   -5.4887    1.2776 C   0  0  0  0  0  0  0  0  0  0  0  0
    6.1540   -5.7999    2.0840 C   0  0  2  0  0  0  0  0  0  0  0  0
    6.7469   -6.0006    3.5029 C   0  0  0  0  0  0  0  0  0  0  0  0
    6.1228   -6.2590    4.5245 O   0  0  0  0  0  0  0  0  0  0  0  0
    8.0673   -5.8605    3.4951 N   0  0  0  0  0  0  0  0  0  0  0  0
    5.5526   -7.1288    1.6192 C   0  0  0  0  0  0  0  0  0  0  0  0
    4.2472   -7.3465    1.4391 C   0  0  0  0  0  0  0  0  0  0  0  0
    3.9571   -8.7723    1.0635 C   0  0  0  0  0  0  0  0  0  0  0  0
    5.3190   -9.4699    1.1131 C   0  0  0  0  0  0  0  0  0  0  0  0
    6.3751   -8.3895    1.3937 C   0  0  0  0  0  0  0  0  0  0  0  0
    3.1412   -6.3101    1.5649 C   0  0  0  0  0  0  0  0  0  0  0  0
    3.5903   -5.0725    2.3702 C   0  0  1  0  0  0  0  0  0  0  0  0
    3.2487   -5.2103    3.8745 C   0  0  0  0  0  0  0  0  0  0  0  0
    3.3058   -6.4483    4.5501 C   0  0  0  0  0  0  0  0  0  0  0  0
    3.0016   -6.5003    5.9216 C   0  0  0  0  0  0  0  0  0  0  0  0
    2.6372   -5.3155    6.5824 C   0  0  0  0  0  0  0  0  0  0  0  0
    2.2573   -5.3795    8.2620 Cl  0  0  0  0  0  0  0  0  0  0  0  0
    2.5783   -4.1225    5.9561 N   0  0  0  0  0  0  0  0  0  0  0  0
    2.8713   -4.0824    4.6387 C   0  0  0  0  0  0  0  0  0  0  0  0
    5.0538   -4.6333    1.9678 C   0  0  1  0  0  0  0  0  0  0  0  0
    5.4000   -3.3274    2.7648 C   0  0  0  0  0  0  0  0  0  0  0  0
    5.5327   -3.2637    3.9732 O   0  0  0  0  0  0  0  0  0  0  0  0
    5.4597   -2.2612    1.9572 N   0  0  0  0  0  0  0  0  0  0  0  0
    5.2434   -2.6267    0.6562 C   0  0  0  0  0  0  0  0  0  0  0  0
    5.2454   -1.7707   -0.4463 C   0  0  0  0  0  0  0  0  0  0  0  0
    5.0491   -2.3391   -1.6984 C   0  0  0  0  0  0  0  0  0  0  0  0
    4.8600   -3.7130   -1.8683 C   0  0  0  0  0  0  0  0  0  0  0  0
    4.6285   -4.1671   -3.7046 Br  0  0  0  0  0  0  0  0  0  0  0  0
    4.8832   -4.5936   -0.7415 C   0  0  0  0  0  0  0  0  0  0  0  0
    5.0384   -4.0115    0.5412 C   0  0  0  0  0  0  0  0  0  0  0  0
    7.4833   -4.4802    0.8515 H   0  0  0  0  0  0  0  0  0  0  0  0
    7.6689   -6.1782    0.4622 H   0  0  0  0  0  0  0  0  0  0  0  0
    8.6005   -5.8617    4.3486 H   0  0  0  0  0  0  0  0  0  0  0  0
    3.1947   -9.2396    1.6885 H   0  0  0  0  0  0  0  0  0  0  0  0
    3.6151   -8.8278    0.0592 H   0  0  0  0  0  0  0  0  0  0  0  0
    5.2958  -10.2476    1.8703 H   0  0  0  0  0  0  0  0  0  0  0  0
    5.5436   -9.9982    0.1949 H   0  0  0  0  0  0  0  0  0  0  0  0
    7.0744   -8.3041    0.5577 H   0  0  0  0  0  0  0  0  0  0  0  0
    6.9625   -8.6785    2.2622 H   0  0  0  0  0  0  0  0  0  0  0  0
    2.8973   -5.9862    0.5513 H   0  0  0  0  0  0  0  0  0  0  0  0
    2.2255   -6.7448    1.9734 H   0  0  0  0  0  0  0  0  0  0  0  0
    2.9444   -4.2474    2.0607 H   0  0  0  0  0  0  0  0  0  0  0  0
    3.6046   -7.3531    4.0414 H   0  0  0  0  0  0  0  0  0  0  0  0
    3.0671   -7.4336    6.4591 H   0  0  0  0  0  0  0  0  0  0  0  0
    2.8397   -3.0992    4.1910 H   0  0  0  0  0  0  0  0  0  0  0  0
    5.7192   -1.3302    2.2490 H   0  0  0  0  0  0  0  0  0  0  0  0
    5.3804   -0.7012   -0.3608 H   0  0  0  0  0  0  0  0  0  0  0  0
    4.9997   -1.7527   -2.5964 H   0  0  0  0  0  0  0  0  0  0  0  0
    4.7677   -5.6787   -0.8105 H   0  0  0  0  0  0  0  0  0  0  0  0
  1  2  2  0
  2  7  1  0
  2  3  1  0
  4  3  1  6
  3 33  1  0
  3 34  1  0
  4 22  1  0
  4  5  1  0
  4  8  1  0
  5  6  2  0
  5  7  1  0
  7 35  1  0
  8 12  1  0
  8  9  2  0
  9 10  1  0
  9 13  1  0
 10 11  1  0
 10 36  1  0
 10 37  1  0
 11 12  1  0
 11 38  1  0
 11 39  1  0
 12 40  1  0
 12 41  1  0
 13 14  1  0
 13 42  1  0
 13 43  1  0
 14 15  1  0
 14 22  1  0
 14 44  1  6
 15 21  1  0
 15 16  2  0
 16 17  1  0
 16 45  1  0
 17 18  2  0
 17 46  1  0
 18 19  1  0
 18 20  1  0
 20 21  2  0
 21 47  1  0
 22 32  1  0
 22 23  1  1
 23 24  2  0
 23 25  1  0
 25 26  1  0
 25 48  1  0
 26 32  2  0
 26 27  1  0
 27 28  2  0
 27 49  1  0
 28 29  1  0
 28 50  1  0
 29 30  1  0
 29 31  2  0
 31 32  1  0
 31 51  1  0
M  END
>  <i_m_ct_stereo_status>  (326) 
1

>  <s_m_source_file>  (326) 
/var/tmp/pbs.5083856.sched01/tmp6s2nupww/135ho57x0v_.sdf

>  <i_m_source_file_index>  (326) 
1

>  <i_lp_mmshare_version>  (326) 
48012

>  <i_f3d_flags>  (326) 
0

>  <s_epik_input>  (326) 
Tz1DMVtOSF1DKD1PKVtDSDJdW0NAXTEyW0NAQF0zKGM0YyhbTkhdQzM9TylbY0hdW2NIXWMoQnIpW2NIXTQpW0NAQEhdKFtDSDJdQzU9QzJbQ0gyXVtDSDJdW0NIMl01KWM2W2NIXVtjSF1jKENsKW5bY0hdNg==

>  <s_epik_cmdline>  (326) 
J2VwaWtfcHl0aG9uJywgJy1waHQnLCAnMi4wJywgJy1waCcsICc3LjAnLCAnLXRuJywgJzgnLCAnLW1hJywgJzIwMCcsICctaW1hZScsICc8aW5maWxlLm1hZT4nLCAnLW9tYWUnLCAnPG91dGZpbGUubWFlPic=

>  <r_lp_tautomer_probability>  (326) 
0.99995

>  <r_epik_Ionization_Penalty>  (326) 
0.0133487

>  <r_epik_Ionization_Penalty_Charging>  (326) 
0

>  <r_epik_Ionization_Penalty_Neutral>  (326) 
0.0133487

>  <r_epik_State_Penalty>  (326) 
0.0103824

>  <r_epik_Charging_Adjusted_Penalty>  (326) 
0.0103824

>  <i_epik_Tot_Q>  (326) 
0

>  <i_epik_Tot_abs_Q>  (326) 
0

>  <s_lp_Force_Field>  (326) 
OPLS3e

>  <r_lp_Energy>  (326) 
35.3312

>  <b_lp_Chiralities_Consistent>  (326) 
1

>  <s_lp_Variant>  (326) 
94:0-1

>  <s_i_glide_gridfile>  (326) 
pfpi4k_grid

>  <i_i_glide_lignum>  (326) 
1

>  <i_i_glide_rotatable_bonds>  (326) 
1

>  <r_i_docking_score>  (326) 
-1.49342

>  <r_i_glide_ligand_efficiency>  (326) 
-0.0466693

>  <r_i_glide_ligand_efficiency_sa>  (326) 
-0.148166

>  <r_i_glide_ligand_efficiency_ln>  (326) 
-0.334417

>  <r_i_glide_gscore>  (326) 
-1.49342

>  <r_i_glide_lipo>  (326) 
-0.590446

>  <r_i_glide_hbond>  (326) 
-0.0525451

>  <r_i_glide_metal>  (326) 
-0

>  <r_i_glide_rewards>  (326) 
-0.050966

>  <r_i_glide_evdw>  (326) 
-12.9289

>  <r_i_glide_ecoul>  (326) 
-1.41385

>  <r_i_glide_erotb>  (326) 
0.0779698

>  <r_i_glide_esite>  (326) 
-0.0189088

>  <r_i_glide_emodel>  (326) 
-16.3492

>  <r_i_glide_energy>  (326) 
-14.3428

>  <r_i_glide_einternal>  (326) 
0.339278

>  <r_i_glide_intrahb_reward>  (326) 
-0

>  <i_i_glide_confnum>  (326) 
3

>  <i_i_glide_posenum>  (326) 
34

>  <r_i_glide_eff_state_penalty>  (326) 
0

>  <ligand_id>  (326) 
94

>  <original_smiles>  (326) 
O=C1CC2(C(=O)N1)C1=C(CCC1)CC(c1ccc(Cl)nc1)C21C(=O)Nc2ccc(Br)cc21

>  <smiles>  (326) 
[H]c1nc(Cl)c([H])c([H])c1C1([H])C([H])([H])C2=C(C([H])([H])C([H])([H])C2([H])[H])C2(C(=O)N([H])C(=O)C2([H])[H])C12C(=O)N([H])c1c([H])c([H])c(Br)c([H])c12

$$$$
94:1:0
     RDKit          3D

 50 55  0  0  1  0  0  0  0  0999 V2000
    7.8293   -7.2341    5.8310 O   0  0  0  0  0  0  0  0  0  0  0  0
    7.5057   -7.2173    4.6435 C   0  0  0  0  0  0  0  0  0  0  0  0
    6.4528   -6.2508    4.1564 C   0  0  0  0  0  0  0  0  0  0  0  0
    6.1551   -6.7450    2.7115 C   0  0  2  0  0  0  0  0  0  0  0  0
    7.2703   -7.7958    2.4826 C   0  0  0  0  0  0  0  0  0  0  0  0
    7.4588   -8.2803    1.3713 O   0  0  0  0  0  0  0  0  0  0  0  0
    7.9021   -8.0329    3.6406 N   0  0  0  0  0  0  0  0  0  0  0  0
    6.2937   -5.5186    1.7759 C   0  0  0  0  0  0  0  0  0  0  0  0
    5.2781   -4.8125    1.3051 C   0  0  0  0  0  0  0  0  0  0  0  0
    5.6919   -3.6896    0.4075 C   0  0  0  0  0  0  0  0  0  0  0  0
    7.2417   -3.7603    0.4035 C   0  0  0  0  0  0  0  0  0  0  0  0
    7.6158   -4.9927    1.2766 C   0  0  0  0  0  0  0  0  0  0  0  0
    3.8148   -5.1344    1.5486 C   0  0  0  0  0  0  0  0  0  0  0  0
    3.6199   -6.2122    2.6561 C   0  0  1  0  0  0  0  0  0  0  0  0
    2.1563   -6.6480    2.8199 C   0  0  0  0  0  0  0  0  0  0  0  0
    1.6418   -7.0089    4.0886 C   0  0  0  0  0  0  0  0  0  0  0  0
    0.3036   -7.4301    4.1902 C   0  0  0  0  0  0  0  0  0  0  0  0
   -0.4973   -7.4165    3.0339 C   0  0  0  0  0  0  0  0  0  0  0  0
   -2.1476   -7.8675    3.1607 Cl  0  0  0  0  0  0  0  0  0  0  0  0
   -0.0377   -7.0187    1.8325 N   0  0  0  0  0  0  0  0  0  0  0  0
    1.2620   -6.6870    1.7214 C   0  0  0  0  0  0  0  0  0  0  0  0
    4.6962   -7.3840    2.5995 C   0  0  1  0  0  0  0  0  0  0  0  0
    4.4939   -8.2020    1.2777 C   0  0  0  0  0  0  0  0  0  0  0  0
    4.6075   -7.7285    0.1543 O   0  0  0  0  0  0  0  0  0  0  0  0
    4.2199   -9.5059    1.5271 N   0  0  0  0  0  0  0  0  0  0  0  0
    4.1486   -9.7392    2.8886 C   0  0  0  0  0  0  0  0  0  0  0  0
    3.8581  -10.9592    3.5277 C   0  0  0  0  0  0  0  0  0  0  0  0
    3.7906  -10.9616    4.9373 C   0  0  0  0  0  0  0  0  0  0  0  0
    4.0032   -9.7539    5.6619 C   0  0  0  0  0  0  0  0  0  0  0  0
    3.8753   -9.7549    7.5495 Br  0  0  0  0  0  0  0  0  0  0  0  0
    4.2962   -8.5448    4.9964 C   0  0  0  0  0  0  0  0  0  0  0  0
    4.3874   -8.5502    3.5856 C   0  0  0  0  0  0  0  0  0  0  0  0
    5.6293   -6.3260    4.8441 H   0  0  0  0  0  0  0  0  0  0  0  0
    6.8560   -5.2100    4.1807 H   0  0  0  0  0  0  0  0  0  0  0  0
    5.2870   -3.8378   -0.5981 H   0  0  0  0  0  0  0  0  0  0  0  0
    5.3380   -2.7306    0.7900 H   0  0  0  0  0  0  0  0  0  0  0  0
    7.6336   -3.8607   -0.6045 H   0  0  0  0  0  0  0  0  0  0  0  0
    7.6732   -2.8626    0.8320 H   0  0  0  0  0  0  0  0  0  0  0  0
    8.2879   -4.7288    2.0946 H   0  0  0  0  0  0  0  0  0  0  0  0
    8.0926   -5.7555    0.6711 H   0  0  0  0  0  0  0  0  0  0  0  0
    3.2840   -4.2091    1.8057 H   0  0  0  0  0  0  0  0  0  0  0  0
    3.4514   -5.4552    0.5694 H   0  0  0  0  0  0  0  0  0  0  0  0
    3.8079   -5.6769    3.5884 H   0  0  0  0  0  0  0  0  0  0  0  0
    2.2450   -6.9691    4.9783 H   0  0  0  0  0  0  0  0  0  0  0  0
   -0.1090   -7.7436    5.1367 H   0  0  0  0  0  0  0  0  0  0  0  0
    1.5695   -6.4303    0.7184 H   0  0  0  0  0  0  0  0  0  0  0  0
    4.1165  -10.2315    0.8392 H   0  0  0  0  0  0  0  0  0  0  0  0
    3.6808  -11.8486    2.9409 H   0  0  0  0  0  0  0  0  0  0  0  0
    3.5564  -11.8696    5.4699 H   0  0  0  0  0  0  0  0  0  0  0  0
    4.4141   -7.6392    5.5671 H   0  0  0  0  0  0  0  0  0  0  0  0
  1  2  2  0
  2  7  1  0
  2  3  1  0
  4  3  1  1
  3 33  1  0
  3 34  1  0
  4 22  1  0
  4  5  1  0
  4  8  1  0
  5  6  2  0
  5  7  1  0
  8 12  1  0
  8  9  2  0
  9 10  1  0
  9 13  1  0
 10 11  1  0
 10 35  1  0
 10 36  1  0
 11 12  1  0
 11 37  1  0
 11 38  1  0
 12 39  1  0
 12 40  1  0
 13 14  1  0
 13 41  1  0
 13 42  1  0
 14 15  1  0
 14 22  1  0
 14 43  1  1
 15 21  1  0
 15 16  2  0
 16 17  1  0
 16 44  1  0
 17 18  2  0
 17 45  1  0
 18 19  1  0
 18 20  1  0
 20 21  2  0
 21 46  1  0
 22 32  1  0
 22 23  1  6
 23 24  2  0
 23 25  1  0
 25 26  1  0
 25 47  1  0
 26 32  2  0
 26 27  1  0
 27 28  2  0
 27 48  1  0
 28 29  1  0
 28 49  1  0
 29 30  1  0
 29 31  2  0
 31 32  1  0
 31 50  1  0
M  CHG  1   7  -1
M  END
>  <i_m_ct_stereo_status>  (327) 
1

>  <s_m_source_file>  (327) 
/var/tmp/pbs.5083856.sched01/tmp6s2nupww/135ho57x0v_.sdf

>  <i_m_source_file_index>  (327) 
2

>  <i_lp_mmshare_version>  (327) 
48012

>  <i_f3d_flags>  (327) 
0

>  <s_epik_input>  (327) 
Tz1DMVtOSF1DKD1PKVtDSDJdW0NAXTEyW0NAQF0zKGM0YyhbTkhdQzM9TylbY0hdW2NIXWMoQnIpW2NIXTQpW0NAQEhdKFtDSDJdQzU9QzJbQ0gyXVtDSDJdW0NIMl01KWM2W2NIXVtjSF1jKENsKW5bY0hdNg==

>  <s_epik_cmdline>  (327) 
J2VwaWtfcHl0aG9uJywgJy1waHQnLCAnMi4wJywgJy1waCcsICc3LjAnLCAnLXRuJywgJzgnLCAnLW1hJywgJzIwMCcsICctaW1hZScsICc8aW5maWxlLm1hZT4nLCAnLW9tYWUnLCAnPG91dGZpbGUubWFlPic=

>  <r_epik_Ionization_Penalty>  (327) 
2.25399

>  <r_epik_Ionization_Penalty_Charging>  (327) 
2.25399

>  <r_epik_Ionization_Penalty_Neutral>  (327) 
2.26239e-06

>  <r_epik_State_Penalty>  (327) 
2.40132

>  <r_epik_Charging_Adjusted_Penalty>  (327) 
4.65531

>  <i_epik_Tot_Q>  (327) 
-1

>  <i_epik_Tot_abs_Q>  (327) 
1

>  <s_lp_Force_Field>  (327) 
OPLS3e

>  <r_lp_Energy>  (327) 
31.9126

>  <b_lp_Chiralities_Consistent>  (327) 
1

>  <s_lp_Variant>  (327) 
94:0-2

>  <s_i_glide_gridfile>  (327) 
pfpi4k_grid

>  <i_i_glide_lignum>  (327) 
2

>  <i_i_glide_rotatable_bonds>  (327) 
1

>  <r_i_docking_score>  (327) 
-2.7466

>  <r_i_glide_ligand_efficiency>  (327) 
-0.0858312

>  <r_i_glide_ligand_efficiency_sa>  (327) 
-0.272497

>  <r_i_glide_ligand_efficiency_ln>  (327) 
-0.615038

>  <r_i_glide_gscore>  (327) 
-2.7466

>  <r_i_glide_lipo>  (327) 
-0.471547

>  <r_i_glide_hbond>  (327) 
-0.177397

>  <r_i_glide_metal>  (327) 
-0

>  <r_i_glide_rewards>  (327) 
-0.0272466

>  <r_i_glide_evdw>  (327) 
-31.0868

>  <r_i_glide_ecoul>  (327) 
-3.42519

>  <r_i_glide_erotb>  (327) 
0.0782521

>  <r_i_glide_esite>  (327) 
-0.0805423

>  <r_i_glide_emodel>  (327) 
-40.5112

>  <r_i_glide_energy>  (327) 
-34.512

>  <r_i_glide_einternal>  (327) 
1.31395

>  <r_i_glide_intrahb_reward>  (327) 
-0

>  <i_i_glide_confnum>  (327) 
2

>  <i_i_glide_posenum>  (327) 
7

>  <r_i_glide_eff_state_penalty>  (327) 
0

>  <ligand_id>  (327) 
94

>  <original_smiles>  (327) 
O=C1CC2(C(=O)N1)C1=C(CCC1)CC(c1ccc(Cl)nc1)C21C(=O)Nc2ccc(Br)cc21

>  <smiles>  (327) 
[H]c1nc(Cl)c([H])c([H])c1C1([H])C([H])([H])C2=C(C([H])([H])C([H])([H])C2([H])[H])C2(C(=O)[N-]C(=O)C2([H])[H])C12C(=O)N([H])c1c([H])c([H])c(Br)c([H])c12

$$$$
94:1:1
     RDKit          3D

 50 55  0  0  1  0  0  0  0  0999 V2000
   -1.1689   -3.3591    6.4616 O   0  0  0  0  0  0  0  0  0  0  0  0
   -0.6098   -2.2820    6.2389 C   0  0  0  0  0  0  0  0  0  0  0  0
   -0.5673   -1.6709    4.8514 C   0  0  0  0  0  0  0  0  0  0  0  0
    0.3477   -0.4304    5.0432 C   0  0  2  0  0  0  0  0  0  0  0  0
    0.5247   -0.3731    6.5906 C   0  0  0  0  0  0  0  0  0  0  0  0
    1.0315    0.5736    7.1652 O   0  0  0  0  0  0  0  0  0  0  0  0
    0.0007   -1.4851    7.1294 N   0  0  0  0  0  0  0  0  0  0  0  0
   -0.3969    0.7997    4.4929 C   0  0  0  0  0  0  0  0  0  0  0  0
   -0.1794    1.3492    3.2900 C   0  0  0  0  0  0  0  0  0  0  0  0
   -1.0565    2.5365    3.0299 C   0  0  0  0  0  0  0  0  0  0  0  0
   -1.9231    2.6683    4.3004 C   0  0  0  0  0  0  0  0  0  0  0  0
   -1.4544    1.5472    5.2598 C   0  0  0  0  0  0  0  0  0  0  0  0
    0.8643    0.8796    2.2960 C   0  0  0  0  0  0  0  0  0  0  0  0
    1.4694   -0.4861    2.7119 C   0  0  1  0  0  0  0  0  0  0  0  0
    2.6309   -0.9251    1.8273 C   0  0  0  0  0  0  0  0  0  0  0  0
    3.6957   -0.0512    1.5254 C   0  0  0  0  0  0  0  0  0  0  0  0
    4.7438   -0.5053    0.7036 C   0  0  0  0  0  0  0  0  0  0  0  0
    4.6805   -1.8105    0.1879 C   0  0  0  0  0  0  0  0  0  0  0  0
    5.9559   -2.3423   -0.8445 Cl  0  0  0  0  0  0  0  0  0  0  0  0
    3.6730   -2.6600    0.4671 N   0  0  0  0  0  0  0  0  0  0  0  0
    2.6721   -2.2174    1.2600 C   0  0  0  0  0  0  0  0  0  0  0  0
    1.7378   -0.6311    4.2746 C   0  0  1  0  0  0  0  0  0  0  0  0
    2.8200    0.4130    4.7296 C   0  0  0  0  0  0  0  0  0  0  0  0
    2.7306    1.6210    4.6096 O   0  0  0  0  0  0  0  0  0  0  0  0
    3.8885   -0.2099    5.2561 N   0  0  0  0  0  0  0  0  0  0  0  0
    3.7593   -1.5841    5.2210 C   0  0  0  0  0  0  0  0  0  0  0  0
    4.6590   -2.5594    5.6650 C   0  0  0  0  0  0  0  0  0  0  0  0
    4.3293   -3.9142    5.4960 C   0  0  0  0  0  0  0  0  0  0  0  0
    3.1022   -4.2646    4.8573 C   0  0  0  0  0  0  0  0  0  0  0  0
    2.6677   -6.0936    4.6255 Br  0  0  0  0  0  0  0  0  0  0  0  0
    2.2138   -3.2663    4.4080 C   0  0  0  0  0  0  0  0  0  0  0  0
    2.5247   -1.9166    4.6228 C   0  0  0  0  0  0  0  0  0  0  0  0
   -0.1952   -2.4047    4.1694 H   0  0  0  0  0  0  0  0  0  0  0  0
   -1.5957   -1.3787    4.5534 H   0  0  0  0  0  0  0  0  0  0  0  0
   -0.4367    3.4236    2.8814 H   0  0  0  0  0  0  0  0  0  0  0  0
   -1.6738    2.3889    2.1387 H   0  0  0  0  0  0  0  0  0  0  0  0
   -1.8095    3.6501    4.7634 H   0  0  0  0  0  0  0  0  0  0  0  0
   -2.9824    2.5453    4.0706 H   0  0  0  0  0  0  0  0  0  0  0  0
   -2.2700    0.8880    5.5659 H   0  0  0  0  0  0  0  0  0  0  0  0
   -1.0127    1.9822    6.1575 H   0  0  0  0  0  0  0  0  0  0  0  0
    0.4245    0.8217    1.2992 H   0  0  0  0  0  0  0  0  0  0  0  0
    1.6141    1.6699    2.2515 H   0  0  0  0  0  0  0  0  0  0  0  0
    0.6877   -1.2056    2.4716 H   0  0  0  0  0  0  0  0  0  0  0  0
    3.7245    0.9442    1.9287 H   0  0  0  0  0  0  0  0  0  0  0  0
    5.5665    0.1479    0.4593 H   0  0  0  0  0  0  0  0  0  0  0  0
    1.8865   -2.9284    1.4507 H   0  0  0  0  0  0  0  0  0  0  0  0
    4.6959    0.2631    5.6391 H   0  0  0  0  0  0  0  0  0  0  0  0
    5.6016   -2.2593    6.1274 H   0  0  0  0  0  0  0  0  0  0  0  0
    4.9972   -4.6833    5.8320 H   0  0  0  0  0  0  0  0  0  0  0  0
    1.3064   -3.5761    3.8996 H   0  0  0  0  0  0  0  0  0  0  0  0
  1  2  2  0
  2  7  1  0
  2  3  1  0
  4  3  1  1
  3 33  1  0
  3 34  1  0
  4 22  1  0
  4  5  1  0
  4  8  1  0
  5  6  2  0
  5  7  1  0
  8 12  1  0
  8  9  2  0
  9 10  1  0
  9 13  1  0
 10 11  1  0
 10 35  1  0
 10 36  1  0
 11 12  1  0
 11 37  1  0
 11 38  1  0
 12 39  1  0
 12 40  1  0
 13 14  1  0
 13 41  1  0
 13 42  1  0
 14 15  1  0
 14 22  1  0
 14 43  1  6
 15 21  1  0
 15 16  2  0
 16 17  1  0
 16 44  1  0
 17 18  2  0
 17 45  1  0
 18 19  1  0
 18 20  1  0
 20 21  2  0
 21 46  1  0
 22 32  1  0
 22 23  1  1
 23 24  2  0
 23 25  1  0
 25 26  1  0
 25 47  1  0
 26 32  2  0
 26 27  1  0
 27 28  2  0
 27 48  1  0
 28 29  1  0
 28 49  1  0
 29 30  1  0
 29 31  2  0
 31 32  1  0
 31 50  1  0
M  CHG  1   7  -1
M  END
>  <i_m_ct_stereo_status>  (328) 
1

>  <s_m_source_file>  (328) 
/var/tmp/pbs.5083856.sched01/tmp6s2nupww/135ho57x0v_.sdf

>  <i_m_source_file_index>  (328) 
2

>  <i_lp_mmshare_version>  (328) 
48012

>  <i_f3d_flags>  (328) 
0

>  <s_epik_input>  (328) 
Tz1DMVtOSF1DKD1PKVtDSDJdW0NAXTEyW0NAQF0zKGM0YyhbTkhdQzM9TylbY0hdW2NIXWMoQnIpW2NIXTQpW0NAQEhdKFtDSDJdQzU9QzJbQ0gyXVtDSDJdW0NIMl01KWM2W2NIXVtjSF1jKENsKW5bY0hdNg==

>  <s_epik_cmdline>  (328) 
J2VwaWtfcHl0aG9uJywgJy1waHQnLCAnMi4wJywgJy1waCcsICc3LjAnLCAnLXRuJywgJzgnLCAnLW1hJywgJzIwMCcsICctaW1hZScsICc8aW5maWxlLm1hZT4nLCAnLW9tYWUnLCAnPG91dGZpbGUubWFlPic=

>  <r_epik_Ionization_Penalty>  (328) 
2.25399

>  <r_epik_Ionization_Penalty_Charging>  (328) 
2.25399

>  <r_epik_Ionization_Penalty_Neutral>  (328) 
2.26239e-06

>  <r_epik_State_Penalty>  (328) 
2.40132

>  <r_epik_Charging_Adjusted_Penalty>  (328) 
4.65531

>  <i_epik_Tot_Q>  (328) 
-1

>  <i_epik_Tot_abs_Q>  (328) 
1

>  <s_lp_Force_Field>  (328) 
OPLS3e

>  <r_lp_Energy>  (328) 
31.9126

>  <b_lp_Chiralities_Consistent>  (328) 
1

>  <s_lp_Variant>  (328) 
94:0-2

>  <s_i_glide_gridfile>  (328) 
pfpi4k_grid

>  <i_i_glide_lignum>  (328) 
2

>  <i_i_glide_rotatable_bonds>  (328) 
1

>  <r_i_docking_score>  (328) 
-1.94716

>  <r_i_glide_ligand_efficiency>  (328) 
-0.0608488

>  <r_i_glide_ligand_efficiency_sa>  (328) 
-0.193183

>  <r_i_glide_ligand_efficiency_ln>  (328) 
-0.436023

>  <r_i_glide_gscore>  (328) 
-1.94716

>  <r_i_glide_lipo>  (328) 
-0.181859

>  <r_i_glide_hbond>  (328) 
0

>  <r_i_glide_metal>  (328) 
-0

>  <r_i_glide_rewards>  (328) 
0

>  <r_i_glide_evdw>  (328) 
-29.8271

>  <r_i_glide_ecoul>  (328) 
-1.94777

>  <r_i_glide_erotb>  (328) 
0.0782521

>  <r_i_glide_esite>  (328) 
-0.0600343

>  <r_i_glide_emodel>  (328) 
-36.6808

>  <r_i_glide_energy>  (328) 
-31.7749

>  <r_i_glide_einternal>  (328) 
0.023132

>  <r_i_glide_intrahb_reward>  (328) 
-0

>  <i_i_glide_confnum>  (328) 
3

>  <i_i_glide_posenum>  (328) 
36

>  <r_i_glide_eff_state_penalty>  (328) 
0

>  <ligand_id>  (328) 
94

>  <original_smiles>  (328) 
O=C1CC2(C(=O)N1)C1=C(CCC1)CC(c1ccc(Cl)nc1)C21C(=O)Nc2ccc(Br)cc21

>  <smiles>  (328) 
[H]c1nc(Cl)c([H])c([H])c1C1([H])C([H])([H])C2=C(C([H])([H])C([H])([H])C2([H])[H])C2(C(=O)[N-]C(=O)C2([H])[H])C12C(=O)N([H])c1c([H])c([H])c(Br)c([H])c12

$$$$
94:1:2
     RDKit          3D

 50 55  0  0  1  0  0  0  0  0999 V2000
   -1.1885   -3.3543    6.4640 O   0  0  0  0  0  0  0  0  0  0  0  0
   -0.6166   -2.2886    6.2465 C   0  0  0  0  0  0  0  0  0  0  0  0
   -0.5473   -1.6733    4.8583 C   0  0  0  0  0  0  0  0  0  0  0  0
    0.3716   -0.4404    5.0651 C   0  0  2  0  0  0  0  0  0  0  0  0
    0.5170   -0.3860    6.6123 C   0  0  0  0  0  0  0  0  0  0  0  0
    1.0162    0.5677    7.2006 O   0  0  0  0  0  0  0  0  0  0  0  0
   -0.0182   -1.4832    7.1447 N   0  0  0  0  0  0  0  0  0  0  0  0
   -0.3554    0.7939    4.4993 C   0  0  0  0  0  0  0  0  0  0  0  0
   -0.1088    1.3419    3.3039 C   0  0  0  0  0  0  0  0  0  0  0  0
   -0.9770    2.5357    3.0213 C   0  0  0  0  0  0  0  0  0  0  0  0
   -1.8657    2.6728    4.2739 C   0  0  0  0  0  0  0  0  0  0  0  0
   -1.4218    1.5515    5.2451 C   0  0  0  0  0  0  0  0  0  0  0  0
    0.9461    0.8666    2.3271 C   0  0  0  0  0  0  0  0  0  0  0  0
    1.5380   -0.5032    2.7563 C   0  0  1  0  0  0  0  0  0  0  0  0
    2.7157   -0.9359    1.8890 C   0  0  0  0  0  0  0  0  0  0  0  0
    2.7419   -2.2056    1.2718 C   0  0  0  0  0  0  0  0  0  0  0  0
    3.8406   -2.5495    0.4595 C   0  0  0  0  0  0  0  0  0  0  0  0
    4.8709   -1.6064    0.2884 C   0  0  0  0  0  0  0  0  0  0  0  0
    6.1967   -2.0049   -0.7308 Cl  0  0  0  0  0  0  0  0  0  0  0  0
    4.8638   -0.3964    0.8806 N   0  0  0  0  0  0  0  0  0  0  0  0
    3.8029   -0.0718    1.6459 C   0  0  0  0  0  0  0  0  0  0  0  0
    1.7745   -0.6459    4.3232 C   0  0  1  0  0  0  0  0  0  0  0  0
    2.8515    0.3924    4.8021 C   0  0  0  0  0  0  0  0  0  0  0  0
    2.7704    1.5993    4.6816 O   0  0  0  0  0  0  0  0  0  0  0  0
    3.9107   -0.2397    5.3493 N   0  0  0  0  0  0  0  0  0  0  0  0
    3.7696   -1.6129    5.3069 C   0  0  0  0  0  0  0  0  0  0  0  0
    4.6604   -2.5908    5.7710 C   0  0  0  0  0  0  0  0  0  0  0  0
    4.3236   -3.9413    5.5952 C   0  0  0  0  0  0  0  0  0  0  0  0
    3.1051   -4.2856    4.9328 C   0  0  0  0  0  0  0  0  0  0  0  0
    2.6653   -6.1160    4.6979 Br  0  0  0  0  0  0  0  0  0  0  0  0
    2.2357   -3.2826    4.4659 C   0  0  0  0  0  0  0  0  0  0  0  0
    2.5515   -1.9348    4.6877 C   0  0  0  0  0  0  0  0  0  0  0  0
   -0.1649   -2.4106    4.1891 H   0  0  0  0  0  0  0  0  0  0  0  0
   -1.5669   -1.3738    4.5460 H   0  0  0  0  0  0  0  0  0  0  0  0
   -0.3488    3.4165    2.8857 H   0  0  0  0  0  0  0  0  0  0  0  0
   -1.5756    2.3897    2.1171 H   0  0  0  0  0  0  0  0  0  0  0  0
   -1.7544    3.6562    4.7374 H   0  0  0  0  0  0  0  0  0  0  0  0
   -2.9217    2.5583    4.0234 H   0  0  0  0  0  0  0  0  0  0  0  0
   -2.2480    0.8988    5.5344 H   0  0  0  0  0  0  0  0  0  0  0  0
   -0.9940    1.9865    6.1502 H   0  0  0  0  0  0  0  0  0  0  0  0
    0.5252    0.8092    1.3218 H   0  0  0  0  0  0  0  0  0  0  0  0
    1.7016    1.6480    2.2969 H   0  0  0  0  0  0  0  0  0  0  0  0
    0.7585   -1.2234    2.5038 H   0  0  0  0  0  0  0  0  0  0  0  0
    1.9406   -2.9105    1.4193 H   0  0  0  0  0  0  0  0  0  0  0  0
    3.8869   -3.5063   -0.0400 H   0  0  0  0  0  0  0  0  0  0  0  0
    3.8329    0.9121    2.0888 H   0  0  0  0  0  0  0  0  0  0  0  0
    4.7098    0.2300    5.7435 H   0  0  0  0  0  0  0  0  0  0  0  0
    5.5917   -2.2977    6.2511 H   0  0  0  0  0  0  0  0  0  0  0  0
    4.9808   -4.7166    5.9490 H   0  0  0  0  0  0  0  0  0  0  0  0
    1.3347   -3.5824    3.9410 H   0  0  0  0  0  0  0  0  0  0  0  0
  1  2  2  0
  2  7  1  0
  2  3  1  0
  4  3  1  1
  3 33  1  0
  3 34  1  0
  4 22  1  0
  4  5  1  0
  4  8  1  0
  5  6  2  0
  5  7  1  0
  8 12  1  0
  8  9  2  0
  9 10  1  0
  9 13  1  0
 10 11  1  0
 10 35  1  0
 10 36  1  0
 11 12  1  0
 11 37  1  0
 11 38  1  0
 12 39  1  0
 12 40  1  0
 13 14  1  0
 13 41  1  0
 13 42  1  0
 14 15  1  0
 14 22  1  0
 14 43  1  6
 15 21  1  0
 15 16  2  0
 16 17  1  0
 16 44  1  0
 17 18  2  0
 17 45  1  0
 18 19  1  0
 18 20  1  0
 20 21  2  0
 21 46  1  0
 22 32  1  0
 22 23  1  1
 23 24  2  0
 23 25  1  0
 25 26  1  0
 25 47  1  0
 26 32  2  0
 26 27  1  0
 27 28  2  0
 27 48  1  0
 28 29  1  0
 28 49  1  0
 29 30  1  0
 29 31  2  0
 31 32  1  0
 31 50  1  0
M  CHG  1   7  -1
M  END
>  <i_m_ct_stereo_status>  (329) 
1

>  <s_m_source_file>  (329) 
/var/tmp/pbs.5083856.sched01/tmp6s2nupww/135ho57x0v_.sdf

>  <i_m_source_file_index>  (329) 
2

>  <i_lp_mmshare_version>  (329) 
48012

>  <i_f3d_flags>  (329) 
0

>  <s_epik_input>  (329) 
Tz1DMVtOSF1DKD1PKVtDSDJdW0NAXTEyW0NAQF0zKGM0YyhbTkhdQzM9TylbY0hdW2NIXWMoQnIpW2NIXTQpW0NAQEhdKFtDSDJdQzU9QzJbQ0gyXVtDSDJdW0NIMl01KWM2W2NIXVtjSF1jKENsKW5bY0hdNg==

>  <s_epik_cmdline>  (329) 
J2VwaWtfcHl0aG9uJywgJy1waHQnLCAnMi4wJywgJy1waCcsICc3LjAnLCAnLXRuJywgJzgnLCAnLW1hJywgJzIwMCcsICctaW1hZScsICc8aW5maWxlLm1hZT4nLCAnLW9tYWUnLCAnPG91dGZpbGUubWFlPic=

>  <r_epik_Ionization_Penalty>  (329) 
2.25399

>  <r_epik_Ionization_Penalty_Charging>  (329) 
2.25399

>  <r_epik_Ionization_Penalty_Neutral>  (329) 
2.26239e-06

>  <r_epik_State_Penalty>  (329) 
2.40132

>  <r_epik_Charging_Adjusted_Penalty>  (329) 
4.65531

>  <i_epik_Tot_Q>  (329) 
-1

>  <i_epik_Tot_abs_Q>  (329) 
1

>  <s_lp_Force_Field>  (329) 
OPLS3e

>  <r_lp_Energy>  (329) 
31.9126

>  <b_lp_Chiralities_Consistent>  (329) 
1

>  <s_lp_Variant>  (329) 
94:0-2

>  <s_i_glide_gridfile>  (329) 
pfpi4k_grid

>  <i_i_glide_lignum>  (329) 
2

>  <i_i_glide_rotatable_bonds>  (329) 
1

>  <r_i_docking_score>  (329) 
-1.83284

>  <r_i_glide_ligand_efficiency>  (329) 
-0.0572762

>  <r_i_glide_ligand_efficiency_sa>  (329) 
-0.18184

>  <r_i_glide_ligand_efficiency_ln>  (329) 
-0.410422

>  <r_i_glide_gscore>  (329) 
-1.83284

>  <r_i_glide_lipo>  (329) 
-0.0556986

>  <r_i_glide_hbond>  (329) 
0

>  <r_i_glide_metal>  (329) 
-0

>  <r_i_glide_rewards>  (329) 
0

>  <r_i_glide_evdw>  (329) 
-29.4169

>  <r_i_glide_ecoul>  (329) 
-2.15792

>  <r_i_glide_erotb>  (329) 
0.0782521

>  <r_i_glide_esite>  (329) 
-0.0608579

>  <r_i_glide_emodel>  (329) 
-36.1658

>  <r_i_glide_energy>  (329) 
-31.5748

>  <r_i_glide_einternal>  (329) 
0.0854057

>  <r_i_glide_intrahb_reward>  (329) 
-0

>  <i_i_glide_confnum>  (329) 
2

>  <i_i_glide_posenum>  (329) 
23

>  <r_i_glide_eff_state_penalty>  (329) 
0

>  <ligand_id>  (329) 
94

>  <original_smiles>  (329) 
O=C1CC2(C(=O)N1)C1=C(CCC1)CC(c1ccc(Cl)nc1)C21C(=O)Nc2ccc(Br)cc21

>  <smiles>  (329) 
[H]c1nc(Cl)c([H])c([H])c1C1([H])C([H])([H])C2=C(C([H])([H])C([H])([H])C2([H])[H])C2(C(=O)[N-]C(=O)C2([H])[H])C12C(=O)N([H])c1c([H])c([H])c(Br)c([H])c12

$$$$
95:0:0
     RDKit          3D

 47 50  0  0  1  0  0  0  0  0999 V2000
    5.3920   -3.3385    4.0564 C   0  0  0  0  0  0  0  0  0  0  0  0
    3.9797   -3.3118    3.8920 O   0  0  0  0  0  0  0  0  0  0  0  0
    3.4725   -4.0879    2.8534 C   0  0  0  0  0  0  0  0  0  0  0  0
    3.1828   -5.4460    3.1400 C   0  0  0  0  0  0  0  0  0  0  0  0
    3.4447   -6.0591    4.5020 C   0  0  0  0  0  0  0  0  0  0  0  0
    2.6209   -6.2627    2.1232 C   0  0  0  0  0  0  0  0  0  0  0  0
    2.3280   -5.7345    0.8527 C   0  0  0  0  0  0  0  0  0  0  0  0
    2.6257   -4.4014    0.5529 C   0  0  0  0  0  0  0  0  0  0  0  0
    3.1992   -3.5566    1.5598 C   0  0  0  0  0  0  0  0  0  0  0  0
    3.5303   -2.1313    1.0803 C   0  0  1  0  0  0  0  0  0  0  0  0
    4.3372   -1.3457    1.9292 O   0  0  0  0  0  0  0  0  0  0  0  0
    4.1508   -2.1371   -0.3384 C   0  0  1  0  0  0  0  0  0  0  0  0
    5.5021   -2.8292   -0.6888 C   0  0  0  0  0  0  0  0  0  0  0  0
    6.5982   -1.8783   -1.1345 C   0  0  0  0  0  0  0  0  0  0  0  0
    6.1881   -3.7074    0.3436 C   0  0  0  0  0  0  0  0  0  0  0  0
    4.7357   -3.6031   -1.7722 C   0  0  2  0  0  0  0  0  0  0  0  0
    5.0078   -3.3748   -3.2479 C   0  0  0  0  0  0  0  0  0  0  0  0
    4.1227   -2.1747   -3.6366 C   0  0  0  0  0  0  0  0  0  0  0  0
    2.9244   -2.2149   -2.6613 C   0  0  0  0  0  0  0  0  0  0  0  0
    3.4073   -2.9563   -1.4015 C   0  0  2  0  0  0  0  0  0  0  0  0
    2.3004   -3.8510   -0.8363 C   0  0  0  0  0  0  0  0  0  0  0  0
    5.6839   -2.7545    4.9402 H   0  0  0  0  0  0  0  0  0  0  0  0
    5.8463   -2.8991    3.1901 H   0  0  0  0  0  0  0  0  0  0  0  0
    5.8023   -4.3416    4.1600 H   0  0  0  0  0  0  0  0  0  0  0  0
    3.4173   -7.1435    4.4449 H   0  0  0  0  0  0  0  0  0  0  0  0
    2.6832   -5.7313    5.2033 H   0  0  0  0  0  0  0  0  0  0  0  0
    4.4144   -5.8009    4.9212 H   0  0  0  0  0  0  0  0  0  0  0  0
    2.3901   -7.2949    2.3329 H   0  0  0  0  0  0  0  0  0  0  0  0
    1.8876   -6.3681    0.0847 H   0  0  0  0  0  0  0  0  0  0  0  0
    2.5725   -1.6106    1.0432 H   0  0  0  0  0  0  0  0  0  0  0  0
    4.3034   -0.4521    1.6268 H   0  0  0  0  0  0  0  0  0  0  0  0
    4.2285   -1.1201   -0.7192 H   0  0  0  0  0  0  0  0  0  0  0  0
    7.4225   -2.4151   -1.6063 H   0  0  0  0  0  0  0  0  0  0  0  0
    6.9922   -1.3306   -0.2749 H   0  0  0  0  0  0  0  0  0  0  0  0
    6.2160   -1.1502   -1.8426 H   0  0  0  0  0  0  0  0  0  0  0  0
    7.0759   -4.2148   -0.0684 H   0  0  0  0  0  0  0  0  0  0  0  0
    5.5125   -4.4851    0.6961 H   0  0  0  0  0  0  0  0  0  0  0  0
    6.4881   -3.0764    1.1709 H   0  0  0  0  0  0  0  0  0  0  0  0
    4.7202   -4.6513   -1.4955 H   0  0  0  0  0  0  0  0  0  0  0  0
    6.0690   -3.2385   -3.4832 H   0  0  0  0  0  0  0  0  0  0  0  0
    4.6694   -4.2527   -3.8015 H   0  0  0  0  0  0  0  0  0  0  0  0
    4.6881   -1.2556   -3.4626 H   0  0  0  0  0  0  0  0  0  0  0  0
    3.8196   -2.1804   -4.6888 H   0  0  0  0  0  0  0  0  0  0  0  0
    2.5788   -1.2033   -2.4385 H   0  0  0  0  0  0  0  0  0  0  0  0
    2.0966   -2.7469   -3.1320 H   0  0  0  0  0  0  0  0  0  0  0  0
    2.0194   -4.6565   -1.5171 H   0  0  0  0  0  0  0  0  0  0  0  0
    1.4051   -3.2465   -0.7541 H   0  0  0  0  0  0  0  0  0  0  0  0
  1  2  1  0
  1 22  1  0
  1 23  1  0
  1 24  1  0
  2  3  1  0
  3  9  2  0
  3  4  1  0
  4  5  1  0
  4  6  2  0
  5 25  1  0
  5 26  1  0
  5 27  1  0
  6  7  1  0
  6 28  1  0
  7  8  2  0
  7 29  1  0
  8 21  1  0
  8  9  1  0
  9 10  1  0
 10 11  1  0
 10 12  1  0
 10 30  1  6
 11 31  1  0
 12 20  1  0
 12 13  1  0
 12 32  1  6
 13 14  1  0
 13 15  1  0
 13 16  1  0
 14 33  1  0
 14 34  1  0
 14 35  1  0
 15 36  1  0
 15 37  1  0
 15 38  1  0
 16 20  1  0
 16 17  1  0
 16 39  1  1
 17 18  1  0
 17 40  1  0
 17 41  1  0
 18 19  1  0
 18 42  1  0
 18 43  1  0
 20 19  1  6
 19 44  1  0
 19 45  1  0
 20 21  1  0
 21 46  1  0
 21 47  1  0
M  END
>  <i_m_ct_stereo_status>  (330) 
1

>  <s_m_source_file>  (330) 
/var/tmp/pbs.5083856.sched01/tmp6s2nupww/135ho57x0v_.sdf

>  <i_m_source_file_index>  (330) 
3

>  <i_lp_mmshare_version>  (330) 
48012

>  <i_f3d_flags>  (330) 
0

>  <s_epik_input>  (330) 
W0NIM11PYzFjKFtDSDNdKVtjSF1bY0hdYyhbQ0gyXTIpYzFbQ0BASF0oW09IXSlbQ0BIXShbQ0BdMjM0KUMoW0NIM10pKFtDSDNdKVtDQEBIXTNbQ0gyXVtDSDJdW0NIMl00

>  <s_epik_cmdline>  (330) 
J2VwaWtfcHl0aG9uJywgJy1waHQnLCAnMi4wJywgJy1waCcsICc3LjAnLCAnLXRuJywgJzgnLCAnLW1hJywgJzIwMCcsICctaW1hZScsICc8aW5maWxlLm1hZT4nLCAnLW9tYWUnLCAnPG91dGZpbGUubWFlPic=

>  <r_lp_tautomer_probability>  (330) 
1

>  <r_epik_Ionization_Penalty>  (330) 
1.02699e-07

>  <r_epik_Ionization_Penalty_Charging>  (330) 
0

>  <r_epik_Ionization_Penalty_Neutral>  (330) 
1.02699e-07

>  <r_epik_State_Penalty>  (330) 
-0

>  <r_epik_Charging_Adjusted_Penalty>  (330) 
0

>  <i_epik_Tot_Q>  (330) 
0

>  <i_epik_Tot_abs_Q>  (330) 
0

>  <s_lp_Force_Field>  (330) 
OPLS3e

>  <r_lp_Energy>  (330) 
58.8371

>  <b_lp_Chiralities_Consistent>  (330) 
1

>  <s_lp_Variant>  (330) 
95:0-1

>  <s_i_glide_gridfile>  (330) 
pfpi4k_grid

>  <i_i_glide_lignum>  (330) 
3

>  <i_i_glide_rotatable_bonds>  (330) 
2

>  <r_i_docking_score>  (330) 
-2.98863

>  <r_i_glide_ligand_efficiency>  (330) 
-0.142316

>  <r_i_glide_ligand_efficiency_sa>  (330) 
-0.392638

>  <r_i_glide_ligand_efficiency_ln>  (330) 
-0.738933

>  <r_i_glide_gscore>  (330) 
-2.98863

>  <r_i_glide_lipo>  (330) 
-0.570518

>  <r_i_glide_hbond>  (330) 
0

>  <r_i_glide_metal>  (330) 
-0

>  <r_i_glide_rewards>  (330) 
-1.45631

>  <r_i_glide_evdw>  (330) 
-19.2987

>  <r_i_glide_ecoul>  (330) 
0.0208341

>  <r_i_glide_erotb>  (330) 
0

>  <r_i_glide_esite>  (330) 
0

>  <r_i_glide_emodel>  (330) 
-22.077

>  <r_i_glide_energy>  (330) 
-19.2778

>  <r_i_glide_einternal>  (330) 
0.414534

>  <r_i_glide_intrahb_reward>  (330) 
-0

>  <i_i_glide_confnum>  (330) 
2

>  <i_i_glide_posenum>  (330) 
1

>  <r_i_glide_eff_state_penalty>  (330) 
0

>  <ligand_id>  (330) 
95

>  <original_smiles>  (330) 
COc1c(C)ccc2c1C(O)C1C(C)(C)C3CCCC31C2

>  <smiles>  (330) 
[H]OC1([H])c2c(OC([H])([H])[H])c(C([H])([H])[H])c([H])c([H])c2C([H])([H])C23C([H])([H])C([H])([H])C([H])([H])C2([H])C(C([H])([H])[H])(C([H])([H])[H])C13[H]

$$$$
95:0:1
     RDKit          3D

 47 50  0  0  1  0  0  0  0  0999 V2000
    3.2470   -2.5282    4.5003 C   0  0  0  0  0  0  0  0  0  0  0  0
    4.1126   -3.4279    3.8283 O   0  0  0  0  0  0  0  0  0  0  0  0
    3.4946   -4.1349    2.8311 C   0  0  0  0  0  0  0  0  0  0  0  0
    3.1137   -5.4756    3.1090 C   0  0  0  0  0  0  0  0  0  0  0  0
    3.3951   -6.0895    4.4684 C   0  0  0  0  0  0  0  0  0  0  0  0
    2.4681   -6.2392    2.1241 C   0  0  0  0  0  0  0  0  0  0  0  0
    2.2143   -5.6946    0.8501 C   0  0  0  0  0  0  0  0  0  0  0  0
    2.6158   -4.3772    0.5520 C   0  0  0  0  0  0  0  0  0  0  0  0
    3.2690   -3.5937    1.5290 C   0  0  0  0  0  0  0  0  0  0  0  0
    3.7407   -2.1991    1.0756 C   0  0  1  0  0  0  0  0  0  0  0  0
    4.6649   -1.5329    1.9070 O   0  0  0  0  0  0  0  0  0  0  0  0
    4.3306   -2.2477   -0.3465 C   0  0  1  0  0  0  0  0  0  0  0  0
    5.6065   -3.0718   -0.6907 C   0  0  0  0  0  0  0  0  0  0  0  0
    6.7880   -2.2324   -1.1724 C   0  0  0  0  0  0  0  0  0  0  0  0
    6.1728   -4.0091    0.3816 C   0  0  0  0  0  0  0  0  0  0  0  0
    4.7675   -3.7824   -1.7791 C   0  0  2  0  0  0  0  0  0  0  0  0
    5.0358   -3.5700   -3.2633 C   0  0  0  0  0  0  0  0  0  0  0  0
    4.2663   -2.2928   -3.6386 C   0  0  0  0  0  0  0  0  0  0  0  0
    3.0838   -2.2269   -2.6518 C   0  0  0  0  0  0  0  0  0  0  0  0
    3.5130   -3.0061   -1.3976 C   0  0  2  0  0  0  0  0  0  0  0  0
    2.3262   -3.8004   -0.8332 C   0  0  0  0  0  0  0  0  0  0  0  0
    3.8062   -1.9832    5.2602 H   0  0  0  0  0  0  0  0  0  0  0  0
    2.4350   -3.0639    4.9915 H   0  0  0  0  0  0  0  0  0  0  0  0
    2.8104   -1.7990    3.8178 H   0  0  0  0  0  0  0  0  0  0  0  0
    3.3019   -7.1737    4.4333 H   0  0  0  0  0  0  0  0  0  0  0  0
    2.6885   -5.7135    5.2046 H   0  0  0  0  0  0  0  0  0  0  0  0
    4.4032   -5.8511    4.8016 H   0  0  0  0  0  0  0  0  0  0  0  0
    2.1655   -7.2600    2.3340 H   0  0  0  0  0  0  0  0  0  0  0  0
    1.7204   -6.2898    0.0976 H   0  0  0  0  0  0  0  0  0  0  0  0
    2.8377   -1.5860    1.0642 H   0  0  0  0  0  0  0  0  0  0  0  0
    4.7252   -0.6380    1.6072 H   0  0  0  0  0  0  0  0  0  0  0  0
    4.4883   -1.2341   -0.7116 H   0  0  0  0  0  0  0  0  0  0  0  0
    7.5453   -2.8443   -1.6621 H   0  0  0  0  0  0  0  0  0  0  0  0
    7.2583   -1.7066   -0.3411 H   0  0  0  0  0  0  0  0  0  0  0  0
    6.4596   -1.4838   -1.8881 H   0  0  0  0  0  0  0  0  0  0  0  0
    7.0707   -4.5240    0.0406 H   0  0  0  0  0  0  0  0  0  0  0  0
    5.4574   -4.7810    0.6531 H   0  0  0  0  0  0  0  0  0  0  0  0
    6.4275   -3.4658    1.2897 H   0  0  0  0  0  0  0  0  0  0  0  0
    4.6691   -4.8331   -1.5195 H   0  0  0  0  0  0  0  0  0  0  0  0
    6.0981   -3.5225   -3.5156 H   0  0  0  0  0  0  0  0  0  0  0  0
    4.6142   -4.4025   -3.8260 H   0  0  0  0  0  0  0  0  0  0  0  0
    4.9181   -1.4310   -3.4843 H   0  0  0  0  0  0  0  0  0  0  0  0
    3.9484   -2.2711   -4.6845 H   0  0  0  0  0  0  0  0  0  0  0  0
    2.8091   -1.1944   -2.4297 H   0  0  0  0  0  0  0  0  0  0  0  0
    2.2150   -2.6889   -3.1213 H   0  0  0  0  0  0  0  0  0  0  0  0
    1.9922   -4.5767   -1.5158 H   0  0  0  0  0  0  0  0  0  0  0  0
    1.4731   -3.1331   -0.7353 H   0  0  0  0  0  0  0  0  0  0  0  0
  1  2  1  0
  1 22  1  0
  1 23  1  0
  1 24  1  0
  2  3  1  0
  3  9  2  0
  3  4  1  0
  4  5  1  0
  4  6  2  0
  5 25  1  0
  5 26  1  0
  5 27  1  0
  6  7  1  0
  6 28  1  0
  7  8  2  0
  7 29  1  0
  8 21  1  0
  8  9  1  0
  9 10  1  0
 10 11  1  0
 10 12  1  0
 10 30  1  6
 11 31  1  0
 12 20  1  0
 12 13  1  0
 12 32  1  6
 13 14  1  0
 13 15  1  0
 13 16  1  0
 14 33  1  0
 14 34  1  0
 14 35  1  0
 15 36  1  0
 15 37  1  0
 15 38  1  0
 16 20  1  0
 16 17  1  0
 16 39  1  1
 17 18  1  0
 17 40  1  0
 17 41  1  0
 18 19  1  0
 18 42  1  0
 18 43  1  0
 20 19  1  6
 19 44  1  0
 19 45  1  0
 20 21  1  0
 21 46  1  0
 21 47  1  0
M  END
>  <i_m_ct_stereo_status>  (331) 
1

>  <s_m_source_file>  (331) 
/var/tmp/pbs.5083856.sched01/tmp6s2nupww/135ho57x0v_.sdf

>  <i_m_source_file_index>  (331) 
3

>  <i_lp_mmshare_version>  (331) 
48012

>  <i_f3d_flags>  (331) 
0

>  <s_epik_input>  (331) 
W0NIM11PYzFjKFtDSDNdKVtjSF1bY0hdYyhbQ0gyXTIpYzFbQ0BASF0oW09IXSlbQ0BIXShbQ0BdMjM0KUMoW0NIM10pKFtDSDNdKVtDQEBIXTNbQ0gyXVtDSDJdW0NIMl00

>  <s_epik_cmdline>  (331) 
J2VwaWtfcHl0aG9uJywgJy1waHQnLCAnMi4wJywgJy1waCcsICc3LjAnLCAnLXRuJywgJzgnLCAnLW1hJywgJzIwMCcsICctaW1hZScsICc8aW5maWxlLm1hZT4nLCAnLW9tYWUnLCAnPG91dGZpbGUubWFlPic=

>  <r_lp_tautomer_probability>  (331) 
1

>  <r_epik_Ionization_Penalty>  (331) 
1.02699e-07

>  <r_epik_Ionization_Penalty_Charging>  (331) 
0

>  <r_epik_Ionization_Penalty_Neutral>  (331) 
1.02699e-07

>  <r_epik_State_Penalty>  (331) 
-0

>  <r_epik_Charging_Adjusted_Penalty>  (331) 
0

>  <i_epik_Tot_Q>  (331) 
0

>  <i_epik_Tot_abs_Q>  (331) 
0

>  <s_lp_Force_Field>  (331) 
OPLS3e

>  <r_lp_Energy>  (331) 
58.8371

>  <b_lp_Chiralities_Consistent>  (331) 
1

>  <s_lp_Variant>  (331) 
95:0-1

>  <s_i_glide_gridfile>  (331) 
pfpi4k_grid

>  <i_i_glide_lignum>  (331) 
3

>  <i_i_glide_rotatable_bonds>  (331) 
2

>  <r_i_docking_score>  (331) 
-2.89786

>  <r_i_glide_ligand_efficiency>  (331) 
-0.137993

>  <r_i_glide_ligand_efficiency_sa>  (331) 
-0.380713

>  <r_i_glide_ligand_efficiency_ln>  (331) 
-0.716489

>  <r_i_glide_gscore>  (331) 
-2.89786

>  <r_i_glide_lipo>  (331) 
-0.459837

>  <r_i_glide_hbond>  (331) 
0

>  <r_i_glide_metal>  (331) 
-0

>  <r_i_glide_rewards>  (331) 
-1.45631

>  <r_i_glide_evdw>  (331) 
-19.6651

>  <r_i_glide_ecoul>  (331) 
0.0102696

>  <r_i_glide_erotb>  (331) 
0

>  <r_i_glide_esite>  (331) 
0

>  <r_i_glide_emodel>  (331) 
-22.8501

>  <r_i_glide_energy>  (331) 
-19.6548

>  <r_i_glide_einternal>  (331) 
0.0631109

>  <r_i_glide_intrahb_reward>  (331) 
-0

>  <i_i_glide_confnum>  (331) 
2

>  <i_i_glide_posenum>  (331) 
25

>  <r_i_glide_eff_state_penalty>  (331) 
0

>  <ligand_id>  (331) 
95

>  <original_smiles>  (331) 
COc1c(C)ccc2c1C(O)C1C(C)(C)C3CCCC31C2

>  <smiles>  (331) 
[H]OC1([H])c2c(OC([H])([H])[H])c(C([H])([H])[H])c([H])c([H])c2C([H])([H])C23C([H])([H])C([H])([H])C([H])([H])C2([H])C(C([H])([H])[H])(C([H])([H])[H])C13[H]

$$$$
95:0:2
     RDKit          3D

 47 50  0  0  1  0  0  0  0  0999 V2000
    5.5563   -4.2084    4.0760 C   0  0  0  0  0  0  0  0  0  0  0  0
    4.2015   -3.8236    3.8678 O   0  0  0  0  0  0  0  0  0  0  0  0
    3.5656   -4.4568    2.8294 C   0  0  0  0  0  0  0  0  0  0  0  0
    3.1034   -5.7820    3.0057 C   0  0  0  0  0  0  0  0  0  0  0  0
    3.3148   -6.5352    4.3185 C   0  0  0  0  0  0  0  0  0  0  0  0
    2.4231   -6.4305    1.9629 C   0  0  0  0  0  0  0  0  0  0  0  0
    2.1755   -5.7726    0.7499 C   0  0  0  0  0  0  0  0  0  0  0  0
    2.6113   -4.4571    0.5613 C   0  0  0  0  0  0  0  0  0  0  0  0
    3.3179   -3.7852    1.5864 C   0  0  0  0  0  0  0  0  0  0  0  0
    3.8068   -2.3684    1.2353 C   0  0  1  0  0  0  0  0  0  0  0  0
    4.7305   -1.7679    2.1216 O   0  0  0  0  0  0  0  0  0  0  0  0
    4.3848   -2.2980   -0.2040 C   0  0  1  0  0  0  0  0  0  0  0  0
    5.6260   -3.1373   -0.6469 C   0  0  0  0  0  0  0  0  0  0  0  0
    6.8323   -2.2935   -1.0736 C   0  0  0  0  0  0  0  0  0  0  0  0
    6.1823   -4.1806    0.3250 C   0  0  0  0  0  0  0  0  0  0  0  0
    4.7593   -3.7456   -1.7728 C   0  0  2  0  0  0  0  0  0  0  0  0
    5.0152   -3.4208   -3.2404 C   0  0  0  0  0  0  0  0  0  0  0  0
    4.2962   -2.0879   -3.4931 C   0  0  0  0  0  0  0  0  0  0  0  0
    3.1301   -2.0654   -2.4924 C   0  0  0  0  0  0  0  0  0  0  0  0
    3.5480   -2.9537   -1.3024 C   0  0  2  0  0  0  0  0  0  0  0  0
    2.3363   -3.7520   -0.7752 C   0  0  0  0  0  0  0  0  0  0  0  0
    5.9669   -3.6260    4.9050 H   0  0  0  0  0  0  0  0  0  0  0  0
    6.1510   -3.9591    3.1994 H   0  0  0  0  0  0  0  0  0  0  0  0
    5.6941   -5.2603    4.2749 H   0  0  0  0  0  0  0  0  0  0  0  0
    3.1162   -7.6031    4.1793 H   0  0  0  0  0  0  0  0  0  0  0  0
    2.6083   -6.1809    5.0729 H   0  0  0  0  0  0  0  0  0  0  0  0
    4.3118   -6.4489    4.7201 H   0  0  0  0  0  0  0  0  0  0  0  0
    2.0726   -7.4443    2.0891 H   0  0  0  0  0  0  0  0  0  0  0  0
    1.6441   -6.2793   -0.0450 H   0  0  0  0  0  0  0  0  0  0  0  0
    2.9240   -1.7252    1.2758 H   0  0  0  0  0  0  0  0  0  0  0  0
    5.5330   -2.2737    2.0946 H   0  0  0  0  0  0  0  0  0  0  0  0
    4.5652   -1.2625   -0.4743 H   0  0  0  0  0  0  0  0  0  0  0  0
    7.5661   -2.8890   -1.6162 H   0  0  0  0  0  0  0  0  0  0  0  0
    7.3285   -1.8491   -0.2088 H   0  0  0  0  0  0  0  0  0  0  0  0
    6.5227   -1.4816   -1.7208 H   0  0  0  0  0  0  0  0  0  0  0  0
    7.0491   -4.7064   -0.0785 H   0  0  0  0  0  0  0  0  0  0  0  0
    5.4425   -4.9375    0.5794 H   0  0  0  0  0  0  0  0  0  0  0  0
    6.5084   -3.6822    1.2292 H   0  0  0  0  0  0  0  0  0  0  0  0
    4.6265   -4.8073   -1.6022 H   0  0  0  0  0  0  0  0  0  0  0  0
    6.0775   -3.4013   -3.5069 H   0  0  0  0  0  0  0  0  0  0  0  0
    4.5547   -4.1915   -3.8586 H   0  0  0  0  0  0  0  0  0  0  0  0
    4.9765   -1.2681   -3.2741 H   0  0  0  0  0  0  0  0  0  0  0  0
    3.9709   -1.9714   -4.5261 H   0  0  0  0  0  0  0  0  0  0  0  0
    2.8845   -1.0468   -2.1839 H   0  0  0  0  0  0  0  0  0  0  0  0
    2.2386   -2.4685   -2.9840 H   0  0  0  0  0  0  0  0  0  0  0  0
    1.9756   -4.4673   -1.5208 H   0  0  0  0  0  0  0  0  0  0  0  0
    1.5039   -3.0616   -0.6254 H   0  0  0  0  0  0  0  0  0  0  0  0
  1  2  1  0
  1 22  1  0
  1 23  1  0
  1 24  1  0
  2  3  1  0
  3  9  2  0
  3  4  1  0
  4  5  1  0
  4  6  2  0
  5 25  1  0
  5 26  1  0
  5 27  1  0
  6  7  1  0
  6 28  1  0
  7  8  2  0
  7 29  1  0
  8 21  1  0
  8  9  1  0
  9 10  1  0
 10 11  1  0
 10 12  1  0
 10 30  1  6
 11 31  1  0
 12 20  1  0
 12 13  1  0
 12 32  1  6
 13 14  1  0
 13 15  1  0
 13 16  1  0
 14 33  1  0
 14 34  1  0
 14 35  1  0
 15 36  1  0
 15 37  1  0
 15 38  1  0
 16 20  1  0
 16 17  1  0
 16 39  1  6
 17 18  1  0
 17 40  1  0
 17 41  1  0
 18 19  1  0
 18 42  1  0
 18 43  1  0
 20 19  1  6
 19 44  1  0
 19 45  1  0
 20 21  1  0
 21 46  1  0
 21 47  1  0
M  END
>  <i_m_ct_stereo_status>  (332) 
1

>  <s_m_source_file>  (332) 
/var/tmp/pbs.5083856.sched01/tmp6s2nupww/135ho57x0v_.sdf

>  <i_m_source_file_index>  (332) 
3

>  <i_lp_mmshare_version>  (332) 
48012

>  <i_f3d_flags>  (332) 
0

>  <s_epik_input>  (332) 
W0NIM11PYzFjKFtDSDNdKVtjSF1bY0hdYyhbQ0gyXTIpYzFbQ0BASF0oW09IXSlbQ0BIXShbQ0BdMjM0KUMoW0NIM10pKFtDSDNdKVtDQEBIXTNbQ0gyXVtDSDJdW0NIMl00

>  <s_epik_cmdline>  (332) 
J2VwaWtfcHl0aG9uJywgJy1waHQnLCAnMi4wJywgJy1waCcsICc3LjAnLCAnLXRuJywgJzgnLCAnLW1hJywgJzIwMCcsICctaW1hZScsICc8aW5maWxlLm1hZT4nLCAnLW9tYWUnLCAnPG91dGZpbGUubWFlPic=

>  <r_lp_tautomer_probability>  (332) 
1

>  <r_epik_Ionization_Penalty>  (332) 
1.02699e-07

>  <r_epik_Ionization_Penalty_Charging>  (332) 
0

>  <r_epik_Ionization_Penalty_Neutral>  (332) 
1.02699e-07

>  <r_epik_State_Penalty>  (332) 
-0

>  <r_epik_Charging_Adjusted_Penalty>  (332) 
0

>  <i_epik_Tot_Q>  (332) 
0

>  <i_epik_Tot_abs_Q>  (332) 
0

>  <s_lp_Force_Field>  (332) 
OPLS3e

>  <r_lp_Energy>  (332) 
58.8371

>  <b_lp_Chiralities_Consistent>  (332) 
1

>  <s_lp_Variant>  (332) 
95:0-1

>  <s_i_glide_gridfile>  (332) 
pfpi4k_grid

>  <i_i_glide_lignum>  (332) 
3

>  <i_i_glide_rotatable_bonds>  (332) 
2

>  <r_i_docking_score>  (332) 
-2.84569

>  <r_i_glide_ligand_efficiency>  (332) 
-0.135509

>  <r_i_glide_ligand_efficiency_sa>  (332) 
-0.373859

>  <r_i_glide_ligand_efficiency_ln>  (332) 
-0.703591

>  <r_i_glide_gscore>  (332) 
-2.84569

>  <r_i_glide_lipo>  (332) 
-0.524903

>  <r_i_glide_hbond>  (332) 
0

>  <r_i_glide_metal>  (332) 
-0

>  <r_i_glide_rewards>  (332) 
-1.45631

>  <r_i_glide_evdw>  (332) 
-19.0398

>  <r_i_glide_ecoul>  (332) 
0.583397

>  <r_i_glide_erotb>  (332) 
0

>  <r_i_glide_esite>  (332) 
0

>  <r_i_glide_emodel>  (332) 
-20.649

>  <r_i_glide_energy>  (332) 
-18.4564

>  <r_i_glide_einternal>  (332) 
0.648407

>  <r_i_glide_intrahb_reward>  (332) 
-0

>  <i_i_glide_confnum>  (332) 
1

>  <i_i_glide_posenum>  (332) 
7

>  <r_i_glide_eff_state_penalty>  (332) 
0

>  <ligand_id>  (332) 
95

>  <original_smiles>  (332) 
COc1c(C)ccc2c1C(O)C1C(C)(C)C3CCCC31C2

>  <smiles>  (332) 
[H]OC1([H])c2c(OC([H])([H])[H])c(C([H])([H])[H])c([H])c([H])c2C([H])([H])C23C([H])([H])C([H])([H])C([H])([H])C2([H])C(C([H])([H])[H])(C([H])([H])[H])C13[H]

$$$$
96:0:0
     RDKit          3D

 39 43  0  0  1  0  0  0  0  0999 V2000
    7.3233   -1.4679    0.4651 N   0  0  0  0  0  0  0  0  0  0  0  0
    6.3364   -1.9382    0.0975 C   0  0  0  0  0  0  0  0  0  0  0  0
    5.0870   -2.5434   -0.3537 C   0  0  0  0  0  0  0  0  0  0  0  0
    4.4189   -3.3807    0.4649 C   0  0  0  0  0  0  0  0  0  0  0  0
    3.1602   -3.9225    0.1071 C   0  0  0  0  0  0  0  0  0  0  0  0
    2.4097   -4.7880    1.0556 C   0  0  0  0  0  0  0  0  0  0  0  0
    1.6843   -5.8966    0.6642 C   0  0  0  0  0  0  0  0  0  0  0  0
    1.0191   -6.4107    1.8211 C   0  0  0  0  0  0  0  0  0  0  0  0
    0.1178   -7.4719    2.0929 C   0  0  0  0  0  0  0  0  0  0  0  0
   -0.3858   -7.6442    3.3982 C   0  0  0  0  0  0  0  0  0  0  0  0
    0.0278   -6.7562    4.4057 C   0  0  0  0  0  0  0  0  0  0  0  0
    0.8822   -5.7353    4.1937 N   0  0  0  0  0  0  0  0  0  0  0  0
    1.3861   -5.5873    2.9285 C   0  0  0  0  0  0  0  0  0  0  0  0
    2.2882   -4.6214    2.4696 N   0  0  0  0  0  0  0  0  0  0  0  0
    2.9538   -3.3743    3.5348 S   0  0  0  0  0  0  0  0  0  0  0  0
    2.3412   -3.5032    4.8568 O   0  0  0  0  0  0  0  0  0  0  0  0
    4.4244   -3.4001    3.4593 O   0  0  0  0  0  0  0  0  0  0  0  0
    2.2776   -1.8469    2.6908 C   0  0  0  0  0  0  0  0  0  0  0  0
    2.3250   -0.6230    3.5720 C   0  0  0  0  0  0  0  0  0  0  0  0
    1.0135   -1.3339    3.3543 C   0  0  0  0  0  0  0  0  0  0  0  0
    2.5978   -3.7440   -1.0835 N   0  0  0  0  0  0  0  0  0  0  0  0
    3.3553   -2.9769   -1.9208 N   0  0  0  0  0  0  0  0  0  0  0  0
    3.1094   -2.6256   -3.2448 C   0  0  0  0  0  0  0  0  0  0  0  0
    1.9889   -3.0424   -3.9093 N   0  0  0  0  0  0  0  0  0  0  0  0
    4.0792   -1.8503   -3.7082 N   0  0  0  0  0  0  0  0  0  0  0  0
    4.9976   -1.6541   -2.7050 N   0  0  0  0  0  0  0  0  0  0  0  0
    4.5846   -2.3216   -1.6520 C   0  0  0  0  0  0  0  0  0  0  0  0
    4.9351   -3.6708    1.3628 H   0  0  0  0  0  0  0  0  0  0  0  0
    1.6029   -6.2912   -0.3414 H   0  0  0  0  0  0  0  0  0  0  0  0
   -0.1860   -8.1563    1.3116 H   0  0  0  0  0  0  0  0  0  0  0  0
   -1.0564   -8.4578    3.6386 H   0  0  0  0  0  0  0  0  0  0  0  0
   -0.3341   -6.8657    5.4217 H   0  0  0  0  0  0  0  0  0  0  0  0
    2.4114   -1.7647    1.6196 H   0  0  0  0  0  0  0  0  0  0  0  0
    2.7924   -0.7119    4.5453 H   0  0  0  0  0  0  0  0  0  0  0  0
    2.4761    0.3341    3.0649 H   0  0  0  0  0  0  0  0  0  0  0  0
    0.2740   -0.8621    2.7011 H   0  0  0  0  0  0  0  0  0  0  0  0
    0.5950   -1.8990    4.1842 H   0  0  0  0  0  0  0  0  0  0  0  0
    1.8371   -2.7407   -4.8562 H   0  0  0  0  0  0  0  0  0  0  0  0
    1.3003   -3.6532   -3.5029 H   0  0  0  0  0  0  0  0  0  0  0  0
  1  2  3  0
  2  3  1  0
  3 27  1  0
  3  4  2  0
  4  5  1  0
  4 28  1  0
  5  6  1  0
  5 21  2  0
  6 14  1  0
  6  7  2  0
  7  8  1  0
  7 29  1  0
  8 13  2  0
  8  9  1  0
  9 10  2  0
  9 30  1  0
 10 11  1  0
 10 31  1  0
 11 12  2  0
 11 32  1  0
 12 13  1  0
 13 14  1  0
 14 15  1  0
 15 16  2  0
 15 17  2  0
 15 18  1  0
 18 20  1  0
 18 19  1  0
 18 33  1  0
 19 20  1  0
 19 34  1  0
 19 35  1  0
 20 36  1  0
 20 37  1  0
 21 22  1  0
 22 27  1  0
 22 23  1  0
 23 24  1  0
 23 25  2  0
 24 38  1  0
 24 39  1  0
 25 26  1  0
 26 27  2  0
M  END
>  <i_m_ct_stereo_status>  (333) 
1

>  <s_m_source_file>  (333) 
/var/tmp/pbs.5083856.sched01/tmp6s2nupww/135ho57x0v_.sdf

>  <i_m_source_file_index>  (333) 
4

>  <i_lp_mmshare_version>  (333) 
48012

>  <i_f3d_flags>  (333) 
0

>  <s_epik_input>  (333) 
W0hdL049Y1wxW25IXW5jKG4xMiljKEMjTilbY0hdYyhuMiktYyhbY0hdMyluKFMoPU8pKD1PKVtDSF00W0NIMl1bQ0gyXTQpYyhjMzUpbltjSF1bY0hdW2NIXTU=

>  <s_epik_cmdline>  (333) 
J2VwaWtfcHl0aG9uJywgJy1waHQnLCAnMi4wJywgJy1waCcsICc3LjAnLCAnLXRuJywgJzgnLCAnLW1hJywgJzIwMCcsICctaW1hZScsICc8aW5maWxlLm1hZT4nLCAnLW9tYWUnLCAnPG91dGZpbGUubWFlPic=

>  <r_lp_tautomer_probability>  (333) 
1

>  <r_epik_Ionization_Penalty>  (333) 
4.56848e-05

>  <r_epik_Ionization_Penalty_Charging>  (333) 
0

>  <r_epik_Ionization_Penalty_Neutral>  (333) 
4.56848e-05

>  <r_epik_State_Penalty>  (333) 
-0

>  <r_epik_Charging_Adjusted_Penalty>  (333) 
0

>  <i_epik_Tot_Q>  (333) 
0

>  <i_epik_Tot_abs_Q>  (333) 
0

>  <s_lp_Force_Field>  (333) 
OPLS3e

>  <r_lp_Energy>  (333) 
40.6608

>  <b_lp_Chiralities_Consistent>  (333) 
1

>  <s_lp_Variant>  (333) 
96:0-1

>  <s_i_glide_gridfile>  (333) 
pfpi4k_grid

>  <i_i_glide_lignum>  (333) 
4

>  <i_i_glide_rotatable_bonds>  (333) 
4

>  <r_i_docking_score>  (333) 
-4.12577

>  <r_i_glide_ligand_efficiency>  (333) 
-0.152806

>  <r_i_glide_ligand_efficiency_sa>  (333) 
-0.458419

>  <r_i_glide_ligand_efficiency_ln>  (333) 
-0.960411

>  <r_i_glide_gscore>  (333) 
-4.12577

>  <r_i_glide_lipo>  (333) 
-0.0243558

>  <r_i_glide_hbond>  (333) 
-0.603868

>  <r_i_glide_metal>  (333) 
-0

>  <r_i_glide_rewards>  (333) 
-0.958691

>  <r_i_glide_evdw>  (333) 
-30.6432

>  <r_i_glide_ecoul>  (333) 
-8.77487

>  <r_i_glide_erotb>  (333) 
0.40223

>  <r_i_glide_esite>  (333) 
-0.0926936

>  <r_i_glide_emodel>  (333) 
-48.0999

>  <r_i_glide_energy>  (333) 
-39.4181

>  <r_i_glide_einternal>  (333) 
1.35035

>  <r_i_glide_intrahb_reward>  (333) 
-0

>  <i_i_glide_confnum>  (333) 
4

>  <i_i_glide_posenum>  (333) 
20

>  <r_i_glide_eff_state_penalty>  (333) 
0

>  <ligand_id>  (333) 
96

>  <original_smiles>  (333) 
N#Cc1cc(-c2cc3cccnc3n2S(=O)(=O)C2CC2)nn2c(=N)[nH]nc12

>  <smiles>  (333) 
[H]c1nc2c(c([H])c1[H])c([H])c(-c1nn3c(N([H])[H])nnc3c(C#N)c1[H])n2S(=O)(=O)C1([H])C([H])([H])C1([H])[H]

$$$$
96:0:1
     RDKit          3D

 39 43  0  0  1  0  0  0  0  0999 V2000
    8.5547   -3.3925    0.0340 N   0  0  0  0  0  0  0  0  0  0  0  0
    7.3982   -3.3900   -0.0586 C   0  0  0  0  0  0  0  0  0  0  0  0
    5.9497   -3.3872   -0.1748 C   0  0  0  0  0  0  0  0  0  0  0  0
    5.1550   -3.5256    0.9365 C   0  0  0  0  0  0  0  0  0  0  0  0
    3.7423   -3.5153    0.7869 C   0  0  0  0  0  0  0  0  0  0  0  0
    2.9199   -3.6194    1.9931 C   0  0  0  0  0  0  0  0  0  0  0  0
    2.7735   -2.6592    2.9610 C   0  0  0  0  0  0  0  0  0  0  0  0
    1.9264   -3.2170    3.9732 C   0  0  0  0  0  0  0  0  0  0  0  0
    1.3998   -2.7849    5.2092 C   0  0  0  0  0  0  0  0  0  0  0  0
    0.5933   -3.6483    5.9762 C   0  0  0  0  0  0  0  0  0  0  0  0
    0.3081   -4.9298    5.4758 C   0  0  0  0  0  0  0  0  0  0  0  0
    0.7414   -5.3773    4.2771 N   0  0  0  0  0  0  0  0  0  0  0  0
    1.5551   -4.5290    3.5715 C   0  0  0  0  0  0  0  0  0  0  0  0
    2.1774   -4.7623    2.3445 N   0  0  0  0  0  0  0  0  0  0  0  0
    2.0270   -6.2353    1.4188 S   0  0  0  0  0  0  0  0  0  0  0  0
    0.6396   -6.2552    0.9167 O   0  0  0  0  0  0  0  0  0  0  0  0
    3.1689   -6.2637    0.4842 O   0  0  0  0  0  0  0  0  0  0  0  0
    2.2868   -7.5371    2.7132 C   0  0  0  0  0  0  0  0  0  0  0  0
    1.8705   -8.9199    2.2623 C   0  0  0  0  0  0  0  0  0  0  0  0
    1.0238   -8.1624    3.2630 C   0  0  0  0  0  0  0  0  0  0  0  0
    3.0779   -3.3768   -0.3605 N   0  0  0  0  0  0  0  0  0  0  0  0
    3.9140   -3.2366   -1.4364 N   0  0  0  0  0  0  0  0  0  0  0  0
    3.5691   -3.0562   -2.7457 C   0  0  0  0  0  0  0  0  0  0  0  0
    2.2556   -2.9888   -3.1789 N   0  0  0  0  0  0  0  0  0  0  0  0
    4.6577   -2.9552   -3.5072 N   0  0  0  0  0  0  0  0  0  0  0  0
    5.7644   -3.0511   -2.6824 N   0  0  0  0  0  0  0  0  0  0  0  0
    5.3234   -3.2272   -1.4342 C   0  0  0  0  0  0  0  0  0  0  0  0
    5.6116   -3.6296    1.9130 H   0  0  0  0  0  0  0  0  0  0  0  0
    3.2113   -1.6700    2.9709 H   0  0  0  0  0  0  0  0  0  0  0  0
    1.6302   -1.7951    5.5672 H   0  0  0  0  0  0  0  0  0  0  0  0
    0.2115   -3.3358    6.9373 H   0  0  0  0  0  0  0  0  0  0  0  0
   -0.2830   -5.6189    6.0628 H   0  0  0  0  0  0  0  0  0  0  0  0
    3.1855   -7.3999    3.3067 H   0  0  0  0  0  0  0  0  0  0  0  0
    1.4234   -9.0508    1.2818 H   0  0  0  0  0  0  0  0  0  0  0  0
    2.4379   -9.7746    2.6298 H   0  0  0  0  0  0  0  0  0  0  0  0
    1.0466   -8.4607    4.3093 H   0  0  0  0  0  0  0  0  0  0  0  0
    0.0613   -7.7862    2.9215 H   0  0  0  0  0  0  0  0  0  0  0  0
    2.0268   -2.8646   -4.1534 H   0  0  0  0  0  0  0  0  0  0  0  0
    1.4814   -3.0794   -2.5351 H   0  0  0  0  0  0  0  0  0  0  0  0
  1  2  3  0
  2  3  1  0
  3 27  1  0
  3  4  2  0
  4  5  1  0
  4 28  1  0
  5  6  1  0
  5 21  2  0
  6 14  1  0
  6  7  2  0
  7  8  1  0
  7 29  1  0
  8 13  2  0
  8  9  1  0
  9 10  2  0
  9 30  1  0
 10 11  1  0
 10 31  1  0
 11 12  2  0
 11 32  1  0
 12 13  1  0
 13 14  1  0
 14 15  1  0
 15 16  2  0
 15 17  2  0
 15 18  1  0
 18 20  1  0
 18 19  1  0
 18 33  1  0
 19 20  1  0
 19 34  1  0
 19 35  1  0
 20 36  1  0
 20 37  1  0
 21 22  1  0
 22 27  1  0
 22 23  1  0
 23 24  1  0
 23 25  2  0
 24 38  1  0
 24 39  1  0
 25 26  1  0
 26 27  2  0
M  END
>  <i_m_ct_stereo_status>  (334) 
1

>  <s_m_source_file>  (334) 
/var/tmp/pbs.5083856.sched01/tmp6s2nupww/135ho57x0v_.sdf

>  <i_m_source_file_index>  (334) 
4

>  <i_lp_mmshare_version>  (334) 
48012

>  <i_f3d_flags>  (334) 
0

>  <s_epik_input>  (334) 
W0hdL049Y1wxW25IXW5jKG4xMiljKEMjTilbY0hdYyhuMiktYyhbY0hdMyluKFMoPU8pKD1PKVtDSF00W0NIMl1bQ0gyXTQpYyhjMzUpbltjSF1bY0hdW2NIXTU=

>  <s_epik_cmdline>  (334) 
J2VwaWtfcHl0aG9uJywgJy1waHQnLCAnMi4wJywgJy1waCcsICc3LjAnLCAnLXRuJywgJzgnLCAnLW1hJywgJzIwMCcsICctaW1hZScsICc8aW5maWxlLm1hZT4nLCAnLW9tYWUnLCAnPG91dGZpbGUubWFlPic=

>  <r_lp_tautomer_probability>  (334) 
1

>  <r_epik_Ionization_Penalty>  (334) 
4.56848e-05

>  <r_epik_Ionization_Penalty_Charging>  (334) 
0

>  <r_epik_Ionization_Penalty_Neutral>  (334) 
4.56848e-05

>  <r_epik_State_Penalty>  (334) 
-0

>  <r_epik_Charging_Adjusted_Penalty>  (334) 
0

>  <i_epik_Tot_Q>  (334) 
0

>  <i_epik_Tot_abs_Q>  (334) 
0

>  <s_lp_Force_Field>  (334) 
OPLS3e

>  <r_lp_Energy>  (334) 
40.6608

>  <b_lp_Chiralities_Consistent>  (334) 
1

>  <s_lp_Variant>  (334) 
96:0-1

>  <s_i_glide_gridfile>  (334) 
pfpi4k_grid

>  <i_i_glide_lignum>  (334) 
4

>  <i_i_glide_rotatable_bonds>  (334) 
4

>  <r_i_docking_score>  (334) 
-3.53795

>  <r_i_glide_ligand_efficiency>  (334) 
-0.131035

>  <r_i_glide_ligand_efficiency_sa>  (334) 
-0.393105

>  <r_i_glide_ligand_efficiency_ln>  (334) 
-0.823575

>  <r_i_glide_gscore>  (334) 
-3.53795

>  <r_i_glide_lipo>  (334) 
-0.142051

>  <r_i_glide_hbond>  (334) 
0

>  <r_i_glide_metal>  (334) 
-0

>  <r_i_glide_rewards>  (334) 
-1.1611

>  <r_i_glide_evdw>  (334) 
-35.0468

>  <r_i_glide_ecoul>  (334) 
-4.62861

>  <r_i_glide_erotb>  (334) 
0.40223

>  <r_i_glide_esite>  (334) 
-0.190395

>  <r_i_glide_emodel>  (334) 
-46.8106

>  <r_i_glide_energy>  (334) 
-39.6754

>  <r_i_glide_einternal>  (334) 
3.41204

>  <r_i_glide_intrahb_reward>  (334) 
-0

>  <i_i_glide_confnum>  (334) 
2

>  <i_i_glide_posenum>  (334) 
2

>  <r_i_glide_eff_state_penalty>  (334) 
0

>  <ligand_id>  (334) 
96

>  <original_smiles>  (334) 
N#Cc1cc(-c2cc3cccnc3n2S(=O)(=O)C2CC2)nn2c(=N)[nH]nc12

>  <smiles>  (334) 
[H]c1nc2c(c([H])c1[H])c([H])c(-c1nn3c(N([H])[H])nnc3c(C#N)c1[H])n2S(=O)(=O)C1([H])C([H])([H])C1([H])[H]

$$$$
96:0:2
     RDKit          3D

 39 43  0  0  1  0  0  0  0  0999 V2000
    8.4705   -3.3558    0.0727 N   0  0  0  0  0  0  0  0  0  0  0  0
    7.3263   -3.4484   -0.0651 C   0  0  0  0  0  0  0  0  0  0  0  0
    5.8869   -3.5639   -0.2346 C   0  0  0  0  0  0  0  0  0  0  0  0
    5.0922   -3.9584    0.8155 C   0  0  0  0  0  0  0  0  0  0  0  0
    3.6865   -4.0267    0.6384 C   0  0  0  0  0  0  0  0  0  0  0  0
    2.8237   -4.4992    1.7255 C   0  0  0  0  0  0  0  0  0  0  0  0
    2.1978   -5.7202    1.7890 C   0  0  0  0  0  0  0  0  0  0  0  0
    1.4153   -5.7203    2.9883 C   0  0  0  0  0  0  0  0  0  0  0  0
    0.5376   -6.6263    3.6207 C   0  0  0  0  0  0  0  0  0  0  0  0
   -0.1011   -6.2575    4.8206 C   0  0  0  0  0  0  0  0  0  0  0  0
    0.1740   -4.9966    5.3767 C   0  0  0  0  0  0  0  0  0  0  0  0
    1.0114   -4.0957    4.8230 N   0  0  0  0  0  0  0  0  0  0  0  0
    1.6141   -4.4766    3.6540 C   0  0  0  0  0  0  0  0  0  0  0  0
    2.5246   -3.7517    2.8825 N   0  0  0  0  0  0  0  0  0  0  0  0
    3.1464   -2.1597    3.2795 S   0  0  0  0  0  0  0  0  0  0  0  0
    2.6495   -1.7907    4.6155 O   0  0  0  0  0  0  0  0  0  0  0  0
    4.5955   -2.2044    3.0321 O   0  0  0  0  0  0  0  0  0  0  0  0
    2.3058   -1.1336    1.9925 C   0  0  0  0  0  0  0  0  0  0  0  0
    2.3843    0.3464    2.2597 C   0  0  0  0  0  0  0  0  0  0  0  0
    1.0770   -0.3931    2.4749 C   0  0  0  0  0  0  0  0  0  0  0  0
    3.0384   -3.7766   -0.5033 N   0  0  0  0  0  0  0  0  0  0  0  0
    3.8705   -3.3975   -1.5233 N   0  0  0  0  0  0  0  0  0  0  0  0
    3.5336   -3.0563   -2.8045 C   0  0  0  0  0  0  0  0  0  0  0  0
    2.2362   -3.0571   -3.2895 N   0  0  0  0  0  0  0  0  0  0  0  0
    4.6193   -2.7294   -3.5049 N   0  0  0  0  0  0  0  0  0  0  0  0
    5.7170   -2.8650   -2.6715 N   0  0  0  0  0  0  0  0  0  0  0  0
    5.2725   -3.2670   -1.4754 C   0  0  0  0  0  0  0  0  0  0  0  0
    5.5465   -4.2038    1.7697 H   0  0  0  0  0  0  0  0  0  0  0  0
    2.2653   -6.5267    1.0700 H   0  0  0  0  0  0  0  0  0  0  0  0
    0.3497   -7.5953    3.1832 H   0  0  0  0  0  0  0  0  0  0  0  0
   -0.7847   -6.9389    5.3036 H   0  0  0  0  0  0  0  0  0  0  0  0
   -0.3127   -4.6943    6.2931 H   0  0  0  0  0  0  0  0  0  0  0  0
    2.3849   -1.5128    0.9760 H   0  0  0  0  0  0  0  0  0  0  0  0
    2.9036    0.6949    3.1499 H   0  0  0  0  0  0  0  0  0  0  0  0
    2.4582    1.0013    1.3970 H   0  0  0  0  0  0  0  0  0  0  0  0
    0.2823   -0.2347    1.7482 H   0  0  0  0  0  0  0  0  0  0  0  0
    0.7397   -0.5248    3.4996 H   0  0  0  0  0  0  0  0  0  0  0  0
    2.0287   -2.7823   -4.2391 H   0  0  0  0  0  0  0  0  0  0  0  0
    1.4501   -3.3228   -2.7129 H   0  0  0  0  0  0  0  0  0  0  0  0
  1  2  3  0
  2  3  1  0
  3 27  1  0
  3  4  2  0
  4  5  1  0
  4 28  1  0
  5  6  1  0
  5 21  2  0
  6 14  1  0
  6  7  2  0
  7  8  1  0
  7 29  1  0
  8 13  2  0
  8  9  1  0
  9 10  2  0
  9 30  1  0
 10 11  1  0
 10 31  1  0
 11 12  2  0
 11 32  1  0
 12 13  1  0
 13 14  1  0
 14 15  1  0
 15 16  2  0
 15 17  2  0
 15 18  1  0
 18 20  1  0
 18 19  1  0
 18 33  1  0
 19 20  1  0
 19 34  1  0
 19 35  1  0
 20 36  1  0
 20 37  1  0
 21 22  1  0
 22 27  1  0
 22 23  1  0
 23 24  1  0
 23 25  2  0
 24 38  1  0
 24 39  1  0
 25 26  1  0
 26 27  2  0
M  END
>  <i_m_ct_stereo_status>  (335) 
1

>  <s_m_source_file>  (335) 
/var/tmp/pbs.5083856.sched01/tmp6s2nupww/135ho57x0v_.sdf

>  <i_m_source_file_index>  (335) 
4

>  <i_lp_mmshare_version>  (335) 
48012

>  <i_f3d_flags>  (335) 
0

>  <s_epik_input>  (335) 
W0hdL049Y1wxW25IXW5jKG4xMiljKEMjTilbY0hdYyhuMiktYyhbY0hdMyluKFMoPU8pKD1PKVtDSF00W0NIMl1bQ0gyXTQpYyhjMzUpbltjSF1bY0hdW2NIXTU=

>  <s_epik_cmdline>  (335) 
J2VwaWtfcHl0aG9uJywgJy1waHQnLCAnMi4wJywgJy1waCcsICc3LjAnLCAnLXRuJywgJzgnLCAnLW1hJywgJzIwMCcsICctaW1hZScsICc8aW5maWxlLm1hZT4nLCAnLW9tYWUnLCAnPG91dGZpbGUubWFlPic=

>  <r_lp_tautomer_probability>  (335) 
1

>  <r_epik_Ionization_Penalty>  (335) 
4.56848e-05

>  <r_epik_Ionization_Penalty_Charging>  (335) 
0

>  <r_epik_Ionization_Penalty_Neutral>  (335) 
4.56848e-05

>  <r_epik_State_Penalty>  (335) 
-0

>  <r_epik_Charging_Adjusted_Penalty>  (335) 
0

>  <i_epik_Tot_Q>  (335) 
0

>  <i_epik_Tot_abs_Q>  (335) 
0

>  <s_lp_Force_Field>  (335) 
OPLS3e

>  <r_lp_Energy>  (335) 
40.6608

>  <b_lp_Chiralities_Consistent>  (335) 
1

>  <s_lp_Variant>  (335) 
96:0-1

>  <s_i_glide_gridfile>  (335) 
pfpi4k_grid

>  <i_i_glide_lignum>  (335) 
4

>  <i_i_glide_rotatable_bonds>  (335) 
4

>  <r_i_docking_score>  (335) 
-3.20904

>  <r_i_glide_ligand_efficiency>  (335) 
-0.118853

>  <r_i_glide_ligand_efficiency_sa>  (335) 
-0.35656

>  <r_i_glide_ligand_efficiency_ln>  (335) 
-0.747012

>  <r_i_glide_gscore>  (335) 
-3.20904

>  <r_i_glide_lipo>  (335) 
-0.108742

>  <r_i_glide_hbond>  (335) 
-0.0061865

>  <r_i_glide_metal>  (335) 
-0

>  <r_i_glide_rewards>  (335) 
-1.15403

>  <r_i_glide_evdw>  (335) 
-34.2518

>  <r_i_glide_ecoul>  (335) 
-4.01597

>  <r_i_glide_erotb>  (335) 
0.40223

>  <r_i_glide_esite>  (335) 
-0.0273277

>  <r_i_glide_emodel>  (335) 
-44.8469

>  <r_i_glide_energy>  (335) 
-38.2677

>  <r_i_glide_einternal>  (335) 
3.08255

>  <r_i_glide_intrahb_reward>  (335) 
-0

>  <i_i_glide_confnum>  (335) 
4

>  <i_i_glide_posenum>  (335) 
38

>  <r_i_glide_eff_state_penalty>  (335) 
0

>  <ligand_id>  (335) 
96

>  <original_smiles>  (335) 
N#Cc1cc(-c2cc3cccnc3n2S(=O)(=O)C2CC2)nn2c(=N)[nH]nc12

>  <smiles>  (335) 
[H]c1nc2c(c([H])c1[H])c([H])c(-c1nn3c(N([H])[H])nnc3c(C#N)c1[H])n2S(=O)(=O)C1([H])C([H])([H])C1([H])[H]

$$$$
97:0:0
     RDKit          3D

 26 27  0  0  1  0  0  0  0  0999 V2000
   -5.6322   -3.4606   -3.9971 C   0  0  0  0  0  0  0  0  0  0  0  0
   -6.1305   -3.9087   -5.0201 C   0  0  0  0  0  0  0  0  0  0  0  0
   -6.7792   -4.2560   -6.2872 C   0  0  0  0  0  0  0  0  0  0  0  0
   -8.0938   -4.8193   -5.9505 N   0  0  0  0  0  0  0  0  0  0  0  0
   -8.0603   -5.8572   -4.8918 C   0  0  0  0  0  0  0  0  0  0  0  0
   -7.2229   -6.9991   -5.2648 C   0  0  0  0  0  0  0  0  0  0  0  0
   -6.5124   -7.9655   -5.5143 C   0  0  0  0  0  0  0  0  0  0  0  0
   -5.7118   -9.0563   -5.8832 C   0  0  0  0  0  0  0  0  0  0  0  0
   -4.5559   -9.4260   -5.1238 C   0  0  0  0  0  0  0  0  0  0  0  0
   -3.8976  -10.4996   -5.6662 C   0  0  0  0  0  0  0  0  0  0  0  0
   -4.6859  -11.0751   -7.1099 S   0  0  0  0  0  0  0  0  0  0  0  0
   -5.9182   -9.8481   -6.9769 C   0  0  0  0  0  0  0  0  0  0  0  0
   -9.2502   -3.8958   -5.9941 C   0  0  0  0  0  0  0  0  0  0  0  0
   -9.0777   -4.9490   -7.0333 C   0  0  0  0  0  0  0  0  0  0  0  0
   -5.0769   -3.0387   -3.1980 H   0  0  0  0  0  0  0  0  0  0  0  0
   -6.8471   -3.4675   -7.0192 H   0  0  0  0  0  0  0  0  0  0  0  0
   -6.2337   -5.0722   -6.6923 H   0  0  0  0  0  0  0  0  0  0  0  0
   -7.8356   -5.4243   -3.9303 H   0  0  0  0  0  0  0  0  0  0  0  0
   -9.0058   -6.2580   -4.7378 H   0  0  0  0  0  0  0  0  0  0  0  0
   -4.2294   -8.9220   -4.2225 H   0  0  0  0  0  0  0  0  0  0  0  0
   -2.9953  -10.9847   -5.3195 H   0  0  0  0  0  0  0  0  0  0  0  0
   -6.7108   -9.7978   -7.7097 H   0  0  0  0  0  0  0  0  0  0  0  0
  -10.0335   -4.0527   -5.2473 H   0  0  0  0  0  0  0  0  0  0  0  0
   -8.9897   -2.8734   -6.2665 H   0  0  0  0  0  0  0  0  0  0  0  0
   -8.6741   -4.6566   -7.9994 H   0  0  0  0  0  0  0  0  0  0  0  0
   -9.7284   -5.8217   -6.9725 H   0  0  0  0  0  0  0  0  0  0  0  0
  1  2  3  0
  1 15  1  0
  2  3  1  0
  3  4  1  0
  3 16  1  0
  3 17  1  0
  4 14  1  0
  4  5  1  0
  4 13  1  0
  5  6  1  0
  5 18  1  0
  5 19  1  0
  6  7  3  0
  7  8  1  0
  8 12  2  0
  8  9  1  0
  9 10  2  0
  9 20  1  0
 10 11  1  0
 10 21  1  0
 11 12  1  0
 12 22  1  0
 13 14  1  0
 13 23  1  0
 13 24  1  0
 14 25  1  0
 14 26  1  0
M  CHG  1   4   1
M  END
>  <i_m_ct_stereo_status>  (336) 
1

>  <s_m_source_file>  (336) 
/var/tmp/pbs.5083856.sched01/tmp6s2nupww/135ho57x0v_.sdf

>  <i_m_source_file_index>  (336) 
5

>  <i_lp_mmshare_version>  (336) 
48012

>  <i_f3d_flags>  (336) 
0

>  <s_epik_input>  (336) 
W0NIXSNDW0NIMl1bTitdMShbQ0gyXVtDSDJdMSlbQ0gyXUMjQ2MyW2NIXVtjSF1zW2NIXTI=

>  <s_epik_cmdline>  (336) 
J2VwaWtfcHl0aG9uJywgJy1waHQnLCAnMi4wJywgJy1waCcsICc3LjAnLCAnLXRuJywgJzgnLCAnLW1hJywgJzIwMCcsICctaW1hZScsICc8aW5maWxlLm1hZT4nLCAnLW9tYWUnLCAnPG91dGZpbGUubWFlPic=

>  <r_lp_tautomer_probability>  (336) 
1

>  <r_epik_Ionization_Penalty>  (336) 
0

>  <r_epik_Ionization_Penalty_Charging>  (336) 
0

>  <r_epik_Ionization_Penalty_Neutral>  (336) 
0

>  <r_epik_State_Penalty>  (336) 
-0

>  <r_epik_Charging_Adjusted_Penalty>  (336) 
0

>  <i_epik_Tot_Q>  (336) 
1

>  <i_epik_Tot_abs_Q>  (336) 
1

>  <s_lp_Force_Field>  (336) 
OPLS3e

>  <r_lp_Energy>  (336) 
16.4281

>  <b_lp_Chiralities_Consistent>  (336) 
1

>  <s_lp_Variant>  (336) 
97:0-1

>  <s_i_glide_gridfile>  (336) 
pfpi4k_grid

>  <i_i_glide_lignum>  (336) 
5

>  <i_i_glide_rotatable_bonds>  (336) 
5

>  <r_i_docking_score>  (336) 
-3.40579

>  <r_i_glide_ligand_efficiency>  (336) 
-0.243271

>  <r_i_glide_ligand_efficiency_sa>  (336) 
-0.586317

>  <r_i_glide_ligand_efficiency_ln>  (336) 
-0.935899

>  <r_i_glide_gscore>  (336) 
-3.40579

>  <r_i_glide_lipo>  (336) 
-2.10801

>  <r_i_glide_hbond>  (336) 
0

>  <r_i_glide_metal>  (336) 
-0

>  <r_i_glide_rewards>  (336) 
-2.38812

>  <r_i_glide_evdw>  (336) 
-6.02056

>  <r_i_glide_ecoul>  (336) 
-1.40774

>  <r_i_glide_erotb>  (336) 
1.60253

>  <r_i_glide_esite>  (336) 
0

>  <r_i_glide_emodel>  (336) 
-7.63641

>  <r_i_glide_energy>  (336) 
-7.4283

>  <r_i_glide_einternal>  (336) 
0.211929

>  <r_i_glide_intrahb_reward>  (336) 
-0

>  <i_i_glide_confnum>  (336) 
5

>  <i_i_glide_posenum>  (336) 
1

>  <r_i_glide_eff_state_penalty>  (336) 
0

>  <ligand_id>  (336) 
97

>  <original_smiles>  (336) 
C#CC[N+]1(CC#Cc2ccsc2)CC1

>  <smiles>  (336) 
[H]C#CC([H])([H])[N+]1(C([H])([H])C#Cc2c([H])sc([H])c2[H])C([H])([H])C1([H])[H]

$$$$
98:0:0
     RDKit          3D

 44 49  0  0  1  0  0  0  0  0999 V2000
    4.6130   -4.0811   -3.8220 O   0  0  0  0  0  0  0  0  0  0  0  0
    4.4992   -3.1658   -2.8206 C   0  0  0  0  0  0  0  0  0  0  0  0
    4.3658   -1.7921   -3.1220 C   0  0  0  0  0  0  0  0  0  0  0  0
    4.4265   -0.8208   -2.0921 C   0  0  0  0  0  0  0  0  0  0  0  0
    4.4490   -1.2339   -0.7525 C   0  0  0  0  0  0  0  0  0  0  0  0
    4.3459   -2.6140   -0.5242 C   0  0  0  0  0  0  0  0  0  0  0  0
    4.5704   -3.5793   -1.4691 C   0  0  0  0  0  0  0  0  0  0  0  0
    5.0206   -4.7461   -0.9072 O   0  0  0  0  0  0  0  0  0  0  0  0
    5.2555   -4.4836    0.5074 C   0  0  1  0  0  0  0  0  0  0  0  0
    6.4166   -3.5165    0.9383 C   0  0  0  0  0  0  0  0  0  0  0  0
    5.3835   -2.6967    1.7836 C   0  0  1  0  0  0  0  0  0  0  0  0
    5.3878   -3.1350    3.1323 O   0  0  0  0  0  0  0  0  0  0  0  0
    5.0102   -1.1846    1.8309 C   0  0  1  0  0  0  0  0  0  0  0  0
    5.0263   -0.4771    0.4488 C   0  0  0  0  0  0  0  0  0  0  0  0
    3.6370   -1.0719    2.4638 N   0  0  1  0  0  0  0  0  0  0  0  0
    3.1980    0.3313    2.7265 C   0  0  0  0  0  0  0  0  0  0  0  0
    1.9658    0.4057    3.6105 C   0  0  0  0  0  0  0  0  0  0  0  0
    0.5894    0.5277    2.9885 C   0  0  0  0  0  0  0  0  0  0  0  0
    1.1889    1.6996    3.7190 C   0  0  0  0  0  0  0  0  0  0  0  0
    2.5662   -1.8908    1.7835 C   0  0  0  0  0  0  0  0  0  0  0  0
    2.9967   -3.3329    1.4296 C   0  0  0  0  0  0  0  0  0  0  0  0
    4.3819   -3.2854    0.8211 C   0  0  1  0  0  0  0  0  0  0  0  0
    4.4456   -4.9521   -3.4796 H   0  0  0  0  0  0  0  0  0  0  0  0
    4.3342   -1.4757   -4.1506 H   0  0  0  0  0  0  0  0  0  0  0  0
    4.5325    0.2260   -2.3533 H   0  0  0  0  0  0  0  0  0  0  0  0
    5.1045   -5.3260    1.1894 H   0  0  0  0  0  0  0  0  0  0  0  0
    7.1634   -4.0340    1.5410 H   0  0  0  0  0  0  0  0  0  0  0  0
    6.8785   -2.9497    0.1287 H   0  0  0  0  0  0  0  0  0  0  0  0
    4.4956   -3.2623    3.4094 H   0  0  0  0  0  0  0  0  0  0  0  0
    5.7073   -0.6645    2.4938 H   0  0  0  0  0  0  0  0  0  0  0  0
    6.0745   -0.2853    0.2184 H   0  0  0  0  0  0  0  0  0  0  0  0
    4.5819    0.5146    0.4961 H   0  0  0  0  0  0  0  0  0  0  0  0
    4.0042    0.8761    3.2236 H   0  0  0  0  0  0  0  0  0  0  0  0
    2.9669    0.8675    1.8063 H   0  0  0  0  0  0  0  0  0  0  0  0
    2.0468   -0.1628    4.5360 H   0  0  0  0  0  0  0  0  0  0  0  0
    0.5265    0.5793    1.9003 H   0  0  0  0  0  0  0  0  0  0  0  0
   -0.2194   -0.0133    3.4760 H   0  0  0  0  0  0  0  0  0  0  0  0
    0.7453    1.9473    4.6807 H   0  0  0  0  0  0  0  0  0  0  0  0
    1.5036    2.5540    3.1200 H   0  0  0  0  0  0  0  0  0  0  0  0
    1.6935   -1.9539    2.4310 H   0  0  0  0  0  0  0  0  0  0  0  0
    2.2337   -1.3852    0.8785 H   0  0  0  0  0  0  0  0  0  0  0  0
    3.0117   -3.9294    2.3409 H   0  0  0  0  0  0  0  0  0  0  0  0
    2.2648   -3.8060    0.7717 H   0  0  0  0  0  0  0  0  0  0  0  0
    3.7552   -1.4642    3.3846 H   0  0  0  0  0  0  0  0  0  0  0  0
  1  2  1  0
  1 23  1  0
  2  7  2  0
  2  3  1  0
  3  4  2  0
  3 24  1  0
  4  5  1  0
  4 25  1  0
  5 14  1  0
  5  6  2  0
  6 22  1  0
  6  7  1  0
  7  8  1  0
  8  9  1  0
  9 22  1  0
  9 10  1  0
  9 26  1  1
 10 11  1  0
 10 27  1  0
 10 28  1  0
 11 22  1  0
 11 12  1  1
 11 13  1  0
 12 29  1  0
 13 14  1  0
 13 15  1  0
 13 30  1  1
 14 31  1  0
 14 32  1  0
 15 16  1  0
 15 20  1  0
 15 44  1  1
 16 17  1  0
 16 33  1  0
 16 34  1  0
 17 19  1  0
 17 18  1  0
 17 35  1  0
 18 19  1  0
 18 36  1  0
 18 37  1  0
 19 38  1  0
 19 39  1  0
 20 21  1  0
 20 40  1  0
 20 41  1  0
 22 21  1  1
 21 42  1  0
 21 43  1  0
M  CHG  1  15   1
M  END
>  <i_m_ct_stereo_status>  (337) 
1

>  <s_m_source_file>  (337) 
/var/tmp/pbs.5083856.sched01/tmp_8dy8ti0/14002n04m3s.sdf

>  <i_m_source_file_index>  (337) 
1

>  <i_lp_mmshare_version>  (337) 
48012

>  <i_f3d_flags>  (337) 
0

>  <s_epik_input>  (337) 
W0NAXTEyM2M0YzVbY0hdW2NIXWMoW09IXSljNE9bQ0BIXTFbQ0gyXVtDQEBdMihbT0hdKVtDQEBIXShbQ0gyXTUpTihbQ0gyXVtDSDJdMylbQ0gyXVtDSF02W0NIMl1bQ0gyXTY=

>  <s_epik_cmdline>  (337) 
J2VwaWtfcHl0aG9uJywgJy1waHQnLCAnMi4wJywgJy1waCcsICc3LjAnLCAnLXRuJywgJzgnLCAnLW1hJywgJzIwMCcsICctaW1hZScsICc8aW5maWxlLm1hZT4nLCAnLW9tYWUnLCAnPG91dGZpbGUubWFlPic=

>  <r_lp_tautomer_probability>  (337) 
1

>  <r_epik_Ionization_Penalty>  (337) 
0.0424522

>  <r_epik_Ionization_Penalty_Charging>  (337) 
0.028177

>  <r_epik_Ionization_Penalty_Neutral>  (337) 
0.0142752

>  <r_epik_State_Penalty>  (337) 
0.03384

>  <r_epik_Charging_Adjusted_Penalty>  (337) 
0.062017

>  <i_epik_Tot_Q>  (337) 
1

>  <i_epik_Tot_abs_Q>  (337) 
1

>  <s_lp_Force_Field>  (337) 
OPLS3e

>  <r_lp_Energy>  (337) 
97.3542

>  <b_lp_Chiralities_Consistent>  (337) 
1

>  <s_lp_Variant>  (337) 
98:0-1

>  <s_i_glide_gridfile>  (337) 
pfpi4k_grid

>  <i_i_glide_lignum>  (337) 
1

>  <i_i_glide_rotatable_bonds>  (337) 
4

>  <r_i_docking_score>  (337) 
-3.83682

>  <r_i_glide_ligand_efficiency>  (337) 
-0.174401

>  <r_i_glide_ligand_efficiency_sa>  (337) 
-0.488679

>  <r_i_glide_ligand_efficiency_ln>  (337) 
-0.93786

>  <r_i_glide_gscore>  (337) 
-3.83682

>  <r_i_glide_lipo>  (337) 
-0.64662

>  <r_i_glide_hbond>  (337) 
0

>  <r_i_glide_metal>  (337) 
-0

>  <r_i_glide_rewards>  (337) 
-1.3611

>  <r_i_glide_evdw>  (337) 
-26.2462

>  <r_i_glide_ecoul>  (337) 
-6.16164

>  <r_i_glide_erotb>  (337) 
0.407448

>  <r_i_glide_esite>  (337) 
0

>  <r_i_glide_emodel>  (337) 
-41.3781

>  <r_i_glide_energy>  (337) 
-32.4078

>  <r_i_glide_einternal>  (337) 
1.10565

>  <r_i_glide_intrahb_reward>  (337) 
-0

>  <i_i_glide_confnum>  (337) 
1

>  <i_i_glide_posenum>  (337) 
2

>  <r_i_glide_eff_state_penalty>  (337) 
0

>  <ligand_id>  (337) 
98

>  <original_smiles>  (337) 
Oc1ccc2c3c1OC1CC4(O)C(C2)N(CC2CC2)CCC314

>  <smiles>  (337) 
[H]Oc1c([H])c([H])c2c3c1OC1([H])C([H])([H])C4(O[H])C31C([H])([H])C([H])([H])[N+]([H])(C([H])([H])C1([H])C([H])([H])C1([H])[H])C4([H])C2([H])[H]

$$$$
98:0:1
     RDKit          3D

 44 49  0  0  1  0  0  0  0  0999 V2000
    4.6175   -4.1630   -3.7150 O   0  0  0  0  0  0  0  0  0  0  0  0
    4.5097   -3.2272   -2.7301 C   0  0  0  0  0  0  0  0  0  0  0  0
    4.4317   -1.8539   -3.0595 C   0  0  0  0  0  0  0  0  0  0  0  0
    4.5040   -0.8671   -2.0458 C   0  0  0  0  0  0  0  0  0  0  0  0
    4.4888   -1.2578   -0.6925 C   0  0  0  0  0  0  0  0  0  0  0  0
    4.3279   -2.6227   -0.4478 C   0  0  0  0  0  0  0  0  0  0  0  0
    4.5343   -3.6186   -1.3729 C   0  0  0  0  0  0  0  0  0  0  0  0
    4.9460   -4.7870   -0.7856 O   0  0  0  0  0  0  0  0  0  0  0  0
    5.1479   -4.5127    0.6279 C   0  0  1  0  0  0  0  0  0  0  0  0
    6.3313   -3.5824    1.0847 C   0  0  0  0  0  0  0  0  0  0  0  0
    5.2976   -2.7155    1.8849 C   0  0  1  0  0  0  0  0  0  0  0  0
    5.1883   -3.1099    3.2420 O   0  0  0  0  0  0  0  0  0  0  0  0
    4.9832   -1.1854    1.8973 C   0  0  1  0  0  0  0  0  0  0  0  0
    5.0635   -0.4961    0.5025 C   0  0  0  0  0  0  0  0  0  0  0  0
    3.6008   -1.0154    2.4924 N   0  0  1  0  0  0  0  0  0  0  0  0
    3.2091    0.4046    2.7309 C   0  0  0  0  0  0  0  0  0  0  0  0
    1.9469    0.5435    3.5646 C   0  0  0  0  0  0  0  0  0  0  0  0
    0.5976    0.7012    2.8860 C   0  0  0  0  0  0  0  0  0  0  0  0
    1.2051    1.8657    3.6201 C   0  0  0  0  0  0  0  0  0  0  0  0
    2.5169   -1.8032    1.8088 C   0  0  0  0  0  0  0  0  0  0  0  0
    2.9052   -3.2665    1.4895 C   0  0  0  0  0  0  0  0  0  0  0  0
    4.3031   -3.2756    0.9070 C   0  0  1  0  0  0  0  0  0  0  0  0
    4.3887   -5.0175   -3.3704 H   0  0  0  0  0  0  0  0  0  0  0  0
    4.4349   -1.5501   -4.0917 H   0  0  0  0  0  0  0  0  0  0  0  0
    4.6443    0.1662   -2.3198 H   0  0  0  0  0  0  0  0  0  0  0  0
    4.9367   -5.3482    1.2986 H   0  0  0  0  0  0  0  0  0  0  0  0
    7.0566   -4.1171    1.6991 H   0  0  0  0  0  0  0  0  0  0  0  0
    6.8304   -3.0415    0.2774 H   0  0  0  0  0  0  0  0  0  0  0  0
    5.2444   -4.0541    3.2723 H   0  0  0  0  0  0  0  0  0  0  0  0
    5.6833   -0.6796    2.5682 H   0  0  0  0  0  0  0  0  0  0  0  0
    6.1203   -0.3298    0.2865 H   0  0  0  0  0  0  0  0  0  0  0  0
    4.6408    0.5058    0.5108 H   0  0  0  0  0  0  0  0  0  0  0  0
    4.0140    0.9277    3.2487 H   0  0  0  0  0  0  0  0  0  0  0  0
    3.0342    0.9383    1.7962 H   0  0  0  0  0  0  0  0  0  0  0  0
    1.9658   -0.0123    4.5023 H   0  0  0  0  0  0  0  0  0  0  0  0
    0.5816    0.7358    1.7966 H   0  0  0  0  0  0  0  0  0  0  0  0
   -0.2490    0.1950    3.3465 H   0  0  0  0  0  0  0  0  0  0  0  0
    0.7328    2.1479    4.5588 H   0  0  0  0  0  0  0  0  0  0  0  0
    1.5760    2.6964    3.0211 H   0  0  0  0  0  0  0  0  0  0  0  0
    1.6253   -1.8246    2.4326 H   0  0  0  0  0  0  0  0  0  0  0  0
    2.2271   -1.3020    0.8854 H   0  0  0  0  0  0  0  0  0  0  0  0
    2.8749   -3.8462    2.4153 H   0  0  0  0  0  0  0  0  0  0  0  0
    2.1850   -3.7358    0.8189 H   0  0  0  0  0  0  0  0  0  0  0  0
    3.6992   -1.4356    3.4084 H   0  0  0  0  0  0  0  0  0  0  0  0
  1  2  1  0
  1 23  1  0
  2  7  2  0
  2  3  1  0
  3  4  2  0
  3 24  1  0
  4  5  1  0
  4 25  1  0
  5 14  1  0
  5  6  2  0
  6 22  1  0
  6  7  1  0
  7  8  1  0
  8  9  1  0
  9 22  1  0
  9 10  1  0
  9 26  1  1
 10 11  1  0
 10 27  1  0
 10 28  1  0
 11 22  1  0
 11 12  1  1
 11 13  1  0
 12 29  1  0
 13 14  1  0
 13 15  1  0
 13 30  1  1
 14 31  1  0
 14 32  1  0
 15 16  1  0
 15 20  1  0
 15 44  1  1
 16 17  1  0
 16 33  1  0
 16 34  1  0
 17 19  1  0
 17 18  1  0
 17 35  1  0
 18 19  1  0
 18 36  1  0
 18 37  1  0
 19 38  1  0
 19 39  1  0
 20 21  1  0
 20 40  1  0
 20 41  1  0
 22 21  1  1
 21 42  1  0
 21 43  1  0
M  CHG  1  15   1
M  END
>  <i_m_ct_stereo_status>  (338) 
1

>  <s_m_source_file>  (338) 
/var/tmp/pbs.5083856.sched01/tmp_8dy8ti0/14002n04m3s.sdf

>  <i_m_source_file_index>  (338) 
1

>  <i_lp_mmshare_version>  (338) 
48012

>  <i_f3d_flags>  (338) 
0

>  <s_epik_input>  (338) 
W0NAXTEyM2M0YzVbY0hdW2NIXWMoW09IXSljNE9bQ0BIXTFbQ0gyXVtDQEBdMihbT0hdKVtDQEBIXShbQ0gyXTUpTihbQ0gyXVtDSDJdMylbQ0gyXVtDSF02W0NIMl1bQ0gyXTY=

>  <s_epik_cmdline>  (338) 
J2VwaWtfcHl0aG9uJywgJy1waHQnLCAnMi4wJywgJy1waCcsICc3LjAnLCAnLXRuJywgJzgnLCAnLW1hJywgJzIwMCcsICctaW1hZScsICc8aW5maWxlLm1hZT4nLCAnLW9tYWUnLCAnPG91dGZpbGUubWFlPic=

>  <r_lp_tautomer_probability>  (338) 
1

>  <r_epik_Ionization_Penalty>  (338) 
0.0424522

>  <r_epik_Ionization_Penalty_Charging>  (338) 
0.028177

>  <r_epik_Ionization_Penalty_Neutral>  (338) 
0.0142752

>  <r_epik_State_Penalty>  (338) 
0.03384

>  <r_epik_Charging_Adjusted_Penalty>  (338) 
0.062017

>  <i_epik_Tot_Q>  (338) 
1

>  <i_epik_Tot_abs_Q>  (338) 
1

>  <s_lp_Force_Field>  (338) 
OPLS3e

>  <r_lp_Energy>  (338) 
97.3542

>  <b_lp_Chiralities_Consistent>  (338) 
1

>  <s_lp_Variant>  (338) 
98:0-1

>  <s_i_glide_gridfile>  (338) 
pfpi4k_grid

>  <i_i_glide_lignum>  (338) 
1

>  <i_i_glide_rotatable_bonds>  (338) 
4

>  <r_i_docking_score>  (338) 
-3.80333

>  <r_i_glide_ligand_efficiency>  (338) 
-0.172879

>  <r_i_glide_ligand_efficiency_sa>  (338) 
-0.484413

>  <r_i_glide_ligand_efficiency_ln>  (338) 
-0.929673

>  <r_i_glide_gscore>  (338) 
-3.80333

>  <r_i_glide_lipo>  (338) 
-0.604599

>  <r_i_glide_hbond>  (338) 
0

>  <r_i_glide_metal>  (338) 
-0

>  <r_i_glide_rewards>  (338) 
-1.3611

>  <r_i_glide_evdw>  (338) 
-25.887

>  <r_i_glide_ecoul>  (338) 
-6.33822

>  <r_i_glide_erotb>  (338) 
0.407448

>  <r_i_glide_esite>  (338) 
0

>  <r_i_glide_emodel>  (338) 
-41.2398

>  <r_i_glide_energy>  (338) 
-32.2252

>  <r_i_glide_einternal>  (338) 
0.770845

>  <r_i_glide_intrahb_reward>  (338) 
-0

>  <i_i_glide_confnum>  (338) 
6

>  <i_i_glide_posenum>  (338) 
17

>  <r_i_glide_eff_state_penalty>  (338) 
0

>  <ligand_id>  (338) 
98

>  <original_smiles>  (338) 
Oc1ccc2c3c1OC1CC4(O)C(C2)N(CC2CC2)CCC314

>  <smiles>  (338) 
[H]Oc1c([H])c([H])c2c3c1OC1([H])C([H])([H])C4(O[H])C31C([H])([H])C([H])([H])[N+]([H])(C([H])([H])C1([H])C([H])([H])C1([H])[H])C4([H])C2([H])[H]

$$$$
98:0:2
     RDKit          3D

 44 49  0  0  1  0  0  0  0  0999 V2000
    7.3397   -1.0632    0.6239 O   0  0  0  0  0  0  0  0  0  0  0  0
    6.3731   -1.8445    1.1876 C   0  0  0  0  0  0  0  0  0  0  0  0
    5.3992   -1.2797    2.0540 C   0  0  0  0  0  0  0  0  0  0  0  0
    4.5177   -2.1089    2.7956 C   0  0  0  0  0  0  0  0  0  0  0  0
    4.5109   -3.4987    2.5469 C   0  0  0  0  0  0  0  0  0  0  0  0
    5.3535   -3.9504    1.5216 C   0  0  0  0  0  0  0  0  0  0  0  0
    6.3931   -3.2415    0.9811 C   0  0  0  0  0  0  0  0  0  0  0  0
    7.3981   -4.0625    0.5251 O   0  0  0  0  0  0  0  0  0  0  0  0
    7.0430   -5.4243    0.8972 C   0  0  1  0  0  0  0  0  0  0  0  0
    7.0465   -5.8546    2.4104 C   0  0  0  0  0  0  0  0  0  0  0  0
    5.5822   -6.3720    2.2441 C   0  0  1  0  0  0  0  0  0  0  0  0
    5.6100   -7.7619    1.9704 O   0  0  0  0  0  0  0  0  0  0  0  0
    4.2602   -6.0823    3.0290 C   0  0  1  0  0  0  0  0  0  0  0  0
    4.0929   -4.6049    3.5120 C   0  0  0  0  0  0  0  0  0  0  0  0
    3.1026   -6.4602    2.1240 N   0  0  1  0  0  0  0  0  0  0  0  0
    1.7693   -6.4053    2.7870 C   0  0  0  0  0  0  0  0  0  0  0  0
    0.7407   -7.3063    2.1193 C   0  0  0  0  0  0  0  0  0  0  0  0
   -0.6226   -7.4960    2.7505 C   0  0  0  0  0  0  0  0  0  0  0  0
    0.3713   -8.6279    2.7498 C   0  0  0  0  0  0  0  0  0  0  0  0
    3.1123   -5.7907    0.7743 C   0  0  0  0  0  0  0  0  0  0  0  0
    4.4949   -5.7789    0.0852 C   0  0  0  0  0  0  0  0  0  0  0  0
    5.5374   -5.3867    1.1040 C   0  0  1  0  0  0  0  0  0  0  0  0
    7.4187   -0.2053    1.0370 H   0  0  0  0  0  0  0  0  0  0  0  0
    5.3984   -0.2211    2.2469 H   0  0  0  0  0  0  0  0  0  0  0  0
    3.9211   -1.6902    3.5964 H   0  0  0  0  0  0  0  0  0  0  0  0
    7.3779   -6.2070    0.2134 H   0  0  0  0  0  0  0  0  0  0  0  0
    7.7823   -6.6426    2.6045 H   0  0  0  0  0  0  0  0  0  0  0  0
    7.1346   -5.0561    3.1387 H   0  0  0  0  0  0  0  0  0  0  0  0
    4.8019   -8.0190    1.5586 H   0  0  0  0  0  0  0  0  0  0  0  0
    4.2081   -6.7330    3.9048 H   0  0  0  0  0  0  0  0  0  0  0  0
    4.7127   -4.4922    4.4026 H   0  0  0  0  0  0  0  0  0  0  0  0
    3.0834   -4.4010    3.8643 H   0  0  0  0  0  0  0  0  0  0  0  0
    1.8635   -6.7113    3.8296 H   0  0  0  0  0  0  0  0  0  0  0  0
    1.3818   -5.3868    2.7989 H   0  0  0  0  0  0  0  0  0  0  0  0
    0.7025   -7.2614    1.0322 H   0  0  0  0  0  0  0  0  0  0  0  0
   -0.8301   -7.0127    3.7034 H   0  0  0  0  0  0  0  0  0  0  0  0
   -1.4803   -7.6124    2.0914 H   0  0  0  0  0  0  0  0  0  0  0  0
    0.1841   -9.4613    2.0778 H   0  0  0  0  0  0  0  0  0  0  0  0
    0.8512   -8.8877    3.6908 H   0  0  0  0  0  0  0  0  0  0  0  0
    2.4134   -6.2717    0.0989 H   0  0  0  0  0  0  0  0  0  0  0  0
    2.7528   -4.7663    0.8623 H   0  0  0  0  0  0  0  0  0  0  0  0
    4.7016   -6.7793   -0.2979 H   0  0  0  0  0  0  0  0  0  0  0  0
    4.4953   -5.1219   -0.7869 H   0  0  0  0  0  0  0  0  0  0  0  0
    3.2181   -7.4502    1.9576 H   0  0  0  0  0  0  0  0  0  0  0  0
  1  2  1  0
  1 23  1  0
  2  7  2  0
  2  3  1  0
  3  4  2  0
  3 24  1  0
  4  5  1  0
  4 25  1  0
  5 14  1  0
  5  6  2  0
  6 22  1  0
  6  7  1  0
  7  8  1  0
  8  9  1  0
  9 22  1  0
  9 10  1  0
  9 26  1  6
 10 11  1  0
 10 27  1  0
 10 28  1  0
 11 22  1  0
 11 12  1  6
 11 13  1  0
 12 29  1  0
 13 14  1  0
 13 15  1  0
 13 30  1  1
 14 31  1  0
 14 32  1  0
 15 16  1  0
 15 20  1  0
 15 44  1  6
 16 17  1  0
 16 33  1  0
 16 34  1  0
 17 19  1  0
 17 18  1  0
 17 35  1  0
 18 19  1  0
 18 36  1  0
 18 37  1  0
 19 38  1  0
 19 39  1  0
 20 21  1  0
 20 40  1  0
 20 41  1  0
 22 21  1  6
 21 42  1  0
 21 43  1  0
M  CHG  1  15   1
M  END
>  <i_m_ct_stereo_status>  (339) 
1

>  <s_m_source_file>  (339) 
/var/tmp/pbs.5083856.sched01/tmp_8dy8ti0/14002n04m3s.sdf

>  <i_m_source_file_index>  (339) 
1

>  <i_lp_mmshare_version>  (339) 
48012

>  <i_f3d_flags>  (339) 
0

>  <s_epik_input>  (339) 
W0NAXTEyM2M0YzVbY0hdW2NIXWMoW09IXSljNE9bQ0BIXTFbQ0gyXVtDQEBdMihbT0hdKVtDQEBIXShbQ0gyXTUpTihbQ0gyXVtDSDJdMylbQ0gyXVtDSF02W0NIMl1bQ0gyXTY=

>  <s_epik_cmdline>  (339) 
J2VwaWtfcHl0aG9uJywgJy1waHQnLCAnMi4wJywgJy1waCcsICc3LjAnLCAnLXRuJywgJzgnLCAnLW1hJywgJzIwMCcsICctaW1hZScsICc8aW5maWxlLm1hZT4nLCAnLW9tYWUnLCAnPG91dGZpbGUubWFlPic=

>  <r_lp_tautomer_probability>  (339) 
1

>  <r_epik_Ionization_Penalty>  (339) 
0.0424522

>  <r_epik_Ionization_Penalty_Charging>  (339) 
0.028177

>  <r_epik_Ionization_Penalty_Neutral>  (339) 
0.0142752

>  <r_epik_State_Penalty>  (339) 
0.03384

>  <r_epik_Charging_Adjusted_Penalty>  (339) 
0.062017

>  <i_epik_Tot_Q>  (339) 
1

>  <i_epik_Tot_abs_Q>  (339) 
1

>  <s_lp_Force_Field>  (339) 
OPLS3e

>  <r_lp_Energy>  (339) 
97.3542

>  <b_lp_Chiralities_Consistent>  (339) 
1

>  <s_lp_Variant>  (339) 
98:0-1

>  <s_i_glide_gridfile>  (339) 
pfpi4k_grid

>  <i_i_glide_lignum>  (339) 
1

>  <i_i_glide_rotatable_bonds>  (339) 
4

>  <r_i_docking_score>  (339) 
-3.63142

>  <r_i_glide_ligand_efficiency>  (339) 
-0.165064

>  <r_i_glide_ligand_efficiency_sa>  (339) 
-0.462517

>  <r_i_glide_ligand_efficiency_ln>  (339) 
-0.88765

>  <r_i_glide_gscore>  (339) 
-3.63142

>  <r_i_glide_lipo>  (339) 
-0.651954

>  <r_i_glide_hbond>  (339) 
0

>  <r_i_glide_metal>  (339) 
-0

>  <r_i_glide_rewards>  (339) 
-1.3611

>  <r_i_glide_evdw>  (339) 
-20.7341

>  <r_i_glide_ecoul>  (339) 
-6.59405

>  <r_i_glide_erotb>  (339) 
0.407448

>  <r_i_glide_esite>  (339) 
0

>  <r_i_glide_emodel>  (339) 
-35.7587

>  <r_i_glide_energy>  (339) 
-27.3281

>  <r_i_glide_einternal>  (339) 
0.957865

>  <r_i_glide_intrahb_reward>  (339) 
-0

>  <i_i_glide_confnum>  (339) 
5

>  <i_i_glide_posenum>  (339) 
14

>  <r_i_glide_eff_state_penalty>  (339) 
0

>  <ligand_id>  (339) 
98

>  <original_smiles>  (339) 
Oc1ccc2c3c1OC1CC4(O)C(C2)N(CC2CC2)CCC314

>  <smiles>  (339) 
[H]Oc1c([H])c([H])c2c3c1OC1([H])C([H])([H])C4(O[H])C31C([H])([H])C([H])([H])[N+]([H])(C([H])([H])C1([H])C([H])([H])C1([H])[H])C4([H])C2([H])[H]

$$$$
98:1:0
     RDKit          3D

 43 48  0  0  1  0  0  0  0  0999 V2000
    8.2594   -5.7289    1.2456 O   0  0  0  0  0  0  0  0  0  0  0  0
    7.7183   -4.6103    0.6909 C   0  0  0  0  0  0  0  0  0  0  0  0
    8.3990   -3.3694    0.7607 C   0  0  0  0  0  0  0  0  0  0  0  0
    7.7492   -2.1648    0.3818 C   0  0  0  0  0  0  0  0  0  0  0  0
    6.4934   -2.2278   -0.2676 C   0  0  0  0  0  0  0  0  0  0  0  0
    5.9849   -3.5085   -0.4985 C   0  0  0  0  0  0  0  0  0  0  0  0
    6.4386   -4.6552    0.1022 C   0  0  0  0  0  0  0  0  0  0  0  0
    5.4483   -5.6031    0.2220 O   0  0  0  0  0  0  0  0  0  0  0  0
    4.2101   -4.9786   -0.2150 C   0  0  1  0  0  0  0  0  0  0  0  0
    3.5753   -3.8387    0.6545 C   0  0  0  0  0  0  0  0  0  0  0  0
    3.5151   -2.9500   -0.6234 C   0  0  1  0  0  0  0  0  0  0  0  0
    2.2378   -3.0584   -1.2470 O   0  0  0  0  0  0  0  0  0  0  0  0
    4.0459   -1.5123   -0.9335 C   0  0  1  0  0  0  0  0  0  0  0  0
    5.4090   -1.1456   -0.2922 C   0  0  0  0  0  0  0  0  0  0  0  0
    4.2165   -1.3242   -2.3975 N   0  0  0  0  0  0  0  0  0  0  0  0
    3.0826   -0.7444   -3.1074 C   0  0  0  0  0  0  0  0  0  0  0  0
    3.4801    0.4427   -3.9607 C   0  0  0  0  0  0  0  0  0  0  0  0
    2.5036    0.9714   -4.9943 C   0  0  0  0  0  0  0  0  0  0  0  0
    3.7775    0.3097   -5.4284 C   0  0  0  0  0  0  0  0  0  0  0  0
    4.9518   -2.3993   -3.1193 C   0  0  0  0  0  0  0  0  0  0  0  0
    4.7033   -3.8384   -2.6372 C   0  0  0  0  0  0  0  0  0  0  0  0
    4.6385   -3.8257   -1.1155 C   0  0  1  0  0  0  0  0  0  0  0  0
    9.0116   -5.5807    1.7937 H   0  0  0  0  0  0  0  0  0  0  0  0
    9.3531   -3.3137    1.2539 H   0  0  0  0  0  0  0  0  0  0  0  0
    8.1617   -1.2145    0.6874 H   0  0  0  0  0  0  0  0  0  0  0  0
    3.4815   -5.6435   -0.6776 H   0  0  0  0  0  0  0  0  0  0  0  0
    2.6026   -4.1348    1.0428 H   0  0  0  0  0  0  0  0  0  0  0  0
    4.2207   -3.4477    1.4414 H   0  0  0  0  0  0  0  0  0  0  0  0
    1.7954   -2.2166   -1.1275 H   0  0  0  0  0  0  0  0  0  0  0  0
    3.3374   -0.7728   -0.5609 H   0  0  0  0  0  0  0  0  0  0  0  0
    5.2194   -0.8420    0.7351 H   0  0  0  0  0  0  0  0  0  0  0  0
    5.8005   -0.2614   -0.7934 H   0  0  0  0  0  0  0  0  0  0  0  0
    2.5935   -1.4958   -3.7317 H   0  0  0  0  0  0  0  0  0  0  0  0
    2.3302   -0.3765   -2.4078 H   0  0  0  0  0  0  0  0  0  0  0  0
    4.0659    1.1996   -3.4355 H   0  0  0  0  0  0  0  0  0  0  0  0
    1.5696    0.4279   -5.1135 H   0  0  0  0  0  0  0  0  0  0  0  0
    2.4431    2.0521   -5.1170 H   0  0  0  0  0  0  0  0  0  0  0  0
    4.5532    0.9568   -5.8208 H   0  0  0  0  0  0  0  0  0  0  0  0
    3.7255   -0.6848   -5.8527 H   0  0  0  0  0  0  0  0  0  0  0  0
    4.7260   -2.3378   -4.1802 H   0  0  0  0  0  0  0  0  0  0  0  0
    6.0249   -2.2586   -3.0193 H   0  0  0  0  0  0  0  0  0  0  0  0
    3.7593   -4.1624   -3.0536 H   0  0  0  0  0  0  0  0  0  0  0  0
    5.4371   -4.5401   -3.0245 H   0  0  0  0  0  0  0  0  0  0  0  0
  1  2  1  0
  1 23  1  0
  2  7  2  0
  2  3  1  0
  3  4  2  0
  3 24  1  0
  4  5  1  0
  4 25  1  0
  5 14  1  0
  5  6  2  0
  6 22  1  0
  6  7  1  0
  7  8  1  0
  8  9  1  0
  9 22  1  0
  9 10  1  0
  9 26  1  6
 10 11  1  0
 10 27  1  0
 10 28  1  0
 11 22  1  0
 11 12  1  6
 11 13  1  0
 12 29  1  0
 13 14  1  0
 13 15  1  0
 13 30  1  1
 14 31  1  0
 14 32  1  0
 15 16  1  0
 15 20  1  0
 16 17  1  0
 16 33  1  0
 16 34  1  0
 17 19  1  0
 17 18  1  0
 17 35  1  0
 18 19  1  0
 18 36  1  0
 18 37  1  0
 19 38  1  0
 19 39  1  0
 20 21  1  0
 20 40  1  0
 20 41  1  0
 22 21  1  6
 21 42  1  0
 21 43  1  0
M  END
>  <i_m_ct_stereo_status>  (340) 
1

>  <s_m_source_file>  (340) 
/var/tmp/pbs.5083856.sched01/tmp_8dy8ti0/14002n04m3s.sdf

>  <i_m_source_file_index>  (340) 
2

>  <i_lp_mmshare_version>  (340) 
48012

>  <i_f3d_flags>  (340) 
0

>  <s_epik_input>  (340) 
W0NAXTEyM2M0YzVbY0hdW2NIXWMoW09IXSljNE9bQ0BIXTFbQ0gyXVtDQEBdMihbT0hdKVtDQEBIXShbQ0gyXTUpTihbQ0gyXVtDSDJdMylbQ0gyXVtDSF02W0NIMl1bQ0gyXTY=

>  <s_epik_cmdline>  (340) 
J2VwaWtfcHl0aG9uJywgJy1waHQnLCAnMi4wJywgJy1waCcsICc3LjAnLCAnLXRuJywgJzgnLCAnLW1hJywgJzIwMCcsICctaW1hZScsICc8aW5maWxlLm1hZT4nLCAnLW9tYWUnLCAnPG91dGZpbGUubWFlPic=

>  <r_lp_tautomer_probability>  (340) 
1

>  <r_epik_Ionization_Penalty>  (340) 
1.81941

>  <r_epik_Ionization_Penalty_Charging>  (340) 
0

>  <r_epik_Ionization_Penalty_Neutral>  (340) 
1.81941

>  <r_epik_State_Penalty>  (340) 
1.94441

>  <r_epik_Charging_Adjusted_Penalty>  (340) 
1.94441

>  <i_epik_Tot_Q>  (340) 
0

>  <i_epik_Tot_abs_Q>  (340) 
0

>  <s_lp_Force_Field>  (340) 
OPLS3e

>  <r_lp_Energy>  (340) 
105.782

>  <b_lp_Chiralities_Consistent>  (340) 
1

>  <s_lp_Variant>  (340) 
98:0-2

>  <s_i_glide_gridfile>  (340) 
pfpi4k_grid

>  <i_i_glide_lignum>  (340) 
2

>  <i_i_glide_rotatable_bonds>  (340) 
4

>  <r_i_docking_score>  (340) 
-3.79499

>  <r_i_glide_ligand_efficiency>  (340) 
-0.172499

>  <r_i_glide_ligand_efficiency_sa>  (340) 
-0.48335

>  <r_i_glide_ligand_efficiency_ln>  (340) 
-0.927633

>  <r_i_glide_gscore>  (340) 
-3.79499

>  <r_i_glide_lipo>  (340) 
-0.746707

>  <r_i_glide_hbond>  (340) 
-0.16

>  <r_i_glide_metal>  (340) 
-0

>  <r_i_glide_rewards>  (340) 
-1.40964

>  <r_i_glide_evdw>  (340) 
-21.5731

>  <r_i_glide_ecoul>  (340) 
-5.39891

>  <r_i_glide_erotb>  (340) 
0.409852

>  <r_i_glide_esite>  (340) 
0

>  <r_i_glide_emodel>  (340) 
-31.0535

>  <r_i_glide_energy>  (340) 
-26.9721

>  <r_i_glide_einternal>  (340) 
4.22555

>  <r_i_glide_intrahb_reward>  (340) 
-0

>  <i_i_glide_confnum>  (340) 
5

>  <i_i_glide_posenum>  (340) 
25

>  <r_i_glide_eff_state_penalty>  (340) 
0

>  <ligand_id>  (340) 
98

>  <original_smiles>  (340) 
Oc1ccc2c3c1OC1CC4(O)C(C2)N(CC2CC2)CCC314

>  <smiles>  (340) 
[H]Oc1c([H])c([H])c2c3c1OC1([H])C([H])([H])C4(O[H])C([H])(N(C([H])([H])C5([H])C([H])([H])C5([H])[H])C([H])([H])C([H])([H])C314)C2([H])[H]

$$$$
98:1:1
     RDKit          3D

 43 48  0  0  1  0  0  0  0  0999 V2000
    6.7192   -6.6977    2.4949 O   0  0  0  0  0  0  0  0  0  0  0  0
    6.6796   -5.6712    1.5985 C   0  0  0  0  0  0  0  0  0  0  0  0
    7.8524   -5.3417    0.8573 C   0  0  0  0  0  0  0  0  0  0  0  0
    7.8877   -4.1642    0.0717 C   0  0  0  0  0  0  0  0  0  0  0  0
    6.6960   -3.4302   -0.1251 C   0  0  0  0  0  0  0  0  0  0  0  0
    5.5360   -3.9299    0.4749 C   0  0  0  0  0  0  0  0  0  0  0  0
    5.5119   -4.8983    1.4577 C   0  0  0  0  0  0  0  0  0  0  0  0
    4.4331   -4.7408    2.2960 O   0  0  0  0  0  0  0  0  0  0  0  0
    3.7720   -3.4957    1.9287 C   0  0  1  0  0  0  0  0  0  0  0  0
    4.5095   -2.1320    2.1807 C   0  0  0  0  0  0  0  0  0  0  0  0
    4.2412   -1.7659    0.6935 C   0  0  1  0  0  0  0  0  0  0  0  0
    3.0474   -0.9971    0.6279 O   0  0  0  0  0  0  0  0  0  0  0  0
    5.1839   -1.3031   -0.4599 C   0  0  1  0  0  0  0  0  0  0  0  0
    6.5881   -1.9559   -0.4755 C   0  0  0  0  0  0  0  0  0  0  0  0
    4.5962   -1.5935   -1.7969 N   0  0  0  0  0  0  0  0  0  0  0  0
    3.8173   -0.5285   -2.3991 C   0  0  0  0  0  0  0  0  0  0  0  0
    3.8785   -0.4625   -3.9116 C   0  0  0  0  0  0  0  0  0  0  0  0
    4.0536    0.8859   -4.5849 C   0  0  0  0  0  0  0  0  0  0  0  0
    2.7425    0.1736   -4.6820 C   0  0  0  0  0  0  0  0  0  0  0  0
    4.0523   -2.9619   -1.9831 C   0  0  0  0  0  0  0  0  0  0  0  0
    3.3720   -3.5952   -0.7438 C   0  0  0  0  0  0  0  0  0  0  0  0
    4.1857   -3.2545    0.4905 C   0  0  1  0  0  0  0  0  0  0  0  0
    7.5650   -7.1073    2.5495 H   0  0  0  0  0  0  0  0  0  0  0  0
    8.7467   -5.9307    0.9750 H   0  0  0  0  0  0  0  0  0  0  0  0
    8.8262   -3.8016   -0.3436 H   0  0  0  0  0  0  0  0  0  0  0  0
    2.6914   -3.4347    2.0836 H   0  0  0  0  0  0  0  0  0  0  0  0
    3.9636   -1.5062    2.8892 H   0  0  0  0  0  0  0  0  0  0  0  0
    5.5701   -2.2024    2.4434 H   0  0  0  0  0  0  0  0  0  0  0  0
    2.5121   -1.3058   -0.0942 H   0  0  0  0  0  0  0  0  0  0  0  0
    5.3517   -0.2289   -0.3707 H   0  0  0  0  0  0  0  0  0  0  0  0
    7.2084   -1.4071    0.2259 H   0  0  0  0  0  0  0  0  0  0  0  0
    7.0309   -1.8523   -1.4627 H   0  0  0  0  0  0  0  0  0  0  0  0
    2.7748   -0.6202   -2.0887 H   0  0  0  0  0  0  0  0  0  0  0  0
    4.2117    0.4315   -2.0649 H   0  0  0  0  0  0  0  0  0  0  0  0
    4.3977   -1.2931   -4.3860 H   0  0  0  0  0  0  0  0  0  0  0  0
    4.1300    1.7626   -3.9403 H   0  0  0  0  0  0  0  0  0  0  0  0
    4.6115    0.9387   -5.5150 H   0  0  0  0  0  0  0  0  0  0  0  0
    2.4954   -0.2139   -5.6644 H   0  0  0  0  0  0  0  0  0  0  0  0
    1.9095    0.5670   -4.1094 H   0  0  0  0  0  0  0  0  0  0  0  0
    3.3416   -2.9621   -2.8056 H   0  0  0  0  0  0  0  0  0  0  0  0
    4.8597   -3.6306   -2.2838 H   0  0  0  0  0  0  0  0  0  0  0  0
    2.3623   -3.1893   -0.6500 H   0  0  0  0  0  0  0  0  0  0  0  0
    3.2412   -4.6719   -0.8630 H   0  0  0  0  0  0  0  0  0  0  0  0
  1  2  1  0
  1 23  1  0
  2  7  2  0
  2  3  1  0
  3  4  2  0
  3 24  1  0
  4  5  1  0
  4 25  1  0
  5 14  1  0
  5  6  2  0
  6 22  1  0
  6  7  1  0
  7  8  1  0
  8  9  1  0
  9 22  1  0
  9 10  1  0
  9 26  1  6
 10 11  1  0
 10 27  1  0
 10 28  1  0
 11 22  1  0
 11 12  1  1
 11 13  1  0
 12 29  1  0
 13 14  1  0
 13 15  1  0
 13 30  1  6
 14 31  1  0
 14 32  1  0
 15 16  1  0
 15 20  1  0
 16 17  1  0
 16 33  1  0
 16 34  1  0
 17 19  1  0
 17 18  1  0
 17 35  1  0
 18 19  1  0
 18 36  1  0
 18 37  1  0
 19 38  1  0
 19 39  1  0
 20 21  1  0
 20 40  1  0
 20 41  1  0
 22 21  1  6
 21 42  1  0
 21 43  1  0
M  END
>  <i_m_ct_stereo_status>  (341) 
1

>  <s_m_source_file>  (341) 
/var/tmp/pbs.5083856.sched01/tmp_8dy8ti0/14002n04m3s.sdf

>  <i_m_source_file_index>  (341) 
2

>  <i_lp_mmshare_version>  (341) 
48012

>  <i_f3d_flags>  (341) 
0

>  <s_epik_input>  (341) 
W0NAXTEyM2M0YzVbY0hdW2NIXWMoW09IXSljNE9bQ0BIXTFbQ0gyXVtDQEBdMihbT0hdKVtDQEBIXShbQ0gyXTUpTihbQ0gyXVtDSDJdMylbQ0gyXVtDSF02W0NIMl1bQ0gyXTY=

>  <s_epik_cmdline>  (341) 
J2VwaWtfcHl0aG9uJywgJy1waHQnLCAnMi4wJywgJy1waCcsICc3LjAnLCAnLXRuJywgJzgnLCAnLW1hJywgJzIwMCcsICctaW1hZScsICc8aW5maWxlLm1hZT4nLCAnLW9tYWUnLCAnPG91dGZpbGUubWFlPic=

>  <r_lp_tautomer_probability>  (341) 
1

>  <r_epik_Ionization_Penalty>  (341) 
1.81941

>  <r_epik_Ionization_Penalty_Charging>  (341) 
0

>  <r_epik_Ionization_Penalty_Neutral>  (341) 
1.81941

>  <r_epik_State_Penalty>  (341) 
1.94441

>  <r_epik_Charging_Adjusted_Penalty>  (341) 
1.94441

>  <i_epik_Tot_Q>  (341) 
0

>  <i_epik_Tot_abs_Q>  (341) 
0

>  <s_lp_Force_Field>  (341) 
OPLS3e

>  <r_lp_Energy>  (341) 
105.782

>  <b_lp_Chiralities_Consistent>  (341) 
1

>  <s_lp_Variant>  (341) 
98:0-2

>  <s_i_glide_gridfile>  (341) 
pfpi4k_grid

>  <i_i_glide_lignum>  (341) 
2

>  <i_i_glide_rotatable_bonds>  (341) 
4

>  <r_i_docking_score>  (341) 
-3.75095

>  <r_i_glide_ligand_efficiency>  (341) 
-0.170498

>  <r_i_glide_ligand_efficiency_sa>  (341) 
-0.477741

>  <r_i_glide_ligand_efficiency_ln>  (341) 
-0.916868

>  <r_i_glide_gscore>  (341) 
-3.75095

>  <r_i_glide_lipo>  (341) 
-1.07492

>  <r_i_glide_hbond>  (341) 
-0.120595

>  <r_i_glide_metal>  (341) 
-0

>  <r_i_glide_rewards>  (341) 
-1.36797

>  <r_i_glide_evdw>  (341) 
-21.9489

>  <r_i_glide_ecoul>  (341) 
-3.33242

>  <r_i_glide_erotb>  (341) 
0.409852

>  <r_i_glide_esite>  (341) 
0

>  <r_i_glide_emodel>  (341) 
-30.3638

>  <r_i_glide_energy>  (341) 
-25.2813

>  <r_i_glide_einternal>  (341) 
2.0554

>  <r_i_glide_intrahb_reward>  (341) 
-0

>  <i_i_glide_confnum>  (341) 
5

>  <i_i_glide_posenum>  (341) 
29

>  <r_i_glide_eff_state_penalty>  (341) 
0

>  <ligand_id>  (341) 
98

>  <original_smiles>  (341) 
Oc1ccc2c3c1OC1CC4(O)C(C2)N(CC2CC2)CCC314

>  <smiles>  (341) 
[H]Oc1c([H])c([H])c2c3c1OC1([H])C([H])([H])C4(O[H])C([H])(N(C([H])([H])C5([H])C([H])([H])C5([H])[H])C([H])([H])C([H])([H])C314)C2([H])[H]

$$$$
98:1:2
     RDKit          3D

 43 48  0  0  1  0  0  0  0  0999 V2000
    2.5468   -6.0282    4.4874 O   0  0  0  0  0  0  0  0  0  0  0  0
    3.0147   -5.8626    3.2182 C   0  0  0  0  0  0  0  0  0  0  0  0
    3.2431   -6.9931    2.3922 C   0  0  0  0  0  0  0  0  0  0  0  0
    3.8966   -6.8449    1.1436 C   0  0  0  0  0  0  0  0  0  0  0  0
    4.1725   -5.5560    0.6493 C   0  0  0  0  0  0  0  0  0  0  0  0
    3.7370   -4.4782    1.4281 C   0  0  0  0  0  0  0  0  0  0  0  0
    3.3336   -4.5756    2.7446 C   0  0  0  0  0  0  0  0  0  0  0  0
    3.5726   -3.4087    3.4279 O   0  0  0  0  0  0  0  0  0  0  0  0
    4.3134   -2.5247    2.5369 C   0  0  1  0  0  0  0  0  0  0  0  0
    5.7837   -2.8900    2.1057 C   0  0  0  0  0  0  0  0  0  0  0  0
    5.3664   -2.7225    0.6136 C   0  0  1  0  0  0  0  0  0  0  0  0
    5.6732   -1.4062    0.1800 O   0  0  0  0  0  0  0  0  0  0  0  0
    5.4705   -3.6644   -0.6325 C   0  0  1  0  0  0  0  0  0  0  0  0
    5.2560   -5.1725   -0.3548 C   0  0  0  0  0  0  0  0  0  0  0  0
    4.4544   -3.2867   -1.6583 N   0  0  0  0  0  0  0  0  0  0  0  0
    4.9068   -2.3469   -2.6804 C   0  0  0  0  0  0  0  0  0  0  0  0
    4.0107   -2.2580   -3.9002 C   0  0  0  0  0  0  0  0  0  0  0  0
    3.9693   -0.9804   -4.7108 C   0  0  0  0  0  0  0  0  0  0  0  0
    2.7893   -1.3756   -3.8686 C   0  0  0  0  0  0  0  0  0  0  0  0
    3.0588   -3.1351   -1.1494 C   0  0  0  0  0  0  0  0  0  0  0  0
    2.9167   -2.4541    0.2325 C   0  0  0  0  0  0  0  0  0  0  0  0
    3.9829   -3.0192    1.1405 C   0  0  1  0  0  0  0  0  0  0  0  0
    2.4209   -6.9325    4.7206 H   0  0  0  0  0  0  0  0  0  0  0  0
    3.0422   -7.9851    2.7589 H   0  0  0  0  0  0  0  0  0  0  0  0
    4.2602   -7.7160    0.6198 H   0  0  0  0  0  0  0  0  0  0  0  0
    4.1359   -1.4535    2.6715 H   0  0  0  0  0  0  0  0  0  0  0  0
    6.4974   -2.1391    2.4456 H   0  0  0  0  0  0  0  0  0  0  0  0
    6.1146   -3.8997    2.3677 H   0  0  0  0  0  0  0  0  0  0  0  0
    4.8439   -0.9582    0.0752 H   0  0  0  0  0  0  0  0  0  0  0  0
    6.4647   -3.5620   -1.0740 H   0  0  0  0  0  0  0  0  0  0  0  0
    6.1962   -5.5873    0.0111 H   0  0  0  0  0  0  0  0  0  0  0  0
    5.0202   -5.6839   -1.2896 H   0  0  0  0  0  0  0  0  0  0  0  0
    5.0526   -1.3485   -2.2695 H   0  0  0  0  0  0  0  0  0  0  0  0
    5.8831   -2.6730   -3.0512 H   0  0  0  0  0  0  0  0  0  0  0  0
    3.9210   -3.1928   -4.4574 H   0  0  0  0  0  0  0  0  0  0  0  0
    4.5534   -0.1392   -4.3486 H   0  0  0  0  0  0  0  0  0  0  0  0
    3.8160   -1.0088   -5.7832 H   0  0  0  0  0  0  0  0  0  0  0  0
    1.9076   -1.8044   -4.3304 H   0  0  0  0  0  0  0  0  0  0  0  0
    2.6122   -0.7706   -2.9824 H   0  0  0  0  0  0  0  0  0  0  0  0
    2.4116   -2.6033   -1.8438 H   0  0  0  0  0  0  0  0  0  0  0  0
    2.6185   -4.1310   -1.0696 H   0  0  0  0  0  0  0  0  0  0  0  0
    3.0447   -1.3732    0.1164 H   0  0  0  0  0  0  0  0  0  0  0  0
    1.9096   -2.5862    0.6353 H   0  0  0  0  0  0  0  0  0  0  0  0
  1  2  1  0
  1 23  1  0
  2  7  2  0
  2  3  1  0
  3  4  2  0
  3 24  1  0
  4  5  1  0
  4 25  1  0
  5 14  1  0
  5  6  2  0
  6 22  1  0
  6  7  1  0
  7  8  1  0
  8  9  1  0
  9 22  1  0
  9 10  1  0
  9 26  1  6
 10 11  1  0
 10 27  1  0
 10 28  1  0
 11 22  1  0
 11 12  1  6
 11 13  1  0
 12 29  1  0
 13 14  1  0
 13 15  1  0
 13 30  1  6
 14 31  1  0
 14 32  1  0
 15 16  1  0
 15 20  1  0
 16 17  1  0
 16 33  1  0
 16 34  1  0
 17 19  1  0
 17 18  1  0
 17 35  1  0
 18 19  1  0
 18 36  1  0
 18 37  1  0
 19 38  1  0
 19 39  1  0
 20 21  1  0
 20 40  1  0
 20 41  1  0
 22 21  1  6
 21 42  1  0
 21 43  1  0
M  END
>  <i_m_ct_stereo_status>  (342) 
1

>  <s_m_source_file>  (342) 
/var/tmp/pbs.5083856.sched01/tmp_8dy8ti0/14002n04m3s.sdf

>  <i_m_source_file_index>  (342) 
2

>  <i_lp_mmshare_version>  (342) 
48012

>  <i_f3d_flags>  (342) 
0

>  <s_epik_input>  (342) 
W0NAXTEyM2M0YzVbY0hdW2NIXWMoW09IXSljNE9bQ0BIXTFbQ0gyXVtDQEBdMihbT0hdKVtDQEBIXShbQ0gyXTUpTihbQ0gyXVtDSDJdMylbQ0gyXVtDSF02W0NIMl1bQ0gyXTY=

>  <s_epik_cmdline>  (342) 
J2VwaWtfcHl0aG9uJywgJy1waHQnLCAnMi4wJywgJy1waCcsICc3LjAnLCAnLXRuJywgJzgnLCAnLW1hJywgJzIwMCcsICctaW1hZScsICc8aW5maWxlLm1hZT4nLCAnLW9tYWUnLCAnPG91dGZpbGUubWFlPic=

>  <r_lp_tautomer_probability>  (342) 
1

>  <r_epik_Ionization_Penalty>  (342) 
1.81941

>  <r_epik_Ionization_Penalty_Charging>  (342) 
0

>  <r_epik_Ionization_Penalty_Neutral>  (342) 
1.81941

>  <r_epik_State_Penalty>  (342) 
1.94441

>  <r_epik_Charging_Adjusted_Penalty>  (342) 
1.94441

>  <i_epik_Tot_Q>  (342) 
0

>  <i_epik_Tot_abs_Q>  (342) 
0

>  <s_lp_Force_Field>  (342) 
OPLS3e

>  <r_lp_Energy>  (342) 
105.782

>  <b_lp_Chiralities_Consistent>  (342) 
1

>  <s_lp_Variant>  (342) 
98:0-2

>  <s_i_glide_gridfile>  (342) 
pfpi4k_grid

>  <i_i_glide_lignum>  (342) 
2

>  <i_i_glide_rotatable_bonds>  (342) 
4

>  <r_i_docking_score>  (342) 
-2.73221

>  <r_i_glide_ligand_efficiency>  (342) 
-0.124191

>  <r_i_glide_ligand_efficiency_sa>  (342) 
-0.347989

>  <r_i_glide_ligand_efficiency_ln>  (342) 
-0.667851

>  <r_i_glide_gscore>  (342) 
-2.73221

>  <r_i_glide_lipo>  (342) 
-0.625296

>  <r_i_glide_hbond>  (342) 
0

>  <r_i_glide_metal>  (342) 
-0

>  <r_i_glide_rewards>  (342) 
-1.36797

>  <r_i_glide_evdw>  (342) 
-21.1685

>  <r_i_glide_ecoul>  (342) 
-0.602448

>  <r_i_glide_erotb>  (342) 
0.409852

>  <r_i_glide_esite>  (342) 
0

>  <r_i_glide_emodel>  (342) 
-24.8083

>  <r_i_glide_energy>  (342) 
-21.771

>  <r_i_glide_einternal>  (342) 
1.6567

>  <r_i_glide_intrahb_reward>  (342) 
-0

>  <i_i_glide_confnum>  (342) 
2

>  <i_i_glide_posenum>  (342) 
20

>  <r_i_glide_eff_state_penalty>  (342) 
0

>  <ligand_id>  (342) 
98

>  <original_smiles>  (342) 
Oc1ccc2c3c1OC1CC4(O)C(C2)N(CC2CC2)CCC314

>  <smiles>  (342) 
[H]Oc1c([H])c([H])c2c3c1OC1([H])C([H])([H])C4(O[H])C([H])(N(C([H])([H])C5([H])C([H])([H])C5([H])[H])C([H])([H])C([H])([H])C314)C2([H])[H]

$$$$
98:2:0
     RDKit          3D

 43 48  0  0  1  0  0  0  0  0999 V2000
    4.6111   -3.8119   -4.2065 O   0  0  0  0  0  0  0  0  0  0  0  0
    4.4810   -2.9750   -3.1263 C   0  0  0  0  0  0  0  0  0  0  0  0
    4.3294   -1.5762   -3.3208 C   0  0  0  0  0  0  0  0  0  0  0  0
    4.4001   -0.6742   -2.2294 C   0  0  0  0  0  0  0  0  0  0  0  0
    4.4376   -1.1894   -0.9100 C   0  0  0  0  0  0  0  0  0  0  0  0
    4.3520   -2.5710   -0.7967 C   0  0  0  0  0  0  0  0  0  0  0  0
    4.5704   -3.4758   -1.8099 C   0  0  0  0  0  0  0  0  0  0  0  0
    5.0309   -4.6696   -1.3265 O   0  0  0  0  0  0  0  0  0  0  0  0
    5.2838   -4.5191    0.0953 C   0  0  1  0  0  0  0  0  0  0  0  0
    6.4421   -3.5853    0.6005 C   0  0  0  0  0  0  0  0  0  0  0  0
    5.3925   -2.8431    1.4932 C   0  0  1  0  0  0  0  0  0  0  0  0
    5.3422   -3.3577    2.8122 O   0  0  0  0  0  0  0  0  0  0  0  0
    5.0134   -1.3442    1.6612 C   0  0  1  0  0  0  0  0  0  0  0  0
    5.0215   -0.5274    0.3380 C   0  0  0  0  0  0  0  0  0  0  0  0
    3.6448   -1.2930    2.2992 N   0  0  1  0  0  0  0  0  0  0  0  0
    3.1897    0.0789    2.6624 C   0  0  0  0  0  0  0  0  0  0  0  0
    1.9891    0.0820    3.5880 C   0  0  0  0  0  0  0  0  0  0  0  0
    0.5837    0.2065    3.0332 C   0  0  0  0  0  0  0  0  0  0  0  0
    1.1859    1.3496    3.8063 C   0  0  0  0  0  0  0  0  0  0  0  0
    2.5823   -2.0654    1.5743 C   0  0  0  0  0  0  0  0  0  0  0  0
    3.0172   -3.4671    1.1040 C   0  0  0  0  0  0  0  0  0  0  0  0
    4.3951   -3.3523    0.4932 C   0  0  1  0  0  0  0  0  0  0  0  0
    4.2961   -1.1809   -4.3227 H   0  0  0  0  0  0  0  0  0  0  0  0
    4.5014    0.3866   -2.4084 H   0  0  0  0  0  0  0  0  0  0  0  0
    5.1384   -5.4161    0.7022 H   0  0  0  0  0  0  0  0  0  0  0  0
    7.2041   -4.1409    1.1543 H   0  0  0  0  0  0  0  0  0  0  0  0
    6.8918   -2.9551   -0.1705 H   0  0  0  0  0  0  0  0  0  0  0  0
    5.4659   -4.2921    2.7524 H   0  0  0  0  0  0  0  0  0  0  0  0
    5.7062   -0.8657    2.3587 H   0  0  0  0  0  0  0  0  0  0  0  0
    6.0635   -0.3060    0.1157 H   0  0  0  0  0  0  0  0  0  0  0  0
    4.5643    0.4472    0.4632 H   0  0  0  0  0  0  0  0  0  0  0  0
    3.9942    0.6220    3.1561 H   0  0  0  0  0  0  0  0  0  0  0  0
    2.9166    0.6659    1.7855 H   0  0  0  0  0  0  0  0  0  0  0  0
    2.1159   -0.5327    4.4766 H   0  0  0  0  0  0  0  0  0  0  0  0
    0.4771    0.3146    1.9541 H   0  0  0  0  0  0  0  0  0  0  0  0
   -0.1931   -0.3816    3.5183 H   0  0  0  0  0  0  0  0  0  0  0  0
    0.7703    1.5330    4.7957 H   0  0  0  0  0  0  0  0  0  0  0  0
    1.4553    2.2437    3.2462 H   0  0  0  0  0  0  0  0  0  0  0  0
    1.7057   -2.1780    2.2057 H   0  0  0  0  0  0  0  0  0  0  0  0
    2.2418   -1.5006    0.7094 H   0  0  0  0  0  0  0  0  0  0  0  0
    3.0389   -4.1278    1.9704 H   0  0  0  0  0  0  0  0  0  0  0  0
    2.2922   -3.9034    0.4153 H   0  0  0  0  0  0  0  0  0  0  0  0
    3.7833   -1.7874    3.1727 H   0  0  0  0  0  0  0  0  0  0  0  0
  1  2  1  0
  2  7  2  0
  2  3  1  0
  3  4  2  0
  3 23  1  0
  4  5  1  0
  4 24  1  0
  5 14  1  0
  5  6  2  0
  6 22  1  0
  6  7  1  0
  7  8  1  0
  8  9  1  0
  9 22  1  0
  9 10  1  0
  9 25  1  1
 10 11  1  0
 10 26  1  0
 10 27  1  0
 11 22  1  0
 11 12  1  1
 11 13  1  0
 12 28  1  0
 13 14  1  0
 13 15  1  0
 13 29  1  1
 14 30  1  0
 14 31  1  0
 15 16  1  0
 15 20  1  0
 15 43  1  1
 16 17  1  0
 16 32  1  0
 16 33  1  0
 17 19  1  0
 17 18  1  0
 17 34  1  0
 18 19  1  0
 18 35  1  0
 18 36  1  0
 19 37  1  0
 19 38  1  0
 20 21  1  0
 20 39  1  0
 20 40  1  0
 22 21  1  1
 21 41  1  0
 21 42  1  0
M  CHG  2   1  -1  15   1
M  END
>  <i_m_ct_stereo_status>  (343) 
1

>  <s_m_source_file>  (343) 
/var/tmp/pbs.5083856.sched01/tmp_8dy8ti0/14002n04m3s.sdf

>  <i_m_source_file_index>  (343) 
3

>  <i_lp_mmshare_version>  (343) 
48012

>  <i_f3d_flags>  (343) 
0

>  <s_epik_input>  (343) 
W0NAXTEyM2M0YzVbY0hdW2NIXWMoW09IXSljNE9bQ0BIXTFbQ0gyXVtDQEBdMihbT0hdKVtDQEBIXShbQ0gyXTUpTihbQ0gyXVtDSDJdMylbQ0gyXVtDSF02W0NIMl1bQ0gyXTY=

>  <s_epik_cmdline>  (343) 
J2VwaWtfcHl0aG9uJywgJy1waHQnLCAnMi4wJywgJy1waCcsICc3LjAnLCAnLXRuJywgJzgnLCAnLW1hJywgJzIwMCcsICctaW1hZScsICc8aW5maWxlLm1hZT4nLCAnLW9tYWUnLCAnPG91dGZpbGUubWFlPic=

>  <r_epik_Ionization_Penalty>  (343) 
2.24051

>  <r_epik_Ionization_Penalty_Charging>  (343) 
2.24051

>  <r_epik_Ionization_Penalty_Neutral>  (343) 
1.79977e-07

>  <r_epik_State_Penalty>  (343) 
2.38178

>  <r_epik_Charging_Adjusted_Penalty>  (343) 
4.62229

>  <i_epik_Tot_Q>  (343) 
0

>  <i_epik_Tot_abs_Q>  (343) 
2

>  <s_lp_Force_Field>  (343) 
OPLS3e

>  <r_lp_Energy>  (343) 
94.2979

>  <b_lp_Chiralities_Consistent>  (343) 
1

>  <s_lp_Variant>  (343) 
98:0-3

>  <s_i_glide_gridfile>  (343) 
pfpi4k_grid

>  <i_i_glide_lignum>  (343) 
3

>  <i_i_glide_rotatable_bonds>  (343) 
3

>  <r_i_docking_score>  (343) 
-3.11793

>  <r_i_glide_ligand_efficiency>  (343) 
-0.141724

>  <r_i_glide_ligand_efficiency_sa>  (343) 
-0.397116

>  <r_i_glide_ligand_efficiency_ln>  (343) 
-0.762136

>  <r_i_glide_gscore>  (343) 
-3.11793

>  <r_i_glide_lipo>  (343) 
-0.701353

>  <r_i_glide_hbond>  (343) 
-0.00563863

>  <r_i_glide_metal>  (343) 
-0

>  <r_i_glide_rewards>  (343) 
-1.36797

>  <r_i_glide_evdw>  (343) 
-24.1364

>  <r_i_glide_ecoul>  (343) 
-1.624

>  <r_i_glide_erotb>  (343) 
0.409852

>  <r_i_glide_esite>  (343) 
-0.00239722

>  <r_i_glide_emodel>  (343) 
-32.5975

>  <r_i_glide_energy>  (343) 
-25.7604

>  <r_i_glide_einternal>  (343) 
0.198917

>  <r_i_glide_intrahb_reward>  (343) 
-0

>  <i_i_glide_confnum>  (343) 
6

>  <i_i_glide_posenum>  (343) 
20

>  <r_i_glide_eff_state_penalty>  (343) 
0

>  <ligand_id>  (343) 
98

>  <original_smiles>  (343) 
Oc1ccc2c3c1OC1CC4(O)C(C2)N(CC2CC2)CCC314

>  <smiles>  (343) 
[H]OC12C([H])([H])C3([H])Oc4c([O-])c([H])c([H])c5c4C31C([H])([H])C([H])([H])[N+]([H])(C([H])([H])C1([H])C([H])([H])C1([H])[H])C2([H])C5([H])[H]

$$$$
98:2:1
     RDKit          3D

 43 48  0  0  1  0  0  0  0  0999 V2000
   -0.6680   -6.5280    4.4314 O   0  0  0  0  0  0  0  0  0  0  0  0
    0.2259   -6.2612    3.4321 C   0  0  0  0  0  0  0  0  0  0  0  0
    0.2031   -7.0254    2.2403 C   0  0  0  0  0  0  0  0  0  0  0  0
    1.2112   -6.8768    1.2581 C   0  0  0  0  0  0  0  0  0  0  0  0
    2.1494   -5.8217    1.3804 C   0  0  0  0  0  0  0  0  0  0  0  0
    1.9757   -4.9850    2.4822 C   0  0  0  0  0  0  0  0  0  0  0  0
    1.2130   -5.2561    3.5974 C   0  0  0  0  0  0  0  0  0  0  0  0
    1.6785   -4.6155    4.7129 O   0  0  0  0  0  0  0  0  0  0  0  0
    2.9401   -3.9801    4.3562 C   0  0  1  0  0  0  0  0  0  0  0  0
    4.1949   -4.8624    4.0212 C   0  0  0  0  0  0  0  0  0  0  0  0
    4.3253   -4.0873    2.6705 C   0  0  1  0  0  0  0  0  0  0  0  0
    5.2171   -2.9880    2.7554 O   0  0  0  0  0  0  0  0  0  0  0  0
    4.4490   -4.5476    1.1884 C   0  0  1  0  0  0  0  0  0  0  0  0
    3.5706   -5.7801    0.8171 C   0  0  0  0  0  0  0  0  0  0  0  0
    4.0868   -3.3641    0.3208 N   0  0  1  0  0  0  0  0  0  0  0  0
    4.2984   -3.5861   -1.1344 C   0  0  0  0  0  0  0  0  0  0  0  0
    4.3285   -2.3041   -1.9431 C   0  0  0  0  0  0  0  0  0  0  0  0
    3.1013   -1.8113   -2.6822 C   0  0  0  0  0  0  0  0  0  0  0  0
    4.2744   -2.3439   -3.4576 C   0  0  0  0  0  0  0  0  0  0  0  0
    2.7490   -2.7529    0.6098 C   0  0  0  0  0  0  0  0  0  0  0  0
    2.4424   -2.5644    2.1100 C   0  0  0  0  0  0  0  0  0  0  0  0
    2.8598   -3.8198    2.8448 C   0  0  1  0  0  0  0  0  0  0  0  0
   -0.5101   -7.8234    2.1282 H   0  0  0  0  0  0  0  0  0  0  0  0
    1.3066   -7.6291    0.4869 H   0  0  0  0  0  0  0  0  0  0  0  0
    3.1777   -3.0534    4.8846 H   0  0  0  0  0  0  0  0  0  0  0  0
    5.0103   -4.6937    4.7305 H   0  0  0  0  0  0  0  0  0  0  0  0
    3.9894   -5.9300    3.8970 H   0  0  0  0  0  0  0  0  0  0  0  0
    5.0828   -2.5841    3.5986 H   0  0  0  0  0  0  0  0  0  0  0  0
    5.4916   -4.7896    0.9646 H   0  0  0  0  0  0  0  0  0  0  0  0
    4.0888   -6.6572    1.2025 H   0  0  0  0  0  0  0  0  0  0  0  0
    3.5322   -5.9471   -0.2552 H   0  0  0  0  0  0  0  0  0  0  0  0
    5.2334   -4.1182   -1.3089 H   0  0  0  0  0  0  0  0  0  0  0  0
    3.5119   -4.2147   -1.5484 H   0  0  0  0  0  0  0  0  0  0  0  0
    4.9952   -1.5472   -1.5385 H   0  0  0  0  0  0  0  0  0  0  0  0
    2.2013   -2.4208   -2.6214 H   0  0  0  0  0  0  0  0  0  0  0  0
    2.9308   -0.7363   -2.6858 H   0  0  0  0  0  0  0  0  0  0  0  0
    4.8473   -1.6040   -4.0103 H   0  0  0  0  0  0  0  0  0  0  0  0
    4.1509   -3.3049   -3.9553 H   0  0  0  0  0  0  0  0  0  0  0  0
    2.6656   -1.7903    0.1145 H   0  0  0  0  0  0  0  0  0  0  0  0
    1.9647   -3.3610    0.1663 H   0  0  0  0  0  0  0  0  0  0  0  0
    3.0148   -1.7065    2.4646 H   0  0  0  0  0  0  0  0  0  0  0  0
    1.3973   -2.3061    2.2739 H   0  0  0  0  0  0  0  0  0  0  0  0
    4.7632   -2.6577    0.5990 H   0  0  0  0  0  0  0  0  0  0  0  0
  1  2  1  0
  2  7  2  0
  2  3  1  0
  3  4  2  0
  3 23  1  0
  4  5  1  0
  4 24  1  0
  5 14  1  0
  5  6  2  0
  6 22  1  0
  6  7  1  0
  7  8  1  0
  8  9  1  0
  9 22  1  0
  9 10  1  0
  9 25  1  1
 10 11  1  0
 10 26  1  0
 10 27  1  0
 11 22  1  0
 11 12  1  1
 11 13  1  0
 12 28  1  0
 13 14  1  0
 13 15  1  0
 13 29  1  6
 14 30  1  0
 14 31  1  0
 15 16  1  0
 15 20  1  0
 15 43  1  1
 16 17  1  0
 16 32  1  0
 16 33  1  0
 17 19  1  0
 17 18  1  0
 17 34  1  0
 18 19  1  0
 18 35  1  0
 18 36  1  0
 19 37  1  0
 19 38  1  0
 20 21  1  0
 20 39  1  0
 20 40  1  0
 22 21  1  1
 21 41  1  0
 21 42  1  0
M  CHG  2   1  -1  15   1
M  END
>  <i_m_ct_stereo_status>  (344) 
1

>  <s_m_source_file>  (344) 
/var/tmp/pbs.5083856.sched01/tmp_8dy8ti0/14002n04m3s.sdf

>  <i_m_source_file_index>  (344) 
3

>  <i_lp_mmshare_version>  (344) 
48012

>  <i_f3d_flags>  (344) 
0

>  <s_epik_input>  (344) 
W0NAXTEyM2M0YzVbY0hdW2NIXWMoW09IXSljNE9bQ0BIXTFbQ0gyXVtDQEBdMihbT0hdKVtDQEBIXShbQ0gyXTUpTihbQ0gyXVtDSDJdMylbQ0gyXVtDSF02W0NIMl1bQ0gyXTY=

>  <s_epik_cmdline>  (344) 
J2VwaWtfcHl0aG9uJywgJy1waHQnLCAnMi4wJywgJy1waCcsICc3LjAnLCAnLXRuJywgJzgnLCAnLW1hJywgJzIwMCcsICctaW1hZScsICc8aW5maWxlLm1hZT4nLCAnLW9tYWUnLCAnPG91dGZpbGUubWFlPic=

>  <r_epik_Ionization_Penalty>  (344) 
2.24051

>  <r_epik_Ionization_Penalty_Charging>  (344) 
2.24051

>  <r_epik_Ionization_Penalty_Neutral>  (344) 
1.79977e-07

>  <r_epik_State_Penalty>  (344) 
2.38178

>  <r_epik_Charging_Adjusted_Penalty>  (344) 
4.62229

>  <i_epik_Tot_Q>  (344) 
0

>  <i_epik_Tot_abs_Q>  (344) 
2

>  <s_lp_Force_Field>  (344) 
OPLS3e

>  <r_lp_Energy>  (344) 
94.2979

>  <b_lp_Chiralities_Consistent>  (344) 
1

>  <s_lp_Variant>  (344) 
98:0-3

>  <s_i_glide_gridfile>  (344) 
pfpi4k_grid

>  <i_i_glide_lignum>  (344) 
3

>  <i_i_glide_rotatable_bonds>  (344) 
3

>  <r_i_docking_score>  (344) 
-2.81094

>  <r_i_glide_ligand_efficiency>  (344) 
-0.12777

>  <r_i_glide_ligand_efficiency_sa>  (344) 
-0.358017

>  <r_i_glide_ligand_efficiency_ln>  (344) 
-0.687097

>  <r_i_glide_gscore>  (344) 
-2.81094

>  <r_i_glide_lipo>  (344) 
-0.20492

>  <r_i_glide_hbond>  (344) 
0

>  <r_i_glide_metal>  (344) 
-0

>  <r_i_glide_rewards>  (344) 
-1.36797

>  <r_i_glide_evdw>  (344) 
-20.6793

>  <r_i_glide_ecoul>  (344) 
-4.09292

>  <r_i_glide_erotb>  (344) 
0.409852

>  <r_i_glide_esite>  (344) 
0

>  <r_i_glide_emodel>  (344) 
-30.9883

>  <r_i_glide_energy>  (344) 
-24.7722

>  <r_i_glide_einternal>  (344) 
0.0605637

>  <r_i_glide_intrahb_reward>  (344) 
-0

>  <i_i_glide_confnum>  (344) 
1

>  <i_i_glide_posenum>  (344) 
9

>  <r_i_glide_eff_state_penalty>  (344) 
0

>  <ligand_id>  (344) 
98

>  <original_smiles>  (344) 
Oc1ccc2c3c1OC1CC4(O)C(C2)N(CC2CC2)CCC314

>  <smiles>  (344) 
[H]OC12C([H])([H])C3([H])Oc4c([O-])c([H])c([H])c5c4C31C([H])([H])C([H])([H])[N+]([H])(C([H])([H])C1([H])C([H])([H])C1([H])[H])C2([H])C5([H])[H]

$$$$
98:2:2
     RDKit          3D

 43 48  0  0  1  0  0  0  0  0999 V2000
   -0.6587   -6.4527    4.4054 O   0  0  0  0  0  0  0  0  0  0  0  0
    0.2481   -6.2021    3.4164 C   0  0  0  0  0  0  0  0  0  0  0  0
    0.2203   -6.9677    2.2228 C   0  0  0  0  0  0  0  0  0  0  0  0
    1.2403   -6.8344    1.2528 C   0  0  0  0  0  0  0  0  0  0  0  0
    2.1957   -5.7957    1.3834 C   0  0  0  0  0  0  0  0  0  0  0  0
    2.0241   -4.9511    2.4782 C   0  0  0  0  0  0  0  0  0  0  0  0
    1.2428   -5.2066    3.5828 C   0  0  0  0  0  0  0  0  0  0  0  0
    1.7010   -4.5629    4.7010 O   0  0  0  0  0  0  0  0  0  0  0  0
    2.9778   -3.9497    4.3574 C   0  0  1  0  0  0  0  0  0  0  0  0
    4.2219   -4.8520    4.0432 C   0  0  0  0  0  0  0  0  0  0  0  0
    4.3896   -4.0885    2.6860 C   0  0  1  0  0  0  0  0  0  0  0  0
    5.2984   -3.0062    2.7874 O   0  0  0  0  0  0  0  0  0  0  0  0
    4.5172   -4.5599    1.2076 C   0  0  1  0  0  0  0  0  0  0  0  0
    3.6229   -5.7817    0.8349 C   0  0  0  0  0  0  0  0  0  0  0  0
    4.1811   -3.3730    0.3340 N   0  0  1  0  0  0  0  0  0  0  0  0
    4.4083   -3.6086   -1.1162 C   0  0  0  0  0  0  0  0  0  0  0  0
    4.4938   -2.3269   -1.9207 C   0  0  0  0  0  0  0  0  0  0  0  0
    3.2798   -1.7695   -2.6361 C   0  0  0  0  0  0  0  0  0  0  0  0
    4.4079   -2.3622   -3.4334 C   0  0  0  0  0  0  0  0  0  0  0  0
    2.8491   -2.7401    0.6032 C   0  0  0  0  0  0  0  0  0  0  0  0
    2.5315   -2.5396    2.0998 C   0  0  0  0  0  0  0  0  0  0  0  0
    2.9238   -3.7979    2.8449 C   0  0  1  0  0  0  0  0  0  0  0  0
   -0.5061   -7.7550    2.1051 H   0  0  0  0  0  0  0  0  0  0  0  0
    1.3365   -7.5891    0.4849 H   0  0  0  0  0  0  0  0  0  0  0  0
    3.2188   -3.0230    4.8830 H   0  0  0  0  0  0  0  0  0  0  0  0
    5.0243   -4.6905    4.7679 H   0  0  0  0  0  0  0  0  0  0  0  0
    3.9983   -5.9167    3.9303 H   0  0  0  0  0  0  0  0  0  0  0  0
    6.1656   -3.3817    2.8012 H   0  0  0  0  0  0  0  0  0  0  0  0
    5.5575   -4.8253    0.9933 H   0  0  0  0  0  0  0  0  0  0  0  0
    4.1201   -6.6652    1.2354 H   0  0  0  0  0  0  0  0  0  0  0  0
    3.5933   -5.9533   -0.2376 H   0  0  0  0  0  0  0  0  0  0  0  0
    5.3321   -4.1650   -1.2726 H   0  0  0  0  0  0  0  0  0  0  0  0
    3.6102   -4.2159   -1.5401 H   0  0  0  0  0  0  0  0  0  0  0  0
    5.2055   -1.6049   -1.5261 H   0  0  0  0  0  0  0  0  0  0  0  0
    2.3505   -2.3323   -2.5580 H   0  0  0  0  0  0  0  0  0  0  0  0
    3.1651   -0.6866   -2.6380 H   0  0  0  0  0  0  0  0  0  0  0  0
    5.0109   -1.6535   -3.9944 H   0  0  0  0  0  0  0  0  0  0  0  0
    4.2268   -3.3159   -3.9274 H   0  0  0  0  0  0  0  0  0  0  0  0
    2.7882   -1.7745    0.1085 H   0  0  0  0  0  0  0  0  0  0  0  0
    2.0603   -3.3394    0.1559 H   0  0  0  0  0  0  0  0  0  0  0  0
    3.1107   -1.6894    2.4631 H   0  0  0  0  0  0  0  0  0  0  0  0
    1.4860   -2.2703    2.2527 H   0  0  0  0  0  0  0  0  0  0  0  0
    4.8546   -2.6706    0.6184 H   0  0  0  0  0  0  0  0  0  0  0  0
  1  2  1  0
  2  7  2  0
  2  3  1  0
  3  4  2  0
  3 23  1  0
  4  5  1  0
  4 24  1  0
  5 14  1  0
  5  6  2  0
  6 22  1  0
  6  7  1  0
  7  8  1  0
  8  9  1  0
  9 22  1  0
  9 10  1  0
  9 25  1  1
 10 11  1  0
 10 26  1  0
 10 27  1  0
 11 22  1  0
 11 12  1  1
 11 13  1  0
 12 28  1  0
 13 14  1  0
 13 15  1  0
 13 29  1  6
 14 30  1  0
 14 31  1  0
 15 16  1  0
 15 20  1  0
 15 43  1  1
 16 17  1  0
 16 32  1  0
 16 33  1  0
 17 19  1  0
 17 18  1  0
 17 34  1  0
 18 19  1  0
 18 35  1  0
 18 36  1  0
 19 37  1  0
 19 38  1  0
 20 21  1  0
 20 39  1  0
 20 40  1  0
 22 21  1  1
 21 41  1  0
 21 42  1  0
M  CHG  2   1  -1  15   1
M  END
>  <i_m_ct_stereo_status>  (345) 
1

>  <s_m_source_file>  (345) 
/var/tmp/pbs.5083856.sched01/tmp_8dy8ti0/14002n04m3s.sdf

>  <i_m_source_file_index>  (345) 
3

>  <i_lp_mmshare_version>  (345) 
48012

>  <i_f3d_flags>  (345) 
0

>  <s_epik_input>  (345) 
W0NAXTEyM2M0YzVbY0hdW2NIXWMoW09IXSljNE9bQ0BIXTFbQ0gyXVtDQEBdMihbT0hdKVtDQEBIXShbQ0gyXTUpTihbQ0gyXVtDSDJdMylbQ0gyXVtDSF02W0NIMl1bQ0gyXTY=

>  <s_epik_cmdline>  (345) 
J2VwaWtfcHl0aG9uJywgJy1waHQnLCAnMi4wJywgJy1waCcsICc3LjAnLCAnLXRuJywgJzgnLCAnLW1hJywgJzIwMCcsICctaW1hZScsICc8aW5maWxlLm1hZT4nLCAnLW9tYWUnLCAnPG91dGZpbGUubWFlPic=

>  <r_epik_Ionization_Penalty>  (345) 
2.24051

>  <r_epik_Ionization_Penalty_Charging>  (345) 
2.24051

>  <r_epik_Ionization_Penalty_Neutral>  (345) 
1.79977e-07

>  <r_epik_State_Penalty>  (345) 
2.38178

>  <r_epik_Charging_Adjusted_Penalty>  (345) 
4.62229

>  <i_epik_Tot_Q>  (345) 
0

>  <i_epik_Tot_abs_Q>  (345) 
2

>  <s_lp_Force_Field>  (345) 
OPLS3e

>  <r_lp_Energy>  (345) 
94.2979

>  <b_lp_Chiralities_Consistent>  (345) 
1

>  <s_lp_Variant>  (345) 
98:0-3

>  <s_i_glide_gridfile>  (345) 
pfpi4k_grid

>  <i_i_glide_lignum>  (345) 
3

>  <i_i_glide_rotatable_bonds>  (345) 
3

>  <r_i_docking_score>  (345) 
-2.7103

>  <r_i_glide_ligand_efficiency>  (345) 
-0.123195

>  <r_i_glide_ligand_efficiency_sa>  (345) 
-0.345198

>  <r_i_glide_ligand_efficiency_ln>  (345) 
-0.662496

>  <r_i_glide_gscore>  (345) 
-2.7103

>  <r_i_glide_lipo>  (345) 
-0.181147

>  <r_i_glide_hbond>  (345) 
0

>  <r_i_glide_metal>  (345) 
-0

>  <r_i_glide_rewards>  (345) 
-1.36797

>  <r_i_glide_evdw>  (345) 
-20.4731

>  <r_i_glide_ecoul>  (345) 
-3.64918

>  <r_i_glide_erotb>  (345) 
0.409852

>  <r_i_glide_esite>  (345) 
0

>  <r_i_glide_emodel>  (345) 
-29.859

>  <r_i_glide_energy>  (345) 
-24.1223

>  <r_i_glide_einternal>  (345) 
0.555185

>  <r_i_glide_intrahb_reward>  (345) 
-0

>  <i_i_glide_confnum>  (345) 
1

>  <i_i_glide_posenum>  (345) 
15

>  <r_i_glide_eff_state_penalty>  (345) 
0

>  <ligand_id>  (345) 
98

>  <original_smiles>  (345) 
Oc1ccc2c3c1OC1CC4(O)C(C2)N(CC2CC2)CCC314

>  <smiles>  (345) 
[H]OC12C([H])([H])C3([H])Oc4c([O-])c([H])c([H])c5c4C31C([H])([H])C([H])([H])[N+]([H])(C([H])([H])C1([H])C([H])([H])C1([H])[H])C2([H])C5([H])[H]

$$$$
99:0:0
     RDKit          3D

 62 66  0  0  1  0  0  0  0  0999 V2000
    4.8049   -4.6516    8.0126 C   0  0  0  0  0  0  0  0  0  0  0  0
    3.9248   -3.4891    7.5064 C   0  0  2  0  0  0  0  0  0  0  0  0
    4.4189   -2.1606    8.1334 C   0  0  0  0  0  0  0  0  0  0  0  0
    3.4135   -1.0008    8.0178 C   0  0  0  0  0  0  0  0  0  0  0  0
    2.4465   -1.2382    6.8466 C   0  0  2  0  0  0  0  0  0  0  0  0
    1.5793   -0.0299    6.4401 C   0  0  1  0  0  0  0  0  0  0  0  0
    2.3774    1.2593    6.1456 C   0  0  0  0  0  0  0  0  0  0  0  0
    0.8023   -0.4475    5.1694 C   0  0  1  0  0  0  0  0  0  0  0  0
    1.7101   -0.6539    4.1315 O   0  0  0  0  0  0  0  0  0  0  0  0
    1.1848   -0.5573    2.8119 C   0  0  0  0  0  0  0  0  0  0  0  0
    2.3813   -0.5700    1.8593 C   0  0  0  0  0  0  0  0  0  0  0  0
    2.7580   -1.9287    1.6788 O   0  0  0  0  0  0  0  0  0  0  0  0
    4.0354   -2.2299    1.2791 C   0  0  0  0  0  0  0  0  0  0  0  0
    4.3313   -3.6023    1.1393 C   0  0  0  0  0  0  0  0  0  0  0  0
    5.6190   -4.0240    0.7636 C   0  0  0  0  0  0  0  0  0  0  0  0
    6.6280   -3.0737    0.5246 C   0  0  0  0  0  0  0  0  0  0  0  0
    7.9563   -3.5160    0.1403 C   0  0  0  0  0  0  0  0  0  0  0  0
    9.0144   -3.8702   -0.1637 N   0  0  0  0  0  0  0  0  0  0  0  0
    6.3471   -1.7007    0.6601 C   0  0  0  0  0  0  0  0  0  0  0  0
    5.0540   -1.2753    1.0233 C   0  0  0  0  0  0  0  0  0  0  0  0
    0.0242   -1.5784    5.4545 O   0  0  0  0  0  0  0  0  0  0  0  0
    0.7445   -2.7336    5.8213 C   0  0  2  0  0  0  0  0  0  0  0  0
   -0.1737   -3.7711    5.9609 O   0  0  0  0  0  0  0  0  0  0  0  0
   -0.5390   -4.1453    7.2774 C   0  0  1  0  0  0  0  0  0  0  0  0
   -2.0008   -4.6262    7.1968 C   0  0  0  0  0  0  0  0  0  0  0  0
    0.3894   -5.2828    7.7213 C   0  0  0  0  0  0  0  0  0  0  0  0
    1.8557   -5.0622    7.3348 C   0  0  0  0  0  0  0  0  0  0  0  0
    2.3875   -3.6680    7.7136 C   0  0  2  0  0  0  0  0  0  0  0  0
    1.5400   -2.4636    7.1429 C   0  0  1  0  0  0  0  0  0  0  0  0
    0.5967   -2.1062    8.1458 O   0  0  0  0  0  0  0  0  0  0  0  0
   -0.5852   -3.0703    8.2193 O   0  0  0  0  0  0  0  0  0  0  0  0
    4.6410   -4.8606    9.0704 H   0  0  0  0  0  0  0  0  0  0  0  0
    5.8634   -4.4168    7.8882 H   0  0  0  0  0  0  0  0  0  0  0  0
    4.6283   -5.5693    7.4510 H   0  0  0  0  0  0  0  0  0  0  0  0
    4.0988   -3.4366    6.4307 H   0  0  0  0  0  0  0  0  0  0  0  0
    4.7073   -2.2961    9.1781 H   0  0  0  0  0  0  0  0  0  0  0  0
    5.3314   -1.8696    7.6154 H   0  0  0  0  0  0  0  0  0  0  0  0
    2.8497   -0.9215    8.9486 H   0  0  0  0  0  0  0  0  0  0  0  0
    3.9663   -0.0656    7.9089 H   0  0  0  0  0  0  0  0  0  0  0  0
    3.0730   -1.4647    5.9827 H   0  0  0  0  0  0  0  0  0  0  0  0
    0.8443    0.1952    7.2137 H   0  0  0  0  0  0  0  0  0  0  0  0
    3.1919    1.0783    5.4424 H   0  0  0  0  0  0  0  0  0  0  0  0
    2.8115    1.6700    7.0567 H   0  0  0  0  0  0  0  0  0  0  0  0
    1.7415    2.0389    5.7221 H   0  0  0  0  0  0  0  0  0  0  0  0
    0.1233    0.3601    4.8895 H   0  0  0  0  0  0  0  0  0  0  0  0
    0.4977   -1.3771    2.6026 H   0  0  0  0  0  0  0  0  0  0  0  0
    0.6428    0.3805    2.6792 H   0  0  0  0  0  0  0  0  0  0  0  0
    2.1274   -0.1387    0.8905 H   0  0  0  0  0  0  0  0  0  0  0  0
    3.1593    0.0496    2.3040 H   0  0  0  0  0  0  0  0  0  0  0  0
    3.5655   -4.3384    1.3261 H   0  0  0  0  0  0  0  0  0  0  0  0
    5.8319   -5.0787    0.6625 H   0  0  0  0  0  0  0  0  0  0  0  0
    7.1179   -0.9638    0.4946 H   0  0  0  0  0  0  0  0  0  0  0  0
    4.8824   -0.2165    1.1043 H   0  0  0  0  0  0  0  0  0  0  0  0
    1.4120   -3.0081    4.9991 H   0  0  0  0  0  0  0  0  0  0  0  0
   -2.6583   -3.8181    6.8770 H   0  0  0  0  0  0  0  0  0  0  0  0
   -2.3611   -4.9749    8.1654 H   0  0  0  0  0  0  0  0  0  0  0  0
   -2.1222   -5.4406    6.4816 H   0  0  0  0  0  0  0  0  0  0  0  0
    0.2849   -5.4348    8.7946 H   0  0  0  0  0  0  0  0  0  0  0  0
    0.0695   -6.2126    7.2515 H   0  0  0  0  0  0  0  0  0  0  0  0
    2.4303   -5.8345    7.8419 H   0  0  0  0  0  0  0  0  0  0  0  0
    2.0039   -5.2291    6.2682 H   0  0  0  0  0  0  0  0  0  0  0  0
    2.2694   -3.6171    8.7967 H   0  0  0  0  0  0  0  0  0  0  0  0
  1  2  1  0
  1 32  1  0
  1 33  1  0
  1 34  1  0
  2 28  1  0
  2  3  1  0
  2 35  1  6
  3  4  1  0
  3 36  1  0
  3 37  1  0
  4  5  1  0
  4 38  1  0
  4 39  1  0
  5 29  1  0
  5  6  1  0
  5 40  1  6
  6  7  1  0
  6  8  1  0
  6 41  1  1
  7 42  1  0
  7 43  1  0
  7 44  1  0
  8  9  1  0
  8 21  1  0
  8 45  1  6
  9 10  1  0
 10 11  1  0
 10 46  1  0
 10 47  1  0
 11 12  1  0
 11 48  1  0
 11 49  1  0
 12 13  1  0
 13 20  1  0
 13 14  2  0
 14 15  1  0
 14 50  1  0
 15 16  2  0
 15 51  1  0
 16 17  1  0
 16 19  1  0
 17 18  3  0
 19 20  2  0
 19 52  1  0
 20 53  1  0
 21 22  1  0
 22 29  1  0
 22 23  1  0
 22 54  1  6
 23 24  1  0
 24 31  1  0
 24 25  1  6
 24 26  1  0
 25 55  1  0
 25 56  1  0
 25 57  1  0
 26 27  1  0
 26 58  1  0
 26 59  1  0
 27 28  1  0
 27 60  1  0
 27 61  1  0
 28 29  1  0
 28 62  1  1
 29 30  1  1
 30 31  1  0
M  END
>  <i_m_ct_stereo_status>  (346) 
1

>  <s_m_source_file>  (346) 
/var/tmp/pbs.5083856.sched01/tmp_8dy8ti0/14002n04m3s.sdf

>  <i_m_source_file_index>  (346) 
4

>  <i_lp_mmshare_version>  (346) 
48012

>  <i_f3d_flags>  (346) 
0

>  <s_epik_input>  (346) 
W0NAXTEyM1tDQEBIXTRbQ0gyXVtDSDJdW0NAQEhdKFtDSDNdKVtDQEBIXTJbQ0gyXVtDSDJdW0NAQF0oW0NIM10pKE9PMylPW0NASF0xT1tDQEBIXShbQ0BASF00W0NIM10pT1tDSDJdW0NIMl1PYzVbY0hdW2NIXWMoQyNOKVtjSF1bY0hdNQ==

>  <s_epik_cmdline>  (346) 
J2VwaWtfcHl0aG9uJywgJy1waHQnLCAnMi4wJywgJy1waCcsICc3LjAnLCAnLXRuJywgJzgnLCAnLW1hJywgJzIwMCcsICctaW1hZScsICc8aW5maWxlLm1hZT4nLCAnLW9tYWUnLCAnPG91dGZpbGUubWFlPic=

>  <r_lp_tautomer_probability>  (346) 
1

>  <r_epik_Ionization_Penalty>  (346) 
1.15377e-13

>  <r_epik_Ionization_Penalty_Charging>  (346) 
0

>  <r_epik_Ionization_Penalty_Neutral>  (346) 
1.15377e-13

>  <r_epik_State_Penalty>  (346) 
-0

>  <r_epik_Charging_Adjusted_Penalty>  (346) 
0

>  <i_epik_Tot_Q>  (346) 
0

>  <i_epik_Tot_abs_Q>  (346) 
0

>  <s_epik_Chemistry_Notes>  (346) 
This compound contains an acetal/aminal-like group ( X-CH(R)-Y where X, Y are N, S, or O) that may be acid/base labile, releasing an aldehyde.

>  <s_lp_Force_Field>  (346) 
OPLS3e

>  <r_lp_Energy>  (346) 
51.3807

>  <b_lp_Chiralities_Consistent>  (346) 
1

>  <s_lp_Variant>  (346) 
99:0-1

>  <s_i_glide_gridfile>  (346) 
pfpi4k_grid

>  <i_i_glide_lignum>  (346) 
4

>  <i_i_glide_rotatable_bonds>  (346) 
6

>  <r_i_docking_score>  (346) 
-2.41575

>  <r_i_glide_ligand_efficiency>  (346) 
-0.0779274

>  <r_i_glide_ligand_efficiency_sa>  (346) 
-0.2448

>  <r_i_glide_ligand_efficiency_ln>  (346) 
-0.544826

>  <r_i_glide_gscore>  (346) 
-2.41575

>  <r_i_glide_lipo>  (346) 
-0.405729

>  <r_i_glide_hbond>  (346) 
-0.242358

>  <r_i_glide_metal>  (346) 
-0

>  <r_i_glide_rewards>  (346) 
-0.775533

>  <r_i_glide_evdw>  (346) 
-21.2824

>  <r_i_glide_ecoul>  (346) 
-2.91141

>  <r_i_glide_erotb>  (346) 
0.538637

>  <r_i_glide_esite>  (346) 
-0.029935

>  <r_i_glide_emodel>  (346) 
-27.2781

>  <r_i_glide_energy>  (346) 
-24.1938

>  <r_i_glide_einternal>  (346) 
1.64318

>  <r_i_glide_intrahb_reward>  (346) 
-0

>  <i_i_glide_confnum>  (346) 
2

>  <i_i_glide_posenum>  (346) 
39

>  <r_i_glide_eff_state_penalty>  (346) 
0

>  <ligand_id>  (346) 
99

>  <original_smiles>  (346) 
CC1CCC2C(C)C(OCCOc3ccc(C#N)cc3)OC3OC4(C)CCC1C32OO4

>  <smiles>  (346) 
[H]c1c([H])c(OC([H])([H])C([H])([H])OC2([H])OC3([H])OC4(C([H])([H])[H])OOC35C([H])(C([H])([H])C([H])([H])C([H])(C([H])([H])[H])C5([H])C([H])([H])C4([H])[H])C2([H])C([H])([H])[H])c([H])c([H])c1C#N

$$$$
99:0:1
     RDKit          3D

 62 66  0  0  1  0  0  0  0  0999 V2000
    4.7552   -3.5241    5.6905 C   0  0  0  0  0  0  0  0  0  0  0  0
    4.9050   -4.6423    4.6392 C   0  0  2  0  0  0  0  0  0  0  0  0
    6.1921   -5.4542    4.9320 C   0  0  0  0  0  0  0  0  0  0  0  0
    6.6595   -6.3359    3.7592 C   0  0  0  0  0  0  0  0  0  0  0  0
    5.4828   -6.6642    2.8283 C   0  0  2  0  0  0  0  0  0  0  0  0
    5.7355   -7.7706    1.7817 C   0  0  1  0  0  0  0  0  0  0  0  0
    6.2613   -9.0985    2.3673 C   0  0  0  0  0  0  0  0  0  0  0  0
    4.3838   -8.0226    1.0690 C   0  0  1  0  0  0  0  0  0  0  0  0
    3.4723   -8.5322    1.9932 O   0  0  0  0  0  0  0  0  0  0  0  0
    2.2387   -8.9996    1.4604 C   0  0  0  0  0  0  0  0  0  0  0  0
    1.3679   -9.4110    2.6486 C   0  0  0  0  0  0  0  0  0  0  0  0
    1.0766   -8.2164    3.3688 O   0  0  0  0  0  0  0  0  0  0  0  0
    0.8935   -8.2885    4.7301 C   0  0  0  0  0  0  0  0  0  0  0  0
    0.9922   -7.0754    5.4463 C   0  0  0  0  0  0  0  0  0  0  0  0
    0.8259   -7.0516    6.8446 C   0  0  0  0  0  0  0  0  0  0  0  0
    0.5547   -8.2389    7.5447 C   0  0  0  0  0  0  0  0  0  0  0  0
    0.3691   -8.2177    8.9840 C   0  0  0  0  0  0  0  0  0  0  0  0
    0.2136   -8.1961   10.1321 N   0  0  0  0  0  0  0  0  0  0  0  0
    0.4368   -9.4473    6.8374 C   0  0  0  0  0  0  0  0  0  0  0  0
    0.6071   -9.4789    5.4386 C   0  0  0  0  0  0  0  0  0  0  0  0
    3.9584   -6.8259    0.4804 O   0  0  0  0  0  0  0  0  0  0  0  0
    3.6793   -5.7750    1.3688 C   0  0  2  0  0  0  0  0  0  0  0  0
    3.1406   -4.7245    0.6327 O   0  0  0  0  0  0  0  0  0  0  0  0
    4.0078   -3.6458    0.3204 C   0  0  1  0  0  0  0  0  0  0  0  0
    3.5627   -3.0987   -1.0483 C   0  0  0  0  0  0  0  0  0  0  0  0
    3.8313   -2.5855    1.4176 C   0  0  0  0  0  0  0  0  0  0  0  0
    3.7409   -3.1723    2.8319 C   0  0  0  0  0  0  0  0  0  0  0  0
    4.8624   -4.1762    3.1521 C   0  0  2  0  0  0  0  0  0  0  0  0
    4.9850   -5.3706    2.1286 C   0  0  1  0  0  0  0  0  0  0  0  0
    5.9481   -4.9701    1.1606 O   0  0  0  0  0  0  0  0  0  0  0  0
    5.3740   -4.0170    0.1063 O   0  0  0  0  0  0  0  0  0  0  0  0
    5.5095   -2.7456    5.5697 H   0  0  0  0  0  0  0  0  0  0  0  0
    4.8622   -3.9274    6.6991 H   0  0  0  0  0  0  0  0  0  0  0  0
    3.7706   -3.0578    5.6502 H   0  0  0  0  0  0  0  0  0  0  0  0
    4.0529   -5.3058    4.7908 H   0  0  0  0  0  0  0  0  0  0  0  0
    7.0079   -4.8054    5.2571 H   0  0  0  0  0  0  0  0  0  0  0  0
    5.9886   -6.1042    5.7814 H   0  0  0  0  0  0  0  0  0  0  0  0
    7.4349   -5.8133    3.1964 H   0  0  0  0  0  0  0  0  0  0  0  0
    7.1211   -7.2396    4.1590 H   0  0  0  0  0  0  0  0  0  0  0  0
    4.6842   -7.0359    3.4695 H   0  0  0  0  0  0  0  0  0  0  0  0
    6.4442   -7.4263    1.0283 H   0  0  0  0  0  0  0  0  0  0  0  0
    5.6380   -9.4458    3.1926 H   0  0  0  0  0  0  0  0  0  0  0  0
    7.2783   -8.9869    2.7416 H   0  0  0  0  0  0  0  0  0  0  0  0
    6.2852   -9.8883    1.6147 H   0  0  0  0  0  0  0  0  0  0  0  0
    4.5167   -8.7629    0.2776 H   0  0  0  0  0  0  0  0  0  0  0  0
    1.7359   -8.2157    0.8891 H   0  0  0  0  0  0  0  0  0  0  0  0
    2.3992   -9.8508    0.7941 H   0  0  0  0  0  0  0  0  0  0  0  0
    0.4346   -9.8673    2.3164 H   0  0  0  0  0  0  0  0  0  0  0  0
    1.9130  -10.1483    3.2376 H   0  0  0  0  0  0  0  0  0  0  0  0
    1.2097   -6.1619    4.9143 H   0  0  0  0  0  0  0  0  0  0  0  0
    0.9083   -6.1143    7.3754 H   0  0  0  0  0  0  0  0  0  0  0  0
    0.2111  -10.3620    7.3566 H   0  0  0  0  0  0  0  0  0  0  0  0
    0.4966  -10.4266    4.9343 H   0  0  0  0  0  0  0  0  0  0  0  0
    2.8998   -6.0941    2.0638 H   0  0  0  0  0  0  0  0  0  0  0  0
    3.6922   -3.8552   -1.8240 H   0  0  0  0  0  0  0  0  0  0  0  0
    4.1528   -2.2286   -1.3400 H   0  0  0  0  0  0  0  0  0  0  0  0
    2.5131   -2.8028   -1.0539 H   0  0  0  0  0  0  0  0  0  0  0  0
    4.6318   -1.8502    1.3458 H   0  0  0  0  0  0  0  0  0  0  0  0
    2.9051   -2.0382    1.2365 H   0  0  0  0  0  0  0  0  0  0  0  0
    3.7812   -2.3313    3.5202 H   0  0  0  0  0  0  0  0  0  0  0  0
    2.7719   -3.6448    2.9919 H   0  0  0  0  0  0  0  0  0  0  0  0
    5.7814   -3.6007    3.0355 H   0  0  0  0  0  0  0  0  0  0  0  0
  1  2  1  0
  1 32  1  0
  1 33  1  0
  1 34  1  0
  2 28  1  0
  2  3  1  0
  2 35  1  6
  3  4  1  0
  3 36  1  0
  3 37  1  0
  4  5  1  0
  4 38  1  0
  4 39  1  0
  5 29  1  0
  5  6  1  0
  5 40  1  1
  6  7  1  0
  6  8  1  0
  6 41  1  6
  7 42  1  0
  7 43  1  0
  7 44  1  0
  8  9  1  0
  8 21  1  0
  8 45  1  6
  9 10  1  0
 10 11  1  0
 10 46  1  0
 10 47  1  0
 11 12  1  0
 11 48  1  0
 11 49  1  0
 12 13  1  0
 13 20  1  0
 13 14  2  0
 14 15  1  0
 14 50  1  0
 15 16  2  0
 15 51  1  0
 16 17  1  0
 16 19  1  0
 17 18  3  0
 19 20  2  0
 19 52  1  0
 20 53  1  0
 21 22  1  0
 22 29  1  0
 22 23  1  0
 22 54  1  1
 23 24  1  0
 24 31  1  0
 24 25  1  6
 24 26  1  0
 25 55  1  0
 25 56  1  0
 25 57  1  0
 26 27  1  0
 26 58  1  0
 26 59  1  0
 27 28  1  0
 27 60  1  0
 27 61  1  0
 28 29  1  0
 28 62  1  1
 29 30  1  6
 30 31  1  0
M  END
>  <i_m_ct_stereo_status>  (347) 
1

>  <s_m_source_file>  (347) 
/var/tmp/pbs.5083856.sched01/tmp_8dy8ti0/14002n04m3s.sdf

>  <i_m_source_file_index>  (347) 
4

>  <i_lp_mmshare_version>  (347) 
48012

>  <i_f3d_flags>  (347) 
0

>  <s_epik_input>  (347) 
W0NAXTEyM1tDQEBIXTRbQ0gyXVtDSDJdW0NAQEhdKFtDSDNdKVtDQEBIXTJbQ0gyXVtDSDJdW0NAQF0oW0NIM10pKE9PMylPW0NASF0xT1tDQEBIXShbQ0BASF00W0NIM10pT1tDSDJdW0NIMl1PYzVbY0hdW2NIXWMoQyNOKVtjSF1bY0hdNQ==

>  <s_epik_cmdline>  (347) 
J2VwaWtfcHl0aG9uJywgJy1waHQnLCAnMi4wJywgJy1waCcsICc3LjAnLCAnLXRuJywgJzgnLCAnLW1hJywgJzIwMCcsICctaW1hZScsICc8aW5maWxlLm1hZT4nLCAnLW9tYWUnLCAnPG91dGZpbGUubWFlPic=

>  <r_lp_tautomer_probability>  (347) 
1

>  <r_epik_Ionization_Penalty>  (347) 
1.15377e-13

>  <r_epik_Ionization_Penalty_Charging>  (347) 
0

>  <r_epik_Ionization_Penalty_Neutral>  (347) 
1.15377e-13

>  <r_epik_State_Penalty>  (347) 
-0

>  <r_epik_Charging_Adjusted_Penalty>  (347) 
0

>  <i_epik_Tot_Q>  (347) 
0

>  <i_epik_Tot_abs_Q>  (347) 
0

>  <s_epik_Chemistry_Notes>  (347) 
This compound contains an acetal/aminal-like group ( X-CH(R)-Y where X, Y are N, S, or O) that may be acid/base labile, releasing an aldehyde.

>  <s_lp_Force_Field>  (347) 
OPLS3e

>  <r_lp_Energy>  (347) 
51.3807

>  <b_lp_Chiralities_Consistent>  (347) 
1

>  <s_lp_Variant>  (347) 
99:0-1

>  <s_i_glide_gridfile>  (347) 
pfpi4k_grid

>  <i_i_glide_lignum>  (347) 
4

>  <i_i_glide_rotatable_bonds>  (347) 
6

>  <r_i_docking_score>  (347) 
-1.9045

>  <r_i_glide_ligand_efficiency>  (347) 
-0.0614356

>  <r_i_glide_ligand_efficiency_sa>  (347) 
-0.192993

>  <r_i_glide_ligand_efficiency_ln>  (347) 
-0.429524

>  <r_i_glide_gscore>  (347) 
-1.9045

>  <r_i_glide_lipo>  (347) 
-0.210643

>  <r_i_glide_hbond>  (347) 
-0.12557

>  <r_i_glide_metal>  (347) 
-0

>  <r_i_glide_rewards>  (347) 
-0.565936

>  <r_i_glide_evdw>  (347) 
-24.2101

>  <r_i_glide_ecoul>  (347) 
-1.91701

>  <r_i_glide_erotb>  (347) 
0.538637

>  <r_i_glide_esite>  (347) 
-0.042936

>  <r_i_glide_emodel>  (347) 
-28.4907

>  <r_i_glide_energy>  (347) 
-26.1271

>  <r_i_glide_einternal>  (347) 
1.36237

>  <r_i_glide_intrahb_reward>  (347) 
-0

>  <i_i_glide_confnum>  (347) 
2

>  <i_i_glide_posenum>  (347) 
29

>  <r_i_glide_eff_state_penalty>  (347) 
0

>  <ligand_id>  (347) 
99

>  <original_smiles>  (347) 
CC1CCC2C(C)C(OCCOc3ccc(C#N)cc3)OC3OC4(C)CCC1C32OO4

>  <smiles>  (347) 
[H]c1c([H])c(OC([H])([H])C([H])([H])OC2([H])OC3([H])OC4(C([H])([H])[H])OOC35C([H])(C([H])([H])C([H])([H])C([H])(C([H])([H])[H])C5([H])C([H])([H])C4([H])[H])C2([H])C([H])([H])[H])c([H])c([H])c1C#N

$$$$
99:0:2
     RDKit          3D

 62 66  0  0  1  0  0  0  0  0999 V2000
    4.3538   -5.7522    8.4363 C   0  0  0  0  0  0  0  0  0  0  0  0
    3.7425   -4.5397    7.7035 C   0  0  2  0  0  0  0  0  0  0  0  0
    4.5023   -3.2530    8.1139 C   0  0  0  0  0  0  0  0  0  0  0  0
    3.7639   -1.9487    7.7620 C   0  0  0  0  0  0  0  0  0  0  0  0
    2.7768   -2.1814    6.6078 C   0  0  2  0  0  0  0  0  0  0  0  0
    2.1859   -0.9100    5.9637 C   0  0  1  0  0  0  0  0  0  0  0  0
    3.2390    0.1144    5.4899 C   0  0  0  0  0  0  0  0  0  0  0  0
    1.3475   -1.3756    4.7507 C   0  0  1  0  0  0  0  0  0  0  0  0
    2.1940   -1.9671    3.8157 O   0  0  0  0  0  0  0  0  0  0  0  0
    1.6688   -2.0880    2.5013 C   0  0  0  0  0  0  0  0  0  0  0  0
    2.5869   -3.0536    1.7437 C   0  0  0  0  0  0  0  0  0  0  0  0
    2.2109   -4.3664    2.1404 O   0  0  0  0  0  0  0  0  0  0  0  0
    3.0619   -5.4185    1.9054 C   0  0  0  0  0  0  0  0  0  0  0  0
    2.6726   -6.6682    2.4245 C   0  0  0  0  0  0  0  0  0  0  0  0
    3.4874   -7.8050    2.2587 C   0  0  0  0  0  0  0  0  0  0  0  0
    4.7067   -7.7038    1.5678 C   0  0  0  0  0  0  0  0  0  0  0  0
    5.5552   -8.8736    1.4063 C   0  0  0  0  0  0  0  0  0  0  0  0
    6.2331   -9.8013    1.2792 N   0  0  0  0  0  0  0  0  0  0  0  0
    5.1011   -6.4606    1.0360 C   0  0  0  0  0  0  0  0  0  0  0  0
    4.2867   -5.3228    1.1948 C   0  0  0  0  0  0  0  0  0  0  0  0
    0.3446   -2.2477    5.1992 O   0  0  0  0  0  0  0  0  0  0  0  0
    0.8040   -3.4460    5.7844 C   0  0  2  0  0  0  0  0  0  0  0  0
   -0.3093   -4.2343    6.0601 O   0  0  0  0  0  0  0  0  0  0  0  0
   -0.7543   -4.2850    7.4031 C   0  0  1  0  0  0  0  0  0  0  0  0
   -2.2822   -4.4604    7.3404 C   0  0  0  0  0  0  0  0  0  0  0  0
   -0.0880   -5.4928    8.0744 C   0  0  0  0  0  0  0  0  0  0  0  0
    1.3908   -5.6550    7.7153 C   0  0  0  0  0  0  0  0  0  0  0  0
    2.2021   -4.3575    7.8720 C   0  0  2  0  0  0  0  0  0  0  0  0
    1.6320   -3.1218    7.0714 C   0  0  1  0  0  0  0  0  0  0  0  0
    0.7830   -2.4110    7.9640 O   0  0  0  0  0  0  0  0  0  0  0  0
   -0.5808   -3.0720    8.1397 O   0  0  0  0  0  0  0  0  0  0  0  0
    4.1428   -5.7316    9.5063 H   0  0  0  0  0  0  0  0  0  0  0  0
    5.4385   -5.7651    8.3183 H   0  0  0  0  0  0  0  0  0  0  0  0
    3.9901   -6.6975    8.0322 H   0  0  0  0  0  0  0  0  0  0  0  0
    3.9285   -4.7130    6.6426 H   0  0  0  0  0  0  0  0  0  0  0  0
    4.7470   -3.2609    9.1784 H   0  0  0  0  0  0  0  0  0  0  0  0
    5.4590   -3.2532    7.5936 H   0  0  0  0  0  0  0  0  0  0  0  0
    3.2235   -1.5923    8.6405 H   0  0  0  0  0  0  0  0  0  0  0  0
    4.5026   -1.1835    7.5185 H   0  0  0  0  0  0  0  0  0  0  0  0
    3.3455   -2.6823    5.8221 H   0  0  0  0  0  0  0  0  0  0  0  0
    1.5093   -0.4071    6.6558 H   0  0  0  0  0  0  0  0  0  0  0  0
    3.9998   -0.3534    4.8628 H   0  0  0  0  0  0  0  0  0  0  0  0
    3.7449    0.5788    6.3359 H   0  0  0  0  0  0  0  0  0  0  0  0
    2.7833    0.9216    4.9132 H   0  0  0  0  0  0  0  0  0  0  0  0
    0.8644   -0.5115    4.2882 H   0  0  0  0  0  0  0  0  0  0  0  0
    0.6423   -2.4559    2.5183 H   0  0  0  0  0  0  0  0  0  0  0  0
    1.6524   -1.1126    2.0123 H   0  0  0  0  0  0  0  0  0  0  0  0
    2.4592   -2.9496    0.6656 H   0  0  0  0  0  0  0  0  0  0  0  0
    3.6256   -2.8241    1.9857 H   0  0  0  0  0  0  0  0  0  0  0  0
    1.7418   -6.7517    2.9668 H   0  0  0  0  0  0  0  0  0  0  0  0
    3.1722   -8.7494    2.6743 H   0  0  0  0  0  0  0  0  0  0  0  0
    6.0360   -6.3656    0.5070 H   0  0  0  0  0  0  0  0  0  0  0  0
    4.6176   -4.3876    0.7723 H   0  0  0  0  0  0  0  0  0  0  0  0
    1.4003   -3.9944    5.0496 H   0  0  0  0  0  0  0  0  0  0  0  0
   -2.7512   -3.6000    6.8636 H   0  0  0  0  0  0  0  0  0  0  0  0
   -2.7149   -4.5639    8.3369 H   0  0  0  0  0  0  0  0  0  0  0  0
   -2.5659   -5.3382    6.7602 H   0  0  0  0  0  0  0  0  0  0  0  0
   -0.2316   -5.4327    9.1519 H   0  0  0  0  0  0  0  0  0  0  0  0
   -0.5848   -6.4059    7.7522 H   0  0  0  0  0  0  0  0  0  0  0  0
    1.7856   -6.4299    8.3687 H   0  0  0  0  0  0  0  0  0  0  0  0
    1.5027   -6.0338    6.6993 H   0  0  0  0  0  0  0  0  0  0  0  0
    2.0912   -4.0954    8.9246 H   0  0  0  0  0  0  0  0  0  0  0  0
  1  2  1  0
  1 32  1  0
  1 33  1  0
  1 34  1  0
  2 28  1  0
  2  3  1  0
  2 35  1  6
  3  4  1  0
  3 36  1  0
  3 37  1  0
  4  5  1  0
  4 38  1  0
  4 39  1  0
  5 29  1  0
  5  6  1  0
  5 40  1  6
  6  7  1  0
  6  8  1  0
  6 41  1  1
  7 42  1  0
  7 43  1  0
  7 44  1  0
  8  9  1  0
  8 21  1  0
  8 45  1  6
  9 10  1  0
 10 11  1  0
 10 46  1  0
 10 47  1  0
 11 12  1  0
 11 48  1  0
 11 49  1  0
 12 13  1  0
 13 20  1  0
 13 14  2  0
 14 15  1  0
 14 50  1  0
 15 16  2  0
 15 51  1  0
 16 17  1  0
 16 19  1  0
 17 18  3  0
 19 20  2  0
 19 52  1  0
 20 53  1  0
 21 22  1  0
 22 29  1  0
 22 23  1  0
 22 54  1  6
 23 24  1  0
 24 31  1  0
 24 25  1  6
 24 26  1  0
 25 55  1  0
 25 56  1  0
 25 57  1  0
 26 27  1  0
 26 58  1  0
 26 59  1  0
 27 28  1  0
 27 60  1  0
 27 61  1  0
 28 29  1  0
 28 62  1  1
 29 30  1  1
 30 31  1  0
M  END
>  <i_m_ct_stereo_status>  (348) 
1

>  <s_m_source_file>  (348) 
/var/tmp/pbs.5083856.sched01/tmp_8dy8ti0/14002n04m3s.sdf

>  <i_m_source_file_index>  (348) 
4

>  <i_lp_mmshare_version>  (348) 
48012

>  <i_f3d_flags>  (348) 
0

>  <s_epik_input>  (348) 
W0NAXTEyM1tDQEBIXTRbQ0gyXVtDSDJdW0NAQEhdKFtDSDNdKVtDQEBIXTJbQ0gyXVtDSDJdW0NAQF0oW0NIM10pKE9PMylPW0NASF0xT1tDQEBIXShbQ0BASF00W0NIM10pT1tDSDJdW0NIMl1PYzVbY0hdW2NIXWMoQyNOKVtjSF1bY0hdNQ==

>  <s_epik_cmdline>  (348) 
J2VwaWtfcHl0aG9uJywgJy1waHQnLCAnMi4wJywgJy1waCcsICc3LjAnLCAnLXRuJywgJzgnLCAnLW1hJywgJzIwMCcsICctaW1hZScsICc8aW5maWxlLm1hZT4nLCAnLW9tYWUnLCAnPG91dGZpbGUubWFlPic=

>  <r_lp_tautomer_probability>  (348) 
1

>  <r_epik_Ionization_Penalty>  (348) 
1.15377e-13

>  <r_epik_Ionization_Penalty_Charging>  (348) 
0

>  <r_epik_Ionization_Penalty_Neutral>  (348) 
1.15377e-13

>  <r_epik_State_Penalty>  (348) 
-0

>  <r_epik_Charging_Adjusted_Penalty>  (348) 
0

>  <i_epik_Tot_Q>  (348) 
0

>  <i_epik_Tot_abs_Q>  (348) 
0

>  <s_epik_Chemistry_Notes>  (348) 
This compound contains an acetal/aminal-like group ( X-CH(R)-Y where X, Y are N, S, or O) that may be acid/base labile, releasing an aldehyde.

>  <s_lp_Force_Field>  (348) 
OPLS3e

>  <r_lp_Energy>  (348) 
51.3807

>  <b_lp_Chiralities_Consistent>  (348) 
1

>  <s_lp_Variant>  (348) 
99:0-1

>  <s_i_glide_gridfile>  (348) 
pfpi4k_grid

>  <i_i_glide_lignum>  (348) 
4

>  <i_i_glide_rotatable_bonds>  (348) 
6

>  <r_i_docking_score>  (348) 
-1.69729

>  <r_i_glide_ligand_efficiency>  (348) 
-0.0547512

>  <r_i_glide_ligand_efficiency_sa>  (348) 
-0.171994

>  <r_i_glide_ligand_efficiency_ln>  (348) 
-0.38279

>  <r_i_glide_gscore>  (348) 
-1.69729

>  <r_i_glide_lipo>  (348) 
-0.200702

>  <r_i_glide_hbond>  (348) 
-0.119408

>  <r_i_glide_metal>  (348) 
-0

>  <r_i_glide_rewards>  (348) 
-0.503292

>  <r_i_glide_evdw>  (348) 
-19.7737

>  <r_i_glide_ecoul>  (348) 
-2.66857

>  <r_i_glide_erotb>  (348) 
0.538637

>  <r_i_glide_esite>  (348) 
-0.0235538

>  <r_i_glide_emodel>  (348) 
-24.4543

>  <r_i_glide_energy>  (348) 
-22.4422

>  <r_i_glide_einternal>  (348) 
1.34817

>  <r_i_glide_intrahb_reward>  (348) 
-0

>  <i_i_glide_confnum>  (348) 
2

>  <i_i_glide_posenum>  (348) 
38

>  <r_i_glide_eff_state_penalty>  (348) 
0

>  <ligand_id>  (348) 
99

>  <original_smiles>  (348) 
CC1CCC2C(C)C(OCCOc3ccc(C#N)cc3)OC3OC4(C)CCC1C32OO4

>  <smiles>  (348) 
[H]c1c([H])c(OC([H])([H])C([H])([H])OC2([H])OC3([H])OC4(C([H])([H])[H])OOC35C([H])(C([H])([H])C([H])([H])C([H])(C([H])([H])[H])C5([H])C([H])([H])C4([H])[H])C2([H])C([H])([H])[H])c([H])c([H])c1C#N

$$$$
100:0:0
     RDKit          3D

 38 40  0  0  1  0  0  0  0  0999 V2000
    0.7652   -0.4743    6.3040 C   0  0  0  0  0  0  0  0  0  0  0  0
    1.4109   -1.7640    5.7671 C   0  0  0  0  0  0  0  0  0  0  0  0
    0.6029   -2.3891    4.6169 C   0  0  0  0  0  0  0  0  0  0  0  0
    0.6409   -1.5150    3.4862 O   0  0  0  0  0  0  0  0  0  0  0  0
    1.8106   -1.4721    2.7615 C   0  0  0  0  0  0  0  0  0  0  0  0
    2.4234   -0.2222    2.4936 C   0  0  0  0  0  0  0  0  0  0  0  0
    1.8246    1.0748    3.0023 C   0  0  0  0  0  0  0  0  0  0  0  0
    3.6363   -0.1694    1.7742 C   0  0  0  0  0  0  0  0  0  0  0  0
    4.2287   -1.3518    1.2966 C   0  0  0  0  0  0  0  0  0  0  0  0
    3.6324   -2.6123    1.5198 C   0  0  0  0  0  0  0  0  0  0  0  0
    2.4186   -2.6417    2.2620 C   0  0  0  0  0  0  0  0  0  0  0  0
    1.9846   -3.9493    2.3752 O   0  0  0  0  0  0  0  0  0  0  0  0
    2.8721   -4.7721    1.7165 C   0  0  0  0  0  0  0  0  0  0  0  0
    2.8486   -6.1724    1.5593 C   0  0  0  0  0  0  0  0  0  0  0  0
    1.7520   -7.0545    2.1636 C   0  0  0  0  0  0  0  0  0  0  0  0
    0.3495   -6.6561    1.6643 C   0  0  0  0  0  0  0  0  0  0  0  0
    0.2243   -6.2646    0.4833 O   0  0  0  0  0  0  0  0  0  0  0  0
   -0.5918   -6.6559    2.4836 O   0  0  0  0  0  0  0  0  0  0  0  0
    3.9294   -6.7491    0.8525 C   0  0  0  0  0  0  0  0  0  0  0  0
    4.9256   -5.8853    0.3380 C   0  0  0  0  0  0  0  0  0  0  0  0
    4.9417   -4.5416    0.4870 N   0  0  0  0  0  0  0  0  0  0  0  0
    3.9277   -3.9932    1.1644 C   0  0  0  0  0  0  0  0  0  0  0  0
    1.4009   -0.0310    7.0734 H   0  0  0  0  0  0  0  0  0  0  0  0
   -0.2196   -0.6795    6.7282 H   0  0  0  0  0  0  0  0  0  0  0  0
    0.6170    0.2621    5.5143 H   0  0  0  0  0  0  0  0  0  0  0  0
    2.4357   -1.5747    5.4325 H   0  0  0  0  0  0  0  0  0  0  0  0
    1.4960   -2.4974    6.5713 H   0  0  0  0  0  0  0  0  0  0  0  0
    0.9657   -3.3982    4.4218 H   0  0  0  0  0  0  0  0  0  0  0  0
   -0.4442   -2.5230    4.9060 H   0  0  0  0  0  0  0  0  0  0  0  0
    2.3487    1.9410    2.5876 H   0  0  0  0  0  0  0  0  0  0  0  0
    1.9523    1.1217    4.0836 H   0  0  0  0  0  0  0  0  0  0  0  0
    0.7629    1.1439    2.7375 H   0  0  0  0  0  0  0  0  0  0  0  0
    4.1085    0.7825    1.5953 H   0  0  0  0  0  0  0  0  0  0  0  0
    5.1492   -1.2996    0.7441 H   0  0  0  0  0  0  0  0  0  0  0  0
    1.9307   -8.0993    1.9100 H   0  0  0  0  0  0  0  0  0  0  0  0
    1.7779   -6.9775    3.2456 H   0  0  0  0  0  0  0  0  0  0  0  0
    3.9939   -7.8227    0.6933 H   0  0  0  0  0  0  0  0  0  0  0  0
    5.7647   -6.2712   -0.2215 H   0  0  0  0  0  0  0  0  0  0  0  0
  1  2  1  0
  1 23  1  0
  1 24  1  0
  1 25  1  0
  2  3  1  0
  2 26  1  0
  2 27  1  0
  3  4  1  0
  3 28  1  0
  3 29  1  0
  4  5  1  0
  5 11  2  0
  5  6  1  0
  6  7  1  0
  6  8  2  0
  7 30  1  0
  7 31  1  0
  7 32  1  0
  8  9  1  0
  8 33  1  0
  9 10  2  0
  9 34  1  0
 10 22  1  0
 10 11  1  0
 11 12  1  0
 12 13  1  0
 13 22  2  0
 13 14  1  0
 14 15  1  0
 14 19  2  0
 15 16  1  0
 15 35  1  0
 15 36  1  0
 16 17  2  0
 16 18  1  0
 19 20  1  0
 19 37  1  0
 20 21  2  0
 20 38  1  0
 21 22  1  0
M  CHG  1  18  -1
M  END
>  <i_m_ct_stereo_status>  (349) 
1

>  <s_m_source_file>  (349) 
/var/tmp/pbs.5083856.sched01/tmp_8dy8ti0/14002n04m3s.sdf

>  <i_m_source_file_index>  (349) 
5

>  <i_lp_mmshare_version>  (349) 
48012

>  <i_f3d_flags>  (349) 
0

>  <s_epik_input>  (349) 
W0NIM11bQ0gyXVtDSDJdT2MoYyhbQ0gzXSlbY0hdW2NIXTEpYyhjMTIpb2MzYzJuW2NIXVtjSF1jM1tDSDJdQyg9TylbT0hd

>  <s_epik_cmdline>  (349) 
J2VwaWtfcHl0aG9uJywgJy1waHQnLCAnMi4wJywgJy1waCcsICc3LjAnLCAnLXRuJywgJzgnLCAnLW1hJywgJzIwMCcsICctaW1hZScsICc8aW5maWxlLm1hZT4nLCAnLW9tYWUnLCAnPG91dGZpbGUubWFlPic=

>  <r_epik_Ionization_Penalty>  (349) 
0.000560309

>  <r_epik_Ionization_Penalty_Charging>  (349) 
0.000338014

>  <r_epik_Ionization_Penalty_Neutral>  (349) 
0.000222296

>  <r_epik_State_Penalty>  (349) 
0.000204833

>  <r_epik_Charging_Adjusted_Penalty>  (349) 
0.000542846

>  <i_epik_Tot_Q>  (349) 
-1

>  <i_epik_Tot_abs_Q>  (349) 
1

>  <s_lp_Force_Field>  (349) 
OPLS3e

>  <r_lp_Energy>  (349) 
29.1414

>  <b_lp_Chiralities_Consistent>  (349) 
1

>  <s_lp_Variant>  (349) 
100:0-1

>  <s_i_glide_gridfile>  (349) 
pfpi4k_grid

>  <i_i_glide_lignum>  (349) 
5

>  <i_i_glide_rotatable_bonds>  (349) 
5

>  <r_i_docking_score>  (349) 
-3.14692

>  <r_i_glide_ligand_efficiency>  (349) 
-0.143042

>  <r_i_glide_ligand_efficiency_sa>  (349) 
-0.400809

>  <r_i_glide_ligand_efficiency_ln>  (349) 
-0.769222

>  <r_i_glide_gscore>  (349) 
-3.14692

>  <r_i_glide_lipo>  (349) 
-0.285571

>  <r_i_glide_hbond>  (349) 
-0.435075

>  <r_i_glide_metal>  (349) 
-0

>  <r_i_glide_rewards>  (349) 
-1.37514

>  <r_i_glide_evdw>  (349) 
-17.1262

>  <r_i_glide_ecoul>  (349) 
-4.75599

>  <r_i_glide_erotb>  (349) 
0.618572

>  <r_i_glide_esite>  (349) 
-0.1

>  <r_i_glide_emodel>  (349) 
-27.6518

>  <r_i_glide_energy>  (349) 
-21.8822

>  <r_i_glide_einternal>  (349) 
3.51316

>  <r_i_glide_intrahb_reward>  (349) 
-0

>  <i_i_glide_confnum>  (349) 
4

>  <i_i_glide_posenum>  (349) 
15

>  <r_i_glide_eff_state_penalty>  (349) 
0

>  <ligand_id>  (349) 
100

>  <original_smiles>  (349) 
CCCOc1c(C)ccc2c1oc1c(CC(=O)O)ccnc12

>  <smiles>  (349) 
[H]c1nc2c(oc3c(OC([H])([H])C([H])([H])C([H])([H])[H])c(C([H])([H])[H])c([H])c([H])c32)c(C([H])([H])C(=O)[O-])c1[H]

$$$$
100:0:1
     RDKit          3D

 38 40  0  0  1  0  0  0  0  0999 V2000
    3.6431   -6.9261    0.9622 C   0  0  0  0  0  0  0  0  0  0  0  0
    2.2857   -7.3011    1.5530 C   0  0  0  0  0  0  0  0  0  0  0  0
    1.3290   -6.1160    1.7969 C   0  0  0  0  0  0  0  0  0  0  0  0
    0.0727   -6.5923    2.2938 O   0  0  0  0  0  0  0  0  0  0  0  0
    0.1125   -7.1310    3.5537 C   0  0  0  0  0  0  0  0  0  0  0  0
    0.0688   -8.5372    3.7269 C   0  0  0  0  0  0  0  0  0  0  0  0
   -0.0341   -9.5057    2.5596 C   0  0  0  0  0  0  0  0  0  0  0  0
    0.1600   -9.0648    5.0260 C   0  0  0  0  0  0  0  0  0  0  0  0
    0.2408   -8.2254    6.1514 C   0  0  0  0  0  0  0  0  0  0  0  0
    0.2442   -6.8156    6.0219 C   0  0  0  0  0  0  0  0  0  0  0  0
    0.1843   -6.2945    4.7028 C   0  0  0  0  0  0  0  0  0  0  0  0
    0.2128   -4.9066    4.7557 O   0  0  0  0  0  0  0  0  0  0  0  0
    0.2467   -4.5205    6.0928 C   0  0  0  0  0  0  0  0  0  0  0  0
    0.2813   -3.2290    6.6560 C   0  0  0  0  0  0  0  0  0  0  0  0
    0.3086   -1.9922    5.7749 C   0  0  0  0  0  0  0  0  0  0  0  0
   -0.9780   -1.1802    5.9965 C   0  0  0  0  0  0  0  0  0  0  0  0
   -1.9909   -1.4578    5.3216 O   0  0  0  0  0  0  0  0  0  0  0  0
   -0.9548   -0.2837    6.8712 O   0  0  0  0  0  0  0  0  0  0  0  0
    0.3566   -3.1527    8.0725 C   0  0  0  0  0  0  0  0  0  0  0  0
    0.3690   -4.3565    8.8031 C   0  0  0  0  0  0  0  0  0  0  0  0
    0.3209   -5.5951    8.2637 N   0  0  0  0  0  0  0  0  0  0  0  0
    0.2733   -5.6744    6.9218 C   0  0  0  0  0  0  0  0  0  0  0  0
    4.2255   -7.8360    0.8359 H   0  0  0  0  0  0  0  0  0  0  0  0
    4.1897   -6.2640    1.6363 H   0  0  0  0  0  0  0  0  0  0  0  0
    3.5451   -6.4500   -0.0144 H   0  0  0  0  0  0  0  0  0  0  0  0
    1.7693   -8.0016    0.9032 H   0  0  0  0  0  0  0  0  0  0  0  0
    2.4797   -7.8515    2.4706 H   0  0  0  0  0  0  0  0  0  0  0  0
    1.7716   -5.3612    2.4639 H   0  0  0  0  0  0  0  0  0  0  0  0
    1.1308   -5.6305    0.8349 H   0  0  0  0  0  0  0  0  0  0  0  0
   -0.2521  -10.5185    2.9159 H   0  0  0  0  0  0  0  0  0  0  0  0
    0.9124   -9.5516    2.0072 H   0  0  0  0  0  0  0  0  0  0  0  0
   -0.8385   -9.1998    1.8862 H   0  0  0  0  0  0  0  0  0  0  0  0
    0.1458  -10.1342    5.1732 H   0  0  0  0  0  0  0  0  0  0  0  0
    0.2722   -8.6583    7.1358 H   0  0  0  0  0  0  0  0  0  0  0  0
    1.1781   -1.3909    6.0329 H   0  0  0  0  0  0  0  0  0  0  0  0
    0.4032   -2.2421    4.7158 H   0  0  0  0  0  0  0  0  0  0  0  0
    0.4248   -2.1985    8.5857 H   0  0  0  0  0  0  0  0  0  0  0  0
    0.4410   -4.3520    9.8830 H   0  0  0  0  0  0  0  0  0  0  0  0
  1  2  1  0
  1 23  1  0
  1 24  1  0
  1 25  1  0
  2  3  1  0
  2 26  1  0
  2 27  1  0
  3  4  1  0
  3 28  1  0
  3 29  1  0
  4  5  1  0
  5 11  2  0
  5  6  1  0
  6  7  1  0
  6  8  2  0
  7 30  1  0
  7 31  1  0
  7 32  1  0
  8  9  1  0
  8 33  1  0
  9 10  2  0
  9 34  1  0
 10 22  1  0
 10 11  1  0
 11 12  1  0
 12 13  1  0
 13 22  2  0
 13 14  1  0
 14 15  1  0
 14 19  2  0
 15 16  1  0
 15 35  1  0
 15 36  1  0
 16 17  2  0
 16 18  1  0
 19 20  1  0
 19 37  1  0
 20 21  2  0
 20 38  1  0
 21 22  1  0
M  CHG  1  18  -1
M  END
>  <i_m_ct_stereo_status>  (350) 
1

>  <s_m_source_file>  (350) 
/var/tmp/pbs.5083856.sched01/tmp_8dy8ti0/14002n04m3s.sdf

>  <i_m_source_file_index>  (350) 
5

>  <i_lp_mmshare_version>  (350) 
48012

>  <i_f3d_flags>  (350) 
0

>  <s_epik_input>  (350) 
W0NIM11bQ0gyXVtDSDJdT2MoYyhbQ0gzXSlbY0hdW2NIXTEpYyhjMTIpb2MzYzJuW2NIXVtjSF1jM1tDSDJdQyg9TylbT0hd

>  <s_epik_cmdline>  (350) 
J2VwaWtfcHl0aG9uJywgJy1waHQnLCAnMi4wJywgJy1waCcsICc3LjAnLCAnLXRuJywgJzgnLCAnLW1hJywgJzIwMCcsICctaW1hZScsICc8aW5maWxlLm1hZT4nLCAnLW9tYWUnLCAnPG91dGZpbGUubWFlPic=

>  <r_epik_Ionization_Penalty>  (350) 
0.000560309

>  <r_epik_Ionization_Penalty_Charging>  (350) 
0.000338014

>  <r_epik_Ionization_Penalty_Neutral>  (350) 
0.000222296

>  <r_epik_State_Penalty>  (350) 
0.000204833

>  <r_epik_Charging_Adjusted_Penalty>  (350) 
0.000542846

>  <i_epik_Tot_Q>  (350) 
-1

>  <i_epik_Tot_abs_Q>  (350) 
1

>  <s_lp_Force_Field>  (350) 
OPLS3e

>  <r_lp_Energy>  (350) 
29.1414

>  <b_lp_Chiralities_Consistent>  (350) 
1

>  <s_lp_Variant>  (350) 
100:0-1

>  <s_i_glide_gridfile>  (350) 
pfpi4k_grid

>  <i_i_glide_lignum>  (350) 
5

>  <i_i_glide_rotatable_bonds>  (350) 
5

>  <r_i_docking_score>  (350) 
-2.78336

>  <r_i_glide_ligand_efficiency>  (350) 
-0.126516

>  <r_i_glide_ligand_efficiency_sa>  (350) 
-0.354504

>  <r_i_glide_ligand_efficiency_ln>  (350) 
-0.680355

>  <r_i_glide_gscore>  (350) 
-2.78336

>  <r_i_glide_lipo>  (350) 
-0.0765893

>  <r_i_glide_hbond>  (350) 
-0.257964

>  <r_i_glide_metal>  (350) 
-0

>  <r_i_glide_rewards>  (350) 
-1.37514

>  <r_i_glide_evdw>  (350) 
-17.8566

>  <r_i_glide_ecoul>  (350) 
-4.92259

>  <r_i_glide_erotb>  (350) 
0.618572

>  <r_i_glide_esite>  (350) 
-0.0610231

>  <r_i_glide_emodel>  (350) 
-26.5699

>  <r_i_glide_energy>  (350) 
-22.7792

>  <r_i_glide_einternal>  (350) 
4.93302

>  <r_i_glide_intrahb_reward>  (350) 
-0

>  <i_i_glide_confnum>  (350) 
4

>  <i_i_glide_posenum>  (350) 
3

>  <r_i_glide_eff_state_penalty>  (350) 
0

>  <ligand_id>  (350) 
100

>  <original_smiles>  (350) 
CCCOc1c(C)ccc2c1oc1c(CC(=O)O)ccnc12

>  <smiles>  (350) 
[H]c1nc2c(oc3c(OC([H])([H])C([H])([H])C([H])([H])[H])c(C([H])([H])[H])c([H])c([H])c32)c(C([H])([H])C(=O)[O-])c1[H]

$$$$
100:0:2
     RDKit          3D

 38 40  0  0  1  0  0  0  0  0999 V2000
    6.4113   -8.5361    1.9163 C   0  0  0  0  0  0  0  0  0  0  0  0
    4.9558   -8.1537    2.2049 C   0  0  0  0  0  0  0  0  0  0  0  0
    4.2089   -7.6986    0.9449 C   0  0  0  0  0  0  0  0  0  0  0  0
    2.8621   -7.3691    1.2931 O   0  0  0  0  0  0  0  0  0  0  0  0
    2.6497   -6.1487    1.8937 C   0  0  0  0  0  0  0  0  0  0  0  0
    1.9193   -6.0779    3.1019 C   0  0  0  0  0  0  0  0  0  0  0  0
    1.3852   -7.3352    3.7495 C   0  0  0  0  0  0  0  0  0  0  0  0
    1.7060   -4.8321    3.7328 C   0  0  0  0  0  0  0  0  0  0  0  0
    2.2063   -3.6491    3.1565 C   0  0  0  0  0  0  0  0  0  0  0  0
    2.9218   -3.6791    1.9424 C   0  0  0  0  0  0  0  0  0  0  0  0
    3.1177   -4.9463    1.3253 C   0  0  0  0  0  0  0  0  0  0  0  0
    3.8038   -4.7799    0.1390 O   0  0  0  0  0  0  0  0  0  0  0  0
    4.0903   -3.4376   -0.0145 C   0  0  0  0  0  0  0  0  0  0  0  0
    4.7907   -2.7908   -1.0467 C   0  0  0  0  0  0  0  0  0  0  0  0
    5.4042   -3.5705   -2.2043 C   0  0  0  0  0  0  0  0  0  0  0  0
    4.6646   -3.3114   -3.5198 C   0  0  0  0  0  0  0  0  0  0  0  0
    4.6136   -4.2604   -4.3286 O   0  0  0  0  0  0  0  0  0  0  0  0
    4.2199   -2.1660   -3.7700 O   0  0  0  0  0  0  0  0  0  0  0  0
    4.9389   -1.3902   -0.9273 C   0  0  0  0  0  0  0  0  0  0  0  0
    4.3523   -0.7447    0.1835 C   0  0  0  0  0  0  0  0  0  0  0  0
    3.6892   -1.3714    1.1821 N   0  0  0  0  0  0  0  0  0  0  0  0
    3.5566   -2.7006    1.0796 C   0  0  0  0  0  0  0  0  0  0  0  0
    6.9083   -8.8558    2.8312 H   0  0  0  0  0  0  0  0  0  0  0  0
    6.9707   -7.6922    1.5107 H   0  0  0  0  0  0  0  0  0  0  0  0
    6.4671   -9.3553    1.1990 H   0  0  0  0  0  0  0  0  0  0  0  0
    4.4307   -9.0024    2.6455 H   0  0  0  0  0  0  0  0  0  0  0  0
    4.9401   -7.3548    2.9495 H   0  0  0  0  0  0  0  0  0  0  0  0
    4.7611   -6.8870    0.4737 H   0  0  0  0  0  0  0  0  0  0  0  0
    4.1879   -8.4997    0.2048 H   0  0  0  0  0  0  0  0  0  0  0  0
    0.7639   -7.1028    4.6169 H   0  0  0  0  0  0  0  0  0  0  0  0
    2.2143   -7.9600    4.0880 H   0  0  0  0  0  0  0  0  0  0  0  0
    0.7829   -7.9092    3.0408 H   0  0  0  0  0  0  0  0  0  0  0  0
    1.1654   -4.7726    4.6674 H   0  0  0  0  0  0  0  0  0  0  0  0
    2.0435   -2.6975    3.6364 H   0  0  0  0  0  0  0  0  0  0  0  0
    6.4445   -3.2802   -2.3288 H   0  0  0  0  0  0  0  0  0  0  0  0
    5.4004   -4.6415   -1.9884 H   0  0  0  0  0  0  0  0  0  0  0  0
    5.4378   -0.8188   -1.6967 H   0  0  0  0  0  0  0  0  0  0  0  0
    4.4037    0.3318    0.2818 H   0  0  0  0  0  0  0  0  0  0  0  0
  1  2  1  0
  1 23  1  0
  1 24  1  0
  1 25  1  0
  2  3  1  0
  2 26  1  0
  2 27  1  0
  3  4  1  0
  3 28  1  0
  3 29  1  0
  4  5  1  0
  5 11  2  0
  5  6  1  0
  6  7  1  0
  6  8  2  0
  7 30  1  0
  7 31  1  0
  7 32  1  0
  8  9  1  0
  8 33  1  0
  9 10  2  0
  9 34  1  0
 10 22  1  0
 10 11  1  0
 11 12  1  0
 12 13  1  0
 13 22  2  0
 13 14  1  0
 14 15  1  0
 14 19  2  0
 15 16  1  0
 15 35  1  0
 15 36  1  0
 16 17  2  0
 16 18  1  0
 19 20  1  0
 19 37  1  0
 20 21  2  0
 20 38  1  0
 21 22  1  0
M  CHG  1  18  -1
M  END
>  <i_m_ct_stereo_status>  (351) 
1

>  <s_m_source_file>  (351) 
/var/tmp/pbs.5083856.sched01/tmp_8dy8ti0/14002n04m3s.sdf

>  <i_m_source_file_index>  (351) 
5

>  <i_lp_mmshare_version>  (351) 
48012

>  <i_f3d_flags>  (351) 
0

>  <s_epik_input>  (351) 
W0NIM11bQ0gyXVtDSDJdT2MoYyhbQ0gzXSlbY0hdW2NIXTEpYyhjMTIpb2MzYzJuW2NIXVtjSF1jM1tDSDJdQyg9TylbT0hd

>  <s_epik_cmdline>  (351) 
J2VwaWtfcHl0aG9uJywgJy1waHQnLCAnMi4wJywgJy1waCcsICc3LjAnLCAnLXRuJywgJzgnLCAnLW1hJywgJzIwMCcsICctaW1hZScsICc8aW5maWxlLm1hZT4nLCAnLW9tYWUnLCAnPG91dGZpbGUubWFlPic=

>  <r_epik_Ionization_Penalty>  (351) 
0.000560309

>  <r_epik_Ionization_Penalty_Charging>  (351) 
0.000338014

>  <r_epik_Ionization_Penalty_Neutral>  (351) 
0.000222296

>  <r_epik_State_Penalty>  (351) 
0.000204833

>  <r_epik_Charging_Adjusted_Penalty>  (351) 
0.000542846

>  <i_epik_Tot_Q>  (351) 
-1

>  <i_epik_Tot_abs_Q>  (351) 
1

>  <s_lp_Force_Field>  (351) 
OPLS3e

>  <r_lp_Energy>  (351) 
29.1414

>  <b_lp_Chiralities_Consistent>  (351) 
1

>  <s_lp_Variant>  (351) 
100:0-1

>  <s_i_glide_gridfile>  (351) 
pfpi4k_grid

>  <i_i_glide_lignum>  (351) 
5

>  <i_i_glide_rotatable_bonds>  (351) 
5

>  <r_i_docking_score>  (351) 
-2.68482

>  <r_i_glide_ligand_efficiency>  (351) 
-0.122037

>  <r_i_glide_ligand_efficiency_sa>  (351) 
-0.341953

>  <r_i_glide_ligand_efficiency_ln>  (351) 
-0.656268

>  <r_i_glide_gscore>  (351) 
-2.68482

>  <r_i_glide_lipo>  (351) 
-0.356289

>  <r_i_glide_hbond>  (351) 
-0.0205017

>  <r_i_glide_metal>  (351) 
-0

>  <r_i_glide_rewards>  (351) 
-1.70191

>  <r_i_glide_evdw>  (351) 
-22.9287

>  <r_i_glide_ecoul>  (351) 
-0.521706

>  <r_i_glide_erotb>  (351) 
0.618572

>  <r_i_glide_esite>  (351) 
0

>  <r_i_glide_emodel>  (351) 
-28.3869

>  <r_i_glide_energy>  (351) 
-23.4504

>  <r_i_glide_einternal>  (351) 
3.16223

>  <r_i_glide_intrahb_reward>  (351) 
-0

>  <i_i_glide_confnum>  (351) 
4

>  <i_i_glide_posenum>  (351) 
18

>  <r_i_glide_eff_state_penalty>  (351) 
0

>  <ligand_id>  (351) 
100

>  <original_smiles>  (351) 
CCCOc1c(C)ccc2c1oc1c(CC(=O)O)ccnc12

>  <smiles>  (351) 
[H]c1nc2c(oc3c(OC([H])([H])C([H])([H])C([H])([H])[H])c(C([H])([H])[H])c([H])c([H])c32)c(C([H])([H])C(=O)[O-])c1[H]

$$$$
102:0:0
     RDKit          3D

 85 89  0  0  1  0  0  0  0  0999 V2000
   -1.2597    1.7537    5.4806 C   0  0  0  0  0  0  0  0  0  0  0  0
   -1.6580    0.4529    5.0728 O   0  0  0  0  0  0  0  0  0  0  0  0
   -0.8491   -0.6013    5.5062 C   0  0  2  0  0  0  0  0  0  0  0  0
   -0.6114   -0.5508    6.8881 O   0  0  0  0  0  0  0  0  0  0  0  0
    0.7574   -0.7768    7.1884 C   0  0  1  0  0  0  0  0  0  0  0  0
    0.7967   -1.7529    8.4105 C   0  0  0  0  0  0  0  0  0  0  0  0
    1.4134   -1.2406    5.8661 C   0  0  1  0  0  0  0  0  0  0  0  0
    1.3179   -2.6490    5.7777 O   0  0  0  0  0  0  0  0  0  0  0  0
    2.4774   -3.3969    6.1329 C   0  0  2  0  0  0  0  0  0  0  0  0
    3.5214   -2.8690    7.1128 C   0  0  0  0  0  0  0  0  0  0  0  0
    4.5900   -3.3470    6.1285 C   0  0  0  0  0  0  0  0  0  0  0  0
    3.5068   -3.4506    5.0241 C   0  0  1  0  0  0  0  0  0  0  0  0
    3.5207   -4.7263    4.1589 C   0  0  2  0  0  0  0  0  0  0  0  0
    4.8773   -5.0097    3.5467 C   0  0  0  0  0  0  0  0  0  0  0  0
    4.6136   -5.6849    2.1892 C   0  0  1  0  0  0  0  0  0  0  0  0
    5.4939   -6.7735    1.9492 O   0  0  0  0  0  0  0  0  0  0  0  0
    6.7709   -6.6161    1.5180 C   0  0  0  0  0  0  0  0  0  0  0  0
    7.2482   -5.1724    1.3437 C   0  0  0  0  0  0  0  0  0  0  0  0
    7.5171   -7.5585    1.2796 O   0  0  0  0  0  0  0  0  0  0  0  0
    3.1073   -6.0490    2.1618 C   0  0  1  0  0  0  0  0  0  0  0  0
    2.6634   -5.9957    0.8290 O   0  0  0  0  0  0  0  0  0  0  0  0
    2.7372   -7.5000    2.6639 C   0  0  1  0  0  0  0  0  0  0  0  0
    3.5616   -8.1717    3.7857 C   0  0  0  0  0  0  0  0  0  0  0  0
    2.6283   -9.1776    4.4808 C   0  0  0  0  0  0  0  0  0  0  0  0
    1.2857   -9.1382    3.7225 C   0  0  0  0  0  0  0  0  0  0  0  0
    1.3140  -10.2506    2.6397 C   0  0  0  0  0  0  0  0  0  0  0  0
    0.0881   -9.4539    4.6377 C   0  0  0  0  0  0  0  0  0  0  0  0
    1.2629   -7.7092    3.0977 C   0  0  2  0  0  0  0  0  0  0  0  0
    0.3785   -7.6714    1.9980 O   0  0  0  0  0  0  0  0  0  0  0  0
    0.7607   -6.5598    4.0335 C   0  0  1  0  0  0  0  0  0  0  0  0
    1.3105   -6.6594    5.3480 O   0  0  0  0  0  0  0  0  0  0  0  0
    0.6208   -6.2846    6.4474 C   0  0  0  0  0  0  0  0  0  0  0  0
    1.4258   -6.5335    7.7219 C   0  0  0  0  0  0  0  0  0  0  0  0
   -0.4781   -5.7297    6.4630 O   0  0  0  0  0  0  0  0  0  0  0  0
    1.0440   -5.1725    3.4302 C   0  0  0  0  0  0  0  0  0  0  0  0
    2.5004   -4.8640    2.9891 C   0  0  1  0  0  0  0  0  0  0  0  0
    2.4931   -3.5620    2.1344 C   0  0  0  0  0  0  0  0  0  0  0  0
    0.5249   -0.5724    4.8430 C   0  0  1  0  0  0  0  0  0  0  0  0
    0.5289   -1.2686    3.6053 O   0  0  0  0  0  0  0  0  0  0  0  0
   -1.9504    2.4685    5.0354 H   0  0  0  0  0  0  0  0  0  0  0  0
   -0.2573    2.0544    5.1723 H   0  0  0  0  0  0  0  0  0  0  0  0
   -1.3222    1.8366    6.5664 H   0  0  0  0  0  0  0  0  0  0  0  0
   -1.3571   -1.5468    5.3202 H   0  0  0  0  0  0  0  0  0  0  0  0
    1.1999    0.1688    7.4570 H   0  0  0  0  0  0  0  0  0  0  0  0
    1.8105   -1.9295    8.7787 H   0  0  0  0  0  0  0  0  0  0  0  0
    0.3520   -2.7194    8.1839 H   0  0  0  0  0  0  0  0  0  0  0  0
    0.2259   -1.3471    9.2511 H   0  0  0  0  0  0  0  0  0  0  0  0
    2.4371   -0.8988    5.7133 H   0  0  0  0  0  0  0  0  0  0  0  0
    2.1945   -4.3843    6.4139 H   0  0  0  0  0  0  0  0  0  0  0  0
    3.5894   -1.7890    7.3152 H   0  0  0  0  0  0  0  0  0  0  0  0
    3.5210   -3.4853    8.0195 H   0  0  0  0  0  0  0  0  0  0  0  0
    5.3384   -2.5809    5.9169 H   0  0  0  0  0  0  0  0  0  0  0  0
    5.0214   -4.2913    6.3904 H   0  0  0  0  0  0  0  0  0  0  0  0
    3.5218   -2.5340    4.4065 H   0  0  0  0  0  0  0  0  0  0  0  0
    3.3320   -5.5602    4.8231 H   0  0  0  0  0  0  0  0  0  0  0  0
    5.4233   -4.0796    3.4015 H   0  0  0  0  0  0  0  0  0  0  0  0
    5.4621   -5.6463    4.2188 H   0  0  0  0  0  0  0  0  0  0  0  0
    4.7484   -4.9430    1.4015 H   0  0  0  0  0  0  0  0  0  0  0  0
    7.1930   -4.6304    2.2874 H   0  0  0  0  0  0  0  0  0  0  0  0
    6.6534   -4.6408    0.5977 H   0  0  0  0  0  0  0  0  0  0  0  0
    8.2929   -5.1391    1.0150 H   0  0  0  0  0  0  0  0  0  0  0  0
    3.0732   -5.2177    0.4120 H   0  0  0  0  0  0  0  0  0  0  0  0
    2.9160   -8.1409    1.8017 H   0  0  0  0  0  0  0  0  0  0  0  0
    4.4277   -8.6888    3.3695 H   0  0  0  0  0  0  0  0  0  0  0  0
    3.9558   -7.4978    4.5371 H   0  0  0  0  0  0  0  0  0  0  0  0
    3.0614  -10.1769    4.5071 H   0  0  0  0  0  0  0  0  0  0  0  0
    2.4902   -8.8820    5.5256 H   0  0  0  0  0  0  0  0  0  0  0  0
    0.3881  -10.2695    2.0682 H   0  0  0  0  0  0  0  0  0  0  0  0
    1.4118  -11.2301    3.1044 H   0  0  0  0  0  0  0  0  0  0  0  0
    2.1451  -10.1519    1.9435 H   0  0  0  0  0  0  0  0  0  0  0  0
   -0.8531   -9.3389    4.1015 H   0  0  0  0  0  0  0  0  0  0  0  0
    0.0405   -8.8297    5.5273 H   0  0  0  0  0  0  0  0  0  0  0  0
    0.1567  -10.4807    4.9951 H   0  0  0  0  0  0  0  0  0  0  0  0
    0.5673   -8.4430    1.4386 H   0  0  0  0  0  0  0  0  0  0  0  0
   -0.3221   -6.6734    4.1272 H   0  0  0  0  0  0  0  0  0  0  0  0
    1.5256   -7.5966    7.9253 H   0  0  0  0  0  0  0  0  0  0  0  0
    0.9554   -6.0451    8.5812 H   0  0  0  0  0  0  0  0  0  0  0  0
    2.4277   -6.1284    7.6008 H   0  0  0  0  0  0  0  0  0  0  0  0
    0.4241   -5.0989    2.5429 H   0  0  0  0  0  0  0  0  0  0  0  0
    0.6914   -4.3964    4.0961 H   0  0  0  0  0  0  0  0  0  0  0  0
    1.8917   -3.6481    1.2340 H   0  0  0  0  0  0  0  0  0  0  0  0
    3.4928   -3.2604    1.8135 H   0  0  0  0  0  0  0  0  0  0  0  0
    2.0825   -2.7477    2.7139 H   0  0  0  0  0  0  0  0  0  0  0  0
    0.8840    0.4362    4.6870 H   0  0  0  0  0  0  0  0  0  0  0  0
    0.4093   -2.1818    3.8025 H   0  0  0  0  0  0  0  0  0  0  0  0
  1  2  1  0
  1 40  1  0
  1 41  1  0
  1 42  1  0
  2  3  1  0
  3 38  1  0
  3  4  1  0
  3 43  1  1
  4  5  1  0
  5  6  1  0
  5  7  1  0
  5 44  1  1
  6 45  1  0
  6 46  1  0
  6 47  1  0
  7  8  1  0
  7 38  1  0
  7 48  1  1
  8  9  1  0
  9 12  1  0
  9 10  1  0
  9 49  1  1
 10 11  1  0
 10 50  1  0
 10 51  1  0
 11 12  1  0
 11 52  1  0
 11 53  1  0
 12 13  1  0
 12 54  1  6
 13 36  1  0
 13 14  1  0
 13 55  1  1
 14 15  1  0
 14 56  1  0
 14 57  1  0
 15 16  1  0
 15 20  1  0
 15 58  1  6
 16 17  1  0
 17 18  1  0
 17 19  2  0
 18 59  1  0
 18 60  1  0
 18 61  1  0
 20 36  1  0
 20 21  1  6
 20 22  1  0
 21 62  1  0
 22 28  1  0
 22 23  1  0
 22 63  1  6
 23 24  1  0
 23 64  1  0
 23 65  1  0
 24 25  1  0
 24 66  1  0
 24 67  1  0
 25 26  1  0
 25 27  1  0
 25 28  1  0
 26 68  1  0
 26 69  1  0
 26 70  1  0
 27 71  1  0
 27 72  1  0
 27 73  1  0
 28 29  1  6
 28 30  1  0
 29 74  1  0
 30 31  1  0
 30 35  1  0
 30 75  1  1
 31 32  1  0
 32 33  1  0
 32 34  2  0
 33 76  1  0
 33 77  1  0
 33 78  1  0
 35 36  1  0
 35 79  1  0
 35 80  1  0
 36 37  1  6
 37 81  1  0
 37 82  1  0
 37 83  1  0
 38 39  1  0
 38 84  1  6
 39 85  1  0
M  END
>  <i_m_ct_stereo_status>  (352) 
1

>  <s_m_source_file>  (352) 
/var/tmp/pbs.5083856.sched01/tmpox984v0f/145eadvgmfj.sdf

>  <i_m_source_file_index>  (352) 
2

>  <i_lp_mmshare_version>  (352) 
48012

>  <i_f3d_flags>  (352) 
0

>  <s_epik_input>  (352) 
W0NIM11PW0NAQEhdMU9bQ0BASF0oW0NIM10pW0NASF0oW0NASF0xW09IXSlPW0NAQEhdMltDSDJdW0NIMl1bQ0BIXTJbQ0BIXShbQ0gyXVtDQEhdM09DKD1PKVtDSDNdKVtDQF00KFtDSDNdKVtDSDJdW0NASF0oT0MoPU8pW0NIM10pW0NAQF0oW09IXSkoW0NASF01W0NAXTM0W09IXSlDKFtDSDNdKShbQ0gzXSlbQ0gyXVtDSDJdNQ==

>  <s_epik_cmdline>  (352) 
J2VwaWtfcHl0aG9uJywgJy1waHQnLCAnMi4wJywgJy1waCcsICc3LjAnLCAnLXRuJywgJzgnLCAnLW1hJywgJzIwMCcsICctaW1hZScsICc8aW5maWxlLm1hZT4nLCAnLW9tYWUnLCAnPG91dGZpbGUubWFlPic=

>  <r_lp_tautomer_probability>  (352) 
1

>  <r_epik_Ionization_Penalty>  (352) 
4.5593e-06

>  <r_epik_Ionization_Penalty_Charging>  (352) 
0

>  <r_epik_Ionization_Penalty_Neutral>  (352) 
4.5593e-06

>  <r_epik_State_Penalty>  (352) 
-0

>  <r_epik_Charging_Adjusted_Penalty>  (352) 
0

>  <i_epik_Tot_Q>  (352) 
0

>  <i_epik_Tot_abs_Q>  (352) 
0

>  <s_epik_Chemistry_Notes>  (352) 
This compound has an ester and may undergo hydrolysis at high or low pH. This compound contains an acetal/aminal-like group ( X-CH(R)-Y where X, Y are N, S, or O) that may be acid/base labile, releasing an aldehyde.

>  <s_lp_Force_Field>  (352) 
OPLS3e

>  <r_lp_Energy>  (352) 
44.2637

>  <b_lp_Chiralities_Consistent>  (352) 
1

>  <s_lp_Variant>  (352) 
102:0-1

>  <s_i_glide_gridfile>  (352) 
pfpi4k_grid

>  <i_i_glide_lignum>  (352) 
2

>  <i_i_glide_rotatable_bonds>  (352) 
11

>  <r_i_docking_score>  (352) 
-2.12228

>  <r_i_glide_ligand_efficiency>  (352) 
-0.0544174

>  <r_i_glide_ligand_efficiency_sa>  (352) 
-0.184541

>  <r_i_glide_ligand_efficiency_ln>  (352) 
-0.455076

>  <r_i_glide_gscore>  (352) 
-2.12228

>  <r_i_glide_lipo>  (352) 
-0.28363

>  <r_i_glide_hbond>  (352) 
-0.0429072

>  <r_i_glide_metal>  (352) 
-0

>  <r_i_glide_rewards>  (352) 
-0.116459

>  <r_i_glide_evdw>  (352) 
-24.3095

>  <r_i_glide_ecoul>  (352) 
-4.58003

>  <r_i_glide_erotb>  (352) 
0.263578

>  <r_i_glide_esite>  (352) 
-0.0403813

>  <r_i_glide_emodel>  (352) 
-24.2597

>  <r_i_glide_energy>  (352) 
-28.8895

>  <r_i_glide_einternal>  (352) 
14.4945

>  <r_i_glide_intrahb_reward>  (352) 
-0

>  <i_i_glide_confnum>  (352) 
1

>  <i_i_glide_posenum>  (352) 
31

>  <r_i_glide_eff_state_penalty>  (352) 
0

>  <ligand_id>  (352) 
102

>  <original_smiles>  (352) 
COC1OC(C)C(OC2CCC2C2CC(OC(C)=O)C3(O)C4CCC(C)(C)C4(O)C(OC(C)=O)CC23C)C1O

>  <smiles>  (352) 
[H]OC1([H])C([H])(OC([H])([H])[H])OC([H])(C([H])([H])[H])C1([H])OC1([H])C([H])([H])C([H])([H])C1([H])C1([H])C([H])([H])C([H])(OC(=O)C([H])([H])[H])C2(O[H])C3([H])C([H])([H])C([H])([H])C(C([H])([H])[H])(C([H])([H])[H])C3(O[H])C([H])(OC(=O)C([H])([H])[H])C([H])([H])C12C([H])([H])[H]

$$$$
102:0:1
     RDKit          3D

 85 89  0  0  1  0  0  0  0  0999 V2000
    0.1234    1.2672    1.7465 C   0  0  0  0  0  0  0  0  0  0  0  0
    0.5090    1.6187    3.0638 O   0  0  0  0  0  0  0  0  0  0  0  0
    0.8553    0.5220    3.8365 C   0  0  2  0  0  0  0  0  0  0  0  0
    0.8929    0.8728    5.2054 O   0  0  0  0  0  0  0  0  0  0  0  0
    2.0390    0.3274    5.8434 C   0  0  1  0  0  0  0  0  0  0  0  0
    1.6290   -0.3383    7.1791 C   0  0  0  0  0  0  0  0  0  0  0  0
    2.7334   -0.5780    4.8222 C   0  0  1  0  0  0  0  0  0  0  0  0
    2.1781   -1.8706    4.9256 O   0  0  0  0  0  0  0  0  0  0  0  0
    2.9799   -2.8605    5.5349 C   0  0  2  0  0  0  0  0  0  0  0  0
    4.0440   -2.4943    6.5624 C   0  0  0  0  0  0  0  0  0  0  0  0
    5.0058   -3.4143    5.8071 C   0  0  0  0  0  0  0  0  0  0  0  0
    4.0485   -3.4260    4.6118 C   0  0  1  0  0  0  0  0  0  0  0  0
    3.7518   -4.8009    3.9549 C   0  0  2  0  0  0  0  0  0  0  0  0
    5.0060   -5.4624    3.3662 C   0  0  0  0  0  0  0  0  0  0  0  0
    4.5352   -6.2710    2.1520 C   0  0  1  0  0  0  0  0  0  0  0  0
    5.1602   -7.5468    2.0565 O   0  0  0  0  0  0  0  0  0  0  0  0
    6.4262   -7.7305    1.6614 C   0  0  0  0  0  0  0  0  0  0  0  0
    7.2616   -6.4677    1.4223 C   0  0  0  0  0  0  0  0  0  0  0  0
    6.9296   -8.8507    1.5059 O   0  0  0  0  0  0  0  0  0  0  0  0
    2.9805   -6.3064    2.2022 C   0  0  1  0  0  0  0  0  0  0  0  0
    2.4904   -6.3516    0.8819 O   0  0  0  0  0  0  0  0  0  0  0  0
    2.3345   -7.5276    2.9410 C   0  0  1  0  0  0  0  0  0  0  0  0
    3.0606   -8.1789    4.1413 C   0  0  0  0  0  0  0  0  0  0  0  0
    1.9675   -8.8314    5.0077 C   0  0  0  0  0  0  0  0  0  0  0  0
    0.6235   -8.6224    4.2794 C   0  0  0  0  0  0  0  0  0  0  0  0
    0.3583   -9.8528    3.3847 C   0  0  0  0  0  0  0  0  0  0  0  0
   -0.5618   -8.5186    5.2573 C   0  0  0  0  0  0  0  0  0  0  0  0
    0.8794   -7.3335    3.4394 C   0  0  2  0  0  0  0  0  0  0  0  0
   -0.0426   -7.2743    2.3625 O   0  0  0  0  0  0  0  0  0  0  0  0
    0.6929   -5.9774    4.1809 C   0  0  1  0  0  0  0  0  0  0  0  0
    1.2835   -5.9713    5.4814 O   0  0  0  0  0  0  0  0  0  0  0  0
    0.6902   -5.4044    6.5557 C   0  0  0  0  0  0  0  0  0  0  0  0
    1.5311   -5.5753    7.8179 C   0  0  0  0  0  0  0  0  0  0  0  0
   -0.3984   -4.8281    6.5664 O   0  0  0  0  0  0  0  0  0  0  0  0
    1.2311   -4.8179    3.3238 C   0  0  0  0  0  0  0  0  0  0  0  0
    2.6766   -4.9320    2.8280 C   0  0  1  0  0  0  0  0  0  0  0  0
    2.8926   -3.7934    1.7953 C   0  0  0  0  0  0  0  0  0  0  0  0
    2.2887    0.0727    3.5088 C   0  0  1  0  0  0  0  0  0  0  0  0
    2.4242   -0.7185    2.3384 O   0  0  0  0  0  0  0  0  0  0  0  0
   -0.1277    2.1375    1.1806 H   0  0  0  0  0  0  0  0  0  0  0  0
   -0.7525    0.6321    1.7696 H   0  0  0  0  0  0  0  0  0  0  0  0
    0.8953    0.7731    1.1588 H   0  0  0  0  0  0  0  0  0  0  0  0
    0.1287   -0.2545    3.7852 H   0  0  0  0  0  0  0  0  0  0  0  0
    2.7308    1.1286    6.0390 H   0  0  0  0  0  0  0  0  0  0  0  0
    2.4794   -0.7403    7.7450 H   0  0  0  0  0  0  0  0  0  0  0  0
    0.9229   -1.1676    7.0549 H   0  0  0  0  0  0  0  0  0  0  0  0
    1.1452    0.3692    7.8711 H   0  0  0  0  0  0  0  0  0  0  0  0
    3.8272   -0.6146    4.9258 H   0  0  0  0  0  0  0  0  0  0  0  0
    2.3692   -3.6747    5.9292 H   0  0  0  0  0  0  0  0  0  0  0  0
    4.3575   -1.4541    6.5061 H   0  0  0  0  0  0  0  0  0  0  0  0
    3.8069   -2.8885    7.5605 H   0  0  0  0  0  0  0  0  0  0  0  0
    5.9626   -2.9530    5.6012 H   0  0  0  0  0  0  0  0  0  0  0  0
    5.1231   -4.3970    6.2786 H   0  0  0  0  0  0  0  0  0  0  0  0
    4.3585   -2.6973    3.8785 H   0  0  0  0  0  0  0  0  0  0  0  0
    3.4478   -5.4837    4.7522 H   0  0  0  0  0  0  0  0  0  0  0  0
    5.7149   -4.6886    3.0739 H   0  0  0  0  0  0  0  0  0  0  0  0
    5.4799   -6.0769    4.1326 H   0  0  0  0  0  0  0  0  0  0  0  0
    4.7734   -5.7069    1.2519 H   0  0  0  0  0  0  0  0  0  0  0  0
    7.3357   -5.8761    2.3462 H   0  0  0  0  0  0  0  0  0  0  0  0
    6.8197   -5.8318    0.6425 H   0  0  0  0  0  0  0  0  0  0  0  0
    8.2875   -6.7113    1.1026 H   0  0  0  0  0  0  0  0  0  0  0  0
    3.0167   -5.7365    0.3590 H   0  0  0  0  0  0  0  0  0  0  0  0
    2.3241   -8.3306    2.1893 H   0  0  0  0  0  0  0  0  0  0  0  0
    3.7732   -8.9279    3.7986 H   0  0  0  0  0  0  0  0  0  0  0  0
    3.6270   -7.4951    4.7624 H   0  0  0  0  0  0  0  0  0  0  0  0
    2.1813   -9.8829    5.1866 H   0  0  0  0  0  0  0  0  0  0  0  0
    1.9580   -8.3487    5.9949 H   0  0  0  0  0  0  0  0  0  0  0  0
   -0.5753   -9.7636    2.8265 H   0  0  0  0  0  0  0  0  0  0  0  0
    0.2589  -10.7463    4.0048 H   0  0  0  0  0  0  0  0  0  0  0  0
    1.1569  -10.0564    2.6725 H   0  0  0  0  0  0  0  0  0  0  0  0
   -1.4866   -8.2793    4.7361 H   0  0  0  0  0  0  0  0  0  0  0  0
   -0.4054   -7.7779    6.0344 H   0  0  0  0  0  0  0  0  0  0  0  0
   -0.6910   -9.4620    5.7769 H   0  0  0  0  0  0  0  0  0  0  0  0
    0.0616   -8.0774    1.8581 H   0  0  0  0  0  0  0  0  0  0  0  0
   -0.3867   -5.8231    4.3162 H   0  0  0  0  0  0  0  0  0  0  0  0
    1.6138   -6.6270    8.0961 H   0  0  0  0  0  0  0  0  0  0  0  0
    1.1023   -5.0166    8.6503 H   0  0  0  0  0  0  0  0  0  0  0  0
    2.5368   -5.2036    7.6312 H   0  0  0  0  0  0  0  0  0  0  0  0
    0.5648   -4.7336    2.4681 H   0  0  0  0  0  0  0  0  0  0  0  0
    1.0867   -3.8840    3.8764 H   0  0  0  0  0  0  0  0  0  0  0  0
    2.2556   -3.8925    0.9058 H   0  0  0  0  0  0  0  0  0  0  0  0
    3.9304   -3.7532    1.4055 H   0  0  0  0  0  0  0  0  0  0  0  0
    2.6469   -2.9210    2.3526 H   0  0  0  0  0  0  0  0  0  0  0  0
    2.8614    1.0050    3.3577 H   0  0  0  0  0  0  0  0  0  0  0  0
    1.8909   -0.3275    1.7021 H   0  0  0  0  0  0  0  0  0  0  0  0
  1  2  1  0
  1 40  1  0
  1 41  1  0
  1 42  1  0
  2  3  1  0
  3 38  1  0
  3  4  1  0
  3 43  1  1
  4  5  1  0
  5  6  1  0
  5  7  1  0
  5 44  1  1
  6 45  1  0
  6 46  1  0
  6 47  1  0
  7  8  1  0
  7 38  1  0
  7 48  1  1
  8  9  1  0
  9 12  1  0
  9 10  1  0
  9 49  1  1
 10 11  1  0
 10 50  1  0
 10 51  1  0
 11 12  1  0
 11 52  1  0
 11 53  1  0
 12 13  1  0
 12 54  1  6
 13 36  1  0
 13 14  1  0
 13 55  1  1
 14 15  1  0
 14 56  1  0
 14 57  1  0
 15 16  1  0
 15 20  1  0
 15 58  1  6
 16 17  1  0
 17 18  1  0
 17 19  2  0
 18 59  1  0
 18 60  1  0
 18 61  1  0
 20 36  1  0
 20 21  1  6
 20 22  1  0
 21 62  1  0
 22 28  1  0
 22 23  1  0
 22 63  1  6
 23 24  1  0
 23 64  1  0
 23 65  1  0
 24 25  1  0
 24 66  1  0
 24 67  1  0
 25 26  1  0
 25 27  1  0
 25 28  1  0
 26 68  1  0
 26 69  1  0
 26 70  1  0
 27 71  1  0
 27 72  1  0
 27 73  1  0
 28 29  1  6
 28 30  1  0
 29 74  1  0
 30 31  1  0
 30 35  1  0
 30 75  1  1
 31 32  1  0
 32 33  1  0
 32 34  2  0
 33 76  1  0
 33 77  1  0
 33 78  1  0
 35 36  1  0
 35 79  1  0
 35 80  1  0
 36 37  1  6
 37 81  1  0
 37 82  1  0
 37 83  1  0
 38 39  1  0
 38 84  1  6
 39 85  1  0
M  END
>  <i_m_ct_stereo_status>  (353) 
1

>  <s_m_source_file>  (353) 
/var/tmp/pbs.5083856.sched01/tmpox984v0f/145eadvgmfj.sdf

>  <i_m_source_file_index>  (353) 
2

>  <i_lp_mmshare_version>  (353) 
48012

>  <i_f3d_flags>  (353) 
0

>  <s_epik_input>  (353) 
W0NIM11PW0NAQEhdMU9bQ0BASF0oW0NIM10pW0NASF0oW0NASF0xW09IXSlPW0NAQEhdMltDSDJdW0NIMl1bQ0BIXTJbQ0BIXShbQ0gyXVtDQEhdM09DKD1PKVtDSDNdKVtDQF00KFtDSDNdKVtDSDJdW0NASF0oT0MoPU8pW0NIM10pW0NAQF0oW09IXSkoW0NASF01W0NAXTM0W09IXSlDKFtDSDNdKShbQ0gzXSlbQ0gyXVtDSDJdNQ==

>  <s_epik_cmdline>  (353) 
J2VwaWtfcHl0aG9uJywgJy1waHQnLCAnMi4wJywgJy1waCcsICc3LjAnLCAnLXRuJywgJzgnLCAnLW1hJywgJzIwMCcsICctaW1hZScsICc8aW5maWxlLm1hZT4nLCAnLW9tYWUnLCAnPG91dGZpbGUubWFlPic=

>  <r_lp_tautomer_probability>  (353) 
1

>  <r_epik_Ionization_Penalty>  (353) 
4.5593e-06

>  <r_epik_Ionization_Penalty_Charging>  (353) 
0

>  <r_epik_Ionization_Penalty_Neutral>  (353) 
4.5593e-06

>  <r_epik_State_Penalty>  (353) 
-0

>  <r_epik_Charging_Adjusted_Penalty>  (353) 
0

>  <i_epik_Tot_Q>  (353) 
0

>  <i_epik_Tot_abs_Q>  (353) 
0

>  <s_epik_Chemistry_Notes>  (353) 
This compound has an ester and may undergo hydrolysis at high or low pH. This compound contains an acetal/aminal-like group ( X-CH(R)-Y where X, Y are N, S, or O) that may be acid/base labile, releasing an aldehyde.

>  <s_lp_Force_Field>  (353) 
OPLS3e

>  <r_lp_Energy>  (353) 
44.2637

>  <b_lp_Chiralities_Consistent>  (353) 
1

>  <s_lp_Variant>  (353) 
102:0-1

>  <s_i_glide_gridfile>  (353) 
pfpi4k_grid

>  <i_i_glide_lignum>  (353) 
2

>  <i_i_glide_rotatable_bonds>  (353) 
11

>  <r_i_docking_score>  (353) 
-2.02301

>  <r_i_glide_ligand_efficiency>  (353) 
-0.0518721

>  <r_i_glide_ligand_efficiency_sa>  (353) 
-0.175909

>  <r_i_glide_ligand_efficiency_ln>  (353) 
-0.433792

>  <r_i_glide_gscore>  (353) 
-2.02301

>  <r_i_glide_lipo>  (353) 
-0.0787766

>  <r_i_glide_hbond>  (353) 
0

>  <r_i_glide_metal>  (353) 
-0

>  <r_i_glide_rewards>  (353) 
-0.13228

>  <r_i_glide_evdw>  (353) 
-25.0505

>  <r_i_glide_ecoul>  (353) 
-5.55782

>  <r_i_glide_erotb>  (353) 
0.263578

>  <r_i_glide_esite>  (353) 
-0.0116094

>  <r_i_glide_emodel>  (353) 
-23.3506

>  <r_i_glide_energy>  (353) 
-30.6083

>  <r_i_glide_einternal>  (353) 
15.2537

>  <r_i_glide_intrahb_reward>  (353) 
-0

>  <i_i_glide_confnum>  (353) 
1

>  <i_i_glide_posenum>  (353) 
2

>  <r_i_glide_eff_state_penalty>  (353) 
0

>  <ligand_id>  (353) 
102

>  <original_smiles>  (353) 
COC1OC(C)C(OC2CCC2C2CC(OC(C)=O)C3(O)C4CCC(C)(C)C4(O)C(OC(C)=O)CC23C)C1O

>  <smiles>  (353) 
[H]OC1([H])C([H])(OC([H])([H])[H])OC([H])(C([H])([H])[H])C1([H])OC1([H])C([H])([H])C([H])([H])C1([H])C1([H])C([H])([H])C([H])(OC(=O)C([H])([H])[H])C2(O[H])C3([H])C([H])([H])C([H])([H])C(C([H])([H])[H])(C([H])([H])[H])C3(O[H])C([H])(OC(=O)C([H])([H])[H])C([H])([H])C12C([H])([H])[H]

$$$$
102:0:2
     RDKit          3D

 85 89  0  0  1  0  0  0  0  0999 V2000
    2.0299    2.8984    2.8830 C   0  0  0  0  0  0  0  0  0  0  0  0
    1.2909    1.7132    2.5671 O   0  0  0  0  0  0  0  0  0  0  0  0
    1.4757    0.6457    3.4642 C   0  0  2  0  0  0  0  0  0  0  0  0
    1.2726    1.0448    4.7944 O   0  0  0  0  0  0  0  0  0  0  0  0
    2.3025    0.4838    5.6160 C   0  0  1  0  0  0  0  0  0  0  0  0
    1.6799   -0.0776    6.9183 C   0  0  0  0  0  0  0  0  0  0  0  0
    3.0769   -0.5267    4.7368 C   0  0  1  0  0  0  0  0  0  0  0  0
    2.3781   -1.7469    4.8462 O   0  0  0  0  0  0  0  0  0  0  0  0
    3.0804   -2.7947    5.4947 C   0  0  2  0  0  0  0  0  0  0  0  0
    4.1315   -2.5345    6.5856 C   0  0  0  0  0  0  0  0  0  0  0  0
    5.0450   -3.5022    5.8266 C   0  0  0  0  0  0  0  0  0  0  0  0
    4.1266   -3.4522    4.5908 C   0  0  1  0  0  0  0  0  0  0  0  0
    3.7685   -4.7943    3.9228 C   0  0  2  0  0  0  0  0  0  0  0  0
    4.9595   -5.5259    3.3248 C   0  0  0  0  0  0  0  0  0  0  0  0
    4.4278   -6.3134    2.1010 C   0  0  1  0  0  0  0  0  0  0  0  0
    4.9527   -7.6236    2.0044 O   0  0  0  0  0  0  0  0  0  0  0  0
    6.2371   -7.9081    1.6649 C   0  0  0  0  0  0  0  0  0  0  0  0
    7.1625   -6.6605    1.5369 C   0  0  0  0  0  0  0  0  0  0  0  0
    6.6451   -9.0236    1.5004 O   0  0  0  0  0  0  0  0  0  0  0  0
    2.8805   -6.2496    2.1664 C   0  0  1  0  0  0  0  0  0  0  0  0
    2.3681   -6.2642    0.8312 O   0  0  0  0  0  0  0  0  0  0  0  0
    2.1610   -7.4323    2.9167 C   0  0  1  0  0  0  0  0  0  0  0  0
    2.8592   -8.1348    4.1057 C   0  0  0  0  0  0  0  0  0  0  0  0
    1.7358   -8.7139    4.9694 C   0  0  0  0  0  0  0  0  0  0  0  0
    0.3991   -8.4170    4.2510 C   0  0  0  0  0  0  0  0  0  0  0  0
    0.0431   -9.6260    3.3506 C   0  0  0  0  0  0  0  0  0  0  0  0
   -0.7656   -8.2452    5.2392 C   0  0  0  0  0  0  0  0  0  0  0  0
    0.7228   -7.1415    3.4210 C   0  0  2  0  0  0  0  0  0  0  0  0
   -0.2002   -7.0121    2.3450 O   0  0  0  0  0  0  0  0  0  0  0  0
    0.6298   -5.7891    4.1859 C   0  0  1  0  0  0  0  0  0  0  0  0
    1.2370   -5.8403    5.4734 O   0  0  0  0  0  0  0  0  0  0  0  0
    0.6966   -5.2160    6.5472 C   0  0  0  0  0  0  0  0  0  0  0  0
    1.5381   -5.4727    7.8017 C   0  0  0  0  0  0  0  0  0  0  0  0
   -0.3362   -4.5694    6.5738 O   0  0  0  0  0  0  0  0  0  0  0  0
    1.2535   -4.6490    3.3505 C   0  0  0  0  0  0  0  0  0  0  0  0
    2.6838   -4.8391    2.7974 C   0  0  1  0  0  0  0  0  0  0  0  0
    2.9034   -3.7107    1.7659 C   0  0  0  0  0  0  0  0  0  0  0  0
    2.9334    0.0568    3.3666 C   0  0  1  0  0  0  0  0  0  0  0  0
    3.1774   -0.7570    2.2388 O   0  0  0  0  0  0  0  0  0  0  0  0
    1.8554    3.6310    2.0997 H   0  0  0  0  0  0  0  0  0  0  0  0
    3.1190    2.7792    2.9456 H   0  0  0  0  0  0  0  0  0  0  0  0
    1.6838    3.2997    3.8402 H   0  0  0  0  0  0  0  0  0  0  0  0
    0.6988   -0.1122    3.2689 H   0  0  0  0  0  0  0  0  0  0  0  0
    3.0252    1.2627    5.8830 H   0  0  0  0  0  0  0  0  0  0  0  0
    2.4289   -0.5280    7.5775 H   0  0  0  0  0  0  0  0  0  0  0  0
    0.9345   -0.8492    6.6994 H   0  0  0  0  0  0  0  0  0  0  0  0
    1.1611    0.7005    7.4889 H   0  0  0  0  0  0  0  0  0  0  0  0
    4.1247   -0.6257    4.9487 H   0  0  0  0  0  0  0  0  0  0  0  0
    2.4054   -3.5720    5.8331 H   0  0  0  0  0  0  0  0  0  0  0  0
    4.5438   -1.5121    6.5893 H   0  0  0  0  0  0  0  0  0  0  0  0
    3.8142   -2.9229    7.5629 H   0  0  0  0  0  0  0  0  0  0  0  0
    6.0492   -3.1338    5.6472 H   0  0  0  0  0  0  0  0  0  0  0  0
    5.0631   -4.5033    6.2718 H   0  0  0  0  0  0  0  0  0  0  0  0
    4.5149   -2.7182    3.8605 H   0  0  0  0  0  0  0  0  0  0  0  0
    3.4284   -5.4479    4.7320 H   0  0  0  0  0  0  0  0  0  0  0  0
    5.7231   -4.8051    3.0318 H   0  0  0  0  0  0  0  0  0  0  0  0
    5.3936   -6.1848    4.0744 H   0  0  0  0  0  0  0  0  0  0  0  0
    4.7079   -5.7528    1.2098 H   0  0  0  0  0  0  0  0  0  0  0  0
    7.2118   -6.1385    2.4971 H   0  0  0  0  0  0  0  0  0  0  0  0
    6.7790   -5.9761    0.7745 H   0  0  0  0  0  0  0  0  0  0  0  0
    8.1791   -6.9618    1.2585 H   0  0  0  0  0  0  0  0  0  0  0  0
    2.9433   -5.7133    0.3291 H   0  0  0  0  0  0  0  0  0  0  0  0
    2.1017   -8.2122    2.1523 H   0  0  0  0  0  0  0  0  0  0  0  0
    3.5147   -8.9184    3.7389 H   0  0  0  0  0  0  0  0  0  0  0  0
    3.4763   -7.4794    4.7091 H   0  0  0  0  0  0  0  0  0  0  0  0
    1.8810   -9.7768    5.1431 H   0  0  0  0  0  0  0  0  0  0  0  0
    1.7634   -8.2434    5.9498 H   0  0  0  0  0  0  0  0  0  0  0  0
   -0.8890   -9.4716    2.8058 H   0  0  0  0  0  0  0  0  0  0  0  0
   -0.1075  -10.5153    3.9626 H   0  0  0  0  0  0  0  0  0  0  0  0
    0.8193   -9.8753    2.6270 H   0  0  0  0  0  0  0  0  0  0  0  0
   -1.6805   -7.9381    4.7299 H   0  0  0  0  0  0  0  0  0  0  0  0
   -0.5558   -7.5225    6.0175 H   0  0  0  0  0  0  0  0  0  0  0  0
   -0.9686   -9.1785    5.7602 H   0  0  0  0  0  0  0  0  0  0  0  0
   -0.1595   -7.8088    1.8432 H   0  0  0  0  0  0  0  0  0  0  0  0
   -0.4289   -5.5556    4.3215 H   0  0  0  0  0  0  0  0  0  0  0  0
    1.5449   -6.5317    8.0683 H   0  0  0  0  0  0  0  0  0  0  0  0
    1.1518   -4.8925    8.6388 H   0  0  0  0  0  0  0  0  0  0  0  0
    2.5617   -5.1664    7.6102 H   0  0  0  0  0  0  0  0  0  0  0  0
    0.6254   -4.5200    2.4816 H   0  0  0  0  0  0  0  0  0  0  0  0
    1.1367   -3.7080    3.8720 H   0  0  0  0  0  0  0  0  0  0  0  0
    2.2806   -3.8159    0.8694 H   0  0  0  0  0  0  0  0  0  0  0  0
    3.9398   -3.6635    1.4317 H   0  0  0  0  0  0  0  0  0  0  0  0
    2.6057   -2.8511    2.3272 H   0  0  0  0  0  0  0  0  0  0  0  0
    3.6015    0.9047    3.3522 H   0  0  0  0  0  0  0  0  0  0  0  0
    2.5651   -0.4767    1.5810 H   0  0  0  0  0  0  0  0  0  0  0  0
  1  2  1  0
  1 40  1  0
  1 41  1  0
  1 42  1  0
  2  3  1  0
  3 38  1  0
  3  4  1  0
  3 43  1  6
  4  5  1  0
  5  6  1  0
  5  7  1  0
  5 44  1  1
  6 45  1  0
  6 46  1  0
  6 47  1  0
  7  8  1  0
  7 38  1  0
  7 48  1  1
  8  9  1  0
  9 12  1  0
  9 10  1  0
  9 49  1  1
 10 11  1  0
 10 50  1  0
 10 51  1  0
 11 12  1  0
 11 52  1  0
 11 53  1  0
 12 13  1  0
 12 54  1  6
 13 36  1  0
 13 14  1  0
 13 55  1  1
 14 15  1  0
 14 56  1  0
 14 57  1  0
 15 16  1  0
 15 20  1  0
 15 58  1  6
 16 17  1  0
 17 18  1  0
 17 19  2  0
 18 59  1  0
 18 60  1  0
 18 61  1  0
 20 36  1  0
 20 21  1  6
 20 22  1  0
 21 62  1  0
 22 28  1  0
 22 23  1  0
 22 63  1  6
 23 24  1  0
 23 64  1  0
 23 65  1  0
 24 25  1  0
 24 66  1  0
 24 67  1  0
 25 26  1  0
 25 27  1  0
 25 28  1  0
 26 68  1  0
 26 69  1  0
 26 70  1  0
 27 71  1  0
 27 72  1  0
 27 73  1  0
 28 29  1  6
 28 30  1  0
 29 74  1  0
 30 31  1  0
 30 35  1  0
 30 75  1  1
 31 32  1  0
 32 33  1  0
 32 34  2  0
 33 76  1  0
 33 77  1  0
 33 78  1  0
 35 36  1  0
 35 79  1  0
 35 80  1  0
 36 37  1  6
 37 81  1  0
 37 82  1  0
 37 83  1  0
 38 39  1  0
 38 84  1  1
 39 85  1  0
M  END
>  <i_m_ct_stereo_status>  (354) 
1

>  <s_m_source_file>  (354) 
/var/tmp/pbs.5083856.sched01/tmpox984v0f/145eadvgmfj.sdf

>  <i_m_source_file_index>  (354) 
2

>  <i_lp_mmshare_version>  (354) 
48012

>  <i_f3d_flags>  (354) 
0

>  <s_epik_input>  (354) 
W0NIM11PW0NAQEhdMU9bQ0BASF0oW0NIM10pW0NASF0oW0NASF0xW09IXSlPW0NAQEhdMltDSDJdW0NIMl1bQ0BIXTJbQ0BIXShbQ0gyXVtDQEhdM09DKD1PKVtDSDNdKVtDQF00KFtDSDNdKVtDSDJdW0NASF0oT0MoPU8pW0NIM10pW0NAQF0oW09IXSkoW0NASF01W0NAXTM0W09IXSlDKFtDSDNdKShbQ0gzXSlbQ0gyXVtDSDJdNQ==

>  <s_epik_cmdline>  (354) 
J2VwaWtfcHl0aG9uJywgJy1waHQnLCAnMi4wJywgJy1waCcsICc3LjAnLCAnLXRuJywgJzgnLCAnLW1hJywgJzIwMCcsICctaW1hZScsICc8aW5maWxlLm1hZT4nLCAnLW9tYWUnLCAnPG91dGZpbGUubWFlPic=

>  <r_lp_tautomer_probability>  (354) 
1

>  <r_epik_Ionization_Penalty>  (354) 
4.5593e-06

>  <r_epik_Ionization_Penalty_Charging>  (354) 
0

>  <r_epik_Ionization_Penalty_Neutral>  (354) 
4.5593e-06

>  <r_epik_State_Penalty>  (354) 
-0

>  <r_epik_Charging_Adjusted_Penalty>  (354) 
0

>  <i_epik_Tot_Q>  (354) 
0

>  <i_epik_Tot_abs_Q>  (354) 
0

>  <s_epik_Chemistry_Notes>  (354) 
This compound has an ester and may undergo hydrolysis at high or low pH. This compound contains an acetal/aminal-like group ( X-CH(R)-Y where X, Y are N, S, or O) that may be acid/base labile, releasing an aldehyde.

>  <s_lp_Force_Field>  (354) 
OPLS3e

>  <r_lp_Energy>  (354) 
44.2637

>  <b_lp_Chiralities_Consistent>  (354) 
1

>  <s_lp_Variant>  (354) 
102:0-1

>  <s_i_glide_gridfile>  (354) 
pfpi4k_grid

>  <i_i_glide_lignum>  (354) 
2

>  <i_i_glide_rotatable_bonds>  (354) 
11

>  <r_i_docking_score>  (354) 
-1.79252

>  <r_i_glide_ligand_efficiency>  (354) 
-0.045962

>  <r_i_glide_ligand_efficiency_sa>  (354) 
-0.155867

>  <r_i_glide_ligand_efficiency_ln>  (354) 
-0.384366

>  <r_i_glide_gscore>  (354) 
-1.79252

>  <r_i_glide_lipo>  (354) 
-0.0954055

>  <r_i_glide_hbond>  (354) 
0

>  <r_i_glide_metal>  (354) 
-0

>  <r_i_glide_rewards>  (354) 
-0.134584

>  <r_i_glide_evdw>  (354) 
-24.6095

>  <r_i_glide_ecoul>  (354) 
-6.20089

>  <r_i_glide_erotb>  (354) 
0.263578

>  <r_i_glide_esite>  (354) 
-0.0101561

>  <r_i_glide_emodel>  (354) 
-22.6358

>  <r_i_glide_energy>  (354) 
-30.8104

>  <r_i_glide_einternal>  (354) 
14.909

>  <r_i_glide_intrahb_reward>  (354) 
-0

>  <i_i_glide_confnum>  (354) 
1

>  <i_i_glide_posenum>  (354) 
22

>  <r_i_glide_eff_state_penalty>  (354) 
0

>  <ligand_id>  (354) 
102

>  <original_smiles>  (354) 
COC1OC(C)C(OC2CCC2C2CC(OC(C)=O)C3(O)C4CCC(C)(C)C4(O)C(OC(C)=O)CC23C)C1O

>  <smiles>  (354) 
[H]OC1([H])C([H])(OC([H])([H])[H])OC([H])(C([H])([H])[H])C1([H])OC1([H])C([H])([H])C([H])([H])C1([H])C1([H])C([H])([H])C([H])(OC(=O)C([H])([H])[H])C2(O[H])C3([H])C([H])([H])C([H])([H])C(C([H])([H])[H])(C([H])([H])[H])C3(O[H])C([H])(OC(=O)C([H])([H])[H])C([H])([H])C12C([H])([H])[H]

$$$$
103:0:0
     RDKit          3D

 75 79  0  0  1  0  0  0  0  0999 V2000
   -3.7960    5.6001    1.8580 C   0  0  0  0  0  0  0  0  0  0  0  0
   -4.2981    4.1413    1.8683 C   0  0  0  0  0  0  0  0  0  0  0  0
   -3.6791    3.1861    2.9212 C   0  0  0  0  0  0  0  0  0  0  0  0
   -2.1793    3.2811    3.2004 C   0  0  0  0  0  0  0  0  0  0  0  0
   -1.6957    4.3471    3.5768 O   0  0  0  0  0  0  0  0  0  0  0  0
   -1.5273    2.0958    3.0834 O   0  0  0  0  0  0  0  0  0  0  0  0
   -0.1869    1.9532    3.5581 C   0  0  2  0  0  0  0  0  0  0  0  0
    0.7742    1.7151    2.3853 C   0  0  0  0  0  0  0  0  0  0  0  0
    2.2167    1.7813    2.8973 C   0  0  0  0  0  0  0  0  0  0  0  0
    2.5712    0.7890    4.0459 C   0  0  2  0  0  0  0  0  0  0  0  0
    3.8473    1.4021    4.6952 C   0  0  0  0  0  0  0  0  0  0  0  0
    2.7964   -0.7363    3.6345 C   0  0  2  0  0  0  0  0  0  0  0  0
    3.2540   -1.5828    4.8526 C   0  0  2  0  0  0  0  0  0  0  0  0
    3.1424   -3.0957    4.5734 C   0  0  0  0  0  0  0  0  0  0  0  0
    3.7354   -3.5058    3.2627 C   0  0  0  0  0  0  0  0  0  0  0  0
    3.9570   -2.6538    2.2486 C   0  0  0  0  0  0  0  0  0  0  0  0
    4.7913   -3.1061    1.0271 C   0  0  0  0  0  0  0  0  0  0  0  0
    5.4751   -1.8718    0.4481 C   0  0  2  0  0  0  0  0  0  0  0  0
    6.7979   -1.4177    0.4668 O   0  0  0  0  0  0  0  0  0  0  0  0
    6.1100   -1.2267    1.6847 C   0  0  1  0  0  0  0  0  0  0  0  0
    4.9515   -0.3385    2.1475 C   0  0  0  0  0  0  0  0  0  0  0  0
    3.5904   -1.1264    2.3126 C   0  0  2  0  0  0  0  0  0  0  0  0
    2.6372   -0.8858    1.1014 C   0  0  0  0  0  0  0  0  0  0  0  0
    2.3547   -1.3363    6.1182 C   0  0  0  0  0  0  0  0  0  0  0  0
    1.8665    0.1145    6.3955 C   0  0  0  0  0  0  0  0  0  0  0  0
    1.4370    0.8936    5.1377 C   0  0  2  0  0  0  0  0  0  0  0  0
   -0.0867    0.8497    4.6549 C   0  0  1  0  0  0  0  0  0  0  0  0
   -1.0218    1.2970    5.8096 C   0  0  0  0  0  0  0  0  0  0  0  0
   -0.6855   -0.4570    4.0294 C   0  0  0  0  0  0  0  0  0  0  0  0
   -0.3106   -1.6843    4.6725 O   0  0  0  0  0  0  0  0  0  0  0  0
   -1.0642   -2.2441    5.6185 C   0  0  0  0  0  0  0  0  0  0  0  0
   -0.3804   -3.4204    6.3359 C   0  0  0  0  0  0  0  0  0  0  0  0
   -2.1942   -1.8787    5.9058 O   0  0  0  0  0  0  0  0  0  0  0  0
   -4.3239    6.2164    1.1044 H   0  0  0  0  0  0  0  0  0  0  0  0
   -2.7271    5.6709    1.6815 H   0  0  0  0  0  0  0  0  0  0  0  0
   -3.9851    6.0548    2.8304 H   0  0  0  0  0  0  0  0  0  0  0  0
   -5.3762    4.1451    2.0357 H   0  0  0  0  0  0  0  0  0  0  0  0
   -4.2107    3.6798    0.8897 H   0  0  0  0  0  0  0  0  0  0  0  0
   -4.1571    3.3383    3.8828 H   0  0  0  0  0  0  0  0  0  0  0  0
   -3.9269    2.1658    2.6374 H   0  0  0  0  0  0  0  0  0  0  0  0
    0.1211    2.8988    4.0116 H   0  0  0  0  0  0  0  0  0  0  0  0
    0.5565    0.8021    1.8404 H   0  0  0  0  0  0  0  0  0  0  0  0
    0.6570    2.4950    1.6367 H   0  0  0  0  0  0  0  0  0  0  0  0
    2.9166    1.6922    2.0861 H   0  0  0  0  0  0  0  0  0  0  0  0
    2.3896    2.8026    3.2767 H   0  0  0  0  0  0  0  0  0  0  0  0
    4.3607    0.7285    5.3800 H   0  0  0  0  0  0  0  0  0  0  0  0
    3.6061    2.2953    5.2713 H   0  0  0  0  0  0  0  0  0  0  0  0
    4.5670    1.7386    3.9565 H   0  0  0  0  0  0  0  0  0  0  0  0
    1.7948   -1.1003    3.4184 H   0  0  0  0  0  0  0  0  0  0  0  0
    4.3130   -1.3766    5.0621 H   0  0  0  0  0  0  0  0  0  0  0  0
    3.6592   -3.6496    5.3547 H   0  0  0  0  0  0  0  0  0  0  0  0
    2.1122   -3.4686    4.5793 H   0  0  0  0  0  0  0  0  0  0  0  0
    4.0334   -4.5389    3.1769 H   0  0  0  0  0  0  0  0  0  0  0  0
    5.5319   -3.8530    1.3197 H   0  0  0  0  0  0  0  0  0  0  0  0
    4.1340   -3.5375    0.2710 H   0  0  0  0  0  0  0  0  0  0  0  0
    4.8702   -1.2979   -0.2423 H   0  0  0  0  0  0  0  0  0  0  0  0
    6.4843   -1.8461    2.4924 H   0  0  0  0  0  0  0  0  0  0  0  0
    5.2835   -0.0150    3.1354 H   0  0  0  0  0  0  0  0  0  0  0  0
    4.8437    0.5434    1.5081 H   0  0  0  0  0  0  0  0  0  0  0  0
    2.6684    0.1323    0.7260 H   0  0  0  0  0  0  0  0  0  0  0  0
    1.6049   -1.1209    1.3374 H   0  0  0  0  0  0  0  0  0  0  0  0
    2.8432   -1.5229    0.2413 H   0  0  0  0  0  0  0  0  0  0  0  0
    1.5582   -1.9485    6.0134 H   0  0  0  0  0  0  0  0  0  0  0  0
    2.8569   -1.6977    7.0205 H   0  0  0  0  0  0  0  0  0  0  0  0
    1.0320    0.0229    7.0591 H   0  0  0  0  0  0  0  0  0  0  0  0
    2.6098    0.7172    6.9596 H   0  0  0  0  0  0  0  0  0  0  0  0
    1.4849    1.9239    5.4812 H   0  0  0  0  0  0  0  0  0  0  0  0
   -1.0706    0.5372    6.5873 H   0  0  0  0  0  0  0  0  0  0  0  0
   -2.0492    1.4454    5.4677 H   0  0  0  0  0  0  0  0  0  0  0  0
   -0.6996    2.2345    6.2631 H   0  0  0  0  0  0  0  0  0  0  0  0
   -1.7815   -0.3297    3.9395 H   0  0  0  0  0  0  0  0  0  0  0  0
   -0.3514   -0.5497    3.0101 H   0  0  0  0  0  0  0  0  0  0  0  0
    0.5087   -3.1758    6.8136 H   0  0  0  0  0  0  0  0  0  0  0  0
   -0.2045   -4.2383    5.6161 H   0  0  0  0  0  0  0  0  0  0  0  0
   -1.1022   -3.8300    7.0800 H   0  0  0  0  0  0  0  0  0  0  0  0
  1  2  1  0
  1 34  1  0
  1 35  1  0
  1 36  1  0
  2  3  1  0
  2 37  1  0
  2 38  1  0
  3  4  1  0
  3 39  1  0
  3 40  1  0
  4  5  2  0
  4  6  1  0
  6  7  1  0
  7 27  1  0
  7  8  1  0
  7 41  1  1
  8  9  1  0
  8 42  1  0
  8 43  1  0
  9 10  1  0
  9 44  1  0
  9 45  1  0
 10 26  1  0
 10 11  1  1
 10 12  1  0
 11 46  1  0
 11 47  1  0
 11 48  1  0
 12 22  1  0
 12 13  1  0
 12 49  1  6
 13 14  1  0
 13 24  1  0
 13 50  1  1
 14 15  1  0
 14 51  1  0
 14 52  1  0
 15 16  2  0
 15 53  1  0
 16 22  1  0
 16 17  1  0
 17 18  1  0
 17 54  1  0
 17 55  1  0
 18 20  1  0
 18 19  1  0
 18 56  1  6
 19 20  1  0
 20 21  1  0
 20 57  1  1
 21 22  1  0
 21 58  1  0
 21 59  1  0
 22 23  1  6
 23 60  1  0
 23 61  1  0
 23 62  1  0
 24 25  1  0
 24 63  1  0
 24 64  1  0
 25 26  1  0
 25 65  1  0
 25 66  1  0
 26 27  1  0
 26 67  1  1
 27 28  1  1
 27 29  1  0
 28 68  1  0
 28 69  1  0
 28 70  1  0
 29 30  1  0
 29 71  1  0
 29 72  1  0
 30 31  1  0
 31 32  1  0
 31 33  2  0
 32 73  1  0
 32 74  1  0
 32 75  1  0
M  END
>  <i_m_ct_stereo_status>  (355) 
1

>  <s_m_source_file>  (355) 
/var/tmp/pbs.5083856.sched01/tmpox984v0f/145eadvgmfj.sdf

>  <i_m_source_file_index>  (355) 
3

>  <i_lp_mmshare_version>  (355) 
48012

>  <i_f3d_flags>  (355) 
0

>  <s_epik_input>  (355) 
W0NIM11bQ0gyXVtDSDJdQyg9TylPW0NASF0oW0NIMl1bQ0gyXTEpW0NAQF0oW0NIM10pKFtDSDJdT0MoPU8pW0NIM10pW0NASF0yW0NIMl1bQ0gyXVtDQEhdKFtDQEhdM1tDQEBdMTJbQ0gzXSlbQ0gyXVtDSF09QzRbQ0BdMyhbQ0gzXSlbQ0gyXVtDQEhdNVtDQEBIXShPNSlbQ0gyXTQ=

>  <s_epik_cmdline>  (355) 
J2VwaWtfcHl0aG9uJywgJy1waHQnLCAnMi4wJywgJy1waCcsICc3LjAnLCAnLXRuJywgJzgnLCAnLW1hJywgJzIwMCcsICctaW1hZScsICc8aW5maWxlLm1hZT4nLCAnLW9tYWUnLCAnPG91dGZpbGUubWFlPic=

>  <r_lp_tautomer_probability>  (355) 
1

>  <r_epik_Ionization_Penalty>  (355) 
3.54846e-11

>  <r_epik_Ionization_Penalty_Charging>  (355) 
0

>  <r_epik_Ionization_Penalty_Neutral>  (355) 
3.54846e-11

>  <r_epik_State_Penalty>  (355) 
-0

>  <r_epik_Charging_Adjusted_Penalty>  (355) 
0

>  <i_epik_Tot_Q>  (355) 
0

>  <i_epik_Tot_abs_Q>  (355) 
0

>  <s_epik_Chemistry_Notes>  (355) 
This compound has an ester and may undergo hydrolysis at high or low pH.

>  <s_lp_Force_Field>  (355) 
OPLS3e

>  <r_lp_Energy>  (355) 
98.9309

>  <b_lp_Chiralities_Consistent>  (355) 
1

>  <s_lp_Variant>  (355) 
103:0-1

>  <s_i_glide_gridfile>  (355) 
pfpi4k_grid

>  <i_i_glide_lignum>  (355) 
3

>  <i_i_glide_rotatable_bonds>  (355) 
7

>  <r_i_docking_score>  (355) 
-2.37782

>  <r_i_glide_ligand_efficiency>  (355) 
-0.0720552

>  <r_i_glide_ligand_efficiency_sa>  (355) 
-0.231119

>  <r_i_glide_ligand_efficiency_ln>  (355) 
-0.528815

>  <r_i_glide_gscore>  (355) 
-2.37782

>  <r_i_glide_lipo>  (355) 
-0.518158

>  <r_i_glide_hbond>  (355) 
-0.119734

>  <r_i_glide_metal>  (355) 
-0

>  <r_i_glide_rewards>  (355) 
-0.282068

>  <r_i_glide_evdw>  (355) 
-22.2948

>  <r_i_glide_ecoul>  (355) 
-4.82833

>  <r_i_glide_erotb>  (355) 
0.478134

>  <r_i_glide_esite>  (355) 
-0.0970058

>  <r_i_glide_emodel>  (355) 
-25.0177

>  <r_i_glide_energy>  (355) 
-27.1231

>  <r_i_glide_einternal>  (355) 
5.97154

>  <r_i_glide_intrahb_reward>  (355) 
-0

>  <i_i_glide_confnum>  (355) 
3

>  <i_i_glide_posenum>  (355) 
26

>  <r_i_glide_eff_state_penalty>  (355) 
0

>  <ligand_id>  (355) 
103

>  <original_smiles>  (355) 
CCCC(=O)OC1CCC2(C)C3C(CC=C4CC5OC5CC43C)CCC2C1(C)COC(C)=O

>  <smiles>  (355) 
[H]C1=C2C([H])([H])C3([H])OC3([H])C([H])([H])C2(C([H])([H])[H])C2([H])C([H])(C1([H])[H])C([H])([H])C([H])([H])C1([H])C(C([H])([H])[H])(C([H])([H])OC(=O)C([H])([H])[H])C([H])(OC(=O)C([H])([H])C([H])([H])C([H])([H])[H])C([H])([H])C([H])([H])C21C([H])([H])[H]

$$$$
103:0:1
     RDKit          3D

 75 79  0  0  1  0  0  0  0  0999 V2000
   -1.4476    1.8561    2.8879 C   0  0  0  0  0  0  0  0  0  0  0  0
   -1.8921    3.2350    3.4099 C   0  0  0  0  0  0  0  0  0  0  0  0
   -1.5766    3.5200    4.8957 C   0  0  0  0  0  0  0  0  0  0  0  0
   -0.0856    3.4184    5.2354 C   0  0  0  0  0  0  0  0  0  0  0  0
    0.5924    4.4150    5.4649 O   0  0  0  0  0  0  0  0  0  0  0  0
    0.3426    2.1454    5.2299 O   0  0  0  0  0  0  0  0  0  0  0  0
    1.7252    1.8007    5.2268 C   0  0  2  0  0  0  0  0  0  0  0  0
    2.1734    1.6075    3.7778 C   0  0  0  0  0  0  0  0  0  0  0  0
    3.6729    1.3507    3.7324 C   0  0  0  0  0  0  0  0  0  0  0  0
    4.2446    0.1754    4.5703 C   0  0  2  0  0  0  0  0  0  0  0  0
    5.7493    0.5546    4.7564 C   0  0  0  0  0  0  0  0  0  0  0  0
    4.0747   -1.2951    3.9595 C   0  0  2  0  0  0  0  0  0  0  0  0
    4.7163   -2.3639    4.8871 C   0  0  2  0  0  0  0  0  0  0  0  0
    4.3807   -3.8138    4.4828 C   0  0  0  0  0  0  0  0  0  0  0  0
    4.4533   -4.0603    3.0057 C   0  0  0  0  0  0  0  0  0  0  0  0
    4.4362   -3.0923    2.0664 C   0  0  0  0  0  0  0  0  0  0  0  0
    4.7381   -3.4463    0.5861 C   0  0  0  0  0  0  0  0  0  0  0  0
    5.3282   -2.2222   -0.0886 C   0  0  2  0  0  0  0  0  0  0  0  0
    6.6458   -1.8811   -0.4915 O   0  0  0  0  0  0  0  0  0  0  0  0
    6.4379   -1.8356    0.9170 C   0  0  1  0  0  0  0  0  0  0  0  0
    5.6534   -0.9057    1.8298 C   0  0  0  0  0  0  0  0  0  0  0  0
    4.3216   -1.5699    2.4029 C   0  0  2  0  0  0  0  0  0  0  0  0
    3.0518   -1.0649    1.6394 C   0  0  0  0  0  0  0  0  0  0  0  0
    4.3135   -2.2068    6.3767 C   0  0  0  0  0  0  0  0  0  0  0  0
    4.2117   -0.7812    6.9310 C   0  0  0  0  0  0  0  0  0  0  0  0
    3.5799    0.2714    5.9925 C   0  0  2  0  0  0  0  0  0  0  0  0
    2.0122    0.5119    6.0630 C   0  0  1  0  0  0  0  0  0  0  0  0
    1.6028    0.8116    7.5260 C   0  0  0  0  0  0  0  0  0  0  0  0
    1.1656   -0.6904    5.5443 C   0  0  0  0  0  0  0  0  0  0  0  0
   -0.2290   -0.4696    5.7176 O   0  0  0  0  0  0  0  0  0  0  0  0
   -1.1213   -1.4669    5.6905 C   0  0  0  0  0  0  0  0  0  0  0  0
   -0.5723   -2.8677    5.8815 C   0  0  0  0  0  0  0  0  0  0  0  0
   -2.3446   -1.2830    5.6261 O   0  0  0  0  0  0  0  0  0  0  0  0
   -1.7734    1.6831    1.8597 H   0  0  0  0  0  0  0  0  0  0  0  0
   -1.8486    1.0540    3.5081 H   0  0  0  0  0  0  0  0  0  0  0  0
   -0.3628    1.7644    2.8820 H   0  0  0  0  0  0  0  0  0  0  0  0
   -1.4397    4.0104    2.7938 H   0  0  0  0  0  0  0  0  0  0  0  0
   -2.9677    3.3264    3.2716 H   0  0  0  0  0  0  0  0  0  0  0  0
   -1.9140    4.5235    5.1572 H   0  0  0  0  0  0  0  0  0  0  0  0
   -2.1362    2.8396    5.5407 H   0  0  0  0  0  0  0  0  0  0  0  0
    2.2993    2.6247    5.6590 H   0  0  0  0  0  0  0  0  0  0  0  0
    1.6473    0.8024    3.2803 H   0  0  0  0  0  0  0  0  0  0  0  0
    1.9584    2.5014    3.1981 H   0  0  0  0  0  0  0  0  0  0  0  0
    3.9721    1.2564    2.7053 H   0  0  0  0  0  0  0  0  0  0  0  0
    4.1376    2.2777    4.0868 H   0  0  0  0  0  0  0  0  0  0  0  0
    6.3687   -0.2507    5.1413 H   0  0  0  0  0  0  0  0  0  0  0  0
    5.8681    1.3820    5.4574 H   0  0  0  0  0  0  0  0  0  0  0  0
    6.2032    0.9193    3.8388 H   0  0  0  0  0  0  0  0  0  0  0  0
    3.0386   -1.5593    4.0825 H   0  0  0  0  0  0  0  0  0  0  0  0
    5.7978   -2.2740    4.8134 H   0  0  0  0  0  0  0  0  0  0  0  0
    5.0894   -4.4908    4.9668 H   0  0  0  0  0  0  0  0  0  0  0  0
    3.3773   -4.0951    4.8056 H   0  0  0  0  0  0  0  0  0  0  0  0
    4.5660   -5.0886    2.7087 H   0  0  0  0  0  0  0  0  0  0  0  0
    5.3992   -4.3120    0.5193 H   0  0  0  0  0  0  0  0  0  0  0  0
    3.8005   -3.7129    0.0850 H   0  0  0  0  0  0  0  0  0  0  0  0
    4.6150   -1.5035   -0.4563 H   0  0  0  0  0  0  0  0  0  0  0  0
    6.9864   -2.6050    1.4425 H   0  0  0  0  0  0  0  0  0  0  0  0
    6.3513   -0.7573    2.6533 H   0  0  0  0  0  0  0  0  0  0  0  0
    5.4818    0.0733    1.3716 H   0  0  0  0  0  0  0  0  0  0  0  0
    3.0981   -0.0188    1.3611 H   0  0  0  0  0  0  0  0  0  0  0  0
    2.1413   -1.2165    2.2128 H   0  0  0  0  0  0  0  0  0  0  0  0
    2.8547   -1.5920    0.7111 H   0  0  0  0  0  0  0  0  0  0  0  0
    3.3636   -2.7118    6.5746 H   0  0  0  0  0  0  0  0  0  0  0  0
    5.0445   -2.7390    6.9822 H   0  0  0  0  0  0  0  0  0  0  0  0
    3.7270   -0.8097    7.8984 H   0  0  0  0  0  0  0  0  0  0  0  0
    5.2246   -0.4510    7.1696 H   0  0  0  0  0  0  0  0  0  0  0  0
    3.9425    1.2099    6.4166 H   0  0  0  0  0  0  0  0  0  0  0  0
    1.7056   -0.0669    8.1591 H   0  0  0  0  0  0  0  0  0  0  0  0
    0.5599    1.1205    7.6036 H   0  0  0  0  0  0  0  0  0  0  0  0
    2.2027    1.6129    7.9490 H   0  0  0  0  0  0  0  0  0  0  0  0
    1.2784   -0.8314    4.4638 H   0  0  0  0  0  0  0  0  0  0  0  0
    1.4999   -1.5869    6.0645 H   0  0  0  0  0  0  0  0  0  0  0  0
    0.0563   -2.8829    6.7711 H   0  0  0  0  0  0  0  0  0  0  0  0
    0.0098   -3.1786    5.0164 H   0  0  0  0  0  0  0  0  0  0  0  0
   -1.3745   -3.5909    6.0335 H   0  0  0  0  0  0  0  0  0  0  0  0
  1  2  1  0
  1 34  1  0
  1 35  1  0
  1 36  1  0
  2  3  1  0
  2 37  1  0
  2 38  1  0
  3  4  1  0
  3 39  1  0
  3 40  1  0
  4  5  2  0
  4  6  1  0
  6  7  1  0
  7 27  1  0
  7  8  1  0
  7 41  1  1
  8  9  1  0
  8 42  1  0
  8 43  1  0
  9 10  1  0
  9 44  1  0
  9 45  1  0
 10 26  1  0
 10 11  1  1
 10 12  1  0
 11 46  1  0
 11 47  1  0
 11 48  1  0
 12 22  1  0
 12 13  1  0
 12 49  1  6
 13 14  1  0
 13 24  1  0
 13 50  1  1
 14 15  1  0
 14 51  1  0
 14 52  1  0
 15 16  2  0
 15 53  1  0
 16 22  1  0
 16 17  1  0
 17 18  1  0
 17 54  1  0
 17 55  1  0
 18 20  1  0
 18 19  1  0
 18 56  1  6
 19 20  1  0
 20 21  1  0
 20 57  1  1
 21 22  1  0
 21 58  1  0
 21 59  1  0
 22 23  1  6
 23 60  1  0
 23 61  1  0
 23 62  1  0
 24 25  1  0
 24 63  1  0
 24 64  1  0
 25 26  1  0
 25 65  1  0
 25 66  1  0
 26 27  1  0
 26 67  1  1
 27 28  1  1
 27 29  1  0
 28 68  1  0
 28 69  1  0
 28 70  1  0
 29 30  1  0
 29 71  1  0
 29 72  1  0
 30 31  1  0
 31 32  1  0
 31 33  2  0
 32 73  1  0
 32 74  1  0
 32 75  1  0
M  END
>  <i_m_ct_stereo_status>  (356) 
1

>  <s_m_source_file>  (356) 
/var/tmp/pbs.5083856.sched01/tmpox984v0f/145eadvgmfj.sdf

>  <i_m_source_file_index>  (356) 
3

>  <i_lp_mmshare_version>  (356) 
48012

>  <i_f3d_flags>  (356) 
0

>  <s_epik_input>  (356) 
W0NIM11bQ0gyXVtDSDJdQyg9TylPW0NASF0oW0NIMl1bQ0gyXTEpW0NAQF0oW0NIM10pKFtDSDJdT0MoPU8pW0NIM10pW0NASF0yW0NIMl1bQ0gyXVtDQEhdKFtDQEhdM1tDQEBdMTJbQ0gzXSlbQ0gyXVtDSF09QzRbQ0BdMyhbQ0gzXSlbQ0gyXVtDQEhdNVtDQEBIXShPNSlbQ0gyXTQ=

>  <s_epik_cmdline>  (356) 
J2VwaWtfcHl0aG9uJywgJy1waHQnLCAnMi4wJywgJy1waCcsICc3LjAnLCAnLXRuJywgJzgnLCAnLW1hJywgJzIwMCcsICctaW1hZScsICc8aW5maWxlLm1hZT4nLCAnLW9tYWUnLCAnPG91dGZpbGUubWFlPic=

>  <r_lp_tautomer_probability>  (356) 
1

>  <r_epik_Ionization_Penalty>  (356) 
3.54846e-11

>  <r_epik_Ionization_Penalty_Charging>  (356) 
0

>  <r_epik_Ionization_Penalty_Neutral>  (356) 
3.54846e-11

>  <r_epik_State_Penalty>  (356) 
-0

>  <r_epik_Charging_Adjusted_Penalty>  (356) 
0

>  <i_epik_Tot_Q>  (356) 
0

>  <i_epik_Tot_abs_Q>  (356) 
0

>  <s_epik_Chemistry_Notes>  (356) 
This compound has an ester and may undergo hydrolysis at high or low pH.

>  <s_lp_Force_Field>  (356) 
OPLS3e

>  <r_lp_Energy>  (356) 
98.9309

>  <b_lp_Chiralities_Consistent>  (356) 
1

>  <s_lp_Variant>  (356) 
103:0-1

>  <s_i_glide_gridfile>  (356) 
pfpi4k_grid

>  <i_i_glide_lignum>  (356) 
3

>  <i_i_glide_rotatable_bonds>  (356) 
7

>  <r_i_docking_score>  (356) 
-2.08666

>  <r_i_glide_ligand_efficiency>  (356) 
-0.0632322

>  <r_i_glide_ligand_efficiency_sa>  (356) 
-0.20282

>  <r_i_glide_ligand_efficiency_ln>  (356) 
-0.464063

>  <r_i_glide_gscore>  (356) 
-2.08666

>  <r_i_glide_lipo>  (356) 
-0.450303

>  <r_i_glide_hbond>  (356) 
-0.16326

>  <r_i_glide_metal>  (356) 
-0

>  <r_i_glide_rewards>  (356) 
-0.282068

>  <r_i_glide_evdw>  (356) 
-21.3065

>  <r_i_glide_ecoul>  (356) 
-3.61916

>  <r_i_glide_erotb>  (356) 
0.478134

>  <r_i_glide_esite>  (356) 
-0.0609656

>  <r_i_glide_emodel>  (356) 
-22.7722

>  <r_i_glide_energy>  (356) 
-24.9257

>  <r_i_glide_einternal>  (356) 
9.48122

>  <r_i_glide_intrahb_reward>  (356) 
-0

>  <i_i_glide_confnum>  (356) 
5

>  <i_i_glide_posenum>  (356) 
24

>  <r_i_glide_eff_state_penalty>  (356) 
0

>  <ligand_id>  (356) 
103

>  <original_smiles>  (356) 
CCCC(=O)OC1CCC2(C)C3C(CC=C4CC5OC5CC43C)CCC2C1(C)COC(C)=O

>  <smiles>  (356) 
[H]C1=C2C([H])([H])C3([H])OC3([H])C([H])([H])C2(C([H])([H])[H])C2([H])C([H])(C1([H])[H])C([H])([H])C([H])([H])C1([H])C(C([H])([H])[H])(C([H])([H])OC(=O)C([H])([H])[H])C([H])(OC(=O)C([H])([H])C([H])([H])C([H])([H])[H])C([H])([H])C([H])([H])C21C([H])([H])[H]

$$$$
103:0:2
     RDKit          3D

 75 79  0  0  1  0  0  0  0  0999 V2000
   -1.7620   -4.0639    9.9003 C   0  0  0  0  0  0  0  0  0  0  0  0
   -2.3707   -4.4074    8.5222 C   0  0  0  0  0  0  0  0  0  0  0  0
   -1.5018   -5.2584    7.5871 C   0  0  0  0  0  0  0  0  0  0  0  0
   -0.1836   -4.6316    7.1381 C   0  0  0  0  0  0  0  0  0  0  0  0
    0.2061   -3.5486    7.5690 O   0  0  0  0  0  0  0  0  0  0  0  0
    0.4624   -5.3841    6.2510 O   0  0  0  0  0  0  0  0  0  0  0  0
    1.8105   -5.0872    5.9080 C   0  0  2  0  0  0  0  0  0  0  0  0
    1.9381   -3.8387    5.0169 C   0  0  0  0  0  0  0  0  0  0  0  0
    3.4152   -3.4911    4.8347 C   0  0  0  0  0  0  0  0  0  0  0  0
    4.3303   -4.6115    4.2741 C   0  0  2  0  0  0  0  0  0  0  0  0
    5.7492   -4.1509    4.7172 C   0  0  0  0  0  0  0  0  0  0  0  0
    4.2604   -4.8944    2.6996 C   0  0  2  0  0  0  0  0  0  0  0  0
    5.2688   -5.9996    2.2825 C   0  0  2  0  0  0  0  0  0  0  0  0
    5.0649   -6.4830    0.8325 C   0  0  0  0  0  0  0  0  0  0  0  0
    4.8187   -5.3879   -0.1497 C   0  0  0  0  0  0  0  0  0  0  0  0
    4.4205   -4.1404    0.1822 C   0  0  0  0  0  0  0  0  0  0  0  0
    4.3985   -3.0380   -0.8938 C   0  0  0  0  0  0  0  0  0  0  0  0
    4.6370   -1.7064   -0.1987 C   0  0  2  0  0  0  0  0  0  0  0  0
    5.7483   -0.8473   -0.1398 O   0  0  0  0  0  0  0  0  0  0  0  0
    5.8691   -2.0079    0.6629 C   0  0  1  0  0  0  0  0  0  0  0  0
    5.1912   -2.5171    1.9377 C   0  0  0  0  0  0  0  0  0  0  0  0
    4.1605   -3.6926    1.6545 C   0  0  2  0  0  0  0  0  0  0  0  0
    2.6827   -3.1847    1.6834 C   0  0  0  0  0  0  0  0  0  0  0  0
    5.2124   -7.2644    3.1814 C   0  0  0  0  0  0  0  0  0  0  0  0
    5.0383   -7.0341    4.6844 C   0  0  0  0  0  0  0  0  0  0  0  0
    4.0264   -5.9298    5.0707 C   0  0  2  0  0  0  0  0  0  0  0  0
    2.5043   -6.3348    5.2797 C   0  0  1  0  0  0  0  0  0  0  0  0
    2.4353   -7.4870    6.3218 C   0  0  0  0  0  0  0  0  0  0  0  0
    1.7367   -6.7747    3.9925 C   0  0  0  0  0  0  0  0  0  0  0  0
    0.4733   -7.3902    4.2429 O   0  0  0  0  0  0  0  0  0  0  0  0
   -0.5415   -7.2858    3.3670 C   0  0  0  0  0  0  0  0  0  0  0  0
   -1.7986   -8.0108    3.8225 C   0  0  0  0  0  0  0  0  0  0  0  0
   -0.5202   -6.6550    2.3105 O   0  0  0  0  0  0  0  0  0  0  0  0
   -2.4685   -3.5168   10.5258 H   0  0  0  0  0  0  0  0  0  0  0  0
   -0.8529   -3.4563    9.8390 H   0  0  0  0  0  0  0  0  0  0  0  0
   -1.4994   -4.9709   10.4439 H   0  0  0  0  0  0  0  0  0  0  0  0
   -3.2939   -4.9502    8.6970 H   0  0  0  0  0  0  0  0  0  0  0  0
   -2.6688   -3.5337    7.9508 H   0  0  0  0  0  0  0  0  0  0  0  0
   -1.2851   -6.2059    8.0756 H   0  0  0  0  0  0  0  0  0  0  0  0
   -2.0755   -5.4650    6.6816 H   0  0  0  0  0  0  0  0  0  0  0  0
    2.3186   -4.8744    6.8476 H   0  0  0  0  0  0  0  0  0  0  0  0
    1.4143   -3.9546    4.0762 H   0  0  0  0  0  0  0  0  0  0  0  0
    1.4677   -2.9827    5.4830 H   0  0  0  0  0  0  0  0  0  0  0  0
    3.5232   -2.5839    4.2658 H   0  0  0  0  0  0  0  0  0  0  0  0
    3.7878   -3.2165    5.8292 H   0  0  0  0  0  0  0  0  0  0  0  0
    6.5537   -4.7015    4.2402 H   0  0  0  0  0  0  0  0  0  0  0  0
    5.9075   -4.2784    5.7919 H   0  0  0  0  0  0  0  0  0  0  0  0
    5.8909   -3.0880    4.5541 H   0  0  0  0  0  0  0  0  0  0  0  0
    3.3381   -5.4278    2.5430 H   0  0  0  0  0  0  0  0  0  0  0  0
    6.2801   -5.5818    2.3185 H   0  0  0  0  0  0  0  0  0  0  0  0
    5.9615   -7.0182    0.5128 H   0  0  0  0  0  0  0  0  0  0  0  0
    4.2297   -7.1795    0.7535 H   0  0  0  0  0  0  0  0  0  0  0  0
    5.0123   -5.6283   -1.1772 H   0  0  0  0  0  0  0  0  0  0  0  0
    5.1538   -3.2141   -1.6573 H   0  0  0  0  0  0  0  0  0  0  0  0
    3.4199   -3.0148   -1.3844 H   0  0  0  0  0  0  0  0  0  0  0  0
    3.7567   -1.2387    0.2089 H   0  0  0  0  0  0  0  0  0  0  0  0
    6.6437   -2.6685    0.3050 H   0  0  0  0  0  0  0  0  0  0  0  0
    6.0384   -2.9239    2.4949 H   0  0  0  0  0  0  0  0  0  0  0  0
    4.7703   -1.7003    2.5203 H   0  0  0  0  0  0  0  0  0  0  0  0
    2.5018   -2.4279    2.4369 H   0  0  0  0  0  0  0  0  0  0  0  0
    1.9757   -3.9956    1.8460 H   0  0  0  0  0  0  0  0  0  0  0  0
    2.3486   -2.7418    0.7478 H   0  0  0  0  0  0  0  0  0  0  0  0
    4.4308   -7.9528    2.8416 H   0  0  0  0  0  0  0  0  0  0  0  0
    6.1432   -7.8029    3.0527 H   0  0  0  0  0  0  0  0  0  0  0  0
    4.8059   -7.9750    5.1507 H   0  0  0  0  0  0  0  0  0  0  0  0
    6.0168   -6.7723    5.1049 H   0  0  0  0  0  0  0  0  0  0  0  0
    4.3140   -5.7159    6.0953 H   0  0  0  0  0  0  0  0  0  0  0  0
    2.8268   -8.4266    5.9190 H   0  0  0  0  0  0  0  0  0  0  0  0
    1.4127   -7.7027    6.6394 H   0  0  0  0  0  0  0  0  0  0  0  0
    2.9918   -7.2433    7.2236 H   0  0  0  0  0  0  0  0  0  0  0  0
    1.5568   -5.9043    3.3505 H   0  0  0  0  0  0  0  0  0  0  0  0
    2.3258   -7.4888    3.4249 H   0  0  0  0  0  0  0  0  0  0  0  0
   -2.1283   -7.6547    4.7956 H   0  0  0  0  0  0  0  0  0  0  0  0
   -1.5993   -9.0763    3.8889 H   0  0  0  0  0  0  0  0  0  0  0  0
   -2.6036   -7.8578    3.1027 H   0  0  0  0  0  0  0  0  0  0  0  0
  1  2  1  0
  1 34  1  0
  1 35  1  0
  1 36  1  0
  2  3  1  0
  2 37  1  0
  2 38  1  0
  3  4  1  0
  3 39  1  0
  3 40  1  0
  4  5  2  0
  4  6  1  0
  6  7  1  0
  7 27  1  0
  7  8  1  0
  7 41  1  1
  8  9  1  0
  8 42  1  0
  8 43  1  0
  9 10  1  0
  9 44  1  0
  9 45  1  0
 10 26  1  0
 10 11  1  6
 10 12  1  0
 11 46  1  0
 11 47  1  0
 11 48  1  0
 12 22  1  0
 12 13  1  0
 12 49  1  1
 13 14  1  0
 13 24  1  0
 13 50  1  6
 14 15  1  0
 14 51  1  0
 14 52  1  0
 15 16  2  0
 15 53  1  0
 16 22  1  0
 16 17  1  0
 17 18  1  0
 17 54  1  0
 17 55  1  0
 18 20  1  0
 18 19  1  0
 18 56  1  1
 19 20  1  0
 20 21  1  0
 20 57  1  6
 21 22  1  0
 21 58  1  0
 21 59  1  0
 22 23  1  6
 23 60  1  0
 23 61  1  0
 23 62  1  0
 24 25  1  0
 24 63  1  0
 24 64  1  0
 25 26  1  0
 25 65  1  0
 25 66  1  0
 26 27  1  0
 26 67  1  1
 27 28  1  1
 27 29  1  0
 28 68  1  0
 28 69  1  0
 28 70  1  0
 29 30  1  0
 29 71  1  0
 29 72  1  0
 30 31  1  0
 31 32  1  0
 31 33  2  0
 32 73  1  0
 32 74  1  0
 32 75  1  0
M  END
>  <i_m_ct_stereo_status>  (357) 
1

>  <s_m_source_file>  (357) 
/var/tmp/pbs.5083856.sched01/tmpox984v0f/145eadvgmfj.sdf

>  <i_m_source_file_index>  (357) 
3

>  <i_lp_mmshare_version>  (357) 
48012

>  <i_f3d_flags>  (357) 
0

>  <s_epik_input>  (357) 
W0NIM11bQ0gyXVtDSDJdQyg9TylPW0NASF0oW0NIMl1bQ0gyXTEpW0NAQF0oW0NIM10pKFtDSDJdT0MoPU8pW0NIM10pW0NASF0yW0NIMl1bQ0gyXVtDQEhdKFtDQEhdM1tDQEBdMTJbQ0gzXSlbQ0gyXVtDSF09QzRbQ0BdMyhbQ0gzXSlbQ0gyXVtDQEhdNVtDQEBIXShPNSlbQ0gyXTQ=

>  <s_epik_cmdline>  (357) 
J2VwaWtfcHl0aG9uJywgJy1waHQnLCAnMi4wJywgJy1waCcsICc3LjAnLCAnLXRuJywgJzgnLCAnLW1hJywgJzIwMCcsICctaW1hZScsICc8aW5maWxlLm1hZT4nLCAnLW9tYWUnLCAnPG91dGZpbGUubWFlPic=

>  <r_lp_tautomer_probability>  (357) 
1

>  <r_epik_Ionization_Penalty>  (357) 
3.54846e-11

>  <r_epik_Ionization_Penalty_Charging>  (357) 
0

>  <r_epik_Ionization_Penalty_Neutral>  (357) 
3.54846e-11

>  <r_epik_State_Penalty>  (357) 
-0

>  <r_epik_Charging_Adjusted_Penalty>  (357) 
0

>  <i_epik_Tot_Q>  (357) 
0

>  <i_epik_Tot_abs_Q>  (357) 
0

>  <s_epik_Chemistry_Notes>  (357) 
This compound has an ester and may undergo hydrolysis at high or low pH.

>  <s_lp_Force_Field>  (357) 
OPLS3e

>  <r_lp_Energy>  (357) 
98.9309

>  <b_lp_Chiralities_Consistent>  (357) 
1

>  <s_lp_Variant>  (357) 
103:0-1

>  <s_i_glide_gridfile>  (357) 
pfpi4k_grid

>  <i_i_glide_lignum>  (357) 
3

>  <i_i_glide_rotatable_bonds>  (357) 
7

>  <r_i_docking_score>  (357) 
-1.99086

>  <r_i_glide_ligand_efficiency>  (357) 
-0.0603292

>  <r_i_glide_ligand_efficiency_sa>  (357) 
-0.193508

>  <r_i_glide_ligand_efficiency_ln>  (357) 
-0.442758

>  <r_i_glide_gscore>  (357) 
-1.99086

>  <r_i_glide_lipo>  (357) 
-0.344624

>  <r_i_glide_hbond>  (357) 
-0.16

>  <r_i_glide_metal>  (357) 
-0

>  <r_i_glide_rewards>  (357) 
-0.282068

>  <r_i_glide_evdw>  (357) 
-21.4062

>  <r_i_glide_ecoul>  (357) 
-3.62396

>  <r_i_glide_erotb>  (357) 
0.478134

>  <r_i_glide_esite>  (357) 
-0.0684013

>  <r_i_glide_emodel>  (357) 
-25.9307

>  <r_i_glide_energy>  (357) 
-25.0301

>  <r_i_glide_einternal>  (357) 
3.80845

>  <r_i_glide_intrahb_reward>  (357) 
-0

>  <i_i_glide_confnum>  (357) 
1

>  <i_i_glide_posenum>  (357) 
3

>  <r_i_glide_eff_state_penalty>  (357) 
0

>  <ligand_id>  (357) 
103

>  <original_smiles>  (357) 
CCCC(=O)OC1CCC2(C)C3C(CC=C4CC5OC5CC43C)CCC2C1(C)COC(C)=O

>  <smiles>  (357) 
[H]C1=C2C([H])([H])C3([H])OC3([H])C([H])([H])C2(C([H])([H])[H])C2([H])C([H])(C1([H])[H])C([H])([H])C([H])([H])C1([H])C(C([H])([H])[H])(C([H])([H])OC(=O)C([H])([H])[H])C([H])(OC(=O)C([H])([H])C([H])([H])C([H])([H])[H])C([H])([H])C([H])([H])C21C([H])([H])[H]

$$$$
104:0:0
     RDKit          3D

 43 47  0  0  1  0  0  0  0  0999 V2000
    5.2686   -0.1443    3.6950 C   0  0  0  0  0  0  0  0  0  0  0  0
    4.1837   -1.1163    3.1948 C   0  0  2  0  0  0  0  0  0  0  0  0
    4.3640   -1.2909    1.7561 N   0  0  0  0  0  0  0  0  0  0  0  0
    3.6657   -2.2765    1.0584 C   0  0  0  0  0  0  0  0  0  0  0  0
    3.1989   -3.3654    1.7178 N   0  0  0  0  0  0  0  0  0  0  0  0
    2.6264   -4.3485    1.0236 C   0  0  0  0  0  0  0  0  0  0  0  0
    2.3704   -4.3942   -0.2849 N   0  0  0  0  0  0  0  0  0  0  0  0
    2.8155   -3.2931   -0.9386 C   0  0  0  0  0  0  0  0  0  0  0  0
    2.6407   -3.0450   -2.6768 S   0  0  0  0  0  0  0  0  0  0  0  0
    3.4713   -1.4928   -2.4384 C   0  0  0  0  0  0  0  0  0  0  0  0
    3.8068   -0.3416   -3.9162 Br  0  0  0  0  0  0  0  0  0  0  0  0
    3.9172   -1.1786   -1.2169 N   0  0  0  0  0  0  0  0  0  0  0  0
    3.4972   -2.1828   -0.3407 C   0  0  0  0  0  0  0  0  0  0  0  0
    2.7751   -0.6354    3.6332 C   0  0  0  0  0  0  0  0  0  0  0  0
    2.2418    0.3544    3.0044 N   0  0  0  0  0  0  0  0  0  0  0  0
    0.9445    0.7509    3.3429 C   0  0  0  0  0  0  0  0  0  0  0  0
    0.3521    1.7781    2.6061 C   0  0  0  0  0  0  0  0  0  0  0  0
   -0.9311    2.2467    2.9376 C   0  0  0  0  0  0  0  0  0  0  0  0
   -1.6348    1.6672    4.0154 C   0  0  0  0  0  0  0  0  0  0  0  0
   -1.0676    0.6046    4.7436 C   0  0  0  0  0  0  0  0  0  0  0  0
   -1.7826    0.0528    5.7680 F   0  0  0  0  0  0  0  0  0  0  0  0
    0.2311    0.1392    4.4087 C   0  0  0  0  0  0  0  0  0  0  0  0
    0.9084   -0.9809    5.1430 C   0  0  0  0  0  0  0  0  0  0  0  0
    0.3268   -1.5129    6.0982 O   0  0  0  0  0  0  0  0  0  0  0  0
    2.1537   -1.3434    4.7191 N   0  0  0  0  0  0  0  0  0  0  0  0
    2.7510   -2.4879    5.3371 C   0  0  0  0  0  0  0  0  0  0  0  0
    3.9196   -2.3093    6.1094 C   0  0  0  0  0  0  0  0  0  0  0  0
    4.5378   -3.4391    6.6692 C   0  0  0  0  0  0  0  0  0  0  0  0
    3.9108   -4.6810    6.4656 C   0  0  0  0  0  0  0  0  0  0  0  0
    2.7725   -4.8074    5.7423 N   0  0  0  0  0  0  0  0  0  0  0  0
    2.2137   -3.7324    5.1765 N   0  0  0  0  0  0  0  0  0  0  0  0
    5.2929   -0.0274    4.7771 H   0  0  0  0  0  0  0  0  0  0  0  0
    5.1269    0.8606    3.2905 H   0  0  0  0  0  0  0  0  0  0  0  0
    6.2535   -0.4965    3.3806 H   0  0  0  0  0  0  0  0  0  0  0  0
    4.4000   -2.1065    3.5764 H   0  0  0  0  0  0  0  0  0  0  0  0
    2.3111   -5.2009    1.5947 H   0  0  0  0  0  0  0  0  0  0  0  0
    0.8991    2.2324    1.7870 H   0  0  0  0  0  0  0  0  0  0  0  0
   -1.3551    3.0578    2.3643 H   0  0  0  0  0  0  0  0  0  0  0  0
   -2.6223    2.0305    4.2595 H   0  0  0  0  0  0  0  0  0  0  0  0
    4.3461   -1.3289    6.2476 H   0  0  0  0  0  0  0  0  0  0  0  0
    5.4594   -3.3530    7.2281 H   0  0  0  0  0  0  0  0  0  0  0  0
    4.3146   -5.5923    6.8814 H   0  0  0  0  0  0  0  0  0  0  0  0
    4.4494   -0.4410    1.2189 H   0  0  0  0  0  0  0  0  0  0  0  0
  1  2  1  0
  1 32  1  0
  1 33  1  0
  1 34  1  0
  2  3  1  0
  2 14  1  0
  2 35  1  1
  3  4  1  0
  3 43  1  0
  4 13  1  0
  4  5  2  0
  5  6  1  0
  6  7  2  0
  6 36  1  0
  7  8  1  0
  8 13  2  0
  8  9  1  0
  9 10  1  0
 10 11  1  0
 10 12  2  0
 12 13  1  0
 14 25  1  0
 14 15  2  0
 15 16  1  0
 16 22  2  0
 16 17  1  0
 17 18  2  0
 17 37  1  0
 18 19  1  0
 18 38  1  0
 19 20  2  0
 19 39  1  0
 20 21  1  0
 20 22  1  0
 22 23  1  0
 23 24  2  0
 23 25  1  0
 25 26  1  0
 26 31  1  0
 26 27  2  0
 27 28  1  0
 27 40  1  0
 28 29  2  0
 28 41  1  0
 29 30  1  0
 29 42  1  0
 30 31  2  0
M  END
>  <i_m_ct_stereo_status>  (358) 
1

>  <s_m_source_file>  (358) 
/var/tmp/pbs.5083856.sched01/tmpox984v0f/145eadvgmfj.sdf

>  <i_m_source_file_index>  (358) 
4

>  <i_lp_mmshare_version>  (358) 
48012

>  <i_f3d_flags>  (358) 
0

>  <s_epik_input>  (358) 
czFjKEJyKW5jKGMxMiljKC9bbkhdW2NIXW4yKT1OXFtDQEBIXShbQ0gzXSljKG4zKW4oLWM0W2NIXVtjSF1bY0hdbm40KWMoPU8pYyhjMzUpYyhGKVtjSF1bY0hdW2NIXTU=

>  <s_epik_cmdline>  (358) 
J2VwaWtfcHl0aG9uJywgJy1waHQnLCAnMi4wJywgJy1waCcsICc3LjAnLCAnLXRuJywgJzgnLCAnLW1hJywgJzIwMCcsICctaW1hZScsICc8aW5maWxlLm1hZT4nLCAnLW9tYWUnLCAnPG91dGZpbGUubWFlPic=

>  <r_lp_tautomer_probability>  (358) 
1

>  <r_epik_Ionization_Penalty>  (358) 
0.000119773

>  <r_epik_Ionization_Penalty_Charging>  (358) 
1.46585e-10

>  <r_epik_Ionization_Penalty_Neutral>  (358) 
0.000119773

>  <r_epik_State_Penalty>  (358) 
-0

>  <r_epik_Charging_Adjusted_Penalty>  (358) 
1.46585e-10

>  <i_epik_Tot_Q>  (358) 
0

>  <i_epik_Tot_abs_Q>  (358) 
0

>  <s_lp_Force_Field>  (358) 
OPLS3e

>  <r_lp_Energy>  (358) 
64.0939

>  <b_lp_Chiralities_Consistent>  (358) 
1

>  <s_lp_Variant>  (358) 
104:0-1

>  <s_i_glide_gridfile>  (358) 
pfpi4k_grid

>  <i_i_glide_lignum>  (358) 
4

>  <i_i_glide_rotatable_bonds>  (358) 
4

>  <r_i_docking_score>  (358) 
-2.33899

>  <r_i_glide_ligand_efficiency>  (358) 
-0.0754512

>  <r_i_glide_ligand_efficiency_sa>  (358) 
-0.237021

>  <r_i_glide_ligand_efficiency_ln>  (358) 
-0.527513

>  <r_i_glide_gscore>  (358) 
-2.33899

>  <r_i_glide_lipo>  (358) 
-0.429629

>  <r_i_glide_hbond>  (358) 
0

>  <r_i_glide_metal>  (358) 
-0

>  <r_i_glide_rewards>  (358) 
-0.00463648

>  <r_i_glide_evdw>  (358) 
-33.9096

>  <r_i_glide_ecoul>  (358) 
-2.89543

>  <r_i_glide_erotb>  (358) 
0.327483

>  <r_i_glide_esite>  (358) 
-0.102412

>  <r_i_glide_emodel>  (358) 
-41.4832

>  <r_i_glide_energy>  (358) 
-36.805

>  <r_i_glide_einternal>  (358) 
1.34805

>  <r_i_glide_intrahb_reward>  (358) 
-0

>  <i_i_glide_confnum>  (358) 
5

>  <i_i_glide_posenum>  (358) 
1

>  <r_i_glide_eff_state_penalty>  (358) 
0

>  <ligand_id>  (358) 
104

>  <original_smiles>  (358) 
CC(N=c1[nH]cnc2sc(Br)nc12)c1nc2cccc(F)c2c(=O)n1-c1cccnn1

>  <smiles>  (358) 
[H]c1nc(N([H])C([H])(c2nc3c([H])c([H])c([H])c(F)c3c(=O)n2-c2nnc([H])c([H])c2[H])C([H])([H])[H])c2nc(Br)sc2n1

$$$$
104:0:1
     RDKit          3D

 43 47  0  0  1  0  0  0  0  0999 V2000
    4.3211   -0.1303    0.8867 C   0  0  0  0  0  0  0  0  0  0  0  0
    4.0830   -0.6697    2.3255 C   0  0  2  0  0  0  0  0  0  0  0  0
    3.7396   -2.0913    2.3414 N   0  0  0  0  0  0  0  0  0  0  0  0
    4.5383   -3.1076    1.8184 C   0  0  0  0  0  0  0  0  0  0  0  0
    5.8534   -2.8949    1.5860 N   0  0  0  0  0  0  0  0  0  0  0  0
    6.6006   -3.9071    1.1399 C   0  0  0  0  0  0  0  0  0  0  0  0
    6.2350   -5.1618    0.8813 N   0  0  0  0  0  0  0  0  0  0  0  0
    4.9085   -5.3702    1.1108 C   0  0  0  0  0  0  0  0  0  0  0  0
    4.0974   -6.9252    0.8853 S   0  0  0  0  0  0  0  0  0  0  0  0
    2.6185   -6.1129    1.4013 C   0  0  0  0  0  0  0  0  0  0  0  0
    0.9533   -7.0317    1.4749 Br  0  0  0  0  0  0  0  0  0  0  0  0
    2.6732   -4.8232    1.7333 N   0  0  0  0  0  0  0  0  0  0  0  0
    3.9883   -4.3877    1.5738 C   0  0  0  0  0  0  0  0  0  0  0  0
    2.9505    0.1078    3.0217 C   0  0  0  0  0  0  0  0  0  0  0  0
    1.8705    0.3735    2.3577 N   0  0  0  0  0  0  0  0  0  0  0  0
    0.8237    1.0320    3.0097 C   0  0  0  0  0  0  0  0  0  0  0  0
   -0.3442    1.2998    2.2837 C   0  0  0  0  0  0  0  0  0  0  0  0
   -1.4163    1.9815    2.8799 C   0  0  0  0  0  0  0  0  0  0  0  0
   -1.3323    2.3886    4.2233 C   0  0  0  0  0  0  0  0  0  0  0  0
   -0.1704    2.1119    4.9708 C   0  0  0  0  0  0  0  0  0  0  0  0
   -0.1205    2.5068    6.2674 F   0  0  0  0  0  0  0  0  0  0  0  0
    0.9156    1.4261    4.3614 C   0  0  0  0  0  0  0  0  0  0  0  0
    2.1849    1.0897    5.0963 C   0  0  0  0  0  0  0  0  0  0  0  0
    2.3144    1.3980    6.2829 O   0  0  0  0  0  0  0  0  0  0  0  0
    3.1441    0.4197    4.3946 N   0  0  0  0  0  0  0  0  0  0  0  0
    4.3176    0.0423    5.1005 C   0  0  0  0  0  0  0  0  0  0  0  0
    4.4035   -1.2816    5.5920 C   0  0  0  0  0  0  0  0  0  0  0  0
    5.5532   -1.6458    6.3125 C   0  0  0  0  0  0  0  0  0  0  0  0
    6.5391   -0.6590    6.4960 C   0  0  0  0  0  0  0  0  0  0  0  0
    6.4151    0.5908    5.9962 N   0  0  0  0  0  0  0  0  0  0  0  0
    5.3194    0.9326    5.3090 N   0  0  0  0  0  0  0  0  0  0  0  0
    4.5458    0.9389    0.8770 H   0  0  0  0  0  0  0  0  0  0  0  0
    3.4460   -0.2788    0.2472 H   0  0  0  0  0  0  0  0  0  0  0  0
    5.1654   -0.6236    0.4033 H   0  0  0  0  0  0  0  0  0  0  0  0
    5.0224   -0.5624    2.8678 H   0  0  0  0  0  0  0  0  0  0  0  0
    7.6420   -3.6840    0.9942 H   0  0  0  0  0  0  0  0  0  0  0  0
   -0.4034    0.9845    1.2554 H   0  0  0  0  0  0  0  0  0  0  0  0
   -2.3000    2.1836    2.2963 H   0  0  0  0  0  0  0  0  0  0  0  0
   -2.1613    2.9086    4.6805 H   0  0  0  0  0  0  0  0  0  0  0  0
    3.6093   -1.9908    5.4179 H   0  0  0  0  0  0  0  0  0  0  0  0
    5.6818   -2.6454    6.7047 H   0  0  0  0  0  0  0  0  0  0  0  0
    7.4505   -0.8657    7.0379 H   0  0  0  0  0  0  0  0  0  0  0  0
    2.7810   -2.3352    2.5401 H   0  0  0  0  0  0  0  0  0  0  0  0
  1  2  1  0
  1 32  1  0
  1 33  1  0
  1 34  1  0
  2  3  1  0
  2 14  1  0
  2 35  1  1
  3  4  1  0
  3 43  1  0
  4 13  1  0
  4  5  2  0
  5  6  1  0
  6  7  2  0
  6 36  1  0
  7  8  1  0
  8 13  2  0
  8  9  1  0
  9 10  1  0
 10 11  1  0
 10 12  2  0
 12 13  1  0
 14 25  1  0
 14 15  2  0
 15 16  1  0
 16 22  2  0
 16 17  1  0
 17 18  2  0
 17 37  1  0
 18 19  1  0
 18 38  1  0
 19 20  2  0
 19 39  1  0
 20 21  1  0
 20 22  1  0
 22 23  1  0
 23 24  2  0
 23 25  1  0
 25 26  1  0
 26 31  1  0
 26 27  2  0
 27 28  1  0
 27 40  1  0
 28 29  2  0
 28 41  1  0
 29 30  1  0
 29 42  1  0
 30 31  2  0
M  END
>  <i_m_ct_stereo_status>  (359) 
1

>  <s_m_source_file>  (359) 
/var/tmp/pbs.5083856.sched01/tmpox984v0f/145eadvgmfj.sdf

>  <i_m_source_file_index>  (359) 
4

>  <i_lp_mmshare_version>  (359) 
48012

>  <i_f3d_flags>  (359) 
0

>  <s_epik_input>  (359) 
czFjKEJyKW5jKGMxMiljKC9bbkhdW2NIXW4yKT1OXFtDQEBIXShbQ0gzXSljKG4zKW4oLWM0W2NIXVtjSF1bY0hdbm40KWMoPU8pYyhjMzUpYyhGKVtjSF1bY0hdW2NIXTU=

>  <s_epik_cmdline>  (359) 
J2VwaWtfcHl0aG9uJywgJy1waHQnLCAnMi4wJywgJy1waCcsICc3LjAnLCAnLXRuJywgJzgnLCAnLW1hJywgJzIwMCcsICctaW1hZScsICc8aW5maWxlLm1hZT4nLCAnLW9tYWUnLCAnPG91dGZpbGUubWFlPic=

>  <r_lp_tautomer_probability>  (359) 
1

>  <r_epik_Ionization_Penalty>  (359) 
0.000119773

>  <r_epik_Ionization_Penalty_Charging>  (359) 
1.46585e-10

>  <r_epik_Ionization_Penalty_Neutral>  (359) 
0.000119773

>  <r_epik_State_Penalty>  (359) 
-0

>  <r_epik_Charging_Adjusted_Penalty>  (359) 
1.46585e-10

>  <i_epik_Tot_Q>  (359) 
0

>  <i_epik_Tot_abs_Q>  (359) 
0

>  <s_lp_Force_Field>  (359) 
OPLS3e

>  <r_lp_Energy>  (359) 
64.0939

>  <b_lp_Chiralities_Consistent>  (359) 
1

>  <s_lp_Variant>  (359) 
104:0-1

>  <s_i_glide_gridfile>  (359) 
pfpi4k_grid

>  <i_i_glide_lignum>  (359) 
4

>  <i_i_glide_rotatable_bonds>  (359) 
4

>  <r_i_docking_score>  (359) 
-2.08245

>  <r_i_glide_ligand_efficiency>  (359) 
-0.0671758

>  <r_i_glide_ligand_efficiency_sa>  (359) 
-0.211025

>  <r_i_glide_ligand_efficiency_ln>  (359) 
-0.469656

>  <r_i_glide_gscore>  (359) 
-2.08245

>  <r_i_glide_lipo>  (359) 
-0.446763

>  <r_i_glide_hbond>  (359) 
0

>  <r_i_glide_metal>  (359) 
-0

>  <r_i_glide_rewards>  (359) 
-0.147516

>  <r_i_glide_evdw>  (359) 
-32.1427

>  <r_i_glide_ecoul>  (359) 
-1.38167

>  <r_i_glide_erotb>  (359) 
0.327483

>  <r_i_glide_esite>  (359) 
-0.00126677

>  <r_i_glide_emodel>  (359) 
-37.947

>  <r_i_glide_energy>  (359) 
-33.5244

>  <r_i_glide_einternal>  (359) 
0.838983

>  <r_i_glide_intrahb_reward>  (359) 
-0

>  <i_i_glide_confnum>  (359) 
3

>  <i_i_glide_posenum>  (359) 
14

>  <r_i_glide_eff_state_penalty>  (359) 
0

>  <ligand_id>  (359) 
104

>  <original_smiles>  (359) 
CC(N=c1[nH]cnc2sc(Br)nc12)c1nc2cccc(F)c2c(=O)n1-c1cccnn1

>  <smiles>  (359) 
[H]c1nc(N([H])C([H])(c2nc3c([H])c([H])c([H])c(F)c3c(=O)n2-c2nnc([H])c([H])c2[H])C([H])([H])[H])c2nc(Br)sc2n1

$$$$
104:0:2
     RDKit          3D

 43 47  0  0  1  0  0  0  0  0999 V2000
    3.6125   -3.4350    5.9660 C   0  0  0  0  0  0  0  0  0  0  0  0
    2.2221   -3.8163    5.4141 C   0  0  2  0  0  0  0  0  0  0  0  0
    2.3963   -4.7535    4.3200 N   0  0  0  0  0  0  0  0  0  0  0  0
    1.5568   -5.8453    4.1106 C   0  0  0  0  0  0  0  0  0  0  0  0
    0.3454   -5.9282    4.7141 N   0  0  0  0  0  0  0  0  0  0  0  0
   -0.4100   -7.0068    4.4841 C   0  0  0  0  0  0  0  0  0  0  0  0
   -0.1432   -8.0570    3.7104 N   0  0  0  0  0  0  0  0  0  0  0  0
    1.0855   -7.9750    3.1256 C   0  0  0  0  0  0  0  0  0  0  0  0
    1.8074   -9.2351    2.1175 S   0  0  0  0  0  0  0  0  0  0  0  0
    3.1974   -8.1705    1.9446 C   0  0  0  0  0  0  0  0  0  0  0  0
    4.6863   -8.6691    0.8783 Br  0  0  0  0  0  0  0  0  0  0  0  0
    3.1823   -6.9919    2.5650 N   0  0  0  0  0  0  0  0  0  0  0  0
    1.9823   -6.8852    3.2614 C   0  0  0  0  0  0  0  0  0  0  0  0
    1.4347   -2.5702    4.9712 C   0  0  0  0  0  0  0  0  0  0  0  0
    1.8395   -1.9559    3.9048 N   0  0  0  0  0  0  0  0  0  0  0  0
    1.1157   -0.8559    3.4493 C   0  0  0  0  0  0  0  0  0  0  0  0
    1.5428   -0.2287    2.2666 C   0  0  0  0  0  0  0  0  0  0  0  0
    0.8582    0.8981    1.7832 C   0  0  0  0  0  0  0  0  0  0  0  0
   -0.2619    1.3985    2.4705 C   0  0  0  0  0  0  0  0  0  0  0  0
   -0.7061    0.7721    3.6532 C   0  0  0  0  0  0  0  0  0  0  0  0
   -1.7763    1.2819    4.3104 F   0  0  0  0  0  0  0  0  0  0  0  0
   -0.0156   -0.3687    4.1413 C   0  0  0  0  0  0  0  0  0  0  0  0
   -0.4343   -1.0897    5.3922 C   0  0  0  0  0  0  0  0  0  0  0  0
   -1.3932   -0.6823    6.0563 O   0  0  0  0  0  0  0  0  0  0  0  0
    0.3026   -2.1867    5.7471 N   0  0  0  0  0  0  0  0  0  0  0  0
   -0.1499   -2.9446    6.8704 C   0  0  0  0  0  0  0  0  0  0  0  0
    0.6837   -3.0413    8.0114 C   0  0  0  0  0  0  0  0  0  0  0  0
    0.2551   -3.8329    9.0905 C   0  0  0  0  0  0  0  0  0  0  0  0
   -1.0056   -4.4455    8.9848 C   0  0  0  0  0  0  0  0  0  0  0  0
   -1.7869   -4.2889    7.8933 N   0  0  0  0  0  0  0  0  0  0  0  0
   -1.3597   -3.5619    6.8572 N   0  0  0  0  0  0  0  0  0  0  0  0
    3.5566   -2.7430    6.8083 H   0  0  0  0  0  0  0  0  0  0  0  0
    4.2417   -2.9686    5.2004 H   0  0  0  0  0  0  0  0  0  0  0  0
    4.1329   -4.3289    6.3163 H   0  0  0  0  0  0  0  0  0  0  0  0
    1.7003   -4.3881    6.1765 H   0  0  0  0  0  0  0  0  0  0  0  0
   -1.3747   -7.0159    4.9639 H   0  0  0  0  0  0  0  0  0  0  0  0
    2.3941   -0.6221    1.7258 H   0  0  0  0  0  0  0  0  0  0  0  0
    1.1910    1.3561    0.8819 H   0  0  0  0  0  0  0  0  0  0  0  0
   -0.7807    2.2646    2.0833 H   0  0  0  0  0  0  0  0  0  0  0  0
    1.6401   -2.5499    8.0388 H   0  0  0  0  0  0  0  0  0  0  0  0
    0.8814   -3.9798    9.9590 H   0  0  0  0  0  0  0  0  0  0  0  0
   -1.4061   -5.0641    9.7757 H   0  0  0  0  0  0  0  0  0  0  0  0
    3.0481   -4.5251    3.5848 H   0  0  0  0  0  0  0  0  0  0  0  0
  1  2  1  0
  1 32  1  0
  1 33  1  0
  1 34  1  0
  2  3  1  0
  2 14  1  0
  2 35  1  1
  3  4  1  0
  3 43  1  0
  4 13  1  0
  4  5  2  0
  5  6  1  0
  6  7  2  0
  6 36  1  0
  7  8  1  0
  8 13  2  0
  8  9  1  0
  9 10  1  0
 10 11  1  0
 10 12  2  0
 12 13  1  0
 14 25  1  0
 14 15  2  0
 15 16  1  0
 16 22  2  0
 16 17  1  0
 17 18  2  0
 17 37  1  0
 18 19  1  0
 18 38  1  0
 19 20  2  0
 19 39  1  0
 20 21  1  0
 20 22  1  0
 22 23  1  0
 23 24  2  0
 23 25  1  0
 25 26  1  0
 26 31  1  0
 26 27  2  0
 27 28  1  0
 27 40  1  0
 28 29  2  0
 28 41  1  0
 29 30  1  0
 29 42  1  0
 30 31  2  0
M  END
>  <i_m_ct_stereo_status>  (360) 
1

>  <s_m_source_file>  (360) 
/var/tmp/pbs.5083856.sched01/tmpox984v0f/145eadvgmfj.sdf

>  <i_m_source_file_index>  (360) 
4

>  <i_lp_mmshare_version>  (360) 
48012

>  <i_f3d_flags>  (360) 
0

>  <s_epik_input>  (360) 
czFjKEJyKW5jKGMxMiljKC9bbkhdW2NIXW4yKT1OXFtDQEBIXShbQ0gzXSljKG4zKW4oLWM0W2NIXVtjSF1bY0hdbm40KWMoPU8pYyhjMzUpYyhGKVtjSF1bY0hdW2NIXTU=

>  <s_epik_cmdline>  (360) 
J2VwaWtfcHl0aG9uJywgJy1waHQnLCAnMi4wJywgJy1waCcsICc3LjAnLCAnLXRuJywgJzgnLCAnLW1hJywgJzIwMCcsICctaW1hZScsICc8aW5maWxlLm1hZT4nLCAnLW9tYWUnLCAnPG91dGZpbGUubWFlPic=

>  <r_lp_tautomer_probability>  (360) 
1

>  <r_epik_Ionization_Penalty>  (360) 
0.000119773

>  <r_epik_Ionization_Penalty_Charging>  (360) 
1.46585e-10

>  <r_epik_Ionization_Penalty_Neutral>  (360) 
0.000119773

>  <r_epik_State_Penalty>  (360) 
-0

>  <r_epik_Charging_Adjusted_Penalty>  (360) 
1.46585e-10

>  <i_epik_Tot_Q>  (360) 
0

>  <i_epik_Tot_abs_Q>  (360) 
0

>  <s_lp_Force_Field>  (360) 
OPLS3e

>  <r_lp_Energy>  (360) 
64.0939

>  <b_lp_Chiralities_Consistent>  (360) 
1

>  <s_lp_Variant>  (360) 
104:0-1

>  <s_i_glide_gridfile>  (360) 
pfpi4k_grid

>  <i_i_glide_lignum>  (360) 
4

>  <i_i_glide_rotatable_bonds>  (360) 
4

>  <r_i_docking_score>  (360) 
-1.98902

>  <r_i_glide_ligand_efficiency>  (360) 
-0.064162

>  <r_i_glide_ligand_efficiency_sa>  (360) 
-0.201557

>  <r_i_glide_ligand_efficiency_ln>  (360) 
-0.448585

>  <r_i_glide_gscore>  (360) 
-1.98902

>  <r_i_glide_lipo>  (360) 
-0.0607948

>  <r_i_glide_hbond>  (360) 
-0.077665

>  <r_i_glide_metal>  (360) 
-0

>  <r_i_glide_rewards>  (360) 
-0.00669871

>  <r_i_glide_evdw>  (360) 
-33.0138

>  <r_i_glide_ecoul>  (360) 
-2.36966

>  <r_i_glide_erotb>  (360) 
0.327483

>  <r_i_glide_esite>  (360) 
-0.165208

>  <r_i_glide_emodel>  (360) 
-38.035

>  <r_i_glide_energy>  (360) 
-35.3835

>  <r_i_glide_einternal>  (360) 
2.84105

>  <r_i_glide_intrahb_reward>  (360) 
-0

>  <i_i_glide_confnum>  (360) 
5

>  <i_i_glide_posenum>  (360) 
4

>  <r_i_glide_eff_state_penalty>  (360) 
0

>  <ligand_id>  (360) 
104

>  <original_smiles>  (360) 
CC(N=c1[nH]cnc2sc(Br)nc12)c1nc2cccc(F)c2c(=O)n1-c1cccnn1

>  <smiles>  (360) 
[H]c1nc(N([H])C([H])(c2nc3c([H])c([H])c([H])c(F)c3c(=O)n2-c2nnc([H])c([H])c2[H])C([H])([H])[H])c2nc(Br)sc2n1

$$$$
106:0:0
     RDKit          3D

 68 72  0  0  1  0  0  0  0  0999 V2000
   -0.8273   -2.8669    6.3342 C   0  0  0  0  0  0  0  0  0  0  0  0
    0.0687   -4.0610    6.6636 C   0  0  2  0  0  0  0  0  0  0  0  0
    0.0913   -4.2582    8.2011 C   0  0  0  0  0  0  0  0  0  0  0  0
    1.2413   -5.1402    8.6993 C   0  0  0  0  0  0  0  0  0  0  0  0
    1.7196   -6.0659    7.5800 C   0  0  2  0  0  0  0  0  0  0  0  0
    2.6887   -7.1474    8.0513 C   0  0  1  0  0  0  0  0  0  0  0  0
    2.1535   -8.0681    9.1727 C   0  0  0  0  0  0  0  0  0  0  0  0
    3.0336   -8.0126    6.8379 C   0  0  1  0  0  0  0  0  0  0  0  0
    1.9290   -8.8181    6.5110 O   0  0  0  0  0  0  0  0  0  0  0  0
    2.1005   -9.9769    5.6729 C   0  0  2  0  0  0  0  0  0  0  0  0
    3.4201  -10.7168    6.0091 C   0  0  1  0  0  0  0  0  0  0  0  0
    3.4236  -11.0767    7.4425 N   0  0  0  0  0  0  0  0  0  0  0  0
    3.6609  -11.9642    5.1513 C   0  0  0  0  0  0  0  0  0  0  0  0
    3.6000  -11.6028    3.6602 C   0  0  1  0  0  0  0  0  0  0  0  0
    3.8487  -12.8024    2.8724 N   0  0  0  0  0  0  0  0  0  0  0  0
    2.2641  -10.9256    3.2925 C   0  0  1  0  0  0  0  0  0  0  0  0
    1.1837  -11.8493    3.5291 O   0  0  0  0  0  0  0  0  0  0  0  0
    2.0112   -9.6592    4.1577 C   0  0  1  0  0  0  0  0  0  0  0  0
    0.7221   -9.1654    3.8289 O   0  0  0  0  0  0  0  0  0  0  0  0
    3.5017   -7.2394    5.7698 O   0  0  0  0  0  0  0  0  0  0  0  0
    2.6416   -6.2465    5.2878 C   0  0  2  0  0  0  0  0  0  0  0  0
    3.2617   -5.6662    4.1871 O   0  0  0  0  0  0  0  0  0  0  0  0
    3.9790   -4.4682    4.4231 C   0  0  1  0  0  0  0  0  0  0  0  0
    5.1770   -4.4666    3.4653 C   0  0  0  0  0  0  0  0  0  0  0  0
    3.0150   -3.3208    4.1064 C   0  0  0  0  0  0  0  0  0  0  0  0
    1.5811   -3.5586    4.6025 C   0  0  0  0  0  0  0  0  0  0  0  0
    1.5077   -3.9788    6.0805 C   0  0  2  0  0  0  0  0  0  0  0  0
    2.3703   -5.2367    6.4379 C   0  0  1  0  0  0  0  0  0  0  0  0
    3.6328   -4.7322    6.8799 O   0  0  0  0  0  0  0  0  0  0  0  0
    4.5787   -4.3898    5.7203 O   0  0  0  0  0  0  0  0  0  0  0  0
   -0.3855   -1.9249    6.6636 H   0  0  0  0  0  0  0  0  0  0  0  0
   -1.7905   -2.9860    6.8266 H   0  0  0  0  0  0  0  0  0  0  0  0
   -1.0261   -2.7934    5.2678 H   0  0  0  0  0  0  0  0  0  0  0  0
   -0.4097   -4.9400    6.2238 H   0  0  0  0  0  0  0  0  0  0  0  0
    0.1203   -3.3050    8.7378 H   0  0  0  0  0  0  0  0  0  0  0  0
   -0.8335   -4.7477    8.4918 H   0  0  0  0  0  0  0  0  0  0  0  0
    2.0773   -4.5167    9.0192 H   0  0  0  0  0  0  0  0  0  0  0  0
    0.9190   -5.7125    9.5742 H   0  0  0  0  0  0  0  0  0  0  0  0
    0.8432   -6.5757    7.1750 H   0  0  0  0  0  0  0  0  0  0  0  0
    3.6220   -6.6879    8.3843 H   0  0  0  0  0  0  0  0  0  0  0  0
    1.1665   -8.4761    8.9398 H   0  0  0  0  0  0  0  0  0  0  0  0
    2.0892   -7.5459   10.1248 H   0  0  0  0  0  0  0  0  0  0  0  0
    2.8168   -8.9157    9.3373 H   0  0  0  0  0  0  0  0  0  0  0  0
    3.8857   -8.6026    7.1705 H   0  0  0  0  0  0  0  0  0  0  0  0
    1.2594  -10.6349    5.9008 H   0  0  0  0  0  0  0  0  0  0  0  0
    4.2679  -10.0659    5.7932 H   0  0  0  0  0  0  0  0  0  0  0  0
    2.6661  -11.7355    7.6448 H   0  0  0  0  0  0  0  0  0  0  0  0
    3.2395  -10.2480    7.9969 H   0  0  0  0  0  0  0  0  0  0  0  0
    4.6452  -12.3590    5.3955 H   0  0  0  0  0  0  0  0  0  0  0  0
    2.9430  -12.7434    5.3992 H   0  0  0  0  0  0  0  0  0  0  0  0
    4.4027  -10.9016    3.4370 H   0  0  0  0  0  0  0  0  0  0  0  0
    3.1548  -13.5105    3.0506 H   0  0  0  0  0  0  0  0  0  0  0  0
    4.7538  -13.1828    3.0770 H   0  0  0  0  0  0  0  0  0  0  0  0
    2.2846  -10.6356    2.2352 H   0  0  0  0  0  0  0  0  0  0  0  0
    1.3866  -12.7167    3.2597 H   0  0  0  0  0  0  0  0  0  0  0  0
    2.7468   -8.8943    3.9019 H   0  0  0  0  0  0  0  0  0  0  0  0
    0.0812   -9.8591    3.9826 H   0  0  0  0  0  0  0  0  0  0  0  0
    1.7248   -6.7098    4.9187 H   0  0  0  0  0  0  0  0  0  0  0  0
    5.8585   -5.2852    3.7012 H   0  0  0  0  0  0  0  0  0  0  0  0
    5.7454   -3.5367    3.5518 H   0  0  0  0  0  0  0  0  0  0  0  0
    4.8761   -4.5805    2.4219 H   0  0  0  0  0  0  0  0  0  0  0  0
    3.4216   -2.3865    4.4952 H   0  0  0  0  0  0  0  0  0  0  0  0
    2.9547   -3.1986    3.0222 H   0  0  0  0  0  0  0  0  0  0  0  0
    1.0437   -2.6268    4.4583 H   0  0  0  0  0  0  0  0  0  0  0  0
    1.0739   -4.3038    3.9855 H   0  0  0  0  0  0  0  0  0  0  0  0
    1.9762   -3.1574    6.6255 H   0  0  0  0  0  0  0  0  0  0  0  0
    4.2950  -11.4987    7.7316 H   0  0  0  0  0  0  0  0  0  0  0  0
    3.8198  -12.5986    1.8156 H   0  0  0  0  0  0  0  0  0  0  0  0
  1  2  1  0
  1 31  1  0
  1 32  1  0
  1 33  1  0
  2 27  1  0
  2  3  1  0
  2 34  1  6
  3  4  1  0
  3 35  1  0
  3 36  1  0
  4  5  1  0
  4 37  1  0
  4 38  1  0
  5 28  1  0
  5  6  1  0
  5 39  1  6
  6  7  1  0
  6  8  1  0
  6 40  1  1
  7 41  1  0
  7 42  1  0
  7 43  1  0
  8  9  1  0
  8 20  1  0
  8 44  1  1
  9 10  1  0
 10 18  1  0
 10 11  1  0
 10 45  1  1
 11 12  1  0
 11 13  1  0
 11 46  1  1
 12 47  1  0
 12 48  1  0
 12 67  1  0
 13 14  1  0
 13 49  1  0
 13 50  1  0
 14 15  1  0
 14 16  1  0
 14 51  1  1
 15 52  1  0
 15 53  1  0
 15 68  1  0
 16 17  1  0
 16 18  1  0
 16 54  1  6
 17 55  1  0
 18 19  1  0
 18 56  1  6
 19 57  1  0
 20 21  1  0
 21 28  1  0
 21 22  1  0
 21 58  1  6
 22 23  1  0
 23 30  1  0
 23 24  1  6
 23 25  1  0
 24 59  1  0
 24 60  1  0
 24 61  1  0
 25 26  1  0
 25 62  1  0
 25 63  1  0
 26 27  1  0
 26 64  1  0
 26 65  1  0
 27 28  1  0
 27 66  1  1
 28 29  1  1
 29 30  1  0
M  CHG  2  12   1  15   1
M  END
>  <i_m_ct_stereo_status>  (361) 
1

>  <s_m_source_file>  (361) 
/var/tmp/pbs.5083856.sched01/tmpfd511yf2/150gz97klq0.sdf

>  <i_m_source_file_index>  (361) 
1

>  <i_lp_mmshare_version>  (361) 
48012

>  <i_f3d_flags>  (361) 
0

>  <s_epik_input>  (361) 
W0NAXTEyM1tDQEBIXTRbQ0gyXVtDSDJdW0NAQEhdKFtDSDNdKVtDQEBIXTJbQ0gyXVtDSDJdW0NAQF0oW0NIM10pKE9PMylPW0NASF0xT1tDQEBIXShbQ0BASF00W0NIM10pT1tDQEBIXTVbQ0BASF0oW05IMl0pW0NIMl1bQ0BASF0oW05IMl0pW0NAQEhdKFtPSF0pW0NASF01W09IXQ==

>  <s_epik_cmdline>  (361) 
J2VwaWtfcHl0aG9uJywgJy1waHQnLCAnMi4wJywgJy1waCcsICc3LjAnLCAnLXRuJywgJzgnLCAnLW1hJywgJzIwMCcsICctaW1hZScsICc8aW5maWxlLm1hZT4nLCAnLW9tYWUnLCAnPG91dGZpbGUubWFlPic=

>  <r_epik_Ionization_Penalty>  (361) 
0.100299

>  <r_epik_Ionization_Penalty_Charging>  (361) 
0.100285

>  <r_epik_Ionization_Penalty_Neutral>  (361) 
1.39497e-05

>  <r_epik_State_Penalty>  (361) 
0.0857731

>  <r_epik_Charging_Adjusted_Penalty>  (361) 
0.186058

>  <i_epik_Tot_Q>  (361) 
2

>  <i_epik_Tot_abs_Q>  (361) 
2

>  <s_epik_Chemistry_Notes>  (361) 
This compound contains an acetal/aminal-like group ( X-CH(R)-Y where X, Y are N, S, or O) that may be acid/base labile, releasing an aldehyde.

>  <s_lp_Force_Field>  (361) 
OPLS3e

>  <r_lp_Energy>  (361) 
63.3192

>  <b_lp_Chiralities_Consistent>  (361) 
1

>  <s_lp_Variant>  (361) 
106:0-1

>  <s_i_glide_gridfile>  (361) 
pfpi4k_grid

>  <i_i_glide_lignum>  (361) 
1

>  <i_i_glide_rotatable_bonds>  (361) 
4

>  <r_i_docking_score>  (361) 
-5.05368

>  <r_i_glide_ligand_efficiency>  (361) 
-0.168456

>  <r_i_glide_ligand_efficiency_sa>  (361) 
-0.523432

>  <r_i_glide_ligand_efficiency_ln>  (361) 
-1.14825

>  <r_i_glide_gscore>  (361) 
-5.05368

>  <r_i_glide_lipo>  (361) 
-0.0757149

>  <r_i_glide_hbond>  (361) 
-0.364813

>  <r_i_glide_metal>  (361) 
-0

>  <r_i_glide_rewards>  (361) 
-0.473621

>  <r_i_glide_evdw>  (361) 
-15.8136

>  <r_i_glide_ecoul>  (361) 
-22.457

>  <r_i_glide_erotb>  (361) 
0.214522

>  <r_i_glide_esite>  (361) 
-0.194827

>  <r_i_glide_emodel>  (361) 
-46.6706

>  <r_i_glide_energy>  (361) 
-38.2706

>  <r_i_glide_einternal>  (361) 
20.8798

>  <r_i_glide_intrahb_reward>  (361) 
-0

>  <i_i_glide_confnum>  (361) 
2

>  <i_i_glide_posenum>  (361) 
40

>  <r_i_glide_eff_state_penalty>  (361) 
0

>  <ligand_id>  (361) 
106

>  <original_smiles>  (361) 
CC1CCC2C(C)C(OC3C(N)CC(N)C(O)C3O)OC3OC4(C)CCC1C32OO4

>  <smiles>  (361) 
[H]OC1([H])C([H])(O[H])C([H])([N+]([H])([H])[H])C([H])([H])C([H])([N+]([H])([H])[H])C1([H])OC1([H])OC2([H])OC3(C([H])([H])[H])OOC24C([H])(C([H])([H])C([H])([H])C([H])(C([H])([H])[H])C4([H])C([H])([H])C3([H])[H])C1([H])C([H])([H])[H]

$$$$
106:0:1
     RDKit          3D

 68 72  0  0  1  0  0  0  0  0999 V2000
   -0.8750   -1.0844    4.9873 C   0  0  0  0  0  0  0  0  0  0  0  0
   -0.1201   -2.3580    5.4162 C   0  0  2  0  0  0  0  0  0  0  0  0
   -0.2124   -2.5053    6.9555 C   0  0  0  0  0  0  0  0  0  0  0  0
    0.7975   -3.4878    7.5625 C   0  0  0  0  0  0  0  0  0  0  0  0
    1.2485   -4.4997    6.5108 C   0  0  2  0  0  0  0  0  0  0  0  0
    2.0488   -5.6842    7.0800 C   0  0  1  0  0  0  0  0  0  0  0  0
    1.3383   -6.4868    8.1972 C   0  0  0  0  0  0  0  0  0  0  0  0
    2.3522   -6.6262    5.9045 C   0  0  1  0  0  0  0  0  0  0  0  0
    1.1685   -7.2445    5.4523 O   0  0  0  0  0  0  0  0  0  0  0  0
    1.2827   -8.4566    4.6774 C   0  0  2  0  0  0  0  0  0  0  0  0
    1.6802   -9.6377    5.6047 C   0  0  1  0  0  0  0  0  0  0  0  0
    0.6785   -9.8605    6.6755 N   0  0  0  0  0  0  0  0  0  0  0  0
    1.8788  -10.9474    4.8078 C   0  0  0  0  0  0  0  0  0  0  0  0
    2.8874  -10.7581    3.6479 C   0  0  1  0  0  0  0  0  0  0  0  0
    3.0449  -12.0065    2.8788 N   0  0  0  0  0  0  0  0  0  0  0  0
    2.4530   -9.6353    2.7008 C   0  0  1  0  0  0  0  0  0  0  0  0
    1.2488  -10.0204    2.0854 O   0  0  0  0  0  0  0  0  0  0  0  0
    2.2392   -8.3257    3.4515 C   0  0  1  0  0  0  0  0  0  0  0  0
    1.7273   -7.3897    2.5280 O   0  0  0  0  0  0  0  0  0  0  0  0
    3.0162   -5.9136    4.9023 O   0  0  0  0  0  0  0  0  0  0  0  0
    2.2886   -4.8577    4.3292 C   0  0  2  0  0  0  0  0  0  0  0  0
    3.0074   -4.3993    3.2360 O   0  0  0  0  0  0  0  0  0  0  0  0
    3.8389   -3.2707    3.4654 C   0  0  1  0  0  0  0  0  0  0  0  0
    5.0887   -3.4455    2.5847 C   0  0  0  0  0  0  0  0  0  0  0  0
    3.0331   -2.0411    3.0369 C   0  0  0  0  0  0  0  0  0  0  0  0
    1.5593   -2.1045    3.4462 C   0  0  0  0  0  0  0  0  0  0  0  0
    1.3534   -2.4521    4.9327 C   0  0  2  0  0  0  0  0  0  0  0  0
    2.0565   -3.7753    5.4086 C   0  0  1  0  0  0  0  0  0  0  0  0
    3.3300   -3.3742    5.9211 O   0  0  0  0  0  0  0  0  0  0  0  0
    4.3755   -3.1923    4.7985 O   0  0  0  0  0  0  0  0  0  0  0  0
   -0.3504   -0.1801    5.3047 H   0  0  0  0  0  0  0  0  0  0  0  0
   -1.8788   -1.0565    5.4216 H   0  0  0  0  0  0  0  0  0  0  0  0
   -1.0042   -1.0369    3.9044 H   0  0  0  0  0  0  0  0  0  0  0  0
   -0.6532   -3.1956    4.9649 H   0  0  0  0  0  0  0  0  0  0  0  0
   -0.1194   -1.5345    7.4520 H   0  0  0  0  0  0  0  0  0  0  0  0
   -1.2036   -2.8896    7.1790 H   0  0  0  0  0  0  0  0  0  0  0  0
    1.6699   -2.9371    7.9204 H   0  0  0  0  0  0  0  0  0  0  0  0
    0.3443   -3.9744    8.4360 H   0  0  0  0  0  0  0  0  0  0  0  0
    0.3470   -4.9249    6.0764 H   0  0  0  0  0  0  0  0  0  0  0  0
    3.0108   -5.3399    7.4730 H   0  0  0  0  0  0  0  0  0  0  0  0
    0.3233   -6.7736    7.9110 H   0  0  0  0  0  0  0  0  0  0  0  0
    1.2735   -5.9094    9.1216 H   0  0  0  0  0  0  0  0  0  0  0  0
    1.8854   -7.4033    8.4427 H   0  0  0  0  0  0  0  0  0  0  0  0
    3.0568   -7.3642    6.2706 H   0  0  0  0  0  0  0  0  0  0  0  0
    0.2794   -8.6772    4.3093 H   0  0  0  0  0  0  0  0  0  0  0  0
    2.6307   -9.4576    6.1051 H   0  0  0  0  0  0  0  0  0  0  0  0
   -0.2133  -10.1020    6.2731 H   0  0  0  0  0  0  0  0  0  0  0  0
    0.5753   -8.9939    7.2308 H   0  0  0  0  0  0  0  0  0  0  0  0
    2.2519  -11.7248    5.4763 H   0  0  0  0  0  0  0  0  0  0  0  0
    0.9203  -11.3046    4.4277 H   0  0  0  0  0  0  0  0  0  0  0  0
    3.8646  -10.5064    4.0672 H   0  0  0  0  0  0  0  0  0  0  0  0
    2.1432  -12.2184    2.4861 H   0  0  0  0  0  0  0  0  0  0  0  0
    3.3371  -12.7814    3.4678 H   0  0  0  0  0  0  0  0  0  0  0  0
    3.2179   -9.4682    1.9448 H   0  0  0  0  0  0  0  0  0  0  0  0
    1.1312   -9.5392    1.2681 H   0  0  0  0  0  0  0  0  0  0  0  0
    3.2301   -8.0401    3.7916 H   0  0  0  0  0  0  0  0  0  0  0  0
    2.4283   -7.1564    1.9181 H   0  0  0  0  0  0  0  0  0  0  0  0
    1.3326   -5.2146    3.9401 H   0  0  0  0  0  0  0  0  0  0  0  0
    5.6639   -4.3239    2.8907 H   0  0  0  0  0  0  0  0  0  0  0  0
    5.7551   -2.5833    2.6746 H   0  0  0  0  0  0  0  0  0  0  0  0
    4.8461   -3.5679    1.5288 H   0  0  0  0  0  0  0  0  0  0  0  0
    3.5168   -1.1450    3.4175 H   0  0  0  0  0  0  0  0  0  0  0  0
    3.0572   -1.9636    1.9528 H   0  0  0  0  0  0  0  0  0  0  0  0
    1.1323   -1.1300    3.2270 H   0  0  0  0  0  0  0  0  0  0  0  0
    1.0151   -2.8170    2.8270 H   0  0  0  0  0  0  0  0  0  0  0  0
    1.8601   -1.6496    5.4744 H   0  0  0  0  0  0  0  0  0  0  0  0
    0.9986  -10.6069    7.2604 H   0  0  0  0  0  0  0  0  0  0  0  0
    3.6841  -11.8839    2.1078 H   0  0  0  0  0  0  0  0  0  0  0  0
  1  2  1  0
  1 31  1  0
  1 32  1  0
  1 33  1  0
  2 27  1  0
  2  3  1  0
  2 34  1  6
  3  4  1  0
  3 35  1  0
  3 36  1  0
  4  5  1  0
  4 37  1  0
  4 38  1  0
  5 28  1  0
  5  6  1  0
  5 39  1  6
  6  7  1  0
  6  8  1  0
  6 40  1  1
  7 41  1  0
  7 42  1  0
  7 43  1  0
  8  9  1  0
  8 20  1  0
  8 44  1  1
  9 10  1  0
 10 18  1  0
 10 11  1  0
 10 45  1  6
 11 12  1  0
 11 13  1  0
 11 46  1  1
 12 47  1  0
 12 48  1  0
 12 67  1  0
 13 14  1  0
 13 49  1  0
 13 50  1  0
 14 15  1  0
 14 16  1  0
 14 51  1  1
 15 52  1  0
 15 53  1  0
 15 68  1  0
 16 17  1  0
 16 18  1  0
 16 54  1  6
 17 55  1  0
 18 19  1  0
 18 56  1  1
 19 57  1  0
 20 21  1  0
 21 28  1  0
 21 22  1  0
 21 58  1  6
 22 23  1  0
 23 30  1  0
 23 24  1  6
 23 25  1  0
 24 59  1  0
 24 60  1  0
 24 61  1  0
 25 26  1  0
 25 62  1  0
 25 63  1  0
 26 27  1  0
 26 64  1  0
 26 65  1  0
 27 28  1  0
 27 66  1  1
 28 29  1  1
 29 30  1  0
M  CHG  2  12   1  15   1
M  END
>  <i_m_ct_stereo_status>  (362) 
1

>  <s_m_source_file>  (362) 
/var/tmp/pbs.5083856.sched01/tmpfd511yf2/150gz97klq0.sdf

>  <i_m_source_file_index>  (362) 
1

>  <i_lp_mmshare_version>  (362) 
48012

>  <i_f3d_flags>  (362) 
0

>  <s_epik_input>  (362) 
W0NAXTEyM1tDQEBIXTRbQ0gyXVtDSDJdW0NAQEhdKFtDSDNdKVtDQEBIXTJbQ0gyXVtDSDJdW0NAQF0oW0NIM10pKE9PMylPW0NASF0xT1tDQEBIXShbQ0BASF00W0NIM10pT1tDQEBIXTVbQ0BASF0oW05IMl0pW0NIMl1bQ0BASF0oW05IMl0pW0NAQEhdKFtPSF0pW0NASF01W09IXQ==

>  <s_epik_cmdline>  (362) 
J2VwaWtfcHl0aG9uJywgJy1waHQnLCAnMi4wJywgJy1waCcsICc3LjAnLCAnLXRuJywgJzgnLCAnLW1hJywgJzIwMCcsICctaW1hZScsICc8aW5maWxlLm1hZT4nLCAnLW9tYWUnLCAnPG91dGZpbGUubWFlPic=

>  <r_epik_Ionization_Penalty>  (362) 
0.100299

>  <r_epik_Ionization_Penalty_Charging>  (362) 
0.100285

>  <r_epik_Ionization_Penalty_Neutral>  (362) 
1.39497e-05

>  <r_epik_State_Penalty>  (362) 
0.0857731

>  <r_epik_Charging_Adjusted_Penalty>  (362) 
0.186058

>  <i_epik_Tot_Q>  (362) 
2

>  <i_epik_Tot_abs_Q>  (362) 
2

>  <s_epik_Chemistry_Notes>  (362) 
This compound contains an acetal/aminal-like group ( X-CH(R)-Y where X, Y are N, S, or O) that may be acid/base labile, releasing an aldehyde.

>  <s_lp_Force_Field>  (362) 
OPLS3e

>  <r_lp_Energy>  (362) 
63.3192

>  <b_lp_Chiralities_Consistent>  (362) 
1

>  <s_lp_Variant>  (362) 
106:0-1

>  <s_i_glide_gridfile>  (362) 
pfpi4k_grid

>  <i_i_glide_lignum>  (362) 
1

>  <i_i_glide_rotatable_bonds>  (362) 
4

>  <r_i_docking_score>  (362) 
-3.78155

>  <r_i_glide_ligand_efficiency>  (362) 
-0.126052

>  <r_i_glide_ligand_efficiency_sa>  (362) 
-0.391672

>  <r_i_glide_ligand_efficiency_ln>  (362) 
-0.85921

>  <r_i_glide_gscore>  (362) 
-3.78155

>  <r_i_glide_lipo>  (362) 
-0.0712886

>  <r_i_glide_hbond>  (362) 
-0.394433

>  <r_i_glide_metal>  (362) 
-0

>  <r_i_glide_rewards>  (362) 
-0.473621

>  <r_i_glide_evdw>  (362) 
-18.3856

>  <r_i_glide_ecoul>  (362) 
-13.1113

>  <r_i_glide_erotb>  (362) 
0.214522

>  <r_i_glide_esite>  (362) 
-0.170768

>  <r_i_glide_emodel>  (362) 
-43.5184

>  <r_i_glide_energy>  (362) 
-31.4968

>  <r_i_glide_einternal>  (362) 
4.62318

>  <r_i_glide_intrahb_reward>  (362) 
-0

>  <i_i_glide_confnum>  (362) 
2

>  <i_i_glide_posenum>  (362) 
1

>  <r_i_glide_eff_state_penalty>  (362) 
0

>  <ligand_id>  (362) 
106

>  <original_smiles>  (362) 
CC1CCC2C(C)C(OC3C(N)CC(N)C(O)C3O)OC3OC4(C)CCC1C32OO4

>  <smiles>  (362) 
[H]OC1([H])C([H])(O[H])C([H])([N+]([H])([H])[H])C([H])([H])C([H])([N+]([H])([H])[H])C1([H])OC1([H])OC2([H])OC3(C([H])([H])[H])OOC24C([H])(C([H])([H])C([H])([H])C([H])(C([H])([H])[H])C4([H])C([H])([H])C3([H])[H])C1([H])C([H])([H])[H]

$$$$
106:0:2
     RDKit          3D

 68 72  0  0  1  0  0  0  0  0999 V2000
    1.3081   -0.8618    2.6699 C   0  0  0  0  0  0  0  0  0  0  0  0
    1.1180   -1.9732    3.7267 C   0  0  2  0  0  0  0  0  0  0  0  0
   -0.0656   -1.5995    4.6548 C   0  0  0  0  0  0  0  0  0  0  0  0
   -0.1083   -2.3965    5.9672 C   0  0  0  0  0  0  0  0  0  0  0  0
    0.6327   -3.7276    5.8146 C   0  0  2  0  0  0  0  0  0  0  0  0
    0.4168   -4.7362    6.9566 C   0  0  1  0  0  0  0  0  0  0  0  0
   -1.0599   -5.0482    7.2800 C   0  0  0  0  0  0  0  0  0  0  0  0
    1.1491   -6.0430    6.5517 C   0  0  1  0  0  0  0  0  0  0  0  0
    0.5298   -6.6345    5.4320 O   0  0  0  0  0  0  0  0  0  0  0  0
    1.0382   -7.9350    5.1077 C   0  0  2  0  0  0  0  0  0  0  0  0
    0.9287   -8.0516    3.5615 C   0  0  1  0  0  0  0  0  0  0  0  0
    1.7113   -6.9975    2.8927 N   0  0  0  0  0  0  0  0  0  0  0  0
    1.4202   -9.4145    3.0598 C   0  0  0  0  0  0  0  0  0  0  0  0
    0.6704  -10.5676    3.7403 C   0  0  1  0  0  0  0  0  0  0  0  0
    1.2118  -11.8537    3.2897 N   0  0  0  0  0  0  0  0  0  0  0  0
    0.7428  -10.4568    5.2708 C   0  0  1  0  0  0  0  0  0  0  0  0
    2.0855  -10.6606    5.6756 O   0  0  0  0  0  0  0  0  0  0  0  0
    0.2384   -9.0895    5.7829 C   0  0  1  0  0  0  0  0  0  0  0  0
    0.3526   -9.0963    7.1981 O   0  0  0  0  0  0  0  0  0  0  0  0
    2.5020   -5.7487    6.3281 O   0  0  0  0  0  0  0  0  0  0  0  0
    2.7573   -4.8459    5.2848 C   0  0  2  0  0  0  0  0  0  0  0  0
    4.1243   -4.8254    5.0767 O   0  0  0  0  0  0  0  0  0  0  0  0
    4.8177   -3.7326    5.6451 C   0  0  1  0  0  0  0  0  0  0  0  0
    6.2014   -4.2696    6.0536 C   0  0  0  0  0  0  0  0  0  0  0  0
    4.9404   -2.6640    4.5434 C   0  0  0  0  0  0  0  0  0  0  0  0
    3.6673   -2.4940    3.7042 C   0  0  0  0  0  0  0  0  0  0  0  0
    2.3926   -2.3284    4.5513 C   0  0  2  0  0  0  0  0  0  0  0  0
    2.1501   -3.4597    5.6180 C   0  0  1  0  0  0  0  0  0  0  0  0
    2.7454   -2.9991    6.8277 O   0  0  0  0  0  0  0  0  0  0  0  0
    4.2591   -3.2547    6.8794 O   0  0  0  0  0  0  0  0  0  0  0  0
    1.6905    0.0603    3.1101 H   0  0  0  0  0  0  0  0  0  0  0  0
    0.3576   -0.6178    2.1881 H   0  0  0  0  0  0  0  0  0  0  0  0
    1.9807   -1.1676    1.8659 H   0  0  0  0  0  0  0  0  0  0  0  0
    0.8315   -2.8652    3.1686 H   0  0  0  0  0  0  0  0  0  0  0  0
   -0.0661   -0.5310    4.8797 H   0  0  0  0  0  0  0  0  0  0  0  0
   -0.9871   -1.7909    4.1098 H   0  0  0  0  0  0  0  0  0  0  0  0
    0.3690   -1.8186    6.7619 H   0  0  0  0  0  0  0  0  0  0  0  0
   -1.1496   -2.5422    6.2569 H   0  0  0  0  0  0  0  0  0  0  0  0
    0.2335   -4.2037    4.9240 H   0  0  0  0  0  0  0  0  0  0  0  0
    0.8901   -4.3738    7.8734 H   0  0  0  0  0  0  0  0  0  0  0  0
   -1.6083   -5.3502    6.3873 H   0  0  0  0  0  0  0  0  0  0  0  0
   -1.5687   -4.1877    7.7148 H   0  0  0  0  0  0  0  0  0  0  0  0
   -1.1404   -5.8596    8.0080 H   0  0  0  0  0  0  0  0  0  0  0  0
    1.1066   -6.7324    7.3960 H   0  0  0  0  0  0  0  0  0  0  0  0
    2.0927   -8.0206    5.3756 H   0  0  0  0  0  0  0  0  0  0  0  0
   -0.1158   -7.9191    3.2716 H   0  0  0  0  0  0  0  0  0  0  0  0
    2.6829   -7.0867    3.1578 H   0  0  0  0  0  0  0  0  0  0  0  0
    1.3554   -6.1075    3.2074 H   0  0  0  0  0  0  0  0  0  0  0  0
    1.2994   -9.4746    1.9742 H   0  0  0  0  0  0  0  0  0  0  0  0
    2.4939   -9.5019    3.2520 H   0  0  0  0  0  0  0  0  0  0  0  0
   -0.3752  -10.5206    3.4391 H   0  0  0  0  0  0  0  0  0  0  0  0
    2.1815  -11.9279    3.5682 H   0  0  0  0  0  0  0  0  0  0  0  0
    1.1540  -11.9436    2.2837 H   0  0  0  0  0  0  0  0  0  0  0  0
    0.1508  -11.2603    5.7087 H   0  0  0  0  0  0  0  0  0  0  0  0
    2.0715  -11.2628    6.4176 H   0  0  0  0  0  0  0  0  0  0  0  0
   -0.8200   -8.9923    5.5377 H   0  0  0  0  0  0  0  0  0  0  0  0
    0.6428   -9.9619    7.4732 H   0  0  0  0  0  0  0  0  0  0  0  0
    2.3375   -5.1905    4.3548 H   0  0  0  0  0  0  0  0  0  0  0  0
    6.0998   -5.0371    6.8238 H   0  0  0  0  0  0  0  0  0  0  0  0
    6.8229   -3.4717    6.4635 H   0  0  0  0  0  0  0  0  0  0  0  0
    6.7408   -4.7189    5.2200 H   0  0  0  0  0  0  0  0  0  0  0  0
    5.2484   -1.7234    4.9951 H   0  0  0  0  0  0  0  0  0  0  0  0
    5.7363   -2.9471    3.8547 H   0  0  0  0  0  0  0  0  0  0  0  0
    3.8211   -1.6131    3.0854 H   0  0  0  0  0  0  0  0  0  0  0  0
    3.5453   -3.3247    3.0087 H   0  0  0  0  0  0  0  0  0  0  0  0
    2.5757   -1.4269    5.1381 H   0  0  0  0  0  0  0  0  0  0  0  0
    1.6378   -7.0625    1.8859 H   0  0  0  0  0  0  0  0  0  0  0  0
    0.7150  -12.6277    3.7149 H   0  0  0  0  0  0  0  0  0  0  0  0
  1  2  1  0
  1 31  1  0
  1 32  1  0
  1 33  1  0
  2 27  1  0
  2  3  1  0
  2 34  1  6
  3  4  1  0
  3 35  1  0
  3 36  1  0
  4  5  1  0
  4 37  1  0
  4 38  1  0
  5 28  1  0
  5  6  1  0
  5 39  1  6
  6  7  1  0
  6  8  1  0
  6 40  1  1
  7 41  1  0
  7 42  1  0
  7 43  1  0
  8  9  1  0
  8 20  1  0
  8 44  1  1
  9 10  1  0
 10 18  1  0
 10 11  1  0
 10 45  1  6
 11 12  1  0
 11 13  1  0
 11 46  1  1
 12 47  1  0
 12 48  1  0
 12 67  1  0
 13 14  1  0
 13 49  1  0
 13 50  1  0
 14 15  1  0
 14 16  1  0
 14 51  1  1
 15 52  1  0
 15 53  1  0
 15 68  1  0
 16 17  1  0
 16 18  1  0
 16 54  1  1
 17 55  1  0
 18 19  1  0
 18 56  1  1
 19 57  1  0
 20 21  1  0
 21 28  1  0
 21 22  1  0
 21 58  1  6
 22 23  1  0
 23 30  1  0
 23 24  1  1
 23 25  1  0
 24 59  1  0
 24 60  1  0
 24 61  1  0
 25 26  1  0
 25 62  1  0
 25 63  1  0
 26 27  1  0
 26 64  1  0
 26 65  1  0
 27 28  1  0
 27 66  1  1
 28 29  1  1
 29 30  1  0
M  CHG  2  12   1  15   1
M  END
>  <i_m_ct_stereo_status>  (363) 
1

>  <s_m_source_file>  (363) 
/var/tmp/pbs.5083856.sched01/tmpfd511yf2/150gz97klq0.sdf

>  <i_m_source_file_index>  (363) 
1

>  <i_lp_mmshare_version>  (363) 
48012

>  <i_f3d_flags>  (363) 
0

>  <s_epik_input>  (363) 
W0NAXTEyM1tDQEBIXTRbQ0gyXVtDSDJdW0NAQEhdKFtDSDNdKVtDQEBIXTJbQ0gyXVtDSDJdW0NAQF0oW0NIM10pKE9PMylPW0NASF0xT1tDQEBIXShbQ0BASF00W0NIM10pT1tDQEBIXTVbQ0BASF0oW05IMl0pW0NIMl1bQ0BASF0oW05IMl0pW0NAQEhdKFtPSF0pW0NASF01W09IXQ==

>  <s_epik_cmdline>  (363) 
J2VwaWtfcHl0aG9uJywgJy1waHQnLCAnMi4wJywgJy1waCcsICc3LjAnLCAnLXRuJywgJzgnLCAnLW1hJywgJzIwMCcsICctaW1hZScsICc8aW5maWxlLm1hZT4nLCAnLW9tYWUnLCAnPG91dGZpbGUubWFlPic=

>  <r_epik_Ionization_Penalty>  (363) 
0.100299

>  <r_epik_Ionization_Penalty_Charging>  (363) 
0.100285

>  <r_epik_Ionization_Penalty_Neutral>  (363) 
1.39497e-05

>  <r_epik_State_Penalty>  (363) 
0.0857731

>  <r_epik_Charging_Adjusted_Penalty>  (363) 
0.186058

>  <i_epik_Tot_Q>  (363) 
2

>  <i_epik_Tot_abs_Q>  (363) 
2

>  <s_epik_Chemistry_Notes>  (363) 
This compound contains an acetal/aminal-like group ( X-CH(R)-Y where X, Y are N, S, or O) that may be acid/base labile, releasing an aldehyde.

>  <s_lp_Force_Field>  (363) 
OPLS3e

>  <r_lp_Energy>  (363) 
63.3192

>  <b_lp_Chiralities_Consistent>  (363) 
1

>  <s_lp_Variant>  (363) 
106:0-1

>  <s_i_glide_gridfile>  (363) 
pfpi4k_grid

>  <i_i_glide_lignum>  (363) 
1

>  <i_i_glide_rotatable_bonds>  (363) 
4

>  <r_i_docking_score>  (363) 
-3.21034

>  <r_i_glide_ligand_efficiency>  (363) 
-0.107011

>  <r_i_glide_ligand_efficiency_sa>  (363) 
-0.332509

>  <r_i_glide_ligand_efficiency_ln>  (363) 
-0.729423

>  <r_i_glide_gscore>  (363) 
-3.21034

>  <r_i_glide_lipo>  (363) 
-0.132011

>  <r_i_glide_hbond>  (363) 
0

>  <r_i_glide_metal>  (363) 
-0

>  <r_i_glide_rewards>  (363) 
-0.4802

>  <r_i_glide_evdw>  (363) 
-22.266

>  <r_i_glide_ecoul>  (363) 
-11.2266

>  <r_i_glide_erotb>  (363) 
0.214522

>  <r_i_glide_esite>  (363) 
-0.0153604

>  <r_i_glide_emodel>  (363) 
-44.1643

>  <r_i_glide_energy>  (363) 
-33.4926

>  <r_i_glide_einternal>  (363) 
2.92468

>  <r_i_glide_intrahb_reward>  (363) 
-0

>  <i_i_glide_confnum>  (363) 
3

>  <i_i_glide_posenum>  (363) 
23

>  <r_i_glide_eff_state_penalty>  (363) 
0

>  <ligand_id>  (363) 
106

>  <original_smiles>  (363) 
CC1CCC2C(C)C(OC3C(N)CC(N)C(O)C3O)OC3OC4(C)CCC1C32OO4

>  <smiles>  (363) 
[H]OC1([H])C([H])(O[H])C([H])([N+]([H])([H])[H])C([H])([H])C([H])([N+]([H])([H])[H])C1([H])OC1([H])OC2([H])OC3(C([H])([H])[H])OOC24C([H])(C([H])([H])C([H])([H])C([H])(C([H])([H])[H])C4([H])C([H])([H])C3([H])[H])C1([H])C([H])([H])[H]

$$$$
106:1:0
     RDKit          3D

 67 71  0  0  1  0  0  0  0  0999 V2000
    4.9958   -7.5572    5.8873 C   0  0  0  0  0  0  0  0  0  0  0  0
    4.4786   -6.2995    5.1663 C   0  0  2  0  0  0  0  0  0  0  0  0
    4.4755   -5.1014    6.1519 C   0  0  0  0  0  0  0  0  0  0  0  0
    3.6115   -3.9091    5.7046 C   0  0  0  0  0  0  0  0  0  0  0  0
    3.4575   -3.9064    4.1836 C   0  0  2  0  0  0  0  0  0  0  0  0
    2.8900   -2.6136    3.5732 C   0  0  1  0  0  0  0  0  0  0  0  0
    3.6380   -1.3183    3.9574 C   0  0  0  0  0  0  0  0  0  0  0  0
    2.9046   -2.7750    2.0376 C   0  0  1  0  0  0  0  0  0  0  0  0
    4.2222   -2.7557    1.5532 O   0  0  0  0  0  0  0  0  0  0  0  0
    4.4119   -2.5717    0.1459 C   0  0  2  0  0  0  0  0  0  0  0  0
    4.2634   -1.0870   -0.2432 C   0  0  1  0  0  0  0  0  0  0  0  0
    5.2471   -0.2566    0.4889 N   0  0  0  0  0  0  0  0  0  0  0  0
    4.4391   -0.8885   -1.7686 C   0  0  0  0  0  0  0  0  0  0  0  0
    3.4768   -1.7556   -2.5967 C   0  0  1  0  0  0  0  0  0  0  0  0
    3.6044   -1.5352   -4.0467 N   0  0  0  0  0  0  0  0  0  0  0  0
    3.6563   -3.2338   -2.2413 C   0  0  1  0  0  0  0  0  0  0  0  0
    4.9199   -3.6908   -2.6773 O   0  0  0  0  0  0  0  0  0  0  0  0
    3.5059   -3.4766   -0.7318 C   0  0  1  0  0  0  0  0  0  0  0  0
    3.8480   -4.8010   -0.4600 O   0  0  0  0  0  0  0  0  0  0  0  0
    2.2145   -3.9350    1.7048 O   0  0  0  0  0  0  0  0  0  0  0  0
    2.7341   -5.1368    2.1922 C   0  0  2  0  0  0  0  0  0  0  0  0
    2.0106   -6.1611    1.5954 O   0  0  0  0  0  0  0  0  0  0  0  0
    0.9671   -6.7455    2.3647 C   0  0  1  0  0  0  0  0  0  0  0  0
   -0.1351   -7.1359    1.3648 C   0  0  0  0  0  0  0  0  0  0  0  0
    1.5570   -7.9754    3.0609 C   0  0  0  0  0  0  0  0  0  0  0  0
    2.9680   -7.7455    3.6171 C   0  0  0  0  0  0  0  0  0  0  0  0
    3.0946   -6.4611    4.4613 C   0  0  2  0  0  0  0  0  0  0  0  0
    2.6173   -5.1385    3.7374 C   0  0  1  0  0  0  0  0  0  0  0  0
    1.2424   -4.9701    4.0885 O   0  0  0  0  0  0  0  0  0  0  0  0
    0.3133   -5.8617    3.2786 O   0  0  0  0  0  0  0  0  0  0  0  0
    4.2736   -7.9118    6.6247 H   0  0  0  0  0  0  0  0  0  0  0  0
    5.9272   -7.3410    6.4125 H   0  0  0  0  0  0  0  0  0  0  0  0
    5.2067   -8.3709    5.1915 H   0  0  0  0  0  0  0  0  0  0  0  0
    5.2106   -6.0791    4.3860 H   0  0  0  0  0  0  0  0  0  0  0  0
    4.1361   -5.4238    7.1404 H   0  0  0  0  0  0  0  0  0  0  0  0
    5.5062   -4.7622    6.2746 H   0  0  0  0  0  0  0  0  0  0  0  0
    2.6203   -3.9699    6.1495 H   0  0  0  0  0  0  0  0  0  0  0  0
    4.0726   -2.9901    6.0612 H   0  0  0  0  0  0  0  0  0  0  0  0
    4.4681   -4.0059    3.7701 H   0  0  0  0  0  0  0  0  0  0  0  0
    1.8468   -2.4941    3.8893 H   0  0  0  0  0  0  0  0  0  0  0  0
    4.7106   -1.4036    3.7686 H   0  0  0  0  0  0  0  0  0  0  0  0
    3.5061   -1.0658    5.0119 H   0  0  0  0  0  0  0  0  0  0  0  0
    3.2733   -0.4639    3.3858 H   0  0  0  0  0  0  0  0  0  0  0  0
    2.3477   -1.9397    1.6191 H   0  0  0  0  0  0  0  0  0  0  0  0
    5.4430   -2.8571   -0.0517 H   0  0  0  0  0  0  0  0  0  0  0  0
    3.2723   -0.7237    0.0395 H   0  0  0  0  0  0  0  0  0  0  0  0
    6.1864   -0.5482    0.2567 H   0  0  0  0  0  0  0  0  0  0  0  0
    5.1162   -0.3806    1.4841 H   0  0  0  0  0  0  0  0  0  0  0  0
    4.2371    0.1443   -2.0223 H   0  0  0  0  0  0  0  0  0  0  0  0
    5.4685   -1.0980   -2.0647 H   0  0  0  0  0  0  0  0  0  0  0  0
    2.4626   -1.4828   -2.3150 H   0  0  0  0  0  0  0  0  0  0  0  0
    2.9286   -2.1169   -4.5372 H   0  0  0  0  0  0  0  0  0  0  0  0
    3.3755   -0.5705   -4.2841 H   0  0  0  0  0  0  0  0  0  0  0  0
    2.8899   -3.8123   -2.7578 H   0  0  0  0  0  0  0  0  0  0  0  0
    4.9385   -4.6304   -2.5147 H   0  0  0  0  0  0  0  0  0  0  0  0
    2.4561   -3.3055   -0.5101 H   0  0  0  0  0  0  0  0  0  0  0  0
    3.3987   -5.3593   -1.1115 H   0  0  0  0  0  0  0  0  0  0  0  0
    3.7809   -5.2569    1.8962 H   0  0  0  0  0  0  0  0  0  0  0  0
   -0.5427   -6.2677    0.8489 H   0  0  0  0  0  0  0  0  0  0  0  0
   -0.9610   -7.6362    1.8707 H   0  0  0  0  0  0  0  0  0  0  0  0
    0.2365   -7.8195    0.5996 H   0  0  0  0  0  0  0  0  0  0  0  0
    0.8729   -8.3049    3.8419 H   0  0  0  0  0  0  0  0  0  0  0  0
    1.6145   -8.8003    2.3460 H   0  0  0  0  0  0  0  0  0  0  0  0
    3.2088   -8.6210    4.2123 H   0  0  0  0  0  0  0  0  0  0  0  0
    3.6951   -7.7327    2.8032 H   0  0  0  0  0  0  0  0  0  0  0  0
    2.4009   -6.6136    5.2912 H   0  0  0  0  0  0  0  0  0  0  0  0
    5.1256    0.7095    0.2317 H   0  0  0  0  0  0  0  0  0  0  0  0
  1  2  1  0
  1 31  1  0
  1 32  1  0
  1 33  1  0
  2 27  1  0
  2  3  1  0
  2 34  1  6
  3  4  1  0
  3 35  1  0
  3 36  1  0
  4  5  1  0
  4 37  1  0
  4 38  1  0
  5 28  1  0
  5  6  1  0
  5 39  1  6
  6  7  1  0
  6  8  1  0
  6 40  1  1
  7 41  1  0
  7 42  1  0
  7 43  1  0
  8  9  1  0
  8 20  1  0
  8 44  1  6
  9 10  1  0
 10 18  1  0
 10 11  1  0
 10 45  1  1
 11 12  1  0
 11 13  1  0
 11 46  1  1
 12 47  1  0
 12 48  1  0
 12 67  1  0
 13 14  1  0
 13 49  1  0
 13 50  1  0
 14 15  1  0
 14 16  1  0
 14 51  1  1
 15 52  1  0
 15 53  1  0
 16 17  1  0
 16 18  1  0
 16 54  1  6
 17 55  1  0
 18 19  1  0
 18 56  1  1
 19 57  1  0
 20 21  1  0
 21 28  1  0
 21 22  1  0
 21 58  1  1
 22 23  1  0
 23 30  1  0
 23 24  1  6
 23 25  1  0
 24 59  1  0
 24 60  1  0
 24 61  1  0
 25 26  1  0
 25 62  1  0
 25 63  1  0
 26 27  1  0
 26 64  1  0
 26 65  1  0
 27 28  1  0
 27 66  1  1
 28 29  1  6
 29 30  1  0
M  CHG  1  12   1
M  END
>  <i_m_ct_stereo_status>  (364) 
1

>  <s_m_source_file>  (364) 
/var/tmp/pbs.5083856.sched01/tmpfd511yf2/150gz97klq0.sdf

>  <i_m_source_file_index>  (364) 
2

>  <i_lp_mmshare_version>  (364) 
48012

>  <i_f3d_flags>  (364) 
0

>  <s_epik_input>  (364) 
W0NAXTEyM1tDQEBIXTRbQ0gyXVtDSDJdW0NAQEhdKFtDSDNdKVtDQEBIXTJbQ0gyXVtDSDJdW0NAQF0oW0NIM10pKE9PMylPW0NASF0xT1tDQEBIXShbQ0BASF00W0NIM10pT1tDQEBIXTVbQ0BASF0oW05IMl0pW0NIMl1bQ0BASF0oW05IMl0pW0NAQEhdKFtPSF0pW0NASF01W09IXQ==

>  <s_epik_cmdline>  (364) 
J2VwaWtfcHl0aG9uJywgJy1waHQnLCAnMi4wJywgJy1waCcsICc3LjAnLCAnLXRuJywgJzgnLCAnLW1hJywgJzIwMCcsICctaW1hZScsICc8aW5maWxlLm1hZT4nLCAnLW9tYWUnLCAnPG91dGZpbGUubWFlPic=

>  <r_epik_Ionization_Penalty>  (364) 
1.39318

>  <r_epik_Ionization_Penalty_Charging>  (364) 
0.00601704

>  <r_epik_Ionization_Penalty_Neutral>  (364) 
1.38716

>  <r_epik_State_Penalty>  (364) 
1.43894

>  <r_epik_Charging_Adjusted_Penalty>  (364) 
1.44496

>  <i_epik_Tot_Q>  (364) 
1

>  <i_epik_Tot_abs_Q>  (364) 
1

>  <s_epik_Chemistry_Notes>  (364) 
This compound contains an acetal/aminal-like group ( X-CH(R)-Y where X, Y are N, S, or O) that may be acid/base labile, releasing an aldehyde.

>  <s_lp_Force_Field>  (364) 
OPLS3e

>  <r_lp_Energy>  (364) 
57.6648

>  <b_lp_Chiralities_Consistent>  (364) 
1

>  <s_lp_Variant>  (364) 
106:0-2

>  <s_i_glide_gridfile>  (364) 
pfpi4k_grid

>  <i_i_glide_lignum>  (364) 
2

>  <i_i_glide_rotatable_bonds>  (364) 
4

>  <r_i_docking_score>  (364) 
-3.71663

>  <r_i_glide_ligand_efficiency>  (364) 
-0.123888

>  <r_i_glide_ligand_efficiency_sa>  (364) 
-0.384948

>  <r_i_glide_ligand_efficiency_ln>  (364) 
-0.844459

>  <r_i_glide_gscore>  (364) 
-3.71663

>  <r_i_glide_lipo>  (364) 
-0.0431545

>  <r_i_glide_hbond>  (364) 
-0.174257

>  <r_i_glide_metal>  (364) 
-0

>  <r_i_glide_rewards>  (364) 
-0.480493

>  <r_i_glide_evdw>  (364) 
-25.3301

>  <r_i_glide_ecoul>  (364) 
-12.6962

>  <r_i_glide_erotb>  (364) 
0.215435

>  <r_i_glide_esite>  (364) 
-0.063226

>  <r_i_glide_emodel>  (364) 
-43.7429

>  <r_i_glide_energy>  (364) 
-38.0263

>  <r_i_glide_einternal>  (364) 
5.00284

>  <r_i_glide_intrahb_reward>  (364) 
-0

>  <i_i_glide_confnum>  (364) 
2

>  <i_i_glide_posenum>  (364) 
9

>  <r_i_glide_eff_state_penalty>  (364) 
0

>  <ligand_id>  (364) 
106

>  <original_smiles>  (364) 
CC1CCC2C(C)C(OC3C(N)CC(N)C(O)C3O)OC3OC4(C)CCC1C32OO4

>  <smiles>  (364) 
[H]OC1([H])C([H])(O[H])C([H])(N([H])[H])C([H])([H])C([H])([N+]([H])([H])[H])C1([H])OC1([H])OC2([H])OC3(C([H])([H])[H])OOC24C([H])(C([H])([H])C([H])([H])C([H])(C([H])([H])[H])C4([H])C([H])([H])C3([H])[H])C1([H])C([H])([H])[H]

$$$$
106:1:1
     RDKit          3D

 67 71  0  0  1  0  0  0  0  0999 V2000
    3.9223  -11.2004    3.2219 C   0  0  0  0  0  0  0  0  0  0  0  0
    4.4759   -9.7806    3.0367 C   0  0  2  0  0  0  0  0  0  0  0  0
    5.9438   -9.7533    3.5304 C   0  0  0  0  0  0  0  0  0  0  0  0
    6.4818   -8.3385    3.7975 C   0  0  0  0  0  0  0  0  0  0  0  0
    5.6916   -7.3067    2.9937 C   0  0  2  0  0  0  0  0  0  0  0  0
    6.3257   -5.9105    3.0025 C   0  0  1  0  0  0  0  0  0  0  0  0
    7.7896   -5.8689    2.4851 C   0  0  0  0  0  0  0  0  0  0  0  0
    5.4546   -5.0097    2.1102 C   0  0  1  0  0  0  0  0  0  0  0  0
    5.6094   -5.3840    0.7718 O   0  0  0  0  0  0  0  0  0  0  0  0
    5.2743   -4.4413   -0.2574 C   0  0  2  0  0  0  0  0  0  0  0  0
    6.3189   -3.2791   -0.2780 C   0  0  1  0  0  0  0  0  0  0  0  0
    7.7047   -3.7718   -0.4541 N   0  0  0  0  0  0  0  0  0  0  0  0
    5.9763   -2.2532   -1.3620 C   0  0  0  0  0  0  0  0  0  0  0  0
    4.5377   -1.7201   -1.2278 C   0  0  1  0  0  0  0  0  0  0  0  0
    4.2453   -0.6544   -2.2163 N   0  0  0  0  0  0  0  0  0  0  0  0
    3.5174   -2.8764   -1.2858 C   0  0  1  0  0  0  0  0  0  0  0  0
    3.6231   -3.4564   -2.5770 O   0  0  0  0  0  0  0  0  0  0  0  0
    3.8108   -3.9091   -0.1787 C   0  0  1  0  0  0  0  0  0  0  0  0
    2.8446   -4.9475   -0.2451 O   0  0  0  0  0  0  0  0  0  0  0  0
    4.1333   -5.0483    2.5480 O   0  0  0  0  0  0  0  0  0  0  0  0
    3.5165   -6.3118    2.5089 C   0  0  2  0  0  0  0  0  0  0  0  0
    2.1747   -6.1364    2.8165 O   0  0  0  0  0  0  0  0  0  0  0  0
    1.8113   -6.3345    4.1706 C   0  0  1  0  0  0  0  0  0  0  0  0
    0.6929   -5.3287    4.4966 C   0  0  0  0  0  0  0  0  0  0  0  0
    1.2888   -7.7690    4.2650 C   0  0  0  0  0  0  0  0  0  0  0  0
    2.1060   -8.7621    3.4395 C   0  0  0  0  0  0  0  0  0  0  0  0
    3.6189   -8.6732    3.7117 C   0  0  2  0  0  0  0  0  0  0  0  0
    4.2390   -7.2453    3.5182 C   0  0  1  0  0  0  0  0  0  0  0  0
    4.2204   -6.6294    4.8052 O   0  0  0  0  0  0  0  0  0  0  0  0
    2.8364   -5.9898    5.1163 O   0  0  0  0  0  0  0  0  0  0  0  0
    3.7993  -11.4543    4.2782 H   0  0  0  0  0  0  0  0  0  0  0  0
    4.6154  -11.9205    2.7757 H   0  0  0  0  0  0  0  0  0  0  0  0
    2.9658  -11.3292    2.7040 H   0  0  0  0  0  0  0  0  0  0  0  0
    4.4804   -9.5892    1.9643 H   0  0  0  0  0  0  0  0  0  0  0  0
    6.0667  -10.3742    4.4221 H   0  0  0  0  0  0  0  0  0  0  0  0
    6.5585  -10.1984    2.7420 H   0  0  0  0  0  0  0  0  0  0  0  0
    6.3790   -8.1085    4.8653 H   0  0  0  0  0  0  0  0  0  0  0  0
    7.5510   -8.3218    3.5633 H   0  0  0  0  0  0  0  0  0  0  0  0
    5.6881   -7.6440    1.9601 H   0  0  0  0  0  0  0  0  0  0  0  0
    6.3039   -5.4981    4.0137 H   0  0  0  0  0  0  0  0  0  0  0  0
    7.9049   -6.3943    1.5315 H   0  0  0  0  0  0  0  0  0  0  0  0
    8.4931   -6.3112    3.2008 H   0  0  0  0  0  0  0  0  0  0  0  0
    8.1188   -4.8407    2.3255 H   0  0  0  0  0  0  0  0  0  0  0  0
    5.8007   -3.9963    2.2750 H   0  0  0  0  0  0  0  0  0  0  0  0
    5.3836   -4.9863   -1.1923 H   0  0  0  0  0  0  0  0  0  0  0  0
    6.2976   -2.7266    0.6618 H   0  0  0  0  0  0  0  0  0  0  0  0
    7.8174   -4.1909   -1.3644 H   0  0  0  0  0  0  0  0  0  0  0  0
    7.8942   -4.4681    0.2481 H   0  0  0  0  0  0  0  0  0  0  0  0
    6.6301   -1.4121   -1.2003 H   0  0  0  0  0  0  0  0  0  0  0  0
    6.1604   -2.6354   -2.3729 H   0  0  0  0  0  0  0  0  0  0  0  0
    4.4425   -1.2930   -0.2249 H   0  0  0  0  0  0  0  0  0  0  0  0
    3.2567   -0.3842   -2.1691 H   0  0  0  0  0  0  0  0  0  0  0  0
    4.7889    0.1914   -2.0491 H   0  0  0  0  0  0  0  0  0  0  0  0
    2.5110   -2.5044   -1.1121 H   0  0  0  0  0  0  0  0  0  0  0  0
    3.1222   -4.2683   -2.6280 H   0  0  0  0  0  0  0  0  0  0  0  0
    3.6708   -3.3910    0.7683 H   0  0  0  0  0  0  0  0  0  0  0  0
    2.9833   -5.4439   -1.0506 H   0  0  0  0  0  0  0  0  0  0  0  0
    3.5583   -6.7458    1.5041 H   0  0  0  0  0  0  0  0  0  0  0  0
    1.0638   -4.3014    4.4162 H   0  0  0  0  0  0  0  0  0  0  0  0
    0.3285   -5.4720    5.5170 H   0  0  0  0  0  0  0  0  0  0  0  0
   -0.1530   -5.4360    3.8194 H   0  0  0  0  0  0  0  0  0  0  0  0
    1.2246   -8.0591    5.3073 H   0  0  0  0  0  0  0  0  0  0  0  0
    0.2764   -7.7956    3.8753 H   0  0  0  0  0  0  0  0  0  0  0  0
    1.7470   -9.7501    3.7021 H   0  0  0  0  0  0  0  0  0  0  0  0
    1.9166   -8.6453    2.3731 H   0  0  0  0  0  0  0  0  0  0  0  0
    3.7203   -8.8719    4.7799 H   0  0  0  0  0  0  0  0  0  0  0  0
    8.3801   -3.0296   -0.3708 H   0  0  0  0  0  0  0  0  0  0  0  0
  1  2  1  0
  1 31  1  0
  1 32  1  0
  1 33  1  0
  2 27  1  0
  2  3  1  0
  2 34  1  6
  3  4  1  0
  3 35  1  0
  3 36  1  0
  4  5  1  0
  4 37  1  0
  4 38  1  0
  5 28  1  0
  5  6  1  0
  5 39  1  6
  6  7  1  0
  6  8  1  0
  6 40  1  1
  7 41  1  0
  7 42  1  0
  7 43  1  0
  8  9  1  0
  8 20  1  0
  8 44  1  6
  9 10  1  0
 10 18  1  0
 10 11  1  0
 10 45  1  6
 11 12  1  0
 11 13  1  0
 11 46  1  1
 12 47  1  0
 12 48  1  0
 12 67  1  0
 13 14  1  0
 13 49  1  0
 13 50  1  0
 14 15  1  0
 14 16  1  0
 14 51  1  1
 15 52  1  0
 15 53  1  0
 16 17  1  0
 16 18  1  0
 16 54  1  1
 17 55  1  0
 18 19  1  0
 18 56  1  1
 19 57  1  0
 20 21  1  0
 21 28  1  0
 21 22  1  0
 21 58  1  6
 22 23  1  0
 23 30  1  0
 23 24  1  1
 23 25  1  0
 24 59  1  0
 24 60  1  0
 24 61  1  0
 25 26  1  0
 25 62  1  0
 25 63  1  0
 26 27  1  0
 26 64  1  0
 26 65  1  0
 27 28  1  0
 27 66  1  1
 28 29  1  1
 29 30  1  0
M  CHG  1  12   1
M  END
>  <i_m_ct_stereo_status>  (365) 
1

>  <s_m_source_file>  (365) 
/var/tmp/pbs.5083856.sched01/tmpfd511yf2/150gz97klq0.sdf

>  <i_m_source_file_index>  (365) 
2

>  <i_lp_mmshare_version>  (365) 
48012

>  <i_f3d_flags>  (365) 
0

>  <s_epik_input>  (365) 
W0NAXTEyM1tDQEBIXTRbQ0gyXVtDSDJdW0NAQEhdKFtDSDNdKVtDQEBIXTJbQ0gyXVtDSDJdW0NAQF0oW0NIM10pKE9PMylPW0NASF0xT1tDQEBIXShbQ0BASF00W0NIM10pT1tDQEBIXTVbQ0BASF0oW05IMl0pW0NIMl1bQ0BASF0oW05IMl0pW0NAQEhdKFtPSF0pW0NASF01W09IXQ==

>  <s_epik_cmdline>  (365) 
J2VwaWtfcHl0aG9uJywgJy1waHQnLCAnMi4wJywgJy1waCcsICc3LjAnLCAnLXRuJywgJzgnLCAnLW1hJywgJzIwMCcsICctaW1hZScsICc8aW5maWxlLm1hZT4nLCAnLW9tYWUnLCAnPG91dGZpbGUubWFlPic=

>  <r_epik_Ionization_Penalty>  (365) 
1.39318

>  <r_epik_Ionization_Penalty_Charging>  (365) 
0.00601704

>  <r_epik_Ionization_Penalty_Neutral>  (365) 
1.38716

>  <r_epik_State_Penalty>  (365) 
1.43894

>  <r_epik_Charging_Adjusted_Penalty>  (365) 
1.44496

>  <i_epik_Tot_Q>  (365) 
1

>  <i_epik_Tot_abs_Q>  (365) 
1

>  <s_epik_Chemistry_Notes>  (365) 
This compound contains an acetal/aminal-like group ( X-CH(R)-Y where X, Y are N, S, or O) that may be acid/base labile, releasing an aldehyde.

>  <s_lp_Force_Field>  (365) 
OPLS3e

>  <r_lp_Energy>  (365) 
57.6648

>  <b_lp_Chiralities_Consistent>  (365) 
1

>  <s_lp_Variant>  (365) 
106:0-2

>  <s_i_glide_gridfile>  (365) 
pfpi4k_grid

>  <i_i_glide_lignum>  (365) 
2

>  <i_i_glide_rotatable_bonds>  (365) 
4

>  <r_i_docking_score>  (365) 
-3.51244

>  <r_i_glide_ligand_efficiency>  (365) 
-0.117081

>  <r_i_glide_ligand_efficiency_sa>  (365) 
-0.363799

>  <r_i_glide_ligand_efficiency_ln>  (365) 
-0.798065

>  <r_i_glide_gscore>  (365) 
-3.51244

>  <r_i_glide_lipo>  (365) 
-0.167822

>  <r_i_glide_hbond>  (365) 
-0.2142

>  <r_i_glide_metal>  (365) 
-0

>  <r_i_glide_rewards>  (365) 
-0.516932

>  <r_i_glide_evdw>  (365) 
-23.9842

>  <r_i_glide_ecoul>  (365) 
-10.8427

>  <r_i_glide_erotb>  (365) 
0.215435

>  <r_i_glide_esite>  (365) 
-0.00330487

>  <r_i_glide_emodel>  (365) 
-40.7782

>  <r_i_glide_energy>  (365) 
-34.827

>  <r_i_glide_einternal>  (365) 
4.8804

>  <r_i_glide_intrahb_reward>  (365) 
-0

>  <i_i_glide_confnum>  (365) 
2

>  <i_i_glide_posenum>  (365) 
26

>  <r_i_glide_eff_state_penalty>  (365) 
0

>  <ligand_id>  (365) 
106

>  <original_smiles>  (365) 
CC1CCC2C(C)C(OC3C(N)CC(N)C(O)C3O)OC3OC4(C)CCC1C32OO4

>  <smiles>  (365) 
[H]OC1([H])C([H])(O[H])C([H])(N([H])[H])C([H])([H])C([H])([N+]([H])([H])[H])C1([H])OC1([H])OC2([H])OC3(C([H])([H])[H])OOC24C([H])(C([H])([H])C([H])([H])C([H])(C([H])([H])[H])C4([H])C([H])([H])C3([H])[H])C1([H])C([H])([H])[H]

$$$$
106:1:2
     RDKit          3D

 67 71  0  0  1  0  0  0  0  0999 V2000
    0.6276  -10.9256    3.0495 C   0  0  0  0  0  0  0  0  0  0  0  0
    1.7602   -9.8930    3.0897 C   0  0  2  0  0  0  0  0  0  0  0  0
    3.0699  -10.5776    3.5621 C   0  0  0  0  0  0  0  0  0  0  0  0
    4.1520   -9.5874    4.0484 C   0  0  0  0  0  0  0  0  0  0  0  0
    3.9457   -8.2163    3.4119 C   0  0  2  0  0  0  0  0  0  0  0  0
    5.1213   -7.2304    3.5734 C   0  0  1  0  0  0  0  0  0  0  0  0
    6.4869   -7.7751    3.0888 C   0  0  0  0  0  0  0  0  0  0  0  0
    4.7691   -5.9410    2.8024 C   0  0  1  0  0  0  0  0  0  0  0  0
    4.7849   -6.1755    1.4190 O   0  0  0  0  0  0  0  0  0  0  0  0
    4.7485   -5.0657    0.5292 C   0  0  2  0  0  0  0  0  0  0  0  0
    6.0047   -4.1628    0.7105 C   0  0  1  0  0  0  0  0  0  0  0  0
    7.2450   -4.9360    0.5021 N   0  0  0  0  0  0  0  0  0  0  0  0
    5.9760   -2.9452   -0.2273 C   0  0  0  0  0  0  0  0  0  0  0  0
    4.6754   -2.1431   -0.0604 C   0  0  1  0  0  0  0  0  0  0  0  0
    4.6513   -0.9231   -0.8934 N   0  0  0  0  0  0  0  0  0  0  0  0
    3.4396   -3.0308   -0.3332 C   0  0  1  0  0  0  0  0  0  0  0  0
    3.4811   -3.3998   -1.6946 O   0  0  0  0  0  0  0  0  0  0  0  0
    3.4232   -4.2664    0.5770 C   0  0  1  0  0  0  0  0  0  0  0  0
    2.3277   -5.0766    0.2062 O   0  0  0  0  0  0  0  0  0  0  0  0
    3.5440   -5.4624    3.2638 O   0  0  0  0  0  0  0  0  0  0  0  0
    2.4547   -6.3265    3.0594 C   0  0  2  0  0  0  0  0  0  0  0  0
    1.2977   -5.6240    3.3813 O   0  0  0  0  0  0  0  0  0  0  0  0
    0.8055   -5.7978    4.7118 C   0  0  1  0  0  0  0  0  0  0  0  0
    0.2422   -4.4400    5.1666 C   0  0  0  0  0  0  0  0  0  0  0  0
   -0.2970   -6.8558    4.5909 C   0  0  0  0  0  0  0  0  0  0  0  0
    0.0568   -8.0026    3.6378 C   0  0  0  0  0  0  0  0  0  0  0  0
    1.4388   -8.6220    3.9270 C   0  0  2  0  0  0  0  0  0  0  0  0
    2.6301   -7.5890    3.9392 C   0  0  1  0  0  0  0  0  0  0  0  0
    2.7656   -7.2048    5.3191 O   0  0  0  0  0  0  0  0  0  0  0  0
    1.8167   -6.0776    5.6919 O   0  0  0  0  0  0  0  0  0  0  0  0
    0.3417  -11.2220    4.0655 H   0  0  0  0  0  0  0  0  0  0  0  0
    0.9585  -11.8234    2.5236 H   0  0  0  0  0  0  0  0  0  0  0  0
   -0.2541  -10.5495    2.5226 H   0  0  0  0  0  0  0  0  0  0  0  0
    1.9187   -9.5775    2.0523 H   0  0  0  0  0  0  0  0  0  0  0  0
    2.8410  -11.2957    4.3693 H   0  0  0  0  0  0  0  0  0  0  0  0
    3.4656  -11.1591    2.7197 H   0  0  0  0  0  0  0  0  0  0  0  0
    4.0967   -9.4864    5.1350 H   0  0  0  0  0  0  0  0  0  0  0  0
    5.1260  -10.0211    3.8070 H   0  0  0  0  0  0  0  0  0  0  0  0
    3.8387   -8.3954    2.3365 H   0  0  0  0  0  0  0  0  0  0  0  0
    5.2204   -7.0166    4.6448 H   0  0  0  0  0  0  0  0  0  0  0  0
    6.4315   -8.1580    2.0645 H   0  0  0  0  0  0  0  0  0  0  0  0
    6.8832   -8.5723    3.7188 H   0  0  0  0  0  0  0  0  0  0  0  0
    7.2336   -6.9804    3.0906 H   0  0  0  0  0  0  0  0  0  0  0  0
    5.5461   -5.2173    3.0667 H   0  0  0  0  0  0  0  0  0  0  0  0
    4.8127   -5.5135   -0.4606 H   0  0  0  0  0  0  0  0  0  0  0  0
    6.0262   -3.7925    1.7259 H   0  0  0  0  0  0  0  0  0  0  0  0
    7.3021   -5.2560   -0.4442 H   0  0  0  0  0  0  0  0  0  0  0  0
    7.2743   -5.7495    1.1048 H   0  0  0  0  0  0  0  0  0  0  0  0
    6.8170   -2.2937    0.0115 H   0  0  0  0  0  0  0  0  0  0  0  0
    6.1131   -3.2288   -1.2782 H   0  0  0  0  0  0  0  0  0  0  0  0
    4.6111   -1.8478    0.9792 H   0  0  0  0  0  0  0  0  0  0  0  0
    3.7398   -0.4825   -0.8313 H   0  0  0  0  0  0  0  0  0  0  0  0
    5.3474   -0.2367   -0.6100 H   0  0  0  0  0  0  0  0  0  0  0  0
    2.5412   -2.4500   -0.1451 H   0  0  0  0  0  0  0  0  0  0  0  0
    2.9834   -4.2132   -1.8304 H   0  0  0  0  0  0  0  0  0  0  0  0
    3.2568   -3.9025    1.5830 H   0  0  0  0  0  0  0  0  0  0  0  0
    2.4860   -5.4887   -0.6414 H   0  0  0  0  0  0  0  0  0  0  0  0
    2.3819   -6.6065    2.0039 H   0  0  0  0  0  0  0  0  0  0  0  0
    1.0267   -3.6955    5.2314 H   0  0  0  0  0  0  0  0  0  0  0  0
   -0.2337   -4.5268    6.1427 H   0  0  0  0  0  0  0  0  0  0  0  0
   -0.5143   -4.0425    4.4851 H   0  0  0  0  0  0  0  0  0  0  0  0
   -0.5555   -7.2222    5.5799 H   0  0  0  0  0  0  0  0  0  0  0  0
   -1.1980   -6.3813    4.1988 H   0  0  0  0  0  0  0  0  0  0  0  0
   -0.7203   -8.7481    3.7487 H   0  0  0  0  0  0  0  0  0  0  0  0
    0.0026   -7.6800    2.5955 H   0  0  0  0  0  0  0  0  0  0  0  0
    1.3522   -9.0009    4.9452 H   0  0  0  0  0  0  0  0  0  0  0  0
    8.0588   -4.3682    0.6770 H   0  0  0  0  0  0  0  0  0  0  0  0
  1  2  1  0
  1 31  1  0
  1 32  1  0
  1 33  1  0
  2 27  1  0
  2  3  1  0
  2 34  1  6
  3  4  1  0
  3 35  1  0
  3 36  1  0
  4  5  1  0
  4 37  1  0
  4 38  1  0
  5 28  1  0
  5  6  1  0
  5 39  1  6
  6  7  1  0
  6  8  1  0
  6 40  1  1
  7 41  1  0
  7 42  1  0
  7 43  1  0
  8  9  1  0
  8 20  1  0
  8 44  1  6
  9 10  1  0
 10 18  1  0
 10 11  1  0
 10 45  1  6
 11 12  1  0
 11 13  1  0
 11 46  1  1
 12 47  1  0
 12 48  1  0
 12 67  1  0
 13 14  1  0
 13 49  1  0
 13 50  1  0
 14 15  1  0
 14 16  1  0
 14 51  1  1
 15 52  1  0
 15 53  1  0
 16 17  1  0
 16 18  1  0
 16 54  1  6
 17 55  1  0
 18 19  1  0
 18 56  1  1
 19 57  1  0
 20 21  1  0
 21 28  1  0
 21 22  1  0
 21 58  1  6
 22 23  1  0
 23 30  1  0
 23 24  1  1
 23 25  1  0
 24 59  1  0
 24 60  1  0
 24 61  1  0
 25 26  1  0
 25 62  1  0
 25 63  1  0
 26 27  1  0
 26 64  1  0
 26 65  1  0
 27 28  1  0
 27 66  1  1
 28 29  1  1
 29 30  1  0
M  CHG  1  12   1
M  END
>  <i_m_ct_stereo_status>  (366) 
1

>  <s_m_source_file>  (366) 
/var/tmp/pbs.5083856.sched01/tmpfd511yf2/150gz97klq0.sdf

>  <i_m_source_file_index>  (366) 
2

>  <i_lp_mmshare_version>  (366) 
48012

>  <i_f3d_flags>  (366) 
0

>  <s_epik_input>  (366) 
W0NAXTEyM1tDQEBIXTRbQ0gyXVtDSDJdW0NAQEhdKFtDSDNdKVtDQEBIXTJbQ0gyXVtDSDJdW0NAQF0oW0NIM10pKE9PMylPW0NASF0xT1tDQEBIXShbQ0BASF00W0NIM10pT1tDQEBIXTVbQ0BASF0oW05IMl0pW0NIMl1bQ0BASF0oW05IMl0pW0NAQEhdKFtPSF0pW0NASF01W09IXQ==

>  <s_epik_cmdline>  (366) 
J2VwaWtfcHl0aG9uJywgJy1waHQnLCAnMi4wJywgJy1waCcsICc3LjAnLCAnLXRuJywgJzgnLCAnLW1hJywgJzIwMCcsICctaW1hZScsICc8aW5maWxlLm1hZT4nLCAnLW9tYWUnLCAnPG91dGZpbGUubWFlPic=

>  <r_epik_Ionization_Penalty>  (366) 
1.39318

>  <r_epik_Ionization_Penalty_Charging>  (366) 
0.00601704

>  <r_epik_Ionization_Penalty_Neutral>  (366) 
1.38716

>  <r_epik_State_Penalty>  (366) 
1.43894

>  <r_epik_Charging_Adjusted_Penalty>  (366) 
1.44496

>  <i_epik_Tot_Q>  (366) 
1

>  <i_epik_Tot_abs_Q>  (366) 
1

>  <s_epik_Chemistry_Notes>  (366) 
This compound contains an acetal/aminal-like group ( X-CH(R)-Y where X, Y are N, S, or O) that may be acid/base labile, releasing an aldehyde.

>  <s_lp_Force_Field>  (366) 
OPLS3e

>  <r_lp_Energy>  (366) 
57.6648

>  <b_lp_Chiralities_Consistent>  (366) 
1

>  <s_lp_Variant>  (366) 
106:0-2

>  <s_i_glide_gridfile>  (366) 
pfpi4k_grid

>  <i_i_glide_lignum>  (366) 
2

>  <i_i_glide_rotatable_bonds>  (366) 
4

>  <r_i_docking_score>  (366) 
-3.06928

>  <r_i_glide_ligand_efficiency>  (366) 
-0.102309

>  <r_i_glide_ligand_efficiency_sa>  (366) 
-0.317898

>  <r_i_glide_ligand_efficiency_ln>  (366) 
-0.697373

>  <r_i_glide_gscore>  (366) 
-3.06928

>  <r_i_glide_lipo>  (366) 
-0.330928

>  <r_i_glide_hbond>  (366) 
-0.0688221

>  <r_i_glide_metal>  (366) 
-0

>  <r_i_glide_rewards>  (366) 
-0.480493

>  <r_i_glide_evdw>  (366) 
-27.2732

>  <r_i_glide_ecoul>  (366) 
-6.85858

>  <r_i_glide_erotb>  (366) 
0.215435

>  <r_i_glide_esite>  (366) 
-0.0120196

>  <r_i_glide_emodel>  (366) 
-37.7365

>  <r_i_glide_energy>  (366) 
-34.1318

>  <r_i_glide_einternal>  (366) 
6.28383

>  <r_i_glide_intrahb_reward>  (366) 
-0

>  <i_i_glide_confnum>  (366) 
2

>  <i_i_glide_posenum>  (366) 
30

>  <r_i_glide_eff_state_penalty>  (366) 
0

>  <ligand_id>  (366) 
106

>  <original_smiles>  (366) 
CC1CCC2C(C)C(OC3C(N)CC(N)C(O)C3O)OC3OC4(C)CCC1C32OO4

>  <smiles>  (366) 
[H]OC1([H])C([H])(O[H])C([H])(N([H])[H])C([H])([H])C([H])([N+]([H])([H])[H])C1([H])OC1([H])OC2([H])OC3(C([H])([H])[H])OOC24C([H])(C([H])([H])C([H])([H])C([H])(C([H])([H])[H])C4([H])C([H])([H])C3([H])[H])C1([H])C([H])([H])[H]

$$$$
106:2:0
     RDKit          3D

 67 71  0  0  1  0  0  0  0  0999 V2000
    5.7933   -7.6817    5.2762 C   0  0  0  0  0  0  0  0  0  0  0  0
    5.2028   -6.4127    4.6311 C   0  0  2  0  0  0  0  0  0  0  0  0
    5.4390   -5.2064    5.5775 C   0  0  0  0  0  0  0  0  0  0  0  0
    4.5761   -3.9745    5.2686 C   0  0  0  0  0  0  0  0  0  0  0  0
    4.1272   -3.9888    3.8103 C   0  0  2  0  0  0  0  0  0  0  0  0
    3.4984   -2.6668    3.3198 C   0  0  1  0  0  0  0  0  0  0  0  0
    4.3695   -1.4074    3.4940 C   0  0  0  0  0  0  0  0  0  0  0  0
    3.1900   -2.8474    1.8323 C   0  0  1  0  0  0  0  0  0  0  0  0
    4.3816   -2.9578    1.0904 O   0  0  0  0  0  0  0  0  0  0  0  0
    4.3640   -2.6881   -0.3264 C   0  0  2  0  0  0  0  0  0  0  0  0
    4.4912   -1.1812   -0.6271 C   0  0  1  0  0  0  0  0  0  0  0  0
    5.7698   -0.6495   -0.1193 N   0  0  0  0  0  0  0  0  0  0  0  0
    4.3735   -0.8977   -2.1383 C   0  0  0  0  0  0  0  0  0  0  0  0
    3.0870   -1.4645   -2.7629 C   0  0  1  0  0  0  0  0  0  0  0  0
    3.0230   -1.1896   -4.1981 N   0  0  0  0  0  0  0  0  0  0  0  0
    2.9752   -2.9710   -2.5175 C   0  0  1  0  0  0  0  0  0  0  0  0
    3.9921   -3.6217   -3.2527 O   0  0  0  0  0  0  0  0  0  0  0  0
    3.0980   -3.2715   -1.0103 C   0  0  1  0  0  0  0  0  0  0  0  0
    3.1225   -4.6482   -0.7165 O   0  0  0  0  0  0  0  0  0  0  0  0
    2.3448   -3.9602    1.7116 O   0  0  0  0  0  0  0  0  0  0  0  0
    2.9184   -5.1996    2.0574 C   0  0  2  0  0  0  0  0  0  0  0  0
    2.0566   -6.2066    1.6319 O   0  0  0  0  0  0  0  0  0  0  0  0
    1.1699   -6.7182    2.5999 C   0  0  1  0  0  0  0  0  0  0  0  0
   -0.1323   -7.1025    1.8631 C   0  0  0  0  0  0  0  0  0  0  0  0
    1.8317   -7.9645    3.2070 C   0  0  0  0  0  0  0  0  0  0  0  0
    3.3390   -7.8034    3.4570 C   0  0  0  0  0  0  0  0  0  0  0  0
    3.7020   -6.5160    4.2208 C   0  0  2  0  0  0  0  0  0  0  0  0
    3.1542   -5.1876    3.5807 C   0  0  1  0  0  0  0  0  0  0  0  0
    1.8953   -4.9327    4.1933 O   0  0  0  0  0  0  0  0  0  0  0  0
    0.7498   -5.7525    3.5732 O   0  0  0  0  0  0  0  0  0  0  0  0
    5.2287   -8.0005    6.1531 H   0  0  0  0  0  0  0  0  0  0  0  0
    6.8212   -7.5115    5.5968 H   0  0  0  0  0  0  0  0  0  0  0  0
    5.8274   -8.5125    4.5740 H   0  0  0  0  0  0  0  0  0  0  0  0
    5.7797   -6.2434    3.7180 H   0  0  0  0  0  0  0  0  0  0  0  0
    5.3020   -5.4804    6.6253 H   0  0  0  0  0  0  0  0  0  0  0  0
    6.4793   -4.9072    5.4861 H   0  0  0  0  0  0  0  0  0  0  0  0
    3.6885   -3.9821    5.8986 H   0  0  0  0  0  0  0  0  0  0  0  0
    5.1286   -3.0643    5.5056 H   0  0  0  0  0  0  0  0  0  0  0  0
    5.0246   -4.1432    3.2062 H   0  0  0  0  0  0  0  0  0  0  0  0
    2.5336   -2.4961    3.8016 H   0  0  0  0  0  0  0  0  0  0  0  0
    5.3794   -1.5532    3.1063 H   0  0  0  0  0  0  0  0  0  0  0  0
    4.4422   -1.1419    4.5468 H   0  0  0  0  0  0  0  0  0  0  0  0
    3.9354   -0.5481    2.9781 H   0  0  0  0  0  0  0  0  0  0  0  0
    2.6509   -1.9653    1.4924 H   0  0  0  0  0  0  0  0  0  0  0  0
    5.2292   -3.1828   -0.7695 H   0  0  0  0  0  0  0  0  0  0  0  0
    3.6764   -0.6647   -0.1293 H   0  0  0  0  0  0  0  0  0  0  0  0
    5.7912    0.3581   -0.2613 H   0  0  0  0  0  0  0  0  0  0  0  0
    5.8279   -0.7987    0.8836 H   0  0  0  0  0  0  0  0  0  0  0  0
    4.4017    0.1829   -2.3195 H   0  0  0  0  0  0  0  0  0  0  0  0
    5.2439   -1.3046   -2.6545 H   0  0  0  0  0  0  0  0  0  0  0  0
    2.2332   -0.9562   -2.3169 H   0  0  0  0  0  0  0  0  0  0  0  0
    3.8053   -1.6791   -4.5983 H   0  0  0  0  0  0  0  0  0  0  0  0
    3.0791   -0.1985   -4.3750 H   0  0  0  0  0  0  0  0  0  0  0  0
    2.0085   -3.3425   -2.8529 H   0  0  0  0  0  0  0  0  0  0  0  0
    3.8985   -4.5580   -3.1032 H   0  0  0  0  0  0  0  0  0  0  0  0
    2.1914   -2.8264   -0.5797 H   0  0  0  0  0  0  0  0  0  0  0  0
    3.0249   -5.1747   -1.5498 H   0  0  0  0  0  0  0  0  0  0  0  0
    3.8540   -5.3779    1.5287 H   0  0  0  0  0  0  0  0  0  0  0  0
   -0.5985   -6.2354    1.4053 H   0  0  0  0  0  0  0  0  0  0  0  0
   -0.8641   -7.5337    2.5488 H   0  0  0  0  0  0  0  0  0  0  0  0
    0.0292   -7.8189    1.0555 H   0  0  0  0  0  0  0  0  0  0  0  0
    1.3069   -8.2397    4.1215 H   0  0  0  0  0  0  0  0  0  0  0  0
    1.7119   -8.8104    2.5253 H   0  0  0  0  0  0  0  0  0  0  0  0
    3.6521   -8.6764    4.0277 H   0  0  0  0  0  0  0  0  0  0  0  0
    3.8930   -7.8465    2.5167 H   0  0  0  0  0  0  0  0  0  0  0  0
    3.1716   -6.5993    5.1717 H   0  0  0  0  0  0  0  0  0  0  0  0
    2.1716   -1.5652   -4.5932 H   0  0  0  0  0  0  0  0  0  0  0  0
  1  2  1  0
  1 31  1  0
  1 32  1  0
  1 33  1  0
  2 27  1  0
  2  3  1  0
  2 34  1  6
  3  4  1  0
  3 35  1  0
  3 36  1  0
  4  5  1  0
  4 37  1  0
  4 38  1  0
  5 28  1  0
  5  6  1  0
  5 39  1  6
  6  7  1  0
  6  8  1  0
  6 40  1  1
  7 41  1  0
  7 42  1  0
  7 43  1  0
  8  9  1  0
  8 20  1  0
  8 44  1  6
  9 10  1  0
 10 18  1  0
 10 11  1  0
 10 45  1  6
 11 12  1  0
 11 13  1  0
 11 46  1  1
 12 47  1  0
 12 48  1  0
 13 14  1  0
 13 49  1  0
 13 50  1  0
 14 15  1  0
 14 16  1  0
 14 51  1  1
 15 52  1  0
 15 53  1  0
 15 67  1  0
 16 17  1  0
 16 18  1  0
 16 54  1  6
 17 55  1  0
 18 19  1  0
 18 56  1  1
 19 57  1  0
 20 21  1  0
 21 28  1  0
 21 22  1  0
 21 58  1  6
 22 23  1  0
 23 30  1  0
 23 24  1  6
 23 25  1  0
 24 59  1  0
 24 60  1  0
 24 61  1  0
 25 26  1  0
 25 62  1  0
 25 63  1  0
 26 27  1  0
 26 64  1  0
 26 65  1  0
 27 28  1  0
 27 66  1  1
 28 29  1  1
 29 30  1  0
M  CHG  1  15   1
M  END
>  <i_m_ct_stereo_status>  (367) 
1

>  <s_m_source_file>  (367) 
/var/tmp/pbs.5083856.sched01/tmpfd511yf2/150gz97klq0.sdf

>  <i_m_source_file_index>  (367) 
3

>  <i_lp_mmshare_version>  (367) 
48012

>  <i_f3d_flags>  (367) 
0

>  <s_epik_input>  (367) 
W0NAXTEyM1tDQEBIXTRbQ0gyXVtDSDJdW0NAQEhdKFtDSDNdKVtDQEBIXTJbQ0gyXVtDSDJdW0NAQF0oW0NIM10pKE9PMylPW0NASF0xT1tDQEBIXShbQ0BASF00W0NIM10pT1tDQEBIXTVbQ0BASF0oW05IMl0pW0NIMl1bQ0BASF0oW05IMl0pW0NAQEhdKFtPSF0pW0NASF01W09IXQ==

>  <s_epik_cmdline>  (367) 
J2VwaWtfcHl0aG9uJywgJy1waHQnLCAnMi4wJywgJy1waCcsICc3LjAnLCAnLXRuJywgJzgnLCAnLW1hJywgJzIwMCcsICctaW1hZScsICc8aW5maWxlLm1hZT4nLCAnLW9tYWUnLCAnPG91dGZpbGUubWFlPic=

>  <r_epik_Ionization_Penalty>  (367) 
1.62534

>  <r_epik_Ionization_Penalty_Charging>  (367) 
0.0134609

>  <r_epik_Ionization_Penalty_Neutral>  (367) 
1.61188

>  <r_epik_State_Penalty>  (367) 
1.82581

>  <r_epik_Charging_Adjusted_Penalty>  (367) 
1.83927

>  <i_epik_Tot_Q>  (367) 
1

>  <i_epik_Tot_abs_Q>  (367) 
1

>  <s_epik_Chemistry_Notes>  (367) 
This compound contains an acetal/aminal-like group ( X-CH(R)-Y where X, Y are N, S, or O) that may be acid/base labile, releasing an aldehyde.

>  <s_lp_Force_Field>  (367) 
OPLS3e

>  <r_lp_Energy>  (367) 
60.519

>  <b_lp_Chiralities_Consistent>  (367) 
1

>  <s_lp_Variant>  (367) 
106:0-3

>  <s_i_glide_gridfile>  (367) 
pfpi4k_grid

>  <i_i_glide_lignum>  (367) 
3

>  <i_i_glide_rotatable_bonds>  (367) 
4

>  <r_i_docking_score>  (367) 
-4.30025

>  <r_i_glide_ligand_efficiency>  (367) 
-0.143342

>  <r_i_glide_ligand_efficiency_sa>  (367) 
-0.445396

>  <r_i_glide_ligand_efficiency_ln>  (367) 
-0.977065

>  <r_i_glide_gscore>  (367) 
-4.30025

>  <r_i_glide_lipo>  (367) 
-0.0949726

>  <r_i_glide_hbond>  (367) 
-0.292883

>  <r_i_glide_metal>  (367) 
-0

>  <r_i_glide_rewards>  (367) 
-0.480493

>  <r_i_glide_evdw>  (367) 
-19.7144

>  <r_i_glide_ecoul>  (367) 
-17.4536

>  <r_i_glide_erotb>  (367) 
0.215435

>  <r_i_glide_esite>  (367) 
-0.0435871

>  <r_i_glide_emodel>  (367) 
-44.4601

>  <r_i_glide_energy>  (367) 
-37.1679

>  <r_i_glide_einternal>  (367) 
8.97401

>  <r_i_glide_intrahb_reward>  (367) 
-0

>  <i_i_glide_confnum>  (367) 
4

>  <i_i_glide_posenum>  (367) 
6

>  <r_i_glide_eff_state_penalty>  (367) 
0

>  <ligand_id>  (367) 
106

>  <original_smiles>  (367) 
CC1CCC2C(C)C(OC3C(N)CC(N)C(O)C3O)OC3OC4(C)CCC1C32OO4

>  <smiles>  (367) 
[H]OC1([H])C([H])(OC2([H])OC3([H])OC4(C([H])([H])[H])OOC35C([H])(C([H])([H])C([H])([H])C([H])(C([H])([H])[H])C5([H])C([H])([H])C4([H])[H])C2([H])C([H])([H])[H])C([H])(N([H])[H])C([H])([H])C([H])([N+]([H])([H])[H])C1([H])O[H]

$$$$
106:2:1
     RDKit          3D

 67 71  0  0  1  0  0  0  0  0999 V2000
    0.6571  -10.9629    3.0915 C   0  0  0  0  0  0  0  0  0  0  0  0
    1.7822   -9.9075    3.0795 C   0  0  2  0  0  0  0  0  0  0  0  0
    3.1136  -10.5951    3.4642 C   0  0  0  0  0  0  0  0  0  0  0  0
    4.2301   -9.6228    3.8883 C   0  0  0  0  0  0  0  0  0  0  0  0
    3.9815   -8.2351    3.3097 C   0  0  2  0  0  0  0  0  0  0  0  0
    5.1572   -7.2411    3.4081 C   0  0  1  0  0  0  0  0  0  0  0  0
    6.4910   -7.7442    2.8095 C   0  0  0  0  0  0  0  0  0  0  0  0
    4.7224   -5.9393    2.6673 C   0  0  1  0  0  0  0  0  0  0  0  0
    4.5557   -6.1795    1.2920 O   0  0  0  0  0  0  0  0  0  0  0  0
    4.3832   -5.0783    0.3795 C   0  0  2  0  0  0  0  0  0  0  0  0
    5.5258   -4.0271    0.4838 C   0  0  1  0  0  0  0  0  0  0  0  0
    6.8325   -4.5926    0.1392 N   0  0  0  0  0  0  0  0  0  0  0  0
    5.2522   -2.8000   -0.4093 C   0  0  0  0  0  0  0  0  0  0  0  0
    3.8768   -2.1803   -0.0915 C   0  0  1  0  0  0  0  0  0  0  0  0
    3.5959   -1.0592   -0.9664 N   0  0  0  0  0  0  0  0  0  0  0  0
    2.7546   -3.1849   -0.2878 C   0  0  1  0  0  0  0  0  0  0  0  0
    2.7183   -3.4819   -1.6725 O   0  0  0  0  0  0  0  0  0  0  0  0
    2.9893   -4.4364    0.5612 C   0  0  1  0  0  0  0  0  0  0  0  0
    1.9581   -5.3582    0.2329 O   0  0  0  0  0  0  0  0  0  0  0  0
    3.5286   -5.4853    3.2299 O   0  0  0  0  0  0  0  0  0  0  0  0
    2.4472   -6.3720    3.1291 C   0  0  2  0  0  0  0  0  0  0  0  0
    1.3205   -5.6611    3.5184 O   0  0  0  0  0  0  0  0  0  0  0  0
    0.9016   -5.8537    4.8604 C   0  0  1  0  0  0  0  0  0  0  0  0
    0.3241   -4.5048    5.3597 C   0  0  0  0  0  0  0  0  0  0  0  0
   -0.2112   -6.9190    4.7691 C   0  0  0  0  0  0  0  0  0  0  0  0
    0.1129   -8.0493    3.7717 C   0  0  0  0  0  0  0  0  0  0  0  0
    1.5165   -8.6634    3.9746 C   0  0  2  0  0  0  0  0  0  0  0  0
    2.7051   -7.6366    3.9667 C   0  0  1  0  0  0  0  0  0  0  0  0
    2.9039   -7.2430    5.3255 O   0  0  0  0  0  0  0  0  0  0  0  0
    1.9516   -6.1504    5.7914 O   0  0  0  0  0  0  0  0  0  0  0  0
    0.4266  -11.2909    4.1006 H   0  0  0  0  0  0  0  0  0  0  0  0
    0.9509  -11.8479    2.5229 H   0  0  0  0  0  0  0  0  0  0  0  0
   -0.2494  -10.5834    2.6220 H   0  0  0  0  0  0  0  0  0  0  0  0
    1.8700   -9.5744    2.0412 H   0  0  0  0  0  0  0  0  0  0  0  0
    2.9674  -11.3238    4.2568 H   0  0  0  0  0  0  0  0  0  0  0  0
    3.4751  -11.1427    2.6006 H   0  0  0  0  0  0  0  0  0  0  0  0
    4.2406   -9.5163    4.9802 H   0  0  0  0  0  0  0  0  0  0  0  0
    5.2046  -10.0104    3.5799 H   0  0  0  0  0  0  0  0  0  0  0  0
    3.7912   -8.3736    2.2513 H   0  0  0  0  0  0  0  0  0  0  0  0
    5.3277   -6.9877    4.4541 H   0  0  0  0  0  0  0  0  0  0  0  0
    6.3749   -8.1238    1.7967 H   0  0  0  0  0  0  0  0  0  0  0  0
    6.9193   -8.5418    3.4204 H   0  0  0  0  0  0  0  0  0  0  0  0
    7.2362   -6.9503    2.7786 H   0  0  0  0  0  0  0  0  0  0  0  0
    5.5274   -5.2284    2.8539 H   0  0  0  0  0  0  0  0  0  0  0  0
    4.4279   -5.5045   -0.6093 H   0  0  0  0  0  0  0  0  0  0  0  0
    5.5708   -3.6255    1.4934 H   0  0  0  0  0  0  0  0  0  0  0  0
    7.6024   -3.9278    0.2408 H   0  0  0  0  0  0  0  0  0  0  0  0
    7.0694   -5.3976    0.7197 H   0  0  0  0  0  0  0  0  0  0  0  0
    6.0371   -2.0483   -0.2442 H   0  0  0  0  0  0  0  0  0  0  0  0
    5.3058   -3.0839   -1.4645 H   0  0  0  0  0  0  0  0  0  0  0  0
    3.8770   -1.8258    0.9452 H   0  0  0  0  0  0  0  0  0  0  0  0
    3.5281   -1.4171   -1.9071 H   0  0  0  0  0  0  0  0  0  0  0  0
    4.2871   -0.3214   -0.8865 H   0  0  0  0  0  0  0  0  0  0  0  0
    1.8299   -2.7242    0.0460 H   0  0  0  0  0  0  0  0  0  0  0  0
    2.9972   -4.3818   -1.7943 H   0  0  0  0  0  0  0  0  0  0  0  0
    2.8463   -4.0778    1.5872 H   0  0  0  0  0  0  0  0  0  0  0  0
    2.2086   -5.8370   -0.5521 H   0  0  0  0  0  0  0  0  0  0  0  0
    2.3039   -6.6517    2.0751 H   0  0  0  0  0  0  0  0  0  0  0  0
    1.1102   -3.7531    5.3955 H   0  0  0  0  0  0  0  0  0  0  0  0
   -0.0706   -4.6193    6.3625 H   0  0  0  0  0  0  0  0  0  0  0  0
   -0.4620   -4.1135    4.7255 H   0  0  0  0  0  0  0  0  0  0  0  0
   -0.3924   -7.3111    5.7650 H   0  0  0  0  0  0  0  0  0  0  0  0
   -1.1388   -6.4528    4.4435 H   0  0  0  0  0  0  0  0  0  0  0  0
   -0.6585   -8.8058    3.9249 H   0  0  0  0  0  0  0  0  0  0  0  0
   -0.0214   -7.7093    2.7421 H   0  0  0  0  0  0  0  0  0  0  0  0
    1.4885   -9.0608    4.9854 H   0  0  0  0  0  0  0  0  0  0  0  0
    2.6616   -0.7000   -0.7271 H   0  0  0  0  0  0  0  0  0  0  0  0
  1  2  1  0
  1 31  1  0
  1 32  1  0
  1 33  1  0
  2 27  1  0
  2  3  1  0
  2 34  1  6
  3  4  1  0
  3 35  1  0
  3 36  1  0
  4  5  1  0
  4 37  1  0
  4 38  1  0
  5 28  1  0
  5  6  1  0
  5 39  1  6
  6  7  1  0
  6  8  1  0
  6 40  1  1
  7 41  1  0
  7 42  1  0
  7 43  1  0
  8  9  1  0
  8 20  1  0
  8 44  1  6
  9 10  1  0
 10 18  1  0
 10 11  1  0
 10 45  1  6
 11 12  1  0
 11 13  1  0
 11 46  1  1
 12 47  1  0
 12 48  1  0
 13 14  1  0
 13 49  1  0
 13 50  1  0
 14 15  1  0
 14 16  1  0
 14 51  1  1
 15 52  1  0
 15 53  1  0
 15 67  1  0
 16 17  1  0
 16 18  1  0
 16 54  1  1
 17 55  1  0
 18 19  1  0
 18 56  1  1
 19 57  1  0
 20 21  1  0
 21 28  1  0
 21 22  1  0
 21 58  1  6
 22 23  1  0
 23 30  1  0
 23 24  1  1
 23 25  1  0
 24 59  1  0
 24 60  1  0
 24 61  1  0
 25 26  1  0
 25 62  1  0
 25 63  1  0
 26 27  1  0
 26 64  1  0
 26 65  1  0
 27 28  1  0
 27 66  1  1
 28 29  1  1
 29 30  1  0
M  CHG  1  15   1
M  END
>  <i_m_ct_stereo_status>  (368) 
1

>  <s_m_source_file>  (368) 
/var/tmp/pbs.5083856.sched01/tmpfd511yf2/150gz97klq0.sdf

>  <i_m_source_file_index>  (368) 
3

>  <i_lp_mmshare_version>  (368) 
48012

>  <i_f3d_flags>  (368) 
0

>  <s_epik_input>  (368) 
W0NAXTEyM1tDQEBIXTRbQ0gyXVtDSDJdW0NAQEhdKFtDSDNdKVtDQEBIXTJbQ0gyXVtDSDJdW0NAQF0oW0NIM10pKE9PMylPW0NASF0xT1tDQEBIXShbQ0BASF00W0NIM10pT1tDQEBIXTVbQ0BASF0oW05IMl0pW0NIMl1bQ0BASF0oW05IMl0pW0NAQEhdKFtPSF0pW0NASF01W09IXQ==

>  <s_epik_cmdline>  (368) 
J2VwaWtfcHl0aG9uJywgJy1waHQnLCAnMi4wJywgJy1waCcsICc3LjAnLCAnLXRuJywgJzgnLCAnLW1hJywgJzIwMCcsICctaW1hZScsICc8aW5maWxlLm1hZT4nLCAnLW9tYWUnLCAnPG91dGZpbGUubWFlPic=

>  <r_epik_Ionization_Penalty>  (368) 
1.62534

>  <r_epik_Ionization_Penalty_Charging>  (368) 
0.0134609

>  <r_epik_Ionization_Penalty_Neutral>  (368) 
1.61188

>  <r_epik_State_Penalty>  (368) 
1.82581

>  <r_epik_Charging_Adjusted_Penalty>  (368) 
1.83927

>  <i_epik_Tot_Q>  (368) 
1

>  <i_epik_Tot_abs_Q>  (368) 
1

>  <s_epik_Chemistry_Notes>  (368) 
This compound contains an acetal/aminal-like group ( X-CH(R)-Y where X, Y are N, S, or O) that may be acid/base labile, releasing an aldehyde.

>  <s_lp_Force_Field>  (368) 
OPLS3e

>  <r_lp_Energy>  (368) 
60.519

>  <b_lp_Chiralities_Consistent>  (368) 
1

>  <s_lp_Variant>  (368) 
106:0-3

>  <s_i_glide_gridfile>  (368) 
pfpi4k_grid

>  <i_i_glide_lignum>  (368) 
3

>  <i_i_glide_rotatable_bonds>  (368) 
4

>  <r_i_docking_score>  (368) 
-3.65684

>  <r_i_glide_ligand_efficiency>  (368) 
-0.121895

>  <r_i_glide_ligand_efficiency_sa>  (368) 
-0.378755

>  <r_i_glide_ligand_efficiency_ln>  (368) 
-0.830874

>  <r_i_glide_gscore>  (368) 
-3.65684

>  <r_i_glide_lipo>  (368) 
-0.284058

>  <r_i_glide_hbond>  (368) 
-0.188053

>  <r_i_glide_metal>  (368) 
-0

>  <r_i_glide_rewards>  (368) 
-0.480493

>  <r_i_glide_evdw>  (368) 
-24.6677

>  <r_i_glide_ecoul>  (368) 
-10.6838

>  <r_i_glide_erotb>  (368) 
0.215435

>  <r_i_glide_esite>  (368) 
-0.0837114

>  <r_i_glide_emodel>  (368) 
-42.6316

>  <r_i_glide_energy>  (368) 
-35.3515

>  <r_i_glide_einternal>  (368) 
4.66571

>  <r_i_glide_intrahb_reward>  (368) 
-0

>  <i_i_glide_confnum>  (368) 
4

>  <i_i_glide_posenum>  (368) 
3

>  <r_i_glide_eff_state_penalty>  (368) 
0

>  <ligand_id>  (368) 
106

>  <original_smiles>  (368) 
CC1CCC2C(C)C(OC3C(N)CC(N)C(O)C3O)OC3OC4(C)CCC1C32OO4

>  <smiles>  (368) 
[H]OC1([H])C([H])(OC2([H])OC3([H])OC4(C([H])([H])[H])OOC35C([H])(C([H])([H])C([H])([H])C([H])(C([H])([H])[H])C5([H])C([H])([H])C4([H])[H])C2([H])C([H])([H])[H])C([H])(N([H])[H])C([H])([H])C([H])([N+]([H])([H])[H])C1([H])O[H]

$$$$
106:2:2
     RDKit          3D

 67 71  0  0  1  0  0  0  0  0999 V2000
    2.8487  -11.7307    3.3221 C   0  0  0  0  0  0  0  0  0  0  0  0
    3.5358  -10.3688    3.2915 C   0  0  2  0  0  0  0  0  0  0  0  0
    5.0061  -10.5333    3.7446 C   0  0  0  0  0  0  0  0  0  0  0  0
    5.6897   -9.2187    4.1591 C   0  0  0  0  0  0  0  0  0  0  0  0
    5.0000   -8.0378    3.4914 C   0  0  2  0  0  0  0  0  0  0  0  0
    5.7628   -6.7078    3.5900 C   0  0  1  0  0  0  0  0  0  0  0  0
    7.2181   -6.7379    3.0703 C   0  0  0  0  0  0  0  0  0  0  0  0
    4.9666   -5.6575    2.7992 C   0  0  1  0  0  0  0  0  0  0  0  0
    5.0002   -5.9437    1.4231 O   0  0  0  0  0  0  0  0  0  0  0  0
    4.6731   -4.9294    0.4638 C   0  0  2  0  0  0  0  0  0  0  0  0
    5.6851   -3.7319    0.5075 C   0  0  1  0  0  0  0  0  0  0  0  0
    7.0688   -4.1616    0.2144 N   0  0  0  0  0  0  0  0  0  0  0  0
    5.2713   -2.6121   -0.4609 C   0  0  0  0  0  0  0  0  0  0  0  0
    3.8306   -2.1485   -0.2077 C   0  0  1  0  0  0  0  0  0  0  0  0
    3.4060   -1.1071   -1.1592 N   0  0  0  0  0  0  0  0  0  0  0  0
    2.8469   -3.3062   -0.3610 C   0  0  1  0  0  0  0  0  0  0  0  0
    2.8510   -3.6758   -1.7220 O   0  0  0  0  0  0  0  0  0  0  0  0
    3.1912   -4.4540    0.5782 C   0  0  1  0  0  0  0  0  0  0  0  0
    2.2681   -5.4987    0.3268 O   0  0  0  0  0  0  0  0  0  0  0  0
    3.6625   -5.5998    3.2957 O   0  0  0  0  0  0  0  0  0  0  0  0
    2.9403   -6.8062    3.1557 C   0  0  2  0  0  0  0  0  0  0  0  0
    1.6168   -6.5399    3.4936 O   0  0  0  0  0  0  0  0  0  0  0  0
    1.2428   -6.8198    4.8288 C   0  0  1  0  0  0  0  0  0  0  0  0
    0.2426   -5.7469    5.2499 C   0  0  0  0  0  0  0  0  0  0  0  0
    0.5852   -8.1940    4.7835 C   0  0  0  0  0  0  0  0  0  0  0  0
    1.2890   -9.1793    3.8450 C   0  0  0  0  0  0  0  0  0  0  0  0
    2.8013   -9.2668    4.1001 C   0  0  2  0  0  0  0  0  0  0  0  0
    3.5653   -7.8905    4.0632 C   0  0  1  0  0  0  0  0  0  0  0  0
    3.5950   -7.4299    5.4226 O   0  0  0  0  0  0  0  0  0  0  0  0
    2.3183   -6.6726    5.7802 O   0  0  0  0  0  0  0  0  0  0  0  0
    2.7277  -12.0767    4.3588 H   0  0  0  0  0  0  0  0  0  0  0  0
    3.4529  -12.4702    2.7894 H   0  0  0  0  0  0  0  0  0  0  0  0
    1.8632  -11.7126    2.8499 H   0  0  0  0  0  0  0  0  0  0  0  0
    3.5563  -10.0615    2.2347 H   0  0  0  0  0  0  0  0  0  0  0  0
    5.0567  -11.2544    4.5861 H   0  0  0  0  0  0  0  0  0  0  0  0
    5.5582  -10.9712    2.9154 H   0  0  0  0  0  0  0  0  0  0  0  0
    5.6179   -9.0862    5.2326 H   0  0  0  0  0  0  0  0  0  0  0  0
    6.7483   -9.2848    3.8915 H   0  0  0  0  0  0  0  0  0  0  0  0
    4.9366   -8.2693    2.4196 H   0  0  0  0  0  0  0  0  0  0  0  0
    5.7923   -6.4052    4.6460 H   0  0  0  0  0  0  0  0  0  0  0  0
    7.2714   -7.1616    2.0627 H   0  0  0  0  0  0  0  0  0  0  0  0
    7.8818   -7.3149    3.7120 H   0  0  0  0  0  0  0  0  0  0  0  0
    7.6337   -5.7294    3.0147 H   0  0  0  0  0  0  0  0  0  0  0  0
    5.4563   -4.7020    3.0021 H   0  0  0  0  0  0  0  0  0  0  0  0
    4.7810   -5.4170   -0.5103 H   0  0  0  0  0  0  0  0  0  0  0  0
    5.6421   -3.2743    1.4873 H   0  0  0  0  0  0  0  0  0  0  0  0
    7.7365   -3.4019    0.3268 H   0  0  0  0  0  0  0  0  0  0  0  0
    7.3681   -4.9070    0.8333 H   0  0  0  0  0  0  0  0  0  0  0  0
    5.9389   -1.7620   -0.3136 H   0  0  0  0  0  0  0  0  0  0  0  0
    5.4011   -2.9282   -1.5042 H   0  0  0  0  0  0  0  0  0  0  0  0
    3.7433   -1.7477    0.7978 H   0  0  0  0  0  0  0  0  0  0  0  0
    3.4792   -1.5267   -2.0788 H   0  0  0  0  0  0  0  0  0  0  0  0
    4.0097   -0.2745   -1.0871 H   0  0  0  0  0  0  0  0  0  0  0  0
    1.8422   -2.9729   -0.0893 H   0  0  0  0  0  0  0  0  0  0  0  0
    2.9423   -4.6230   -1.8267 H   0  0  0  0  0  0  0  0  0  0  0  0
    3.0118   -4.0597    1.5819 H   0  0  0  0  0  0  0  0  0  0  0  0
    2.4894   -5.9148   -0.5013 H   0  0  0  0  0  0  0  0  0  0  0  0
    2.9514   -7.1564    2.1185 H   0  0  0  0  0  0  0  0  0  0  0  0
    0.7088   -4.7636    5.2716 H   0  0  0  0  0  0  0  0  0  0  0  0
   -0.1450   -5.9553    6.2513 H   0  0  0  0  0  0  0  0  0  0  0  0
   -0.6108   -5.6957    4.5658 H   0  0  0  0  0  0  0  0  0  0  0  0
    0.4918   -8.5920    5.7930 H   0  0  0  0  0  0  0  0  0  0  0  0
   -0.4409   -8.0818    4.4121 H   0  0  0  0  0  0  0  0  0  0  0  0
    0.8211  -10.1412    4.0051 H   0  0  0  0  0  0  0  0  0  0  0  0
    1.0931   -8.9303    2.7961 H   0  0  0  0  0  0  0  0  0  0  0  0
    2.8798   -9.6019    5.1324 H   0  0  0  0  0  0  0  0  0  0  0  0
    2.4501   -0.9200   -0.9832 H   0  0  0  0  0  0  0  0  0  0  0  0
  1  2  1  0
  1 31  1  0
  1 32  1  0
  1 33  1  0
  2 27  1  0
  2  3  1  0
  2 34  1  6
  3  4  1  0
  3 35  1  0
  3 36  1  0
  4  5  1  0
  4 37  1  0
  4 38  1  0
  5 28  1  0
  5  6  1  0
  5 39  1  6
  6  7  1  0
  6  8  1  0
  6 40  1  1
  7 41  1  0
  7 42  1  0
  7 43  1  0
  8  9  1  0
  8 20  1  0
  8 44  1  6
  9 10  1  0
 10 18  1  0
 10 11  1  0
 10 45  1  6
 11 12  1  0
 11 13  1  0
 11 46  1  1
 12 47  1  0
 12 48  1  0
 13 14  1  0
 13 49  1  0
 13 50  1  0
 14 15  1  0
 14 16  1  0
 14 51  1  1
 15 52  1  0
 15 53  1  0
 15 67  1  0
 16 17  1  0
 16 18  1  0
 16 54  1  1
 17 55  1  0
 18 19  1  0
 18 56  1  1
 19 57  1  0
 20 21  1  0
 21 28  1  0
 21 22  1  0
 21 58  1  6
 22 23  1  0
 23 30  1  0
 23 24  1  1
 23 25  1  0
 24 59  1  0
 24 60  1  0
 24 61  1  0
 25 26  1  0
 25 62  1  0
 25 63  1  0
 26 27  1  0
 26 64  1  0
 26 65  1  0
 27 28  1  0
 27 66  1  1
 28 29  1  1
 29 30  1  0
M  CHG  1  15   1
M  END
>  <i_m_ct_stereo_status>  (369) 
1

>  <s_m_source_file>  (369) 
/var/tmp/pbs.5083856.sched01/tmpfd511yf2/150gz97klq0.sdf

>  <i_m_source_file_index>  (369) 
3

>  <i_lp_mmshare_version>  (369) 
48012

>  <i_f3d_flags>  (369) 
0

>  <s_epik_input>  (369) 
W0NAXTEyM1tDQEBIXTRbQ0gyXVtDSDJdW0NAQEhdKFtDSDNdKVtDQEBIXTJbQ0gyXVtDSDJdW0NAQF0oW0NIM10pKE9PMylPW0NASF0xT1tDQEBIXShbQ0BASF00W0NIM10pT1tDQEBIXTVbQ0BASF0oW05IMl0pW0NIMl1bQ0BASF0oW05IMl0pW0NAQEhdKFtPSF0pW0NASF01W09IXQ==

>  <s_epik_cmdline>  (369) 
J2VwaWtfcHl0aG9uJywgJy1waHQnLCAnMi4wJywgJy1waCcsICc3LjAnLCAnLXRuJywgJzgnLCAnLW1hJywgJzIwMCcsICctaW1hZScsICc8aW5maWxlLm1hZT4nLCAnLW9tYWUnLCAnPG91dGZpbGUubWFlPic=

>  <r_epik_Ionization_Penalty>  (369) 
1.62534

>  <r_epik_Ionization_Penalty_Charging>  (369) 
0.0134609

>  <r_epik_Ionization_Penalty_Neutral>  (369) 
1.61188

>  <r_epik_State_Penalty>  (369) 
1.82581

>  <r_epik_Charging_Adjusted_Penalty>  (369) 
1.83927

>  <i_epik_Tot_Q>  (369) 
1

>  <i_epik_Tot_abs_Q>  (369) 
1

>  <s_epik_Chemistry_Notes>  (369) 
This compound contains an acetal/aminal-like group ( X-CH(R)-Y where X, Y are N, S, or O) that may be acid/base labile, releasing an aldehyde.

>  <s_lp_Force_Field>  (369) 
OPLS3e

>  <r_lp_Energy>  (369) 
60.519

>  <b_lp_Chiralities_Consistent>  (369) 
1

>  <s_lp_Variant>  (369) 
106:0-3

>  <s_i_glide_gridfile>  (369) 
pfpi4k_grid

>  <i_i_glide_lignum>  (369) 
3

>  <i_i_glide_rotatable_bonds>  (369) 
4

>  <r_i_docking_score>  (369) 
-3.61744

>  <r_i_glide_ligand_efficiency>  (369) 
-0.120581

>  <r_i_glide_ligand_efficiency_sa>  (369) 
-0.374675

>  <r_i_glide_ligand_efficiency_ln>  (369) 
-0.821922

>  <r_i_glide_gscore>  (369) 
-3.61744

>  <r_i_glide_lipo>  (369) 
-0.127023

>  <r_i_glide_hbond>  (369) 
-0.2

>  <r_i_glide_metal>  (369) 
-0

>  <r_i_glide_rewards>  (369) 
-0.480493

>  <r_i_glide_evdw>  (369) 
-21.3894

>  <r_i_glide_ecoul>  (369) 
-12.4015

>  <r_i_glide_erotb>  (369) 
0.215435

>  <r_i_glide_esite>  (369) 
-0.0956737

>  <r_i_glide_emodel>  (369) 
-41.0719

>  <r_i_glide_energy>  (369) 
-33.7908

>  <r_i_glide_einternal>  (369) 
4.8904

>  <r_i_glide_intrahb_reward>  (369) 
-0

>  <i_i_glide_confnum>  (369) 
2

>  <i_i_glide_posenum>  (369) 
30

>  <r_i_glide_eff_state_penalty>  (369) 
0

>  <ligand_id>  (369) 
106

>  <original_smiles>  (369) 
CC1CCC2C(C)C(OC3C(N)CC(N)C(O)C3O)OC3OC4(C)CCC1C32OO4

>  <smiles>  (369) 
[H]OC1([H])C([H])(OC2([H])OC3([H])OC4(C([H])([H])[H])OOC35C([H])(C([H])([H])C([H])([H])C([H])(C([H])([H])[H])C5([H])C([H])([H])C4([H])[H])C2([H])C([H])([H])[H])C([H])(N([H])[H])C([H])([H])C([H])([N+]([H])([H])[H])C1([H])O[H]

$$$$
107:0:0
     RDKit          3D

 42 45  0  0  1  0  0  0  0  0999 V2000
    4.8883   -3.3639   -2.7213 C   0  0  0  0  0  0  0  0  0  0  0  0
    4.8103   -2.9385   -1.4565 C   0  0  0  0  0  0  0  0  0  0  0  0
    3.8461   -1.8285   -1.0454 C   0  0  0  0  0  0  0  0  0  0  0  0
    3.4615   -1.8500    0.4478 C   0  0  1  0  0  0  0  0  0  0  0  0
    2.7252   -3.0163    0.8158 O   0  0  0  0  0  0  0  0  0  0  0  0
    3.2557   -4.2879    0.4972 C   0  0  0  0  0  0  0  0  0  0  0  0
    4.7992   -4.4770    0.6211 C   0  0  2  0  0  0  0  0  0  0  0  0
    5.0081   -5.9273    0.0810 C   0  0  0  0  0  0  0  0  0  0  0  0
    5.2303   -4.4811    2.1275 C   0  0  0  0  0  0  0  0  0  0  0  0
    5.5287   -5.5329    2.6884 O   0  0  0  0  0  0  0  0  0  0  0  0
    5.3879   -3.3051    2.8045 O   0  0  0  0  0  0  0  0  0  0  0  0
    4.3819   -2.3207    2.7986 C   0  0  1  0  0  0  0  0  0  0  0  0
    4.4771   -1.5701    3.9767 O   0  0  0  0  0  0  0  0  0  0  0  0
    4.2123   -2.1778    5.1741 C   0  0  0  0  0  0  0  0  0  0  0  0
    3.7868   -3.6527    5.1493 C   0  0  0  0  0  0  0  0  0  0  0  0
    4.3025   -1.5864    6.2458 O   0  0  0  0  0  0  0  0  0  0  0  0
    4.5200   -1.3734    1.5335 C   0  0  2  0  0  0  0  0  0  0  0  0
    4.1508    0.0904    1.8870 C   0  0  0  0  0  0  0  0  0  0  0  0
    5.9947   -1.3856    1.1291 C   0  0  2  0  0  0  0  0  0  0  0  0
    6.4459   -1.1286   -0.2052 O   0  0  0  0  0  0  0  0  0  0  0  0
    6.5489   -2.4898    0.2967 C   0  0  2  0  0  0  0  0  0  0  0  0
    5.6591   -3.5430   -0.3405 C   0  0  2  0  0  0  0  0  0  0  0  0
    4.2719   -2.9252   -3.4929 H   0  0  0  0  0  0  0  0  0  0  0  0
    5.5611   -4.1636   -3.0056 H   0  0  0  0  0  0  0  0  0  0  0  0
    4.2802   -0.8593   -1.2966 H   0  0  0  0  0  0  0  0  0  0  0  0
    2.9407   -1.9230   -1.6447 H   0  0  0  0  0  0  0  0  0  0  0  0
    2.6452   -1.1201    0.4960 H   0  0  0  0  0  0  0  0  0  0  0  0
    2.7487   -4.9966    1.1566 H   0  0  0  0  0  0  0  0  0  0  0  0
    2.9064   -4.5466   -0.5020 H   0  0  0  0  0  0  0  0  0  0  0  0
    4.7049   -6.0169   -0.9651 H   0  0  0  0  0  0  0  0  0  0  0  0
    4.4310   -6.6701    0.6347 H   0  0  0  0  0  0  0  0  0  0  0  0
    6.0546   -6.2326    0.1374 H   0  0  0  0  0  0  0  0  0  0  0  0
    3.3940   -2.7736    2.8525 H   0  0  0  0  0  0  0  0  0  0  0  0
    4.5733   -4.2772    4.7217 H   0  0  0  0  0  0  0  0  0  0  0  0
    2.8720   -3.7926    4.5617 H   0  0  0  0  0  0  0  0  0  0  0  0
    3.5832   -4.0256    6.1451 H   0  0  0  0  0  0  0  0  0  0  0  0
    4.8415    0.5265    2.6086 H   0  0  0  0  0  0  0  0  0  0  0  0
    3.1491    0.1854    2.3058 H   0  0  0  0  0  0  0  0  0  0  0  0
    4.1904    0.7264    0.9947 H   0  0  0  0  0  0  0  0  0  0  0  0
    6.6619   -1.0007    1.9073 H   0  0  0  0  0  0  0  0  0  0  0  0
    7.5492   -2.8217    0.5705 H   0  0  0  0  0  0  0  0  0  0  0  0
    6.3759   -4.1902   -0.8497 H   0  0  0  0  0  0  0  0  0  0  0  0
  1  2  2  0
  1 23  1  0
  1 24  1  0
  2 22  1  0
  2  3  1  0
  3  4  1  0
  3 25  1  0
  3 26  1  0
  4 17  1  0
  4  5  1  0
  4 27  1  6
  5  6  1  0
  6  7  1  0
  6 28  1  0
  6 29  1  0
  7 22  1  0
  7  8  1  6
  7  9  1  0
  8 30  1  0
  8 31  1  0
  8 32  1  0
  9 10  2  0
  9 11  1  0
 11 12  1  0
 12 13  1  0
 12 17  1  0
 12 33  1  6
 13 14  1  0
 14 15  1  0
 14 16  2  0
 15 34  1  0
 15 35  1  0
 15 36  1  0
 17 18  1  1
 17 19  1  0
 18 37  1  0
 18 38  1  0
 18 39  1  0
 19 21  1  0
 19 20  1  0
 19 40  1  1
 20 21  1  0
 21 22  1  0
 21 41  1  1
 22 42  1  6
M  END
>  <i_m_ct_stereo_status>  (370) 
1

>  <s_m_source_file>  (370) 
/var/tmp/pbs.5083856.sched01/tmpfd511yf2/150gz97klq0.sdf

>  <i_m_source_file_index>  (370) 
4

>  <i_lp_mmshare_version>  (370) 
48012

>  <i_f3d_flags>  (370) 
2

>  <s_epik_input>  (370) 
W0NIMl09QzFbQ0gyXVtDQEhdKE9bQ0gyXTIpW0NAXShbQ0gzXSkoW0NAQEhdKE9DMz1PKU9DKD1PKVtDSDNdKVtDQEBIXShPNClbQ0BASF00W0NAQEhdMVtDQEBdMjNbQ0gzXQ==

>  <s_epik_cmdline>  (370) 
J2VwaWtfcHl0aG9uJywgJy1waHQnLCAnMi4wJywgJy1waCcsICc3LjAnLCAnLXRuJywgJzgnLCAnLW1hJywgJzIwMCcsICctaW1hZScsICc8aW5maWxlLm1hZT4nLCAnLW9tYWUnLCAnPG91dGZpbGUubWFlPic=

>  <r_lp_tautomer_probability>  (370) 
1

>  <r_epik_Ionization_Penalty>  (370) 
1.00826e-12

>  <r_epik_Ionization_Penalty_Charging>  (370) 
0

>  <r_epik_Ionization_Penalty_Neutral>  (370) 
1.00826e-12

>  <r_epik_State_Penalty>  (370) 
-0

>  <r_epik_Charging_Adjusted_Penalty>  (370) 
0

>  <i_epik_Tot_Q>  (370) 
0

>  <i_epik_Tot_abs_Q>  (370) 
0

>  <s_epik_Chemistry_Notes>  (370) 
This compound has an ester and may undergo hydrolysis at high or low pH. This compound contains an acetal/aminal-like group ( X-CH(R)-Y where X, Y are N, S, or O) that may be acid/base labile, releasing an aldehyde.

>  <s_lp_Force_Field>  (370) 
OPLS3e

>  <r_lp_Energy>  (370) 
61.4003

>  <b_lp_Chiralities_Consistent>  (370) 
0

>  <s_lp_Variant>  (370) 
107:0-1

>  <s_i_glide_gridfile>  (370) 
pfpi4k_grid

>  <i_i_glide_lignum>  (370) 
4

>  <i_i_glide_rotatable_bonds>  (370) 
2

>  <r_i_docking_score>  (370) 
-3.20223

>  <r_i_glide_ligand_efficiency>  (370) 
-0.145556

>  <r_i_glide_ligand_efficiency_sa>  (370) 
-0.407853

>  <r_i_glide_ligand_efficiency_ln>  (370) 
-0.782741

>  <r_i_glide_gscore>  (370) 
-3.20223

>  <r_i_glide_lipo>  (370) 
-0.636548

>  <r_i_glide_hbond>  (370) 
-0.0812686

>  <r_i_glide_metal>  (370) 
-0

>  <r_i_glide_rewards>  (370) 
-1.37379

>  <r_i_glide_evdw>  (370) 
-21.5669

>  <r_i_glide_ecoul>  (370) 
-1.51251

>  <r_i_glide_erotb>  (370) 
0.194602

>  <r_i_glide_esite>  (370) 
0

>  <r_i_glide_emodel>  (370) 
-24.4638

>  <r_i_glide_energy>  (370) 
-23.0794

>  <r_i_glide_einternal>  (370) 
6.39855

>  <r_i_glide_intrahb_reward>  (370) 
-0

>  <i_i_glide_confnum>  (370) 
1

>  <i_i_glide_posenum>  (370) 
6

>  <r_i_glide_eff_state_penalty>  (370) 
0

>  <ligand_id>  (370) 
107

>  <original_smiles>  (370) 
C=C1CC2OCC3(C)C(=O)OC(OC(C)=O)C2(C)C2OC2C13

>  <smiles>  (370) 
[H]C([H])=C1C([H])([H])C2([H])OC([H])([H])C3(C([H])([H])[H])C(=O)OC([H])(OC(=O)C([H])([H])[H])C2(C([H])([H])[H])C2([H])OC2([H])C13[H]

$$$$
107:0:1
     RDKit          3D

 42 45  0  0  1  0  0  0  0  0999 V2000
    4.2058   -1.3136   -2.1774 C   0  0  0  0  0  0  0  0  0  0  0  0
    4.2796   -2.2505   -1.2145 C   0  0  0  0  0  0  0  0  0  0  0  0
    4.8398   -3.6356   -1.5009 C   0  0  0  0  0  0  0  0  0  0  0  0
    5.3762   -4.3647   -0.2505 C   0  0  1  0  0  0  0  0  0  0  0  0
    6.5153   -3.7196    0.3080 O   0  0  0  0  0  0  0  0  0  0  0  0
    6.4143   -2.3465    0.6289 C   0  0  0  0  0  0  0  0  0  0  0  0
    5.0642   -1.8374    1.2124 C   0  0  2  0  0  0  0  0  0  0  0  0
    5.2875   -0.3016    1.3114 C   0  0  0  0  0  0  0  0  0  0  0  0
    4.8568   -2.3686    2.6778 C   0  0  0  0  0  0  0  0  0  0  0  0
    4.9857   -1.5991    3.6307 O   0  0  0  0  0  0  0  0  0  0  0  0
    4.4461   -3.6618    2.9197 O   0  0  0  0  0  0  0  0  0  0  0  0
    5.0083   -4.7673    2.2563 C   0  0  1  0  0  0  0  0  0  0  0  0
    4.7551   -5.8913    3.0573 O   0  0  0  0  0  0  0  0  0  0  0  0
    5.7613   -6.7940    3.1992 C   0  0  0  0  0  0  0  0  0  0  0  0
    5.3332   -7.9839    4.0460 C   0  0  0  0  0  0  0  0  0  0  0  0
    6.8850   -6.7346    2.6996 O   0  0  0  0  0  0  0  0  0  0  0  0
    4.3770   -4.9692    0.8145 C   0  0  2  0  0  0  0  0  0  0  0  0
    4.2200   -6.4759    0.4689 C   0  0  0  0  0  0  0  0  0  0  0  0
    2.9702   -4.3813    0.8528 C   0  0  2  0  0  0  0  0  0  0  0  0
    2.3038   -3.9384   -0.3259 O   0  0  0  0  0  0  0  0  0  0  0  0
    2.7242   -2.9361    0.6396 C   0  0  2  0  0  0  0  0  0  0  0  0
    3.8349   -1.9891    0.2209 C   0  0  2  0  0  0  0  0  0  0  0  0
    4.5275   -1.5281   -3.1838 H   0  0  0  0  0  0  0  0  0  0  0  0
    3.8151   -0.3292   -1.9701 H   0  0  0  0  0  0  0  0  0  0  0  0
    4.0750   -4.2459   -1.9804 H   0  0  0  0  0  0  0  0  0  0  0  0
    5.6412   -3.5375   -2.2338 H   0  0  0  0  0  0  0  0  0  0  0  0
    5.8598   -5.2355   -0.6893 H   0  0  0  0  0  0  0  0  0  0  0  0
    7.2145   -2.1460    1.3369 H   0  0  0  0  0  0  0  0  0  0  0  0
    6.6926   -1.7750   -0.2575 H   0  0  0  0  0  0  0  0  0  0  0  0
    5.4807    0.1373    0.3312 H   0  0  0  0  0  0  0  0  0  0  0  0
    6.1423   -0.0570    1.9426 H   0  0  0  0  0  0  0  0  0  0  0  0
    4.4209    0.2181    1.7267 H   0  0  0  0  0  0  0  0  0  0  0  0
    6.0865   -4.5940    2.2517 H   0  0  0  0  0  0  0  0  0  0  0  0
    4.4549   -8.4583    3.6077 H   0  0  0  0  0  0  0  0  0  0  0  0
    5.0880   -7.6643    5.0587 H   0  0  0  0  0  0  0  0  0  0  0  0
    6.1344   -8.7204    4.0925 H   0  0  0  0  0  0  0  0  0  0  0  0
    3.5054   -6.9815    1.1174 H   0  0  0  0  0  0  0  0  0  0  0  0
    5.1646   -7.0186    0.5231 H   0  0  0  0  0  0  0  0  0  0  0  0
    3.8607   -6.6064   -0.5499 H   0  0  0  0  0  0  0  0  0  0  0  0
    2.3071   -4.8817    1.5541 H   0  0  0  0  0  0  0  0  0  0  0  0
    1.9248   -2.4944    1.2285 H   0  0  0  0  0  0  0  0  0  0  0  0
    3.3166   -1.0285    0.1785 H   0  0  0  0  0  0  0  0  0  0  0  0
  1  2  2  0
  1 23  1  0
  1 24  1  0
  2 22  1  0
  2  3  1  0
  3  4  1  0
  3 25  1  0
  3 26  1  0
  4 17  1  0
  4  5  1  0
  4 27  1  6
  5  6  1  0
  6  7  1  0
  6 28  1  0
  6 29  1  0
  7 22  1  0
  7  8  1  1
  7  9  1  0
  8 30  1  0
  8 31  1  0
  8 32  1  0
  9 10  2  0
  9 11  1  0
 11 12  1  0
 12 13  1  0
 12 17  1  0
 12 33  1  6
 13 14  1  0
 14 15  1  0
 14 16  2  0
 15 34  1  0
 15 35  1  0
 15 36  1  0
 17 18  1  6
 17 19  1  0
 18 37  1  0
 18 38  1  0
 18 39  1  0
 19 21  1  0
 19 20  1  0
 19 40  1  1
 20 21  1  0
 21 22  1  0
 21 41  1  1
 22 42  1  6
M  END
>  <i_m_ct_stereo_status>  (371) 
1

>  <s_m_source_file>  (371) 
/var/tmp/pbs.5083856.sched01/tmpfd511yf2/150gz97klq0.sdf

>  <i_m_source_file_index>  (371) 
4

>  <i_lp_mmshare_version>  (371) 
48012

>  <i_f3d_flags>  (371) 
2

>  <s_epik_input>  (371) 
W0NIMl09QzFbQ0gyXVtDQEhdKE9bQ0gyXTIpW0NAXShbQ0gzXSkoW0NAQEhdKE9DMz1PKU9DKD1PKVtDSDNdKVtDQEBIXShPNClbQ0BASF00W0NAQEhdMVtDQEBdMjNbQ0gzXQ==

>  <s_epik_cmdline>  (371) 
J2VwaWtfcHl0aG9uJywgJy1waHQnLCAnMi4wJywgJy1waCcsICc3LjAnLCAnLXRuJywgJzgnLCAnLW1hJywgJzIwMCcsICctaW1hZScsICc8aW5maWxlLm1hZT4nLCAnLW9tYWUnLCAnPG91dGZpbGUubWFlPic=

>  <r_lp_tautomer_probability>  (371) 
1

>  <r_epik_Ionization_Penalty>  (371) 
1.00826e-12

>  <r_epik_Ionization_Penalty_Charging>  (371) 
0

>  <r_epik_Ionization_Penalty_Neutral>  (371) 
1.00826e-12

>  <r_epik_State_Penalty>  (371) 
-0

>  <r_epik_Charging_Adjusted_Penalty>  (371) 
0

>  <i_epik_Tot_Q>  (371) 
0

>  <i_epik_Tot_abs_Q>  (371) 
0

>  <s_epik_Chemistry_Notes>  (371) 
This compound has an ester and may undergo hydrolysis at high or low pH. This compound contains an acetal/aminal-like group ( X-CH(R)-Y where X, Y are N, S, or O) that may be acid/base labile, releasing an aldehyde.

>  <s_lp_Force_Field>  (371) 
OPLS3e

>  <r_lp_Energy>  (371) 
61.4003

>  <b_lp_Chiralities_Consistent>  (371) 
0

>  <s_lp_Variant>  (371) 
107:0-1

>  <s_i_glide_gridfile>  (371) 
pfpi4k_grid

>  <i_i_glide_lignum>  (371) 
4

>  <i_i_glide_rotatable_bonds>  (371) 
2

>  <r_i_docking_score>  (371) 
-2.91782

>  <r_i_glide_ligand_efficiency>  (371) 
-0.132628

>  <r_i_glide_ligand_efficiency_sa>  (371) 
-0.37163

>  <r_i_glide_ligand_efficiency_ln>  (371) 
-0.713223

>  <r_i_glide_gscore>  (371) 
-2.91782

>  <r_i_glide_lipo>  (371) 
-0.526083

>  <r_i_glide_hbond>  (371) 
0

>  <r_i_glide_metal>  (371) 
-0

>  <r_i_glide_rewards>  (371) 
-1.39898

>  <r_i_glide_evdw>  (371) 
-21.6337

>  <r_i_glide_ecoul>  (371) 
-0.704528

>  <r_i_glide_erotb>  (371) 
0.194602

>  <r_i_glide_esite>  (371) 
0

>  <r_i_glide_emodel>  (371) 
-24.8826

>  <r_i_glide_energy>  (371) 
-22.3382

>  <r_i_glide_einternal>  (371) 
3.43607

>  <r_i_glide_intrahb_reward>  (371) 
-0

>  <i_i_glide_confnum>  (371) 
4

>  <i_i_glide_posenum>  (371) 
25

>  <r_i_glide_eff_state_penalty>  (371) 
0

>  <ligand_id>  (371) 
107

>  <original_smiles>  (371) 
C=C1CC2OCC3(C)C(=O)OC(OC(C)=O)C2(C)C2OC2C13

>  <smiles>  (371) 
[H]C([H])=C1C([H])([H])C2([H])OC([H])([H])C3(C([H])([H])[H])C(=O)OC([H])(OC(=O)C([H])([H])[H])C2(C([H])([H])[H])C2([H])OC2([H])C13[H]

$$$$
107:0:2
     RDKit          3D

 42 45  0  0  1  0  0  0  0  0999 V2000
    4.0633   -1.4398   -2.1488 C   0  0  0  0  0  0  0  0  0  0  0  0
    4.2146   -2.3538   -1.1775 C   0  0  0  0  0  0  0  0  0  0  0  0
    4.9125   -3.6759   -1.4436 C   0  0  0  0  0  0  0  0  0  0  0  0
    5.4905   -4.3461   -0.1774 C   0  0  1  0  0  0  0  0  0  0  0  0
    6.5476   -3.5957    0.4070 O   0  0  0  0  0  0  0  0  0  0  0  0
    6.3128   -2.2354    0.7118 C   0  0  0  0  0  0  0  0  0  0  0  0
    4.9106   -1.8506    1.2616 C   0  0  2  0  0  0  0  0  0  0  0  0
    4.9910   -0.2988    1.3561 C   0  0  0  0  0  0  0  0  0  0  0  0
    4.7297   -2.3936    2.7247 C   0  0  0  0  0  0  0  0  0  0  0  0
    4.7827   -1.6173    3.6767 O   0  0  0  0  0  0  0  0  0  0  0  0
    4.4146   -3.7137    2.9536 O   0  0  0  0  0  0  0  0  0  0  0  0
    5.1049   -4.7735    2.3217 C   0  0  1  0  0  0  0  0  0  0  0  0
    4.9650   -5.9421    3.0866 O   0  0  0  0  0  0  0  0  0  0  0  0
    5.5475   -5.9570    4.3105 C   0  0  0  0  0  0  0  0  0  0  0  0
    5.2956   -7.2623    5.0484 C   0  0  0  0  0  0  0  0  0  0  0  0
    6.2144   -5.0573    4.8228 O   0  0  0  0  0  0  0  0  0  0  0  0
    4.5309   -5.0419    0.8697 C   0  0  2  0  0  0  0  0  0  0  0  0
    4.5396   -6.5600    0.5375 C   0  0  0  0  0  0  0  0  0  0  0  0
    3.0693   -4.5953    0.8750 C   0  0  2  0  0  0  0  0  0  0  0  0
    2.3831   -4.2169   -0.3135 O   0  0  0  0  0  0  0  0  0  0  0  0
    2.6943   -3.1776    0.6527 C   0  0  2  0  0  0  0  0  0  0  0  0
    3.7198   -2.1292    0.2491 C   0  0  2  0  0  0  0  0  0  0  0  0
    4.4232   -1.6227   -3.1490 H   0  0  0  0  0  0  0  0  0  0  0  0
    3.5687   -0.5019   -1.9546 H   0  0  0  0  0  0  0  0  0  0  0  0
    4.2143   -4.3493   -1.9344 H   0  0  0  0  0  0  0  0  0  0  0  0
    5.7078   -3.5111   -2.1693 H   0  0  0  0  0  0  0  0  0  0  0  0
    6.0734   -5.1629   -0.5968 H   0  0  0  0  0  0  0  0  0  0  0  0
    7.0686   -1.9617    1.4434 H   0  0  0  0  0  0  0  0  0  0  0  0
    6.5587   -1.6488   -0.1750 H   0  0  0  0  0  0  0  0  0  0  0  0
    5.1515    0.1414    0.3714 H   0  0  0  0  0  0  0  0  0  0  0  0
    5.8128    0.0368    1.9915 H   0  0  0  0  0  0  0  0  0  0  0  0
    4.0734    0.1391    1.7575 H   0  0  0  0  0  0  0  0  0  0  0  0
    6.1766   -4.5641    2.3308 H   0  0  0  0  0  0  0  0  0  0  0  0
    5.6622   -8.1002    4.4557 H   0  0  0  0  0  0  0  0  0  0  0  0
    4.2286   -7.3988    5.2276 H   0  0  0  0  0  0  0  0  0  0  0  0
    5.8116   -7.2629    6.0085 H   0  0  0  0  0  0  0  0  0  0  0  0
    3.8566   -7.1277    1.1680 H   0  0  0  0  0  0  0  0  0  0  0  0
    5.5316   -7.0004    0.6502 H   0  0  0  0  0  0  0  0  0  0  0  0
    4.2202   -6.7314   -0.4918 H   0  0  0  0  0  0  0  0  0  0  0  0
    2.4463   -5.1555    1.5691 H   0  0  0  0  0  0  0  0  0  0  0  0
    1.8516   -2.8086    1.2337 H   0  0  0  0  0  0  0  0  0  0  0  0
    3.1141   -1.2222    0.1900 H   0  0  0  0  0  0  0  0  0  0  0  0
  1  2  2  0
  1 23  1  0
  1 24  1  0
  2 22  1  0
  2  3  1  0
  3  4  1  0
  3 25  1  0
  3 26  1  0
  4 17  1  0
  4  5  1  0
  4 27  1  6
  5  6  1  0
  6  7  1  0
  6 28  1  0
  6 29  1  0
  7 22  1  0
  7  8  1  1
  7  9  1  0
  8 30  1  0
  8 31  1  0
  8 32  1  0
  9 10  2  0
  9 11  1  0
 11 12  1  0
 12 13  1  0
 12 17  1  0
 12 33  1  6
 13 14  1  0
 14 15  1  0
 14 16  2  0
 15 34  1  0
 15 35  1  0
 15 36  1  0
 17 18  1  6
 17 19  1  0
 18 37  1  0
 18 38  1  0
 18 39  1  0
 19 21  1  0
 19 20  1  0
 19 40  1  1
 20 21  1  0
 21 22  1  0
 21 41  1  1
 22 42  1  6
M  END
>  <i_m_ct_stereo_status>  (372) 
1

>  <s_m_source_file>  (372) 
/var/tmp/pbs.5083856.sched01/tmpfd511yf2/150gz97klq0.sdf

>  <i_m_source_file_index>  (372) 
4

>  <i_lp_mmshare_version>  (372) 
48012

>  <i_f3d_flags>  (372) 
2

>  <s_epik_input>  (372) 
W0NIMl09QzFbQ0gyXVtDQEhdKE9bQ0gyXTIpW0NAXShbQ0gzXSkoW0NAQEhdKE9DMz1PKU9DKD1PKVtDSDNdKVtDQEBIXShPNClbQ0BASF00W0NAQEhdMVtDQEBdMjNbQ0gzXQ==

>  <s_epik_cmdline>  (372) 
J2VwaWtfcHl0aG9uJywgJy1waHQnLCAnMi4wJywgJy1waCcsICc3LjAnLCAnLXRuJywgJzgnLCAnLW1hJywgJzIwMCcsICctaW1hZScsICc8aW5maWxlLm1hZT4nLCAnLW9tYWUnLCAnPG91dGZpbGUubWFlPic=

>  <r_lp_tautomer_probability>  (372) 
1

>  <r_epik_Ionization_Penalty>  (372) 
1.00826e-12

>  <r_epik_Ionization_Penalty_Charging>  (372) 
0

>  <r_epik_Ionization_Penalty_Neutral>  (372) 
1.00826e-12

>  <r_epik_State_Penalty>  (372) 
-0

>  <r_epik_Charging_Adjusted_Penalty>  (372) 
0

>  <i_epik_Tot_Q>  (372) 
0

>  <i_epik_Tot_abs_Q>  (372) 
0

>  <s_epik_Chemistry_Notes>  (372) 
This compound has an ester and may undergo hydrolysis at high or low pH. This compound contains an acetal/aminal-like group ( X-CH(R)-Y where X, Y are N, S, or O) that may be acid/base labile, releasing an aldehyde.

>  <s_lp_Force_Field>  (372) 
OPLS3e

>  <r_lp_Energy>  (372) 
61.4003

>  <b_lp_Chiralities_Consistent>  (372) 
0

>  <s_lp_Variant>  (372) 
107:0-1

>  <s_i_glide_gridfile>  (372) 
pfpi4k_grid

>  <i_i_glide_lignum>  (372) 
4

>  <i_i_glide_rotatable_bonds>  (372) 
2

>  <r_i_docking_score>  (372) 
-2.90935

>  <r_i_glide_ligand_efficiency>  (372) 
-0.132243

>  <r_i_glide_ligand_efficiency_sa>  (372) 
-0.37055

>  <r_i_glide_ligand_efficiency_ln>  (372) 
-0.71115

>  <r_i_glide_gscore>  (372) 
-2.90935

>  <r_i_glide_lipo>  (372) 
-0.537807

>  <r_i_glide_hbond>  (372) 
0

>  <r_i_glide_metal>  (372) 
-0

>  <r_i_glide_rewards>  (372) 
-1.38419

>  <r_i_glide_evdw>  (372) 
-21.4759

>  <r_i_glide_ecoul>  (372) 
-0.721076

>  <r_i_glide_erotb>  (372) 
0.194602

>  <r_i_glide_esite>  (372) 
0

>  <r_i_glide_emodel>  (372) 
-26.578

>  <r_i_glide_energy>  (372) 
-22.1969

>  <r_i_glide_einternal>  (372) 
0.00130442

>  <r_i_glide_intrahb_reward>  (372) 
-0

>  <i_i_glide_confnum>  (372) 
2

>  <i_i_glide_posenum>  (372) 
20

>  <r_i_glide_eff_state_penalty>  (372) 
0

>  <ligand_id>  (372) 
107

>  <original_smiles>  (372) 
C=C1CC2OCC3(C)C(=O)OC(OC(C)=O)C2(C)C2OC2C13

>  <smiles>  (372) 
[H]C([H])=C1C([H])([H])C2([H])OC([H])([H])C3(C([H])([H])[H])C(=O)OC([H])(OC(=O)C([H])([H])[H])C2(C([H])([H])[H])C2([H])OC2([H])C13[H]

$$$$
108:0:0
     RDKit          3D

 66 71  0  0  1  0  0  0  0  0999 V2000
    1.5347   -5.8060    0.6755 C   0  0  0  0  0  0  0  0  0  0  0  0
    2.6834   -5.2524    1.4996 C   0  0  1  0  0  0  0  0  0  0  0  0
    3.4851   -4.4965    0.5553 O   0  0  0  0  0  0  0  0  0  0  0  0
    3.2829   -3.1571    0.2866 C   0  0  0  0  0  0  0  0  0  0  0  0
    2.5071   -2.4212    0.8905 O   0  0  0  0  0  0  0  0  0  0  0  0
    4.1606   -2.6340   -0.8800 C   0  0  2  0  0  0  0  0  0  0  0  0
    4.0423   -3.4562   -2.0877 N   0  0  0  0  0  0  0  0  0  0  0  0
    3.9737   -3.0130   -3.3496 C   0  0  0  0  0  0  0  0  0  0  0  0
    4.1350   -1.8480   -3.7008 O   0  0  0  0  0  0  0  0  0  0  0  0
    5.5669   -2.6749   -0.3873 C   0  0  0  0  0  0  0  0  0  0  0  0
    6.3234   -3.8682   -0.3500 C   0  0  0  0  0  0  0  0  0  0  0  0
    7.6568   -3.8558    0.0801 C   0  0  0  0  0  0  0  0  0  0  0  0
    8.2127   -2.6279    0.4656 C   0  0  0  0  0  0  0  0  0  0  0  0
    7.5211   -1.4699    0.4563 N   0  0  0  0  0  0  0  0  0  0  0  0
    6.2305   -1.5103    0.0576 C   0  0  0  0  0  0  0  0  0  0  0  0
    2.2490   -4.4302    2.6080 O   0  0  0  0  0  0  0  0  0  0  0  0
    3.2790   -5.0018    3.4554 C   0  0  1  0  0  0  0  0  0  0  0  0
    2.5602   -5.4597    4.7485 C   0  0  0  0  0  0  0  0  0  0  0  0
    1.9566   -6.7697    4.2360 C   0  0  2  0  0  0  0  0  0  0  0  0
    1.2160   -7.9190    4.9795 C   0  0  1  0  0  0  0  0  0  0  0  0
    1.3074   -7.8073    6.5150 C   0  0  0  0  0  0  0  0  0  0  0  0
   -0.2515   -7.9857    4.4887 C   0  0  0  0  0  0  0  0  0  0  0  0
   -0.3371   -8.1535    2.9430 C   0  0  0  0  0  0  0  0  0  0  0  0
    0.9465   -8.7092    2.2211 C   0  0  0  0  0  0  0  0  0  0  0  0
    2.3014   -8.7481    3.0097 C   0  0  2  0  0  0  0  0  0  0  0  0
    3.2258   -9.7585    2.2832 C   0  0  0  0  0  0  0  0  0  0  0  0
    1.8209   -9.2016    4.3911 C   0  0  2  0  0  0  0  0  0  0  0  0
    1.4090  -10.5886    4.7955 C   0  0  0  0  0  0  0  0  0  0  0  0
    2.6678  -10.0078    5.2158 O   0  0  0  0  0  0  0  0  0  0  0  0
    3.0459   -7.3971    3.3863 C   0  0  2  0  0  0  0  0  0  0  0  0
    4.2838   -7.7345    4.3188 C   0  0  0  0  0  0  0  0  0  0  0  0
    3.5036   -6.1858    2.4683 C   0  0  1  0  0  0  0  0  0  0  0  0
    4.9453   -6.3455    1.9187 C   0  0  0  0  0  0  0  0  0  0  0  0
    5.8412   -5.5859    2.3490 O   0  0  0  0  0  0  0  0  0  0  0  0
    5.1168   -7.2277    1.0478 O   0  0  0  0  0  0  0  0  0  0  0  0
    1.1591   -5.0697   -0.0334 H   0  0  0  0  0  0  0  0  0  0  0  0
    0.7134   -6.1183    1.3132 H   0  0  0  0  0  0  0  0  0  0  0  0
    1.8641   -6.6535    0.0785 H   0  0  0  0  0  0  0  0  0  0  0  0
    3.8606   -1.6098   -1.1021 H   0  0  0  0  0  0  0  0  0  0  0  0
    3.8661   -4.4433   -1.9400 H   0  0  0  0  0  0  0  0  0  0  0  0
    3.7695   -3.8509   -4.0350 H   0  0  0  0  0  0  0  0  0  0  0  0
    5.8785   -4.8085   -0.6516 H   0  0  0  0  0  0  0  0  0  0  0  0
    8.2267   -4.7742    0.1216 H   0  0  0  0  0  0  0  0  0  0  0  0
    9.2346   -2.5669    0.8050 H   0  0  0  0  0  0  0  0  0  0  0  0
    5.7154   -0.5588    0.0493 H   0  0  0  0  0  0  0  0  0  0  0  0
    4.1194   -4.3176    3.5860 H   0  0  0  0  0  0  0  0  0  0  0  0
    3.2570   -5.6280    5.5695 H   0  0  0  0  0  0  0  0  0  0  0  0
    1.8027   -4.7484    5.0855 H   0  0  0  0  0  0  0  0  0  0  0  0
    1.2136   -6.3708    3.5560 H   0  0  0  0  0  0  0  0  0  0  0  0
    0.8211   -8.6532    7.0006 H   0  0  0  0  0  0  0  0  0  0  0  0
    0.8309   -6.8933    6.8795 H   0  0  0  0  0  0  0  0  0  0  0  0
    2.3469   -7.7887    6.8471 H   0  0  0  0  0  0  0  0  0  0  0  0
   -0.7417   -8.8423    4.9497 H   0  0  0  0  0  0  0  0  0  0  0  0
   -0.8270   -7.1160    4.8102 H   0  0  0  0  0  0  0  0  0  0  0  0
   -1.1851   -8.8002    2.6983 H   0  0  0  0  0  0  0  0  0  0  0  0
   -0.6112   -7.1927    2.5183 H   0  0  0  0  0  0  0  0  0  0  0  0
    0.6987   -9.7549    2.0292 H   0  0  0  0  0  0  0  0  0  0  0  0
    1.0661   -8.2986    1.2253 H   0  0  0  0  0  0  0  0  0  0  0  0
    4.1020  -10.0502    2.8618 H   0  0  0  0  0  0  0  0  0  0  0  0
    3.5820   -9.3402    1.3410 H   0  0  0  0  0  0  0  0  0  0  0  0
    2.7096  -10.6868    2.0387 H   0  0  0  0  0  0  0  0  0  0  0  0
    0.6360  -10.6679    5.5571 H   0  0  0  0  0  0  0  0  0  0  0  0
    1.4845  -11.4113    4.0889 H   0  0  0  0  0  0  0  0  0  0  0  0
    4.9975   -8.4113    3.8445 H   0  0  0  0  0  0  0  0  0  0  0  0
    4.0280   -8.1484    5.2898 H   0  0  0  0  0  0  0  0  0  0  0  0
    4.8767   -6.8537    4.5732 H   0  0  0  0  0  0  0  0  0  0  0  0
  1  2  1  0
  1 36  1  0
  1 37  1  0
  1 38  1  0
  2 32  1  0
  2  3  1  6
  2 16  1  0
  3  4  1  0
  4  5  2  0
  4  6  1  0
  6  7  1  0
  6 10  1  0
  6 39  1  6
  7  8  1  0
  7 40  1  0
  8  9  2  0
  8 41  1  0
 10 15  1  0
 10 11  2  0
 11 12  1  0
 11 42  1  0
 12 13  2  0
 12 43  1  0
 13 14  1  0
 13 44  1  0
 14 15  2  0
 15 45  1  0
 16 17  1  0
 17 32  1  0
 17 18  1  0
 17 46  1  1
 18 19  1  0
 18 47  1  0
 18 48  1  0
 19 30  1  0
 19 20  1  0
 19 49  1  6
 20 27  1  0
 20 21  1  1
 20 22  1  0
 21 50  1  0
 21 51  1  0
 21 52  1  0
 22 23  1  0
 22 53  1  0
 22 54  1  0
 23 24  1  0
 23 55  1  0
 23 56  1  0
 24 25  1  0
 24 57  1  0
 24 58  1  0
 25 26  1  6
 25 27  1  0
 25 30  1  0
 26 59  1  0
 26 60  1  0
 26 61  1  0
 27 29  1  1
 27 28  1  0
 28 29  1  0
 28 62  1  0
 28 63  1  0
 30 31  1  1
 30 32  1  0
 31 64  1  0
 31 65  1  0
 31 66  1  0
 32 33  1  6
 33 34  2  0
 33 35  1  0
M  CHG  1  35  -1
M  END
>  <i_m_ct_stereo_status>  (373) 
1

>  <s_m_source_file>  (373) 
/var/tmp/pbs.5083856.sched01/tmpfd511yf2/150gz97klq0.sdf

>  <i_m_source_file_index>  (373) 
5

>  <i_lp_mmshare_version>  (373) 
48012

>  <i_f3d_flags>  (373) 
0

>  <s_epik_input>  (373) 
TzFbQ0gyXVtDQEBdMTJbQ0BAXTMoW0NIM10pW0NAQEhdNFtDQEBdKFtDSDNdKShbQ0BdMihbQ0gzXSlbQ0gyXVtDSDJdW0NIMl0zKVtDQF01KEMoPU8pW09IXSlbQ0BIXShbQ0gyXTQpT1tDQEBdNShbQ0gzXSlPQyg9TylbQ0BIXShbTkhdW0NIXT1PKWM2W2NIXVtjSF1bY0hdbltjSF02

>  <s_epik_cmdline>  (373) 
J2VwaWtfcHl0aG9uJywgJy1waHQnLCAnMi4wJywgJy1waCcsICc3LjAnLCAnLXRuJywgJzgnLCAnLW1hJywgJzIwMCcsICctaW1hZScsICc8aW5maWxlLm1hZT4nLCAnLW9tYWUnLCAnPG91dGZpbGUubWFlPic=

>  <r_epik_Ionization_Penalty>  (373) 
0.00169543

>  <r_epik_Ionization_Penalty_Charging>  (373) 
0.000243918

>  <r_epik_Ionization_Penalty_Neutral>  (373) 
0.00145152

>  <r_epik_State_Penalty>  (373) 
0.000970226

>  <r_epik_Charging_Adjusted_Penalty>  (373) 
0.00121414

>  <i_epik_Tot_Q>  (373) 
-1

>  <i_epik_Tot_abs_Q>  (373) 
1

>  <s_epik_Chemistry_Notes>  (373) 
This compound has an ester and may undergo hydrolysis at high or low pH.

>  <s_lp_Force_Field>  (373) 
OPLS3e

>  <r_lp_Energy>  (373) 
102.716

>  <b_lp_Chiralities_Consistent>  (373) 
1

>  <s_lp_Variant>  (373) 
108:0-1

>  <s_i_glide_gridfile>  (373) 
pfpi4k_grid

>  <i_i_glide_lignum>  (373) 
5

>  <i_i_glide_rotatable_bonds>  (373) 
7

>  <r_i_docking_score>  (373) 
-2.533

>  <r_i_glide_ligand_efficiency>  (373) 
-0.0723714

>  <r_i_glide_ligand_efficiency_sa>  (373) 
-0.236732

>  <r_i_glide_ligand_efficiency_ln>  (373) 
-0.55605

>  <r_i_glide_gscore>  (373) 
-2.533

>  <r_i_glide_lipo>  (373) 
-0.420337

>  <r_i_glide_hbond>  (373) 
-0.326567

>  <r_i_glide_metal>  (373) 
-0

>  <r_i_glide_rewards>  (373) 
-0.358222

>  <r_i_glide_evdw>  (373) 
-31.2986

>  <r_i_glide_ecoul>  (373) 
-0.997516

>  <r_i_glide_erotb>  (373) 
0.347323

>  <r_i_glide_esite>  (373) 
-0.0606392

>  <r_i_glide_emodel>  (373) 
-37.2069

>  <r_i_glide_energy>  (373) 
-32.2961

>  <r_i_glide_einternal>  (373) 
2.6392

>  <r_i_glide_intrahb_reward>  (373) 
-0

>  <i_i_glide_confnum>  (373) 
2

>  <i_i_glide_posenum>  (373) 
24

>  <r_i_glide_eff_state_penalty>  (373) 
0

>  <ligand_id>  (373) 
108

>  <original_smiles>  (373) 
CC1(OC(=O)C(NC=O)c2cccnc2)OC2CC3C4(C)CCCC(C)(C45CO5)C3(C)C21C(=O)O

>  <smiles>  (373) 
[H]C(=O)N([H])C([H])(C(=O)OC1(C([H])([H])[H])OC2([H])C([H])([H])C3([H])C4(C([H])([H])[H])C([H])([H])C([H])([H])C([H])([H])C(C([H])([H])[H])(C45OC5([H])[H])C3(C([H])([H])[H])C21C(=O)[O-])c1c([H])nc([H])c([H])c1[H]

$$$$
108:0:1
     RDKit          3D

 66 71  0  0  1  0  0  0  0  0999 V2000
    1.9889   -5.7412    0.6762 C   0  0  0  0  0  0  0  0  0  0  0  0
    3.0829   -5.0492    1.4657 C   0  0  1  0  0  0  0  0  0  0  0  0
    3.7599   -4.2220    0.4850 O   0  0  0  0  0  0  0  0  0  0  0  0
    3.3952   -2.9243    0.2196 C   0  0  0  0  0  0  0  0  0  0  0  0
    2.6107   -2.2546    0.8842 O   0  0  0  0  0  0  0  0  0  0  0  0
    4.0772   -2.3659   -1.0595 C   0  0  2  0  0  0  0  0  0  0  0  0
    3.7390   -3.1682   -2.2404 N   0  0  0  0  0  0  0  0  0  0  0  0
    3.4917   -2.7069   -3.4736 C   0  0  0  0  0  0  0  0  0  0  0  0
    3.6155   -1.5339   -3.8161 O   0  0  0  0  0  0  0  0  0  0  0  0
    5.5610   -2.3623   -0.8148 C   0  0  0  0  0  0  0  0  0  0  0  0
    6.4757   -3.1031   -1.6061 C   0  0  0  0  0  0  0  0  0  0  0  0
    7.8466   -3.0490   -1.3446 C   0  0  0  0  0  0  0  0  0  0  0  0
    8.3011   -2.2647   -0.2769 C   0  0  0  0  0  0  0  0  0  0  0  0
    7.4664   -1.5230    0.4833 N   0  0  0  0  0  0  0  0  0  0  0  0
    6.1427   -1.5885    0.2196 C   0  0  0  0  0  0  0  0  0  0  0  0
    2.5728   -4.2711    2.5699 O   0  0  0  0  0  0  0  0  0  0  0  0
    3.6795   -4.6993    3.4022 C   0  0  1  0  0  0  0  0  0  0  0  0
    3.0456   -5.2227    4.7140 C   0  0  0  0  0  0  0  0  0  0  0  0
    2.6021   -6.6068    4.2308 C   0  0  2  0  0  0  0  0  0  0  0  0
    2.0219   -7.8270    5.0046 C   0  0  1  0  0  0  0  0  0  0  0  0
    2.1242   -7.6793    6.5350 C   0  0  0  0  0  0  0  0  0  0  0  0
    0.5665   -8.0809    4.5381 C   0  0  0  0  0  0  0  0  0  0  0  0
    0.4759   -8.2863    2.9960 C   0  0  0  0  0  0  0  0  0  0  0  0
    1.8047   -8.6932    2.2537 C   0  0  0  0  0  0  0  0  0  0  0  0
    3.1653   -8.5491    3.0228 C   0  0  2  0  0  0  0  0  0  0  0  0
    4.1981   -9.4471    2.2976 C   0  0  0  0  0  0  0  0  0  0  0  0
    2.7708   -9.0350    4.4195 C   0  0  2  0  0  0  0  0  0  0  0  0
    2.5447  -10.4560    4.8512 C   0  0  0  0  0  0  0  0  0  0  0  0
    3.7284   -9.7182    5.2368 O   0  0  0  0  0  0  0  0  0  0  0  0
    3.7465   -7.1083    3.3680 C   0  0  2  0  0  0  0  0  0  0  0  0
    5.0296   -7.2744    4.2833 C   0  0  0  0  0  0  0  0  0  0  0  0
    4.0305   -5.8611    2.4281 C   0  0  1  0  0  0  0  0  0  0  0  0
    5.4700   -5.8452    1.8484 C   0  0  0  0  0  0  0  0  0  0  0  0
    6.2993   -5.0350    2.3149 O   0  0  0  0  0  0  0  0  0  0  0  0
    5.7068   -6.6502    0.9196 O   0  0  0  0  0  0  0  0  0  0  0  0
    1.4867   -5.0551   -0.0038 H   0  0  0  0  0  0  0  0  0  0  0  0
    1.2361   -6.1625    1.3331 H   0  0  0  0  0  0  0  0  0  0  0  0
    2.4287   -6.5322    0.0774 H   0  0  0  0  0  0  0  0  0  0  0  0
    3.7296   -1.3392   -1.2019 H   0  0  0  0  0  0  0  0  0  0  0  0
    3.6443   -4.1658   -2.0961 H   0  0  0  0  0  0  0  0  0  0  0  0
    3.2051   -3.5272   -4.1482 H   0  0  0  0  0  0  0  0  0  0  0  0
    6.1571   -3.7265   -2.4305 H   0  0  0  0  0  0  0  0  0  0  0  0
    8.5438   -3.6024   -1.9646 H   0  0  0  0  0  0  0  0  0  0  0  0
    9.3545   -2.1975   -0.0579 H   0  0  0  0  0  0  0  0  0  0  0  0
    5.5226   -0.9806    0.8645 H   0  0  0  0  0  0  0  0  0  0  0  0
    4.4300   -3.9166    3.5028 H   0  0  0  0  0  0  0  0  0  0  0  0
    3.7704   -5.2877    5.5250 H   0  0  0  0  0  0  0  0  0  0  0  0
    2.2111   -4.6057    5.0533 H   0  0  0  0  0  0  0  0  0  0  0  0
    1.8025   -6.3161    3.5595 H   0  0  0  0  0  0  0  0  0  0  0  0
    1.7531   -8.5703    7.0428 H   0  0  0  0  0  0  0  0  0  0  0  0
    1.5454   -6.8238    6.8923 H   0  0  0  0  0  0  0  0  0  0  0  0
    3.1578   -7.5264    6.8471 H   0  0  0  0  0  0  0  0  0  0  0  0
    0.1928   -8.9820    5.0249 H   0  0  0  0  0  0  0  0  0  0  0  0
   -0.1076   -7.2820    4.8582 H   0  0  0  0  0  0  0  0  0  0  0  0
   -0.2896   -9.0357    2.7797 H   0  0  0  0  0  0  0  0  0  0  0  0
    0.0760   -7.3717    2.5642 H   0  0  0  0  0  0  0  0  0  0  0  0
    1.6827   -9.7623    2.0724 H   0  0  0  0  0  0  0  0  0  0  0  0
    1.8551   -8.2911    1.2480 H   0  0  0  0  0  0  0  0  0  0  0  0
    5.1113   -9.6167    2.8672 H   0  0  0  0  0  0  0  0  0  0  0  0
    4.4836   -8.9952    1.3461 H   0  0  0  0  0  0  0  0  0  0  0  0
    3.7958  -10.4380    2.0804 H   0  0  0  0  0  0  0  0  0  0  0  0
    1.8081  -10.6209    5.6331 H   0  0  0  0  0  0  0  0  0  0  0  0
    2.7073  -11.2737    4.1532 H   0  0  0  0  0  0  0  0  0  0  0  0
    5.8144   -7.8622    3.8060 H   0  0  0  0  0  0  0  0  0  0  0  0
    4.8429   -7.7019    5.2635 H   0  0  0  0  0  0  0  0  0  0  0  0
    5.5102   -6.3221    4.5193 H   0  0  0  0  0  0  0  0  0  0  0  0
  1  2  1  0
  1 36  1  0
  1 37  1  0
  1 38  1  0
  2 32  1  0
  2  3  1  6
  2 16  1  0
  3  4  1  0
  4  5  2  0
  4  6  1  0
  6  7  1  0
  6 10  1  0
  6 39  1  6
  7  8  1  0
  7 40  1  0
  8  9  2  0
  8 41  1  0
 10 15  1  0
 10 11  2  0
 11 12  1  0
 11 42  1  0
 12 13  2  0
 12 43  1  0
 13 14  1  0
 13 44  1  0
 14 15  2  0
 15 45  1  0
 16 17  1  0
 17 32  1  0
 17 18  1  0
 17 46  1  1
 18 19  1  0
 18 47  1  0
 18 48  1  0
 19 30  1  0
 19 20  1  0
 19 49  1  6
 20 27  1  0
 20 21  1  1
 20 22  1  0
 21 50  1  0
 21 51  1  0
 21 52  1  0
 22 23  1  0
 22 53  1  0
 22 54  1  0
 23 24  1  0
 23 55  1  0
 23 56  1  0
 24 25  1  0
 24 57  1  0
 24 58  1  0
 25 26  1  6
 25 27  1  0
 25 30  1  0
 26 59  1  0
 26 60  1  0
 26 61  1  0
 27 29  1  1
 27 28  1  0
 28 29  1  0
 28 62  1  0
 28 63  1  0
 30 31  1  1
 30 32  1  0
 31 64  1  0
 31 65  1  0
 31 66  1  0
 32 33  1  6
 33 34  2  0
 33 35  1  0
M  CHG  1  35  -1
M  END
>  <i_m_ct_stereo_status>  (374) 
1

>  <s_m_source_file>  (374) 
/var/tmp/pbs.5083856.sched01/tmpfd511yf2/150gz97klq0.sdf

>  <i_m_source_file_index>  (374) 
5

>  <i_lp_mmshare_version>  (374) 
48012

>  <i_f3d_flags>  (374) 
0

>  <s_epik_input>  (374) 
TzFbQ0gyXVtDQEBdMTJbQ0BAXTMoW0NIM10pW0NAQEhdNFtDQEBdKFtDSDNdKShbQ0BdMihbQ0gzXSlbQ0gyXVtDSDJdW0NIMl0zKVtDQF01KEMoPU8pW09IXSlbQ0BIXShbQ0gyXTQpT1tDQEBdNShbQ0gzXSlPQyg9TylbQ0BIXShbTkhdW0NIXT1PKWM2W2NIXVtjSF1bY0hdbltjSF02

>  <s_epik_cmdline>  (374) 
J2VwaWtfcHl0aG9uJywgJy1waHQnLCAnMi4wJywgJy1waCcsICc3LjAnLCAnLXRuJywgJzgnLCAnLW1hJywgJzIwMCcsICctaW1hZScsICc8aW5maWxlLm1hZT4nLCAnLW9tYWUnLCAnPG91dGZpbGUubWFlPic=

>  <r_epik_Ionization_Penalty>  (374) 
0.00169543

>  <r_epik_Ionization_Penalty_Charging>  (374) 
0.000243918

>  <r_epik_Ionization_Penalty_Neutral>  (374) 
0.00145152

>  <r_epik_State_Penalty>  (374) 
0.000970226

>  <r_epik_Charging_Adjusted_Penalty>  (374) 
0.00121414

>  <i_epik_Tot_Q>  (374) 
-1

>  <i_epik_Tot_abs_Q>  (374) 
1

>  <s_epik_Chemistry_Notes>  (374) 
This compound has an ester and may undergo hydrolysis at high or low pH.

>  <s_lp_Force_Field>  (374) 
OPLS3e

>  <r_lp_Energy>  (374) 
102.716

>  <b_lp_Chiralities_Consistent>  (374) 
1

>  <s_lp_Variant>  (374) 
108:0-1

>  <s_i_glide_gridfile>  (374) 
pfpi4k_grid

>  <i_i_glide_lignum>  (374) 
5

>  <i_i_glide_rotatable_bonds>  (374) 
7

>  <r_i_docking_score>  (374) 
-2.36228

>  <r_i_glide_ligand_efficiency>  (374) 
-0.0674936

>  <r_i_glide_ligand_efficiency_sa>  (374) 
-0.220776

>  <r_i_glide_ligand_efficiency_ln>  (374) 
-0.518572

>  <r_i_glide_gscore>  (374) 
-2.36228

>  <r_i_glide_lipo>  (374) 
-0.110959

>  <r_i_glide_hbond>  (374) 
-0.267563

>  <r_i_glide_metal>  (374) 
-0

>  <r_i_glide_rewards>  (374) 
-0.429275

>  <r_i_glide_evdw>  (374) 
-32.3614

>  <r_i_glide_ecoul>  (374) 
-1.60712

>  <r_i_glide_erotb>  (374) 
0.347323

>  <r_i_glide_esite>  (374) 
-0.0426651

>  <r_i_glide_emodel>  (374) 
-37.6957

>  <r_i_glide_energy>  (374) 
-33.9685

>  <r_i_glide_einternal>  (374) 
3.89498

>  <r_i_glide_intrahb_reward>  (374) 
-0

>  <i_i_glide_confnum>  (374) 
1

>  <i_i_glide_posenum>  (374) 
21

>  <r_i_glide_eff_state_penalty>  (374) 
0

>  <ligand_id>  (374) 
108

>  <original_smiles>  (374) 
CC1(OC(=O)C(NC=O)c2cccnc2)OC2CC3C4(C)CCCC(C)(C45CO5)C3(C)C21C(=O)O

>  <smiles>  (374) 
[H]C(=O)N([H])C([H])(C(=O)OC1(C([H])([H])[H])OC2([H])C([H])([H])C3([H])C4(C([H])([H])[H])C([H])([H])C([H])([H])C([H])([H])C(C([H])([H])[H])(C45OC5([H])[H])C3(C([H])([H])[H])C21C(=O)[O-])c1c([H])nc([H])c([H])c1[H]

$$$$
108:0:2
     RDKit          3D

 66 71  0  0  1  0  0  0  0  0999 V2000
    1.9782   -6.2019    1.4645 C   0  0  0  0  0  0  0  0  0  0  0  0
    3.1784   -5.8485    2.3358 C   0  0  1  0  0  0  0  0  0  0  0  0
    4.0669   -5.0761    1.5019 O   0  0  0  0  0  0  0  0  0  0  0  0
    3.7623   -3.8031    1.1283 C   0  0  0  0  0  0  0  0  0  0  0  0
    2.7636   -3.1803    1.4905 O   0  0  0  0  0  0  0  0  0  0  0  0
    4.8271   -3.1999    0.1837 C   0  0  2  0  0  0  0  0  0  0  0  0
    5.0881   -1.8080    0.5791 N   0  0  0  0  0  0  0  0  0  0  0  0
    5.0622   -0.6846   -0.1574 C   0  0  0  0  0  0  0  0  0  0  0  0
    4.9675   -0.6580   -1.3841 O   0  0  0  0  0  0  0  0  0  0  0  0
    4.2857   -3.3355   -1.2294 C   0  0  0  0  0  0  0  0  0  0  0  0
    2.9766   -2.9504   -1.6209 C   0  0  0  0  0  0  0  0  0  0  0  0
    2.5904   -2.9754   -2.9688 C   0  0  0  0  0  0  0  0  0  0  0  0
    3.5399   -3.3520   -3.9164 C   0  0  0  0  0  0  0  0  0  0  0  0
    4.8062   -3.6815   -3.6007 N   0  0  0  0  0  0  0  0  0  0  0  0
    5.1516   -3.6752   -2.2978 C   0  0  0  0  0  0  0  0  0  0  0  0
    2.8461   -5.1093    3.5374 O   0  0  0  0  0  0  0  0  0  0  0  0
    3.7863   -5.9079    4.3112 C   0  0  1  0  0  0  0  0  0  0  0  0
    3.0090   -6.4752    5.5270 C   0  0  0  0  0  0  0  0  0  0  0  0
    2.3066   -7.6492    4.8429 C   0  0  2  0  0  0  0  0  0  0  0  0
    1.4645   -8.8250    5.4196 C   0  0  1  0  0  0  0  0  0  0  0  0
    1.5428   -8.9437    6.9574 C   0  0  0  0  0  0  0  0  0  0  0  0
    0.0028   -8.6835    4.9271 C   0  0  0  0  0  0  0  0  0  0  0  0
   -0.0843   -8.6401    3.3720 C   0  0  0  0  0  0  0  0  0  0  0  0
    1.1507   -9.2024    2.5720 C   0  0  0  0  0  0  0  0  0  0  0  0
    2.4887   -9.4598    3.3470 C   0  0  2  0  0  0  0  0  0  0  0  0
    3.3348  -10.4376    2.5011 C   0  0  0  0  0  0  0  0  0  0  0  0
    1.9614  -10.0599    4.6469 C   0  0  2  0  0  0  0  0  0  0  0  0
    1.4297  -11.4520    4.8506 C   0  0  0  0  0  0  0  0  0  0  0  0
    2.7360  -11.0495    5.3263 O   0  0  0  0  0  0  0  0  0  0  0  0
    3.3449   -8.2470    3.9144 C   0  0  2  0  0  0  0  0  0  0  0  0
    4.5364   -8.8188    4.7918 C   0  0  0  0  0  0  0  0  0  0  0  0
    3.9149   -6.9634    3.1751 C   0  0  1  0  0  0  0  0  0  0  0  0
    5.3450   -7.1716    2.6093 C   0  0  0  0  0  0  0  0  0  0  0  0
    6.3002   -6.5789    3.1625 O   0  0  0  0  0  0  0  0  0  0  0  0
    5.4455   -7.9048    1.6033 O   0  0  0  0  0  0  0  0  0  0  0  0
    1.5997   -5.3644    0.8864 H   0  0  0  0  0  0  0  0  0  0  0  0
    1.1493   -6.5319    2.0751 H   0  0  0  0  0  0  0  0  0  0  0  0
    2.2584   -6.9760    0.7517 H   0  0  0  0  0  0  0  0  0  0  0  0
    5.7698   -3.7483    0.3002 H   0  0  0  0  0  0  0  0  0  0  0  0
    5.2131   -1.6533    1.5673 H   0  0  0  0  0  0  0  0  0  0  0  0
    5.1591    0.1951    0.4856 H   0  0  0  0  0  0  0  0  0  0  0  0
    2.2553   -2.5739   -0.9111 H   0  0  0  0  0  0  0  0  0  0  0  0
    1.5999   -2.6624   -3.2678 H   0  0  0  0  0  0  0  0  0  0  0  0
    3.2859   -3.3841   -4.9695 H   0  0  0  0  0  0  0  0  0  0  0  0
    6.1940   -3.8699   -2.1055 H   0  0  0  0  0  0  0  0  0  0  0  0
    4.6941   -5.3483    4.5435 H   0  0  0  0  0  0  0  0  0  0  0  0
    3.6805   -6.8183    6.3110 H   0  0  0  0  0  0  0  0  0  0  0  0
    2.3087   -5.7616    5.9679 H   0  0  0  0  0  0  0  0  0  0  0  0
    1.6112   -7.0950    4.2238 H   0  0  0  0  0  0  0  0  0  0  0  0
    0.9795   -9.8047    7.3166 H   0  0  0  0  0  0  0  0  0  0  0  0
    1.1420   -8.0528    7.4494 H   0  0  0  0  0  0  0  0  0  0  0  0
    2.5745   -9.0658    7.2896 H   0  0  0  0  0  0  0  0  0  0  0  0
   -0.5671   -9.5408    5.2734 H   0  0  0  0  0  0  0  0  0  0  0  0
   -0.4994   -7.8185    5.3645 H   0  0  0  0  0  0  0  0  0  0  0  0
   -0.9838   -9.1744    3.0484 H   0  0  0  0  0  0  0  0  0  0  0  0
   -0.2736   -7.6110    3.0863 H   0  0  0  0  0  0  0  0  0  0  0  0
    0.8175  -10.1849    2.2310 H   0  0  0  0  0  0  0  0  0  0  0  0
    1.3163   -8.6811    1.6379 H   0  0  0  0  0  0  0  0  0  0  0  0
    4.1719  -10.8852    3.0391 H   0  0  0  0  0  0  0  0  0  0  0  0
    3.7388   -9.9211    1.6320 H   0  0  0  0  0  0  0  0  0  0  0  0
    2.7438  -11.2755    2.1322 H   0  0  0  0  0  0  0  0  0  0  0  0
    0.6458  -11.5524    5.5992 H   0  0  0  0  0  0  0  0  0  0  0  0
    1.4296  -12.1763    4.0404 H   0  0  0  0  0  0  0  0  0  0  0  0
    5.1936   -9.4833    4.2279 H   0  0  0  0  0  0  0  0  0  0  0  0
    4.2337   -9.3411    5.6933 H   0  0  0  0  0  0  0  0  0  0  0  0
    5.1999   -8.0395    5.1690 H   0  0  0  0  0  0  0  0  0  0  0  0
  1  2  1  0
  1 36  1  0
  1 37  1  0
  1 38  1  0
  2 32  1  0
  2  3  1  6
  2 16  1  0
  3  4  1  0
  4  5  2  0
  4  6  1  0
  6  7  1  0
  6 10  1  0
  6 39  1  6
  7  8  1  0
  7 40  1  0
  8  9  2  0
  8 41  1  0
 10 15  1  0
 10 11  2  0
 11 12  1  0
 11 42  1  0
 12 13  2  0
 12 43  1  0
 13 14  1  0
 13 44  1  0
 14 15  2  0
 15 45  1  0
 16 17  1  0
 17 32  1  0
 17 18  1  0
 17 46  1  1
 18 19  1  0
 18 47  1  0
 18 48  1  0
 19 30  1  0
 19 20  1  0
 19 49  1  6
 20 27  1  0
 20 21  1  1
 20 22  1  0
 21 50  1  0
 21 51  1  0
 21 52  1  0
 22 23  1  0
 22 53  1  0
 22 54  1  0
 23 24  1  0
 23 55  1  0
 23 56  1  0
 24 25  1  0
 24 57  1  0
 24 58  1  0
 25 26  1  6
 25 27  1  0
 25 30  1  0
 26 59  1  0
 26 60  1  0
 26 61  1  0
 27 29  1  1
 27 28  1  0
 28 29  1  0
 28 62  1  0
 28 63  1  0
 30 31  1  1
 30 32  1  0
 31 64  1  0
 31 65  1  0
 31 66  1  0
 32 33  1  6
 33 34  2  0
 33 35  1  0
M  CHG  1  35  -1
M  END
>  <i_m_ct_stereo_status>  (375) 
1

>  <s_m_source_file>  (375) 
/var/tmp/pbs.5083856.sched01/tmpfd511yf2/150gz97klq0.sdf

>  <i_m_source_file_index>  (375) 
5

>  <i_lp_mmshare_version>  (375) 
48012

>  <i_f3d_flags>  (375) 
0

>  <s_epik_input>  (375) 
TzFbQ0gyXVtDQEBdMTJbQ0BAXTMoW0NIM10pW0NAQEhdNFtDQEBdKFtDSDNdKShbQ0BdMihbQ0gzXSlbQ0gyXVtDSDJdW0NIMl0zKVtDQF01KEMoPU8pW09IXSlbQ0BIXShbQ0gyXTQpT1tDQEBdNShbQ0gzXSlPQyg9TylbQ0BIXShbTkhdW0NIXT1PKWM2W2NIXVtjSF1bY0hdbltjSF02

>  <s_epik_cmdline>  (375) 
J2VwaWtfcHl0aG9uJywgJy1waHQnLCAnMi4wJywgJy1waCcsICc3LjAnLCAnLXRuJywgJzgnLCAnLW1hJywgJzIwMCcsICctaW1hZScsICc8aW5maWxlLm1hZT4nLCAnLW9tYWUnLCAnPG91dGZpbGUubWFlPic=

>  <r_epik_Ionization_Penalty>  (375) 
0.00169543

>  <r_epik_Ionization_Penalty_Charging>  (375) 
0.000243918

>  <r_epik_Ionization_Penalty_Neutral>  (375) 
0.00145152

>  <r_epik_State_Penalty>  (375) 
0.000970226

>  <r_epik_Charging_Adjusted_Penalty>  (375) 
0.00121414

>  <i_epik_Tot_Q>  (375) 
-1

>  <i_epik_Tot_abs_Q>  (375) 
1

>  <s_epik_Chemistry_Notes>  (375) 
This compound has an ester and may undergo hydrolysis at high or low pH.

>  <s_lp_Force_Field>  (375) 
OPLS3e

>  <r_lp_Energy>  (375) 
102.716

>  <b_lp_Chiralities_Consistent>  (375) 
1

>  <s_lp_Variant>  (375) 
108:0-1

>  <s_i_glide_gridfile>  (375) 
pfpi4k_grid

>  <i_i_glide_lignum>  (375) 
5

>  <i_i_glide_rotatable_bonds>  (375) 
7

>  <r_i_docking_score>  (375) 
-1.42583

>  <r_i_glide_ligand_efficiency>  (375) 
-0.0407379

>  <r_i_glide_ligand_efficiency_sa>  (375) 
-0.133256

>  <r_i_glide_ligand_efficiency_ln>  (375) 
-0.313001

>  <r_i_glide_gscore>  (375) 
-1.42583

>  <r_i_glide_lipo>  (375) 
-0.310444

>  <r_i_glide_hbond>  (375) 
0

>  <r_i_glide_metal>  (375) 
-0

>  <r_i_glide_rewards>  (375) 
-0.129257

>  <r_i_glide_evdw>  (375) 
-29.8364

>  <r_i_glide_ecoul>  (375) 
1.07041

>  <r_i_glide_erotb>  (375) 
0.347323

>  <r_i_glide_esite>  (375) 
-0.0021897

>  <r_i_glide_emodel>  (375) 
-28.7009

>  <r_i_glide_energy>  (375) 
-28.766

>  <r_i_glide_einternal>  (375) 
6.33792

>  <r_i_glide_intrahb_reward>  (375) 
-0

>  <i_i_glide_confnum>  (375) 
3

>  <i_i_glide_posenum>  (375) 
2

>  <r_i_glide_eff_state_penalty>  (375) 
0

>  <ligand_id>  (375) 
108

>  <original_smiles>  (375) 
CC1(OC(=O)C(NC=O)c2cccnc2)OC2CC3C4(C)CCCC(C)(C45CO5)C3(C)C21C(=O)O

>  <smiles>  (375) 
[H]C(=O)N([H])C([H])(C(=O)OC1(C([H])([H])[H])OC2([H])C([H])([H])C3([H])C4(C([H])([H])[H])C([H])([H])C([H])([H])C([H])([H])C(C([H])([H])[H])(C45OC5([H])[H])C3(C([H])([H])[H])C21C(=O)[O-])c1c([H])nc([H])c([H])c1[H]

$$$$
111:0:0
     RDKit          3D

 25 27  0  0  1  0  0  0  0  0999 V2000
    2.2182   -3.3480   -3.5420 C   0  0  0  0  0  0  0  0  0  0  0  0
    3.1496   -2.4322   -2.8281 C   0  0  0  0  0  0  0  0  0  0  0  0
    3.4358   -1.2020   -3.4413 N   0  0  0  0  0  0  0  0  0  0  0  0
    4.2385   -0.4574   -2.6907 C   0  0  0  0  0  0  0  0  0  0  0  0
    4.7972   -1.2418   -1.2241 S   0  0  0  0  0  0  0  0  0  0  0  0
    3.8141   -2.6275   -1.6308 C   0  0  0  0  0  0  0  0  0  0  0  0
    3.8266   -3.7632   -0.7025 C   0  0  0  0  0  0  0  0  0  0  0  0
    5.0549   -4.3175   -0.2399 C   0  0  0  0  0  0  0  0  0  0  0  0
    5.0088   -5.3949    0.6158 C   0  0  0  0  0  0  0  0  0  0  0  0
    6.2505   -6.0701    1.1748 C   0  0  0  0  0  0  0  0  0  0  0  0
    3.7809   -5.8701    0.9694 N   0  0  0  0  0  0  0  0  0  0  0  0
    3.4783   -6.9136    1.7855 N   0  0  0  0  0  0  0  0  0  0  0  0
    2.1496   -6.8965    1.7623 C   0  0  0  0  0  0  0  0  0  0  0  0
    1.5582   -5.9276    1.0024 N   0  0  0  0  0  0  0  0  0  0  0  0
    2.6025   -5.2717    0.5009 C   0  0  0  0  0  0  0  0  0  0  0  0
    2.6309   -4.2061   -0.3171 N   0  0  0  0  0  0  0  0  0  0  0  0
    1.8155   -4.1333   -2.8990 H   0  0  0  0  0  0  0  0  0  0  0  0
    2.7246   -3.8154   -4.3802 H   0  0  0  0  0  0  0  0  0  0  0  0
    1.3789   -2.7808   -3.9443 H   0  0  0  0  0  0  0  0  0  0  0  0
    4.5089    0.5300   -3.0221 H   0  0  0  0  0  0  0  0  0  0  0  0
    6.0096   -3.9091   -0.5578 H   0  0  0  0  0  0  0  0  0  0  0  0
    7.1593   -5.5851    0.8189 H   0  0  0  0  0  0  0  0  0  0  0  0
    6.2878   -7.1180    0.8742 H   0  0  0  0  0  0  0  0  0  0  0  0
    6.2530   -6.0342    2.2666 H   0  0  0  0  0  0  0  0  0  0  0  0
    1.5719   -7.6163    2.3257 H   0  0  0  0  0  0  0  0  0  0  0  0
  1  2  1  0
  1 17  1  0
  1 18  1  0
  1 19  1  0
  2  6  2  0
  2  3  1  0
  3  4  2  0
  4  5  1  0
  4 20  1  0
  5  6  1  0
  6  7  1  0
  7 16  2  0
  7  8  1  0
  8  9  2  0
  8 21  1  0
  9 10  1  0
  9 11  1  0
 10 22  1  0
 10 23  1  0
 10 24  1  0
 11 15  1  0
 11 12  1  0
 12 13  2  0
 13 14  1  0
 13 25  1  0
 14 15  2  0
 15 16  1  0
M  END
>  <i_m_ct_stereo_status>  (376) 
1

>  <s_m_source_file>  (376) 
/var/tmp/pbs.5083856.sched01/tmpmexq2l8o/155z2u86i26.sdf

>  <i_m_source_file_index>  (376) 
4

>  <i_lp_mmshare_version>  (376) 
48012

>  <i_f3d_flags>  (376) 
0

>  <s_epik_input>  (376) 
W0NIM11jMW5bY0hdc2MxLWMoW2NIXWMyW0NIM10pbmMobjIzKW5bY0hdbjM=

>  <s_epik_cmdline>  (376) 
J2VwaWtfcHl0aG9uJywgJy1waHQnLCAnMi4wJywgJy1waCcsICc3LjAnLCAnLXRuJywgJzgnLCAnLW1hJywgJzIwMCcsICctaW1hZScsICc8aW5maWxlLm1hZT4nLCAnLW9tYWUnLCAnPG91dGZpbGUubWFlPic=

>  <r_lp_tautomer_probability>  (376) 
1

>  <r_epik_Ionization_Penalty>  (376) 
0.000107623

>  <r_epik_Ionization_Penalty_Charging>  (376) 
0

>  <r_epik_Ionization_Penalty_Neutral>  (376) 
0.000107623

>  <r_epik_State_Penalty>  (376) 
-0

>  <r_epik_Charging_Adjusted_Penalty>  (376) 
0

>  <i_epik_Tot_Q>  (376) 
0

>  <i_epik_Tot_abs_Q>  (376) 
0

>  <s_lp_Force_Field>  (376) 
OPLS3e

>  <r_lp_Energy>  (376) 
17.5004

>  <b_lp_Chiralities_Consistent>  (376) 
1

>  <s_lp_Variant>  (376) 
111:0-1

>  <s_i_glide_gridfile>  (376) 
pfpi4k_grid

>  <i_i_glide_lignum>  (376) 
4

>  <i_i_glide_rotatable_bonds>  (376) 
1

>  <r_i_docking_score>  (376) 
-4.14194

>  <r_i_glide_ligand_efficiency>  (376) 
-0.258871

>  <r_i_glide_ligand_efficiency_sa>  (376) 
-0.652314

>  <r_i_glide_ligand_efficiency_ln>  (376) 
-1.0979

>  <r_i_glide_gscore>  (376) 
-4.14194

>  <r_i_glide_lipo>  (376) 
-0.605155

>  <r_i_glide_hbond>  (376) 
-0.127775

>  <r_i_glide_metal>  (376) 
-0

>  <r_i_glide_rewards>  (376) 
-1.88752

>  <r_i_glide_evdw>  (376) 
-24.8705

>  <r_i_glide_ecoul>  (376) 
-3.57981

>  <r_i_glide_erotb>  (376) 
0.319771

>  <r_i_glide_esite>  (376) 
-0.060759

>  <r_i_glide_emodel>  (376) 
-34.2689

>  <r_i_glide_energy>  (376) 
-28.4503

>  <r_i_glide_einternal>  (376) 
3.84626

>  <r_i_glide_intrahb_reward>  (376) 
-0

>  <i_i_glide_confnum>  (376) 
4

>  <i_i_glide_posenum>  (376) 
40

>  <r_i_glide_eff_state_penalty>  (376) 
0

>  <ligand_id>  (376) 
111

>  <original_smiles>  (376) 
Cc1ncsc1-c1cc(C)n2ncnc2n1

>  <smiles>  (376) 
[H]c1nc2nc(-c3sc([H])nc3C([H])([H])[H])c([H])c(C([H])([H])[H])n2n1

$$$$
111:0:1
     RDKit          3D

 25 27  0  0  1  0  0  0  0  0999 V2000
    7.2040   -3.4933   -0.2235 C   0  0  0  0  0  0  0  0  0  0  0  0
    5.8615   -3.0425   -0.7538 C   0  0  0  0  0  0  0  0  0  0  0  0
    5.8986   -1.8435   -1.4826 N   0  0  0  0  0  0  0  0  0  0  0  0
    4.6978   -1.4503   -1.9109 C   0  0  0  0  0  0  0  0  0  0  0  0
    3.4132   -2.5602   -1.4969 S   0  0  0  0  0  0  0  0  0  0  0  0
    4.5778   -3.5756   -0.6379 C   0  0  0  0  0  0  0  0  0  0  0  0
    4.0625   -4.7865    0.0544 C   0  0  0  0  0  0  0  0  0  0  0  0
    4.9135   -5.8396    0.4886 C   0  0  0  0  0  0  0  0  0  0  0  0
    4.3822   -6.9204    1.1310 C   0  0  0  0  0  0  0  0  0  0  0  0
    5.2550   -8.0504    1.6420 C   0  0  0  0  0  0  0  0  0  0  0  0
    3.0306   -6.9660    1.2920 N   0  0  0  0  0  0  0  0  0  0  0  0
    2.2822   -7.9295    1.8775 N   0  0  0  0  0  0  0  0  0  0  0  0
    1.0568   -7.4561    1.7165 C   0  0  0  0  0  0  0  0  0  0  0  0
    0.9360   -6.2526    1.0822 N   0  0  0  0  0  0  0  0  0  0  0  0
    2.2063   -5.9312    0.8250 C   0  0  0  0  0  0  0  0  0  0  0  0
    2.7301   -4.8428    0.2320 N   0  0  0  0  0  0  0  0  0  0  0  0
    7.2968   -4.5381    0.0374 H   0  0  0  0  0  0  0  0  0  0  0  0
    7.4775   -2.9147    0.6612 H   0  0  0  0  0  0  0  0  0  0  0  0
    7.9705   -3.3309   -0.9832 H   0  0  0  0  0  0  0  0  0  0  0  0
    4.5858   -0.5287   -2.4679 H   0  0  0  0  0  0  0  0  0  0  0  0
    5.9752   -5.8662    0.3193 H   0  0  0  0  0  0  0  0  0  0  0  0
    6.3099   -7.8428    1.4491 H   0  0  0  0  0  0  0  0  0  0  0  0
    5.0023   -8.9872    1.1468 H   0  0  0  0  0  0  0  0  0  0  0  0
    5.1347   -8.1672    2.7185 H   0  0  0  0  0  0  0  0  0  0  0  0
    0.2053   -8.0100    2.0941 H   0  0  0  0  0  0  0  0  0  0  0  0
  1  2  1  0
  1 17  1  0
  1 18  1  0
  1 19  1  0
  2  6  2  0
  2  3  1  0
  3  4  2  0
  4  5  1  0
  4 20  1  0
  5  6  1  0
  6  7  1  0
  7 16  2  0
  7  8  1  0
  8  9  2  0
  8 21  1  0
  9 10  1  0
  9 11  1  0
 10 22  1  0
 10 23  1  0
 10 24  1  0
 11 15  1  0
 11 12  1  0
 12 13  2  0
 13 14  1  0
 13 25  1  0
 14 15  2  0
 15 16  1  0
M  END
>  <i_m_ct_stereo_status>  (377) 
1

>  <s_m_source_file>  (377) 
/var/tmp/pbs.5083856.sched01/tmpmexq2l8o/155z2u86i26.sdf

>  <i_m_source_file_index>  (377) 
4

>  <i_lp_mmshare_version>  (377) 
48012

>  <i_f3d_flags>  (377) 
0

>  <s_epik_input>  (377) 
W0NIM11jMW5bY0hdc2MxLWMoW2NIXWMyW0NIM10pbmMobjIzKW5bY0hdbjM=

>  <s_epik_cmdline>  (377) 
J2VwaWtfcHl0aG9uJywgJy1waHQnLCAnMi4wJywgJy1waCcsICc3LjAnLCAnLXRuJywgJzgnLCAnLW1hJywgJzIwMCcsICctaW1hZScsICc8aW5maWxlLm1hZT4nLCAnLW9tYWUnLCAnPG91dGZpbGUubWFlPic=

>  <r_lp_tautomer_probability>  (377) 
1

>  <r_epik_Ionization_Penalty>  (377) 
0.000107623

>  <r_epik_Ionization_Penalty_Charging>  (377) 
0

>  <r_epik_Ionization_Penalty_Neutral>  (377) 
0.000107623

>  <r_epik_State_Penalty>  (377) 
-0

>  <r_epik_Charging_Adjusted_Penalty>  (377) 
0

>  <i_epik_Tot_Q>  (377) 
0

>  <i_epik_Tot_abs_Q>  (377) 
0

>  <s_lp_Force_Field>  (377) 
OPLS3e

>  <r_lp_Energy>  (377) 
17.5004

>  <b_lp_Chiralities_Consistent>  (377) 
1

>  <s_lp_Variant>  (377) 
111:0-1

>  <s_i_glide_gridfile>  (377) 
pfpi4k_grid

>  <i_i_glide_lignum>  (377) 
4

>  <i_i_glide_rotatable_bonds>  (377) 
1

>  <r_i_docking_score>  (377) 
-4.13685

>  <r_i_glide_ligand_efficiency>  (377) 
-0.258553

>  <r_i_glide_ligand_efficiency_sa>  (377) 
-0.651513

>  <r_i_glide_ligand_efficiency_ln>  (377) 
-1.09655

>  <r_i_glide_gscore>  (377) 
-4.13685

>  <r_i_glide_lipo>  (377) 
-0.500564

>  <r_i_glide_hbond>  (377) 
-0.223219

>  <r_i_glide_metal>  (377) 
-0

>  <r_i_glide_rewards>  (377) 
-1.89704

>  <r_i_glide_evdw>  (377) 
-22.7562

>  <r_i_glide_ecoul>  (377) 
-4.08864

>  <r_i_glide_erotb>  (377) 
0.319771

>  <r_i_glide_esite>  (377) 
-0.0846902

>  <r_i_glide_emodel>  (377) 
-34.2723

>  <r_i_glide_energy>  (377) 
-26.8448

>  <r_i_glide_einternal>  (377) 
0.115572

>  <r_i_glide_intrahb_reward>  (377) 
-0

>  <i_i_glide_confnum>  (377) 
1

>  <i_i_glide_posenum>  (377) 
33

>  <r_i_glide_eff_state_penalty>  (377) 
0

>  <ligand_id>  (377) 
111

>  <original_smiles>  (377) 
Cc1ncsc1-c1cc(C)n2ncnc2n1

>  <smiles>  (377) 
[H]c1nc2nc(-c3sc([H])nc3C([H])([H])[H])c([H])c(C([H])([H])[H])n2n1

$$$$
111:0:2
     RDKit          3D

 25 27  0  0  1  0  0  0  0  0999 V2000
    1.4218   -9.3536    9.2190 C   0  0  0  0  0  0  0  0  0  0  0  0
    0.9764   -7.9769    8.7952 C   0  0  0  0  0  0  0  0  0  0  0  0
    0.9342   -7.0372    9.8363 N   0  0  0  0  0  0  0  0  0  0  0  0
    0.5717   -5.8161    9.4432 C   0  0  0  0  0  0  0  0  0  0  0  0
    0.1933   -5.7259    7.7422 S   0  0  0  0  0  0  0  0  0  0  0  0
    0.5755   -7.4466    7.5701 C   0  0  0  0  0  0  0  0  0  0  0  0
    0.4104   -8.0601    6.2310 C   0  0  0  0  0  0  0  0  0  0  0  0
    0.8249   -9.3956    5.9389 C   0  0  0  0  0  0  0  0  0  0  0  0
    0.6255   -9.9036    4.6864 C   0  0  0  0  0  0  0  0  0  0  0  0
    1.0522  -11.3186    4.3349 C   0  0  0  0  0  0  0  0  0  0  0  0
    0.0293   -9.1003    3.7672 N   0  0  0  0  0  0  0  0  0  0  0  0
   -0.2700   -9.3860    2.4874 N   0  0  0  0  0  0  0  0  0  0  0  0
   -0.8117   -8.2515    2.0765 C   0  0  0  0  0  0  0  0  0  0  0  0
   -0.8991   -7.2326    2.9828 N   0  0  0  0  0  0  0  0  0  0  0  0
   -0.3652   -7.7867    4.0743 C   0  0  0  0  0  0  0  0  0  0  0  0
   -0.1667   -7.2837    5.3047 N   0  0  0  0  0  0  0  0  0  0  0  0
    1.8153  -10.0081    8.4473 H   0  0  0  0  0  0  0  0  0  0  0  0
    0.6157   -9.8860    9.7247 H   0  0  0  0  0  0  0  0  0  0  0  0
    2.2488   -9.2821    9.9244 H   0  0  0  0  0  0  0  0  0  0  0  0
    0.5193   -5.0081   10.1570 H   0  0  0  0  0  0  0  0  0  0  0  0
    1.2803  -10.0743    6.6231 H   0  0  0  0  0  0  0  0  0  0  0  0
    1.4858  -11.8200    5.2017 H   0  0  0  0  0  0  0  0  0  0  0  0
    1.8020  -11.3150    3.5428 H   0  0  0  0  0  0  0  0  0  0  0  0
    0.2004  -11.9149    4.0135 H   0  0  0  0  0  0  0  0  0  0  0  0
   -1.1319   -8.1590    1.0559 H   0  0  0  0  0  0  0  0  0  0  0  0
  1  2  1  0
  1 17  1  0
  1 18  1  0
  1 19  1  0
  2  6  2  0
  2  3  1  0
  3  4  2  0
  4  5  1  0
  4 20  1  0
  5  6  1  0
  6  7  1  0
  7 16  2  0
  7  8  1  0
  8  9  2  0
  8 21  1  0
  9 10  1  0
  9 11  1  0
 10 22  1  0
 10 23  1  0
 10 24  1  0
 11 15  1  0
 11 12  1  0
 12 13  2  0
 13 14  1  0
 13 25  1  0
 14 15  2  0
 15 16  1  0
M  END
>  <i_m_ct_stereo_status>  (378) 
1

>  <s_m_source_file>  (378) 
/var/tmp/pbs.5083856.sched01/tmpmexq2l8o/155z2u86i26.sdf

>  <i_m_source_file_index>  (378) 
4

>  <i_lp_mmshare_version>  (378) 
48012

>  <i_f3d_flags>  (378) 
0

>  <s_epik_input>  (378) 
W0NIM11jMW5bY0hdc2MxLWMoW2NIXWMyW0NIM10pbmMobjIzKW5bY0hdbjM=

>  <s_epik_cmdline>  (378) 
J2VwaWtfcHl0aG9uJywgJy1waHQnLCAnMi4wJywgJy1waCcsICc3LjAnLCAnLXRuJywgJzgnLCAnLW1hJywgJzIwMCcsICctaW1hZScsICc8aW5maWxlLm1hZT4nLCAnLW9tYWUnLCAnPG91dGZpbGUubWFlPic=

>  <r_lp_tautomer_probability>  (378) 
1

>  <r_epik_Ionization_Penalty>  (378) 
0.000107623

>  <r_epik_Ionization_Penalty_Charging>  (378) 
0

>  <r_epik_Ionization_Penalty_Neutral>  (378) 
0.000107623

>  <r_epik_State_Penalty>  (378) 
-0

>  <r_epik_Charging_Adjusted_Penalty>  (378) 
0

>  <i_epik_Tot_Q>  (378) 
0

>  <i_epik_Tot_abs_Q>  (378) 
0

>  <s_lp_Force_Field>  (378) 
OPLS3e

>  <r_lp_Energy>  (378) 
17.5004

>  <b_lp_Chiralities_Consistent>  (378) 
1

>  <s_lp_Variant>  (378) 
111:0-1

>  <s_i_glide_gridfile>  (378) 
pfpi4k_grid

>  <i_i_glide_lignum>  (378) 
4

>  <i_i_glide_rotatable_bonds>  (378) 
1

>  <r_i_docking_score>  (378) 
-3.44889

>  <r_i_glide_ligand_efficiency>  (378) 
-0.215556

>  <r_i_glide_ligand_efficiency_sa>  (378) 
-0.543166

>  <r_i_glide_ligand_efficiency_ln>  (378) 
-0.914197

>  <r_i_glide_gscore>  (378) 
-3.44889

>  <r_i_glide_lipo>  (378) 
-0.13103

>  <r_i_glide_hbond>  (378) 
-0.0937909

>  <r_i_glide_metal>  (378) 
-0

>  <r_i_glide_rewards>  (378) 
-1.8322

>  <r_i_glide_evdw>  (378) 
-19.3552

>  <r_i_glide_ecoul>  (378) 
-3.89903

>  <r_i_glide_erotb>  (378) 
0.319771

>  <r_i_glide_esite>  (378) 
-0.159032

>  <r_i_glide_emodel>  (378) 
-29.0616

>  <r_i_glide_energy>  (378) 
-23.2542

>  <r_i_glide_einternal>  (378) 
0.0381351

>  <r_i_glide_intrahb_reward>  (378) 
-0

>  <i_i_glide_confnum>  (378) 
1

>  <i_i_glide_posenum>  (378) 
22

>  <r_i_glide_eff_state_penalty>  (378) 
0

>  <ligand_id>  (378) 
111

>  <original_smiles>  (378) 
Cc1ncsc1-c1cc(C)n2ncnc2n1

>  <smiles>  (378) 
[H]c1nc2nc(-c3sc([H])nc3C([H])([H])[H])c([H])c(C([H])([H])[H])n2n1

$$$$
112:0:0
     RDKit          3D

 37 40  0  0  1  0  0  0  0  0999 V2000
    2.8349   -8.1337    4.8590 C   0  0  0  0  0  0  0  0  0  0  0  0
    1.7666   -7.0404    4.7526 C   0  0  0  0  0  0  0  0  0  0  0  0
    1.7424   -6.5022    3.4461 O   0  0  0  0  0  0  0  0  0  0  0  0
    2.5493   -5.4827    3.1189 C   0  0  0  0  0  0  0  0  0  0  0  0
    3.3002   -4.9334    3.9424 O   0  0  0  0  0  0  0  0  0  0  0  0
    2.3986   -5.0941    1.7348 C   0  0  0  0  0  0  0  0  0  0  0  0
    1.6486   -5.8346    0.7947 N   0  0  0  0  0  0  0  0  0  0  0  0
    1.8023   -5.1235   -0.3250 C   0  0  0  0  0  0  0  0  0  0  0  0
    2.4979   -4.0088   -0.1788 N   0  0  0  0  0  0  0  0  0  0  0  0
    2.9009   -3.9563    1.1353 C   0  0  0  0  0  0  0  0  0  0  0  0
    3.6831   -2.7873    1.5500 C   0  0  2  0  0  0  0  0  0  0  0  0
    2.7757   -1.6705    2.0591 C   0  0  0  0  0  0  0  0  0  0  0  0
    3.6369   -0.4132    2.1656 C   0  0  0  0  0  0  0  0  0  0  0  0
    4.9347   -0.4769    0.9023 S   0  0  0  0  0  0  0  0  0  0  0  0
    4.4853   -2.1504    0.3866 C   0  0  2  0  0  0  0  0  0  0  0  0
    3.7926   -2.1461   -0.9825 C   0  0  0  0  0  0  0  0  0  0  0  0
    4.1374   -1.1954   -1.9956 C   0  0  0  0  0  0  0  0  0  0  0  0
    3.4711   -1.2241   -3.2363 C   0  0  0  0  0  0  0  0  0  0  0  0
    3.8004    0.1221   -4.5513 Br  0  0  0  0  0  0  0  0  0  0  0  0
    2.5136   -2.2124   -3.4878 C   0  0  0  0  0  0  0  0  0  0  0  0
    2.1797   -3.1555   -2.4994 C   0  0  0  0  0  0  0  0  0  0  0  0
    2.8155   -3.1279   -1.2422 C   0  0  0  0  0  0  0  0  0  0  0  0
    2.8579   -8.5420    5.8669 H   0  0  0  0  0  0  0  0  0  0  0  0
    3.8251   -7.7364    4.6395 H   0  0  0  0  0  0  0  0  0  0  0  0
    2.6320   -8.9457    4.1594 H   0  0  0  0  0  0  0  0  0  0  0  0
    0.7806   -7.4546    4.9387 H   0  0  0  0  0  0  0  0  0  0  0  0
    1.9132   -6.2529    5.4950 H   0  0  0  0  0  0  0  0  0  0  0  0
    1.3614   -5.4354   -1.2526 H   0  0  0  0  0  0  0  0  0  0  0  0
    4.3883   -3.0644    2.3350 H   0  0  0  0  0  0  0  0  0  0  0  0
    1.9903   -1.4664    1.3269 H   0  0  0  0  0  0  0  0  0  0  0  0
    2.2793   -1.9308    2.9981 H   0  0  0  0  0  0  0  0  0  0  0  0
    3.0449    0.4949    2.0742 H   0  0  0  0  0  0  0  0  0  0  0  0
    4.1045   -0.3962    3.1461 H   0  0  0  0  0  0  0  0  0  0  0  0
    5.3748   -2.7504    0.2347 H   0  0  0  0  0  0  0  0  0  0  0  0
    4.8584   -0.4157   -1.7971 H   0  0  0  0  0  0  0  0  0  0  0  0
    1.8890   -2.1586   -4.3620 H   0  0  0  0  0  0  0  0  0  0  0  0
    1.3698   -3.8280   -2.6785 H   0  0  0  0  0  0  0  0  0  0  0  0
  1  2  1  0
  1 23  1  0
  1 24  1  0
  1 25  1  0
  2  3  1  0
  2 26  1  0
  2 27  1  0
  3  4  1  0
  4  5  2  0
  4  6  1  0
  6 10  2  0
  6  7  1  0
  7  8  2  0
  8  9  1  0
  8 28  1  0
  9 22  1  0
  9 10  1  0
 10 11  1  0
 11 15  1  0
 11 12  1  0
 11 29  1  1
 12 13  1  0
 12 30  1  0
 12 31  1  0
 13 14  1  0
 13 32  1  0
 13 33  1  0
 14 15  1  0
 15 16  1  0
 15 34  1  6
 16 22  2  0
 16 17  1  0
 17 18  2  0
 17 35  1  0
 18 19  1  0
 18 20  1  0
 20 21  2  0
 20 36  1  0
 21 22  1  0
 21 37  1  0
M  END
>  <i_m_ct_stereo_status>  (379) 
1

>  <s_m_source_file>  (379) 
/var/tmp/pbs.5083856.sched01/tmpmexq2l8o/155z2u86i26.sdf

>  <i_m_source_file_index>  (379) 
5

>  <i_lp_mmshare_version>  (379) 
48012

>  <i_f3d_flags>  (379) 
0

>  <s_epik_input>  (379) 
W0NIM11bQ0gyXU9DKD1PKWMobltjSF0xKWMobjEyKVtDQEhdM1tDQEhdKFNbQ0gyXVtDSDJdMyljNGMyW2NIXVtjSF1jKEJyKVtjSF00

>  <s_epik_cmdline>  (379) 
J2VwaWtfcHl0aG9uJywgJy1waHQnLCAnMi4wJywgJy1waCcsICc3LjAnLCAnLXRuJywgJzgnLCAnLW1hJywgJzIwMCcsICctaW1hZScsICc8aW5maWxlLm1hZT4nLCAnLW9tYWUnLCAnPG91dGZpbGUubWFlPic=

>  <r_epik_Ionization_Penalty>  (379) 
0.00315881

>  <r_epik_Ionization_Penalty_Charging>  (379) 
0.00315881

>  <r_epik_Ionization_Penalty_Neutral>  (379) 
7.28833e-14

>  <r_epik_State_Penalty>  (379) 
0.00222566

>  <r_epik_Charging_Adjusted_Penalty>  (379) 
0.00538447

>  <i_epik_Tot_Q>  (379) 
0

>  <i_epik_Tot_abs_Q>  (379) 
0

>  <s_epik_Chemistry_Notes>  (379) 
This compound has an ester and may undergo hydrolysis at high or low pH.

>  <s_lp_Force_Field>  (379) 
OPLS3e

>  <r_lp_Energy>  (379) 
29.0404

>  <b_lp_Chiralities_Consistent>  (379) 
1

>  <s_lp_Variant>  (379) 
112:0-1

>  <s_i_glide_gridfile>  (379) 
pfpi4k_grid

>  <i_i_glide_lignum>  (379) 
5

>  <i_i_glide_rotatable_bonds>  (379) 
3

>  <r_i_docking_score>  (379) 
-3.90847

>  <r_i_glide_ligand_efficiency>  (379) 
-0.177658

>  <r_i_glide_ligand_efficiency_sa>  (379) 
-0.497804

>  <r_i_glide_ligand_efficiency_ln>  (379) 
-0.955373

>  <r_i_glide_gscore>  (379) 
-3.90847

>  <r_i_glide_lipo>  (379) 
-0.847877

>  <r_i_glide_hbond>  (379) 
-0.12186

>  <r_i_glide_metal>  (379) 
-0

>  <r_i_glide_rewards>  (379) 
-0.823142

>  <r_i_glide_evdw>  (379) 
-24.4991

>  <r_i_glide_ecoul>  (379) 
-5.8345

>  <r_i_glide_erotb>  (379) 
0.134782

>  <r_i_glide_esite>  (379) 
-0.150243

>  <r_i_glide_emodel>  (379) 
-37.0241

>  <r_i_glide_energy>  (379) 
-30.3336

>  <r_i_glide_einternal>  (379) 
0.737479

>  <r_i_glide_intrahb_reward>  (379) 
-0

>  <i_i_glide_confnum>  (379) 
3

>  <i_i_glide_posenum>  (379) 
1

>  <r_i_glide_eff_state_penalty>  (379) 
0

>  <ligand_id>  (379) 
112

>  <original_smiles>  (379) 
CCOC(=O)c1ncn2c1C1CCSC1c1cc(Br)ccc1-2

>  <smiles>  (379) 
[H]c1c([H])c2c(c([H])c1Br)C1([H])SC([H])([H])C([H])([H])C1([H])c1c(C(=O)OC([H])([H])C([H])([H])[H])nc([H])n1-2

$$$$
112:0:1
     RDKit          3D

 37 40  0  0  1  0  0  0  0  0999 V2000
    3.7059   -9.1863    4.4769 C   0  0  0  0  0  0  0  0  0  0  0  0
    3.3346   -7.7202    4.7316 C   0  0  0  0  0  0  0  0  0  0  0  0
    2.9447   -7.0940    3.5212 O   0  0  0  0  0  0  0  0  0  0  0  0
    3.8726   -6.6037    2.6781 C   0  0  0  0  0  0  0  0  0  0  0  0
    5.0827   -6.6670    2.9091 O   0  0  0  0  0  0  0  0  0  0  0  0
    3.2604   -5.9418    1.5371 C   0  0  0  0  0  0  0  0  0  0  0  0
    1.9571   -6.2029    1.0409 N   0  0  0  0  0  0  0  0  0  0  0  0
    1.8431   -5.3812   -0.0012 C   0  0  0  0  0  0  0  0  0  0  0  0
    2.9036   -4.5863   -0.1412 N   0  0  0  0  0  0  0  0  0  0  0  0
    3.8571   -4.9665    0.7683 C   0  0  0  0  0  0  0  0  0  0  0  0
    5.1725   -4.2900    0.7477 C   0  0  2  0  0  0  0  0  0  0  0  0
    5.1129   -3.0108    1.5665 C   0  0  0  0  0  0  0  0  0  0  0  0
    6.3273   -2.1955    1.1756 C   0  0  0  0  0  0  0  0  0  0  0  0
    6.8262   -2.5107   -0.5152 S   0  0  0  0  0  0  0  0  0  0  0  0
    5.5539   -3.7974   -0.6748 C   0  0  2  0  0  0  0  0  0  0  0  0
    4.3980   -3.2540   -1.5025 C   0  0  0  0  0  0  0  0  0  0  0  0
    4.6446   -2.3607   -2.5797 C   0  0  0  0  0  0  0  0  0  0  0  0
    3.5678   -1.9283   -3.3627 C   0  0  0  0  0  0  0  0  0  0  0  0
    3.7368   -0.5145   -4.6100 Br  0  0  0  0  0  0  0  0  0  0  0  0
    2.3038   -2.5061   -3.1793 C   0  0  0  0  0  0  0  0  0  0  0  0
    2.0366   -3.3365   -2.0752 C   0  0  0  0  0  0  0  0  0  0  0  0
    3.0848   -3.6990   -1.2162 C   0  0  0  0  0  0  0  0  0  0  0  0
    3.9846   -9.6793    5.4043 H   0  0  0  0  0  0  0  0  0  0  0  0
    4.5526   -9.2673    3.7969 H   0  0  0  0  0  0  0  0  0  0  0  0
    2.8697   -9.7260    4.0342 H   0  0  0  0  0  0  0  0  0  0  0  0
    2.4716   -7.6626    5.3942 H   0  0  0  0  0  0  0  0  0  0  0  0
    4.1407   -7.1702    5.2255 H   0  0  0  0  0  0  0  0  0  0  0  0
    1.0295   -5.4156   -0.7199 H   0  0  0  0  0  0  0  0  0  0  0  0
    5.9866   -4.9430    1.1069 H   0  0  0  0  0  0  0  0  0  0  0  0
    4.2169   -2.4389    1.3108 H   0  0  0  0  0  0  0  0  0  0  0  0
    5.0896   -3.2354    2.6339 H   0  0  0  0  0  0  0  0  0  0  0  0
    6.2750   -1.1376    1.4494 H   0  0  0  0  0  0  0  0  0  0  0  0
    7.0879   -2.7207    1.7191 H   0  0  0  0  0  0  0  0  0  0  0  0
    5.9372   -4.6634   -1.1941 H   0  0  0  0  0  0  0  0  0  0  0  0
    5.6296   -2.0105   -2.7879 H   0  0  0  0  0  0  0  0  0  0  0  0
    1.4927   -2.2755   -3.8544 H   0  0  0  0  0  0  0  0  0  0  0  0
    1.0212   -3.6546   -1.9024 H   0  0  0  0  0  0  0  0  0  0  0  0
  1  2  1  0
  1 23  1  0
  1 24  1  0
  1 25  1  0
  2  3  1  0
  2 26  1  0
  2 27  1  0
  3  4  1  0
  4  5  2  0
  4  6  1  0
  6 10  2  0
  6  7  1  0
  7  8  2  0
  8  9  1  0
  8 28  1  0
  9 22  1  0
  9 10  1  0
 10 11  1  0
 11 15  1  0
 11 12  1  0
 11 29  1  1
 12 13  1  0
 12 30  1  0
 12 31  1  0
 13 14  1  0
 13 32  1  0
 13 33  1  0
 14 15  1  0
 15 16  1  0
 15 34  1  6
 16 22  2  0
 16 17  1  0
 17 18  2  0
 17 35  1  0
 18 19  1  0
 18 20  1  0
 20 21  2  0
 20 36  1  0
 21 22  1  0
 21 37  1  0
M  END
>  <i_m_ct_stereo_status>  (380) 
1

>  <s_m_source_file>  (380) 
/var/tmp/pbs.5083856.sched01/tmpmexq2l8o/155z2u86i26.sdf

>  <i_m_source_file_index>  (380) 
5

>  <i_lp_mmshare_version>  (380) 
48012

>  <i_f3d_flags>  (380) 
0

>  <s_epik_input>  (380) 
W0NIM11bQ0gyXU9DKD1PKWMobltjSF0xKWMobjEyKVtDQEhdM1tDQEhdKFNbQ0gyXVtDSDJdMyljNGMyW2NIXVtjSF1jKEJyKVtjSF00

>  <s_epik_cmdline>  (380) 
J2VwaWtfcHl0aG9uJywgJy1waHQnLCAnMi4wJywgJy1waCcsICc3LjAnLCAnLXRuJywgJzgnLCAnLW1hJywgJzIwMCcsICctaW1hZScsICc8aW5maWxlLm1hZT4nLCAnLW9tYWUnLCAnPG91dGZpbGUubWFlPic=

>  <r_epik_Ionization_Penalty>  (380) 
0.00315881

>  <r_epik_Ionization_Penalty_Charging>  (380) 
0.00315881

>  <r_epik_Ionization_Penalty_Neutral>  (380) 
7.28833e-14

>  <r_epik_State_Penalty>  (380) 
0.00222566

>  <r_epik_Charging_Adjusted_Penalty>  (380) 
0.00538447

>  <i_epik_Tot_Q>  (380) 
0

>  <i_epik_Tot_abs_Q>  (380) 
0

>  <s_epik_Chemistry_Notes>  (380) 
This compound has an ester and may undergo hydrolysis at high or low pH.

>  <s_lp_Force_Field>  (380) 
OPLS3e

>  <r_lp_Energy>  (380) 
29.0404

>  <b_lp_Chiralities_Consistent>  (380) 
1

>  <s_lp_Variant>  (380) 
112:0-1

>  <s_i_glide_gridfile>  (380) 
pfpi4k_grid

>  <i_i_glide_lignum>  (380) 
5

>  <i_i_glide_rotatable_bonds>  (380) 
3

>  <r_i_docking_score>  (380) 
-3.74297

>  <r_i_glide_ligand_efficiency>  (380) 
-0.170135

>  <r_i_glide_ligand_efficiency_sa>  (380) 
-0.476725

>  <r_i_glide_ligand_efficiency_ln>  (380) 
-0.914918

>  <r_i_glide_gscore>  (380) 
-3.74297

>  <r_i_glide_lipo>  (380) 
-1.16018

>  <r_i_glide_hbond>  (380) 
0

>  <r_i_glide_metal>  (380) 
-0

>  <r_i_glide_rewards>  (380) 
-0.823142

>  <r_i_glide_evdw>  (380) 
-24.5176

>  <r_i_glide_ecoul>  (380) 
-3.4989

>  <r_i_glide_erotb>  (380) 
0.134782

>  <r_i_glide_esite>  (380) 
-0.143718

>  <r_i_glide_emodel>  (380) 
-33.9032

>  <r_i_glide_energy>  (380) 
-28.0165

>  <r_i_glide_einternal>  (380) 
1.36456

>  <r_i_glide_intrahb_reward>  (380) 
-0

>  <i_i_glide_confnum>  (380) 
3

>  <i_i_glide_posenum>  (380) 
25

>  <r_i_glide_eff_state_penalty>  (380) 
0

>  <ligand_id>  (380) 
112

>  <original_smiles>  (380) 
CCOC(=O)c1ncn2c1C1CCSC1c1cc(Br)ccc1-2

>  <smiles>  (380) 
[H]c1c([H])c2c(c([H])c1Br)C1([H])SC([H])([H])C([H])([H])C1([H])c1c(C(=O)OC([H])([H])C([H])([H])[H])nc([H])n1-2

$$$$
112:0:2
     RDKit          3D

 37 40  0  0  1  0  0  0  0  0999 V2000
    3.9526   -5.9177    6.3238 C   0  0  0  0  0  0  0  0  0  0  0  0
    3.9695   -7.1119    5.3584 C   0  0  0  0  0  0  0  0  0  0  0  0
    3.6181   -6.7196    4.0406 O   0  0  0  0  0  0  0  0  0  0  0  0
    4.5493   -6.2249    3.1974 C   0  0  0  0  0  0  0  0  0  0  0  0
    5.7410   -6.1171    3.5088 O   0  0  0  0  0  0  0  0  0  0  0  0
    3.9545   -5.7622    1.9480 C   0  0  0  0  0  0  0  0  0  0  0  0
    2.8846   -6.3864    1.2865 N   0  0  0  0  0  0  0  0  0  0  0  0
    2.6688   -5.6321    0.2125 C   0  0  0  0  0  0  0  0  0  0  0  0
    3.4795   -4.5702    0.1601 N   0  0  0  0  0  0  0  0  0  0  0  0
    4.3295   -4.6367    1.2415 C   0  0  0  0  0  0  0  0  0  0  0  0
    5.3530   -3.5664    1.4203 C   0  0  2  0  0  0  0  0  0  0  0  0
    4.8154   -2.3912    2.2419 C   0  0  0  0  0  0  0  0  0  0  0  0
    5.7876   -1.2214    2.0731 C   0  0  0  0  0  0  0  0  0  0  0  0
    6.5722   -1.3695    0.4529 S   0  0  0  0  0  0  0  0  0  0  0  0
    5.7787   -2.9529    0.0649 C   0  0  2  0  0  0  0  0  0  0  0  0
    4.6333   -2.7720   -0.9607 C   0  0  0  0  0  0  0  0  0  0  0  0
    4.7101   -1.8075   -1.9951 C   0  0  0  0  0  0  0  0  0  0  0  0
    3.6562   -1.6629   -2.9165 C   0  0  0  0  0  0  0  0  0  0  0  0
    3.7416   -0.3487   -4.2857 Br  0  0  0  0  0  0  0  0  0  0  0  0
    2.5271   -2.4963   -2.8208 C   0  0  0  0  0  0  0  0  0  0  0  0
    2.4304   -3.4559   -1.7974 C   0  0  0  0  0  0  0  0  0  0  0  0
    3.4941   -3.6113   -0.8806 C   0  0  0  0  0  0  0  0  0  0  0  0
    4.2162   -6.2370    7.3311 H   0  0  0  0  0  0  0  0  0  0  0  0
    2.9653   -5.4608    6.3686 H   0  0  0  0  0  0  0  0  0  0  0  0
    4.6657   -5.1544    6.0148 H   0  0  0  0  0  0  0  0  0  0  0  0
    4.9367   -7.6174    5.3669 H   0  0  0  0  0  0  0  0  0  0  0  0
    3.2353   -7.8497    5.6735 H   0  0  0  0  0  0  0  0  0  0  0  0
    1.9446   -5.8943   -0.5516 H   0  0  0  0  0  0  0  0  0  0  0  0
    6.2388   -3.9587    1.9202 H   0  0  0  0  0  0  0  0  0  0  0  0
    3.8502   -2.0722    1.8450 H   0  0  0  0  0  0  0  0  0  0  0  0
    4.6586   -2.6525    3.2929 H   0  0  0  0  0  0  0  0  0  0  0  0
    5.2988   -0.2546    2.1939 H   0  0  0  0  0  0  0  0  0  0  0  0
    6.5616   -1.2741    2.8306 H   0  0  0  0  0  0  0  0  0  0  0  0
    6.5090   -3.6103   -0.4010 H   0  0  0  0  0  0  0  0  0  0  0  0
    5.5665   -1.1536   -2.0783 H   0  0  0  0  0  0  0  0  0  0  0  0
    1.7107   -2.3898   -3.5161 H   0  0  0  0  0  0  0  0  0  0  0  0
    1.5492   -4.0716   -1.7413 H   0  0  0  0  0  0  0  0  0  0  0  0
  1  2  1  0
  1 23  1  0
  1 24  1  0
  1 25  1  0
  2  3  1  0
  2 26  1  0
  2 27  1  0
  3  4  1  0
  4  5  2  0
  4  6  1  0
  6 10  2  0
  6  7  1  0
  7  8  2  0
  8  9  1  0
  8 28  1  0
  9 22  1  0
  9 10  1  0
 10 11  1  0
 11 15  1  0
 11 12  1  0
 11 29  1  1
 12 13  1  0
 12 30  1  0
 12 31  1  0
 13 14  1  0
 13 32  1  0
 13 33  1  0
 14 15  1  0
 15 16  1  0
 15 34  1  6
 16 22  2  0
 16 17  1  0
 17 18  2  0
 17 35  1  0
 18 19  1  0
 18 20  1  0
 20 21  2  0
 20 36  1  0
 21 22  1  0
 21 37  1  0
M  END
>  <i_m_ct_stereo_status>  (381) 
1

>  <s_m_source_file>  (381) 
/var/tmp/pbs.5083856.sched01/tmpmexq2l8o/155z2u86i26.sdf

>  <i_m_source_file_index>  (381) 
5

>  <i_lp_mmshare_version>  (381) 
48012

>  <i_f3d_flags>  (381) 
0

>  <s_epik_input>  (381) 
W0NIM11bQ0gyXU9DKD1PKWMobltjSF0xKWMobjEyKVtDQEhdM1tDQEhdKFNbQ0gyXVtDSDJdMyljNGMyW2NIXVtjSF1jKEJyKVtjSF00

>  <s_epik_cmdline>  (381) 
J2VwaWtfcHl0aG9uJywgJy1waHQnLCAnMi4wJywgJy1waCcsICc3LjAnLCAnLXRuJywgJzgnLCAnLW1hJywgJzIwMCcsICctaW1hZScsICc8aW5maWxlLm1hZT4nLCAnLW9tYWUnLCAnPG91dGZpbGUubWFlPic=

>  <r_epik_Ionization_Penalty>  (381) 
0.00315881

>  <r_epik_Ionization_Penalty_Charging>  (381) 
0.00315881

>  <r_epik_Ionization_Penalty_Neutral>  (381) 
7.28833e-14

>  <r_epik_State_Penalty>  (381) 
0.00222566

>  <r_epik_Charging_Adjusted_Penalty>  (381) 
0.00538447

>  <i_epik_Tot_Q>  (381) 
0

>  <i_epik_Tot_abs_Q>  (381) 
0

>  <s_epik_Chemistry_Notes>  (381) 
This compound has an ester and may undergo hydrolysis at high or low pH.

>  <s_lp_Force_Field>  (381) 
OPLS3e

>  <r_lp_Energy>  (381) 
29.0404

>  <b_lp_Chiralities_Consistent>  (381) 
1

>  <s_lp_Variant>  (381) 
112:0-1

>  <s_i_glide_gridfile>  (381) 
pfpi4k_grid

>  <i_i_glide_lignum>  (381) 
5

>  <i_i_glide_rotatable_bonds>  (381) 
3

>  <r_i_docking_score>  (381) 
-3.22734

>  <r_i_glide_ligand_efficiency>  (381) 
-0.146697

>  <r_i_glide_ligand_efficiency_sa>  (381) 
-0.411052

>  <r_i_glide_ligand_efficiency_ln>  (381) 
-0.78888

>  <r_i_glide_gscore>  (381) 
-3.22734

>  <r_i_glide_lipo>  (381) 
-0.774901

>  <r_i_glide_hbond>  (381) 
0

>  <r_i_glide_metal>  (381) 
-0

>  <r_i_glide_rewards>  (381) 
-0.823142

>  <r_i_glide_evdw>  (381) 
-26.4792

>  <r_i_glide_ecoul>  (381) 
-2.53927

>  <r_i_glide_erotb>  (381) 
0.134782

>  <r_i_glide_esite>  (381) 
-0.0592301

>  <r_i_glide_emodel>  (381) 
-34.0549

>  <r_i_glide_energy>  (381) 
-29.0185

>  <r_i_glide_einternal>  (381) 
2.44658

>  <r_i_glide_intrahb_reward>  (381) 
-0

>  <i_i_glide_confnum>  (381) 
3

>  <i_i_glide_posenum>  (381) 
35

>  <r_i_glide_eff_state_penalty>  (381) 
0

>  <ligand_id>  (381) 
112

>  <original_smiles>  (381) 
CCOC(=O)c1ncn2c1C1CCSC1c1cc(Br)ccc1-2

>  <smiles>  (381) 
[H]c1c([H])c2c(c([H])c1Br)C1([H])SC([H])([H])C([H])([H])C1([H])c1c(C(=O)OC([H])([H])C([H])([H])[H])nc([H])n1-2

$$$$
114:0:0
     RDKit          3D

 59 65  0  0  1  0  0  0  0  0999 V2000
    2.6362   -3.8082    5.8113 C   0  0  0  0  0  0  0  0  0  0  0  0
    3.0323   -2.3361    5.7842 C   0  0  0  0  0  0  0  0  0  0  0  0
    3.0553   -1.5644    6.8616 C   0  0  0  0  0  0  0  0  0  0  0  0
    3.3177   -0.1367    6.5384 C   0  0  0  0  0  0  0  0  0  0  0  0
    3.1971   -0.1325    5.0550 N   0  0  1  0  0  0  0  0  0  0  0  0
    4.2825    0.5841    4.3875 C   0  0  0  0  0  0  0  0  0  0  0  0
    5.2818   -0.4879    3.9745 C   0  0  0  0  0  0  0  0  0  0  0  0
    4.3983   -1.6866    3.5671 C   0  0  2  0  0  0  0  0  0  0  0  0
    5.1326   -3.0417    3.6970 C   0  0  0  0  0  0  0  0  0  0  0  0
    4.4315   -4.0241    2.7534 C   0  0  0  0  0  0  0  0  0  0  0  0
    3.8424   -3.1657    1.6340 C   0  0  2  0  0  0  0  0  0  0  0  0
    2.5127   -3.7404    1.1016 C   0  0  0  0  0  0  0  0  0  0  0  0
    2.5693   -4.3832   -0.3493 C   0  0  0  0  0  0  0  0  0  0  0  0
    3.3131   -3.5931   -1.3932 N   0  0  1  0  0  0  0  0  0  0  0  0
    2.5431   -3.1380   -2.5850 C   0  0  0  0  0  0  0  0  0  0  0  0
    3.3948   -2.1908   -3.4764 C   0  0  0  0  0  0  0  0  0  0  0  0
    3.9856   -0.9953   -2.6813 C   0  0  0  0  0  0  0  0  0  0  0  0
    4.8181   -1.5592   -1.5123 C   0  0  1  0  0  0  0  0  0  0  0  0
    5.2171   -0.6530   -0.2936 C   0  0  0  0  0  0  0  0  0  0  0  0
    5.1971   -1.5545    0.9800 C   0  0  2  0  0  0  0  0  0  0  0  0
    4.6986   -2.8449    0.4545 C   0  0  2  0  0  0  0  0  0  0  0  0
    3.9319   -2.4757   -0.7590 C   0  0  2  0  0  0  0  0  0  0  0  0
    4.0485   -1.6718    2.0512 C   0  0  2  0  0  0  0  0  0  0  0  0
    2.9749   -0.7728    1.8456 O   0  0  0  0  0  0  0  0  0  0  0  0
    3.1346   -1.5181    4.5049 C   0  0  1  0  0  0  0  0  0  0  0  0
    1.8412   -3.9966    5.0884 H   0  0  0  0  0  0  0  0  0  0  0  0
    2.2394   -4.1036    6.7930 H   0  0  0  0  0  0  0  0  0  0  0  0
    3.4776   -4.4682    5.5949 H   0  0  0  0  0  0  0  0  0  0  0  0
    2.8671   -1.8924    7.8828 H   0  0  0  0  0  0  0  0  0  0  0  0
    2.6049    0.5268    7.0142 H   0  0  0  0  0  0  0  0  0  0  0  0
    4.3077    0.0981    6.9177 H   0  0  0  0  0  0  0  0  0  0  0  0
    3.8778    1.0572    3.4995 H   0  0  0  0  0  0  0  0  0  0  0  0
    4.7329    1.3685    4.9879 H   0  0  0  0  0  0  0  0  0  0  0  0
    5.9724   -0.1286    3.1978 H   0  0  0  0  0  0  0  0  0  0  0  0
    5.8785   -0.7410    4.8541 H   0  0  0  0  0  0  0  0  0  0  0  0
    6.1293   -2.8913    3.2861 H   0  0  0  0  0  0  0  0  0  0  0  0
    5.2717   -3.4054    4.7133 H   0  0  0  0  0  0  0  0  0  0  0  0
    5.1202   -4.7726    2.3657 H   0  0  0  0  0  0  0  0  0  0  0  0
    3.6523   -4.5494    3.3027 H   0  0  0  0  0  0  0  0  0  0  0  0
    2.0520   -4.4495    1.8000 H   0  0  0  0  0  0  0  0  0  0  0  0
    1.8251   -2.9030    1.0573 H   0  0  0  0  0  0  0  0  0  0  0  0
    3.0697   -5.3390   -0.2566 H   0  0  0  0  0  0  0  0  0  0  0  0
    1.5738   -4.6299   -0.6962 H   0  0  0  0  0  0  0  0  0  0  0  0
    2.2222   -3.9727   -3.1923 H   0  0  0  0  0  0  0  0  0  0  0  0
    1.6283   -2.6303   -2.2993 H   0  0  0  0  0  0  0  0  0  0  0  0
    4.2114   -2.7489   -3.9473 H   0  0  0  0  0  0  0  0  0  0  0  0
    2.7815   -1.8094   -4.2991 H   0  0  0  0  0  0  0  0  0  0  0  0
    4.6038   -0.3718   -3.3328 H   0  0  0  0  0  0  0  0  0  0  0  0
    3.1588   -0.3711   -2.3232 H   0  0  0  0  0  0  0  0  0  0  0  0
    5.6844   -2.0981   -1.8962 H   0  0  0  0  0  0  0  0  0  0  0  0
    6.2080   -0.2373   -0.4441 H   0  0  0  0  0  0  0  0  0  0  0  0
    4.5021    0.1428   -0.1803 H   0  0  0  0  0  0  0  0  0  0  0  0
    6.1744   -1.6870    1.4307 H   0  0  0  0  0  0  0  0  0  0  0  0
    5.4958   -3.5661    0.3006 H   0  0  0  0  0  0  0  0  0  0  0  0
    3.0873   -1.8404   -0.4927 H   0  0  0  0  0  0  0  0  0  0  0  0
    2.6006   -0.9397    0.9985 H   0  0  0  0  0  0  0  0  0  0  0  0
    2.1885   -1.6858    3.9758 H   0  0  0  0  0  0  0  0  0  0  0  0
    2.3271    0.3128    4.8319 H   0  0  0  0  0  0  0  0  0  0  0  0
    4.0142   -4.2256   -1.7561 H   0  0  0  0  0  0  0  0  0  0  0  0
  1  2  1  0
  1 26  1  0
  1 27  1  0
  1 28  1  0
  2 25  1  0
  2  3  2  0
  3  4  1  0
  3 29  1  0
  4  5  1  0
  4 30  1  0
  4 31  1  0
  5 25  1  0
  5  6  1  0
  5 58  1  1
  6  7  1  0
  6 32  1  0
  6 33  1  0
  8  7  1  6
  7 34  1  0
  7 35  1  0
  8 23  1  0
  8  9  1  0
  8 25  1  0
  9 10  1  0
  9 36  1  0
  9 37  1  0
 11 10  1  1
 10 38  1  0
 10 39  1  0
 11 21  1  0
 11 23  1  0
 11 12  1  0
 12 13  1  0
 12 40  1  0
 12 41  1  0
 13 14  1  0
 13 42  1  0
 13 43  1  0
 14 22  1  0
 14 15  1  0
 14 59  1  6
 15 16  1  0
 15 44  1  0
 15 45  1  0
 16 17  1  0
 16 46  1  0
 16 47  1  0
 17 18  1  0
 17 48  1  0
 17 49  1  0
 18 22  1  0
 18 19  1  0
 18 50  1  6
 19 20  1  0
 19 51  1  0
 19 52  1  0
 20 21  1  0
 20 23  1  0
 20 53  1  1
 21 22  1  0
 21 54  1  6
 22 55  1  1
 23 24  1  1
 24 56  1  0
 25 57  1  6
M  CHG  2   5   1  14   1
M  END
>  <i_m_ct_stereo_status>  (382) 
1

>  <s_m_source_file>  (382) 
/var/tmp/pbs.5083856.sched01/tmpq5ya_4u_/160jg8mjrpw.sdf

>  <i_m_source_file_index>  (382) 
2

>  <i_lp_mmshare_version>  (382) 
48012

>  <i_f3d_flags>  (382) 
0

>  <s_epik_input>  (382) 
W0NIM11DMT1bQ0hdW0NIMl1OKFtDSDJdW0NIMl0yKVtDQEhdMVtDQEBdMjNbQ0BdNChbT0hdKVtDQF01KFtDSDJdW0NIMl0zKVtDQEBIXTZbQ0hdNFtDSDJdW0NASF03W0NASF02TihbQ0gyXVtDSDJdNSlbQ0gyXVtDSDJdW0NIMl03

>  <s_epik_cmdline>  (382) 
J2VwaWtfcHl0aG9uJywgJy1waHQnLCAnMi4wJywgJy1waCcsICc3LjAnLCAnLXRuJywgJzgnLCAnLW1hJywgJzIwMCcsICctaW1hZScsICc8aW5maWxlLm1hZT4nLCAnLW9tYWUnLCAnPG91dGZpbGUubWFlPic=

>  <r_epik_Ionization_Penalty>  (382) 
0.000664475

>  <r_epik_Ionization_Penalty_Charging>  (382) 
0.000664415

>  <r_epik_Ionization_Penalty_Neutral>  (382) 
6.00534e-08

>  <r_epik_State_Penalty>  (382) 
0.00025852

>  <r_epik_Charging_Adjusted_Penalty>  (382) 
0.000922934

>  <i_epik_Tot_Q>  (382) 
2

>  <i_epik_Tot_abs_Q>  (382) 
2

>  <s_lp_Force_Field>  (382) 
OPLS3e

>  <r_lp_Energy>  (382) 
98.308

>  <b_lp_Chiralities_Consistent>  (382) 
1

>  <s_lp_Variant>  (382) 
114:0-1

>  <s_i_glide_gridfile>  (382) 
pfpi4k_grid

>  <i_i_glide_lignum>  (382) 
2

>  <i_i_glide_rotatable_bonds>  (382) 
1

>  <r_i_docking_score>  (382) 
-3.54642

>  <r_i_glide_ligand_efficiency>  (382) 
-0.141857

>  <r_i_glide_ligand_efficiency_sa>  (382) 
-0.414792

>  <r_i_glide_ligand_efficiency_ln>  (382) 
-0.840609

>  <r_i_glide_gscore>  (382) 
-3.54642

>  <r_i_glide_lipo>  (382) 
-0.544264

>  <r_i_glide_hbond>  (382) 
0

>  <r_i_glide_metal>  (382) 
-0

>  <r_i_glide_rewards>  (382) 
-1.07374

>  <r_i_glide_evdw>  (382) 
-20.3125

>  <r_i_glide_ecoul>  (382) 
-6.0853

>  <r_i_glide_erotb>  (382) 
0

>  <r_i_glide_esite>  (382) 
0

>  <r_i_glide_emodel>  (382) 
-33.9864

>  <r_i_glide_energy>  (382) 
-26.3978

>  <r_i_glide_einternal>  (382) 
0.0796295

>  <r_i_glide_intrahb_reward>  (382) 
-0

>  <i_i_glide_confnum>  (382) 
2

>  <i_i_glide_posenum>  (382) 
31

>  <r_i_glide_eff_state_penalty>  (382) 
0

>  <ligand_id>  (382) 
114

>  <original_smiles>  (382) 
CC1=CCN2CCC3(CCC45CCN6CCCC7CC(C4C76)C53O)C12

>  <smiles>  (382) 
[H]OC12C3([H])C([H])([H])C4([H])C([H])([H])C([H])([H])C([H])([H])[N+]5([H])C([H])([H])C([H])([H])C1(C([H])([H])C([H])([H])C21C([H])([H])C([H])([H])[N+]2([H])C([H])([H])C([H])=C(C([H])([H])[H])C12[H])C3([H])C45[H]

$$$$
114:0:1
     RDKit          3D

 59 65  0  0  1  0  0  0  0  0999 V2000
    2.3642   -1.5026    2.7581 C   0  0  0  0  0  0  0  0  0  0  0  0
    3.1088   -2.0339    1.5366 C   0  0  0  0  0  0  0  0  0  0  0  0
    3.5702   -1.2675    0.5659 C   0  0  0  0  0  0  0  0  0  0  0  0
    4.0941   -2.0523   -0.5851 C   0  0  0  0  0  0  0  0  0  0  0  0
    3.6575   -3.4307   -0.2452 N   0  0  1  0  0  0  0  0  0  0  0  0
    4.7081   -4.4366   -0.3971 C   0  0  0  0  0  0  0  0  0  0  0  0
    5.2844   -4.6310    1.0028 C   0  0  0  0  0  0  0  0  0  0  0  0
    4.0568   -4.5207    1.9290 C   0  0  2  0  0  0  0  0  0  0  0  0
    4.4448   -4.0897    3.3697 C   0  0  0  0  0  0  0  0  0  0  0  0
    3.3010   -4.5727    4.2818 C   0  0  0  0  0  0  0  0  0  0  0  0
    2.6879   -5.8048    3.5994 C   0  0  2  0  0  0  0  0  0  0  0  0
    1.1413   -5.9450    3.8565 C   0  0  0  0  0  0  0  0  0  0  0  0
    0.7302   -7.1150    4.8616 C   0  0  0  0  0  0  0  0  0  0  0  0
    1.4078   -8.4401    4.6409 N   0  0  1  0  0  0  0  0  0  0  0  0
    0.5371   -9.5873    4.2980 C   0  0  0  0  0  0  0  0  0  0  0  0
    1.3712  -10.8372    3.9021 C   0  0  0  0  0  0  0  0  0  0  0  0
    2.4116  -10.5404    2.7830 C   0  0  0  0  0  0  0  0  0  0  0  0
    3.3208   -9.3903    3.2367 C   0  0  1  0  0  0  0  0  0  0  0  0
    4.2063   -8.6085    2.2062 C   0  0  0  0  0  0  0  0  0  0  0  0
    4.2382   -7.1178    2.6996 C   0  0  2  0  0  0  0  0  0  0  0  0
    3.3227   -7.1279    3.8757 C   0  0  2  0  0  0  0  0  0  0  0  0
    2.4191   -8.2727    3.6278 C   0  0  2  0  0  0  0  0  0  0  0  0
    3.3615   -5.8994    2.1921 C   0  0  2  0  0  0  0  0  0  0  0  0
    2.5042   -6.2247    1.1175 O   0  0  0  0  0  0  0  0  0  0  0  0
    3.1304   -3.5043    1.1458 C   0  0  1  0  0  0  0  0  0  0  0  0
    1.4042   -2.0115    2.8648 H   0  0  0  0  0  0  0  0  0  0  0  0
    2.1420   -0.4318    2.6467 H   0  0  0  0  0  0  0  0  0  0  0  0
    2.9410   -1.6204    3.6770 H   0  0  0  0  0  0  0  0  0  0  0  0
    3.5378   -0.1810    0.5423 H   0  0  0  0  0  0  0  0  0  0  0  0
    3.6895   -1.7110   -1.5289 H   0  0  0  0  0  0  0  0  0  0  0  0
    5.1752   -1.9195   -0.6003 H   0  0  0  0  0  0  0  0  0  0  0  0
    4.2501   -5.3653   -0.7145 H   0  0  0  0  0  0  0  0  0  0  0  0
    5.4629   -4.1821   -1.1368 H   0  0  0  0  0  0  0  0  0  0  0  0
    5.8385   -5.5762    1.0829 H   0  0  0  0  0  0  0  0  0  0  0  0
    5.9919   -3.8238    1.2057 H   0  0  0  0  0  0  0  0  0  0  0  0
    5.3503   -4.6294    3.6572 H   0  0  0  0  0  0  0  0  0  0  0  0
    4.6952   -3.0349    3.4833 H   0  0  0  0  0  0  0  0  0  0  0  0
    3.6677   -4.8036    5.2815 H   0  0  0  0  0  0  0  0  0  0  0  0
    2.5677   -3.7763    4.3869 H   0  0  0  0  0  0  0  0  0  0  0  0
    0.7116   -4.9993    4.2011 H   0  0  0  0  0  0  0  0  0  0  0  0
    0.6501   -6.1324    2.9032 H   0  0  0  0  0  0  0  0  0  0  0  0
    0.9928   -6.7853    5.8562 H   0  0  0  0  0  0  0  0  0  0  0  0
   -0.3508   -7.2219    4.8694 H   0  0  0  0  0  0  0  0  0  0  0  0
   -0.1273   -9.8412    5.1189 H   0  0  0  0  0  0  0  0  0  0  0  0
   -0.1097   -9.3378    3.4544 H   0  0  0  0  0  0  0  0  0  0  0  0
    1.8963  -11.2329    4.7801 H   0  0  0  0  0  0  0  0  0  0  0  0
    0.7116  -11.6455    3.5732 H   0  0  0  0  0  0  0  0  0  0  0  0
    3.0009  -11.4355    2.5613 H   0  0  0  0  0  0  0  0  0  0  0  0
    1.8905  -10.2568    1.8578 H   0  0  0  0  0  0  0  0  0  0  0  0
    3.9200   -9.7110    4.0944 H   0  0  0  0  0  0  0  0  0  0  0  0
    5.2066   -9.0455    2.1662 H   0  0  0  0  0  0  0  0  0  0  0  0
    3.7803   -8.6783    1.2025 H   0  0  0  0  0  0  0  0  0  0  0  0
    5.2270   -6.7969    3.0196 H   0  0  0  0  0  0  0  0  0  0  0  0
    3.8602   -7.1611    4.8198 H   0  0  0  0  0  0  0  0  0  0  0  0
    1.8431   -8.0959    2.7145 H   0  0  0  0  0  0  0  0  0  0  0  0
    3.0520   -6.3176    0.3590 H   0  0  0  0  0  0  0  0  0  0  0  0
    2.0818   -3.8151    1.1515 H   0  0  0  0  0  0  0  0  0  0  0  0
    2.8921   -3.6404   -0.8798 H   0  0  0  0  0  0  0  0  0  0  0  0
    1.8678   -8.6939    5.5140 H   0  0  0  0  0  0  0  0  0  0  0  0
  1  2  1  0
  1 26  1  0
  1 27  1  0
  1 28  1  0
  2 25  1  0
  2  3  2  0
  3  4  1  0
  3 29  1  0
  4  5  1  0
  4 30  1  0
  4 31  1  0
  5 25  1  0
  5  6  1  0
  5 58  1  6
  6  7  1  0
  6 32  1  0
  6 33  1  0
  8  7  1  6
  7 34  1  0
  7 35  1  0
  8 23  1  0
  8  9  1  0
  8 25  1  0
  9 10  1  0
  9 36  1  0
  9 37  1  0
 11 10  1  1
 10 38  1  0
 10 39  1  0
 11 21  1  0
 11 23  1  0
 11 12  1  0
 12 13  1  0
 12 40  1  0
 12 41  1  0
 13 14  1  0
 13 42  1  0
 13 43  1  0
 14 22  1  0
 14 15  1  0
 14 59  1  1
 15 16  1  0
 15 44  1  0
 15 45  1  0
 16 17  1  0
 16 46  1  0
 16 47  1  0
 17 18  1  0
 17 48  1  0
 17 49  1  0
 18 22  1  0
 18 19  1  0
 18 50  1  1
 19 20  1  0
 19 51  1  0
 19 52  1  0
 20 21  1  0
 20 23  1  0
 20 53  1  1
 21 22  1  0
 21 54  1  1
 22 55  1  6
 23 24  1  6
 24 56  1  0
 25 57  1  6
M  CHG  2   5   1  14   1
M  END
>  <i_m_ct_stereo_status>  (383) 
1

>  <s_m_source_file>  (383) 
/var/tmp/pbs.5083856.sched01/tmpq5ya_4u_/160jg8mjrpw.sdf

>  <i_m_source_file_index>  (383) 
2

>  <i_lp_mmshare_version>  (383) 
48012

>  <i_f3d_flags>  (383) 
0

>  <s_epik_input>  (383) 
W0NIM11DMT1bQ0hdW0NIMl1OKFtDSDJdW0NIMl0yKVtDQEhdMVtDQEBdMjNbQ0BdNChbT0hdKVtDQF01KFtDSDJdW0NIMl0zKVtDQEBIXTZbQ0hdNFtDSDJdW0NASF03W0NASF02TihbQ0gyXVtDSDJdNSlbQ0gyXVtDSDJdW0NIMl03

>  <s_epik_cmdline>  (383) 
J2VwaWtfcHl0aG9uJywgJy1waHQnLCAnMi4wJywgJy1waCcsICc3LjAnLCAnLXRuJywgJzgnLCAnLW1hJywgJzIwMCcsICctaW1hZScsICc8aW5maWxlLm1hZT4nLCAnLW9tYWUnLCAnPG91dGZpbGUubWFlPic=

>  <r_epik_Ionization_Penalty>  (383) 
0.000664475

>  <r_epik_Ionization_Penalty_Charging>  (383) 
0.000664415

>  <r_epik_Ionization_Penalty_Neutral>  (383) 
6.00534e-08

>  <r_epik_State_Penalty>  (383) 
0.00025852

>  <r_epik_Charging_Adjusted_Penalty>  (383) 
0.000922934

>  <i_epik_Tot_Q>  (383) 
2

>  <i_epik_Tot_abs_Q>  (383) 
2

>  <s_lp_Force_Field>  (383) 
OPLS3e

>  <r_lp_Energy>  (383) 
98.308

>  <b_lp_Chiralities_Consistent>  (383) 
1

>  <s_lp_Variant>  (383) 
114:0-1

>  <s_i_glide_gridfile>  (383) 
pfpi4k_grid

>  <i_i_glide_lignum>  (383) 
2

>  <i_i_glide_rotatable_bonds>  (383) 
1

>  <r_i_docking_score>  (383) 
-3.31135

>  <r_i_glide_ligand_efficiency>  (383) 
-0.132454

>  <r_i_glide_ligand_efficiency_sa>  (383) 
-0.387297

>  <r_i_glide_ligand_efficiency_ln>  (383) 
-0.784888

>  <r_i_glide_gscore>  (383) 
-3.31135

>  <r_i_glide_lipo>  (383) 
-0.160174

>  <r_i_glide_hbond>  (383) 
0

>  <r_i_glide_metal>  (383) 
-0

>  <r_i_glide_rewards>  (383) 
-1.07374

>  <r_i_glide_evdw>  (383) 
-22.7276

>  <r_i_glide_ecoul>  (383) 
-6.18181

>  <r_i_glide_erotb>  (383) 
0

>  <r_i_glide_esite>  (383) 
-0.0137813

>  <r_i_glide_emodel>  (383) 
-35.7858

>  <r_i_glide_energy>  (383) 
-28.9094

>  <r_i_glide_einternal>  (383) 
0.772123

>  <r_i_glide_intrahb_reward>  (383) 
-0

>  <i_i_glide_confnum>  (383) 
2

>  <i_i_glide_posenum>  (383) 
3

>  <r_i_glide_eff_state_penalty>  (383) 
0

>  <ligand_id>  (383) 
114

>  <original_smiles>  (383) 
CC1=CCN2CCC3(CCC45CCN6CCCC7CC(C4C76)C53O)C12

>  <smiles>  (383) 
[H]OC12C3([H])C([H])([H])C4([H])C([H])([H])C([H])([H])C([H])([H])[N+]5([H])C([H])([H])C([H])([H])C1(C([H])([H])C([H])([H])C21C([H])([H])C([H])([H])[N+]2([H])C([H])([H])C([H])=C(C([H])([H])[H])C12[H])C3([H])C45[H]

$$$$
114:0:2
     RDKit          3D

 59 65  0  0  1  0  0  0  0  0999 V2000
    2.2779   -2.2081    2.6562 C   0  0  0  0  0  0  0  0  0  0  0  0
    3.0231   -2.8092    1.4693 C   0  0  0  0  0  0  0  0  0  0  0  0
    3.4571   -2.1052    0.4383 C   0  0  0  0  0  0  0  0  0  0  0  0
    4.0039   -2.9611   -0.6517 C   0  0  0  0  0  0  0  0  0  0  0  0
    3.6035   -4.3219   -0.2084 N   0  0  1  0  0  0  0  0  0  0  0  0
    4.6782   -5.3124   -0.2918 C   0  0  0  0  0  0  0  0  0  0  0  0
    5.2649   -5.3905    1.1127 C   0  0  0  0  0  0  0  0  0  0  0  0
    4.0424   -5.2399    2.0398 C   0  0  2  0  0  0  0  0  0  0  0  0
    4.4252   -4.6985    3.4404 C   0  0  0  0  0  0  0  0  0  0  0  0
    3.2979   -5.1398    4.3933 C   0  0  0  0  0  0  0  0  0  0  0  0
    2.7114   -6.4318    3.8045 C   0  0  2  0  0  0  0  0  0  0  0  0
    1.1698   -6.5898    4.0827 C   0  0  0  0  0  0  0  0  0  0  0  0
    0.7921   -7.6909    5.1758 C   0  0  0  0  0  0  0  0  0  0  0  0
    1.5029   -9.0141    5.0515 N   0  0  1  0  0  0  0  0  0  0  0  0
    0.6582  -10.2034    4.7896 C   0  0  0  0  0  0  0  0  0  0  0  0
    1.5236  -11.4534    4.4721 C   0  0  0  0  0  0  0  0  0  0  0  0
    2.5507  -11.2235    3.3306 C   0  0  0  0  0  0  0  0  0  0  0  0
    3.4328  -10.0213    3.6977 C   0  0  1  0  0  0  0  0  0  0  0  0
    4.2920   -9.2913    2.6079 C   0  0  0  0  0  0  0  0  0  0  0  0
    4.2928   -7.7688    2.9942 C   0  0  2  0  0  0  0  0  0  0  0  0
    3.3834   -7.7146    4.1775 C   0  0  2  0  0  0  0  0  0  0  0  0
    2.5086   -8.8977    4.0192 C   0  0  2  0  0  0  0  0  0  0  0  0
    3.3864   -6.6114    2.4007 C   0  0  2  0  0  0  0  0  0  0  0  0
    2.5576   -7.0290    1.3378 O   0  0  0  0  0  0  0  0  0  0  0  0
    3.0844   -4.3048    1.1909 C   0  0  1  0  0  0  0  0  0  0  0  0
    1.3327   -2.7306    2.8105 H   0  0  0  0  0  0  0  0  0  0  0  0
    2.0290   -1.1547    2.4702 H   0  0  0  0  0  0  0  0  0  0  0  0
    2.8648   -2.2450    3.5753 H   0  0  0  0  0  0  0  0  0  0  0  0
    3.3940   -1.0262    0.3342 H   0  0  0  0  0  0  0  0  0  0  0  0
    3.5896   -2.7053   -1.6196 H   0  0  0  0  0  0  0  0  0  0  0  0
    5.0813   -2.8040   -0.6836 H   0  0  0  0  0  0  0  0  0  0  0  0
    4.2396   -6.2701   -0.5480 H   0  0  0  0  0  0  0  0  0  0  0  0
    5.4159   -5.0845   -1.0543 H   0  0  0  0  0  0  0  0  0  0  0  0
    5.8420   -6.3126    1.2564 H   0  0  0  0  0  0  0  0  0  0  0  0
    5.9504   -4.5524    1.2504 H   0  0  0  0  0  0  0  0  0  0  0  0
    5.3462   -5.1930    3.7574 H   0  0  0  0  0  0  0  0  0  0  0  0
    4.6507   -3.6335    3.4710 H   0  0  0  0  0  0  0  0  0  0  0  0
    3.6775   -5.2852    5.4052 H   0  0  0  0  0  0  0  0  0  0  0  0
    2.5479   -4.3533    4.4444 H   0  0  0  0  0  0  0  0  0  0  0  0
    0.7193   -5.6324    4.3628 H   0  0  0  0  0  0  0  0  0  0  0  0
    0.6752   -6.8574    3.1505 H   0  0  0  0  0  0  0  0  0  0  0  0
    1.0544   -7.2839    6.1433 H   0  0  0  0  0  0  0  0  0  0  0  0
   -0.2867   -7.8257    5.2000 H   0  0  0  0  0  0  0  0  0  0  0  0
    0.0193  -10.4123    5.6427 H   0  0  0  0  0  0  0  0  0  0  0  0
   -0.0067  -10.0264    3.9417 H   0  0  0  0  0  0  0  0  0  0  0  0
    2.0699  -11.7697    5.3676 H   0  0  0  0  0  0  0  0  0  0  0  0
    0.8761  -12.2946    4.2143 H   0  0  0  0  0  0  0  0  0  0  0  0
    3.1573  -12.1187    3.1695 H   0  0  0  0  0  0  0  0  0  0  0  0
    2.0069  -11.0261    2.4040 H   0  0  0  0  0  0  0  0  0  0  0  0
    4.0443  -10.2638    4.5715 H   0  0  0  0  0  0  0  0  0  0  0  0
    5.3035   -9.7047    2.5932 H   0  0  0  0  0  0  0  0  0  0  0  0
    3.8691   -9.4445    1.6130 H   0  0  0  0  0  0  0  0  0  0  0  0
    5.2747   -7.4020    3.2769 H   0  0  0  0  0  0  0  0  0  0  0  0
    3.9261   -7.6690    5.1200 H   0  0  0  0  0  0  0  0  0  0  0  0
    1.9170   -8.8028    3.1053 H   0  0  0  0  0  0  0  0  0  0  0  0
    2.2379   -7.8836    1.5591 H   0  0  0  0  0  0  0  0  0  0  0  0
    2.0446   -4.6428    1.2188 H   0  0  0  0  0  0  0  0  0  0  0  0
    2.8577   -4.6151   -0.8307 H   0  0  0  0  0  0  0  0  0  0  0  0
    1.9693   -9.1980    5.9366 H   0  0  0  0  0  0  0  0  0  0  0  0
  1  2  1  0
  1 26  1  0
  1 27  1  0
  1 28  1  0
  2 25  1  0
  2  3  2  0
  3  4  1  0
  3 29  1  0
  4  5  1  0
  4 30  1  0
  4 31  1  0
  5 25  1  0
  5  6  1  0
  5 58  1  6
  6  7  1  0
  6 32  1  0
  6 33  1  0
  8  7  1  6
  7 34  1  0
  7 35  1  0
  8 23  1  0
  8  9  1  0
  8 25  1  0
  9 10  1  0
  9 36  1  0
  9 37  1  0
 11 10  1  1
 10 38  1  0
 10 39  1  0
 11 21  1  0
 11 23  1  0
 11 12  1  0
 12 13  1  0
 12 40  1  0
 12 41  1  0
 13 14  1  0
 13 42  1  0
 13 43  1  0
 14 22  1  0
 14 15  1  0
 14 59  1  1
 15 16  1  0
 15 44  1  0
 15 45  1  0
 16 17  1  0
 16 46  1  0
 16 47  1  0
 17 18  1  0
 17 48  1  0
 17 49  1  0
 18 22  1  0
 18 19  1  0
 18 50  1  1
 19 20  1  0
 19 51  1  0
 19 52  1  0
 20 21  1  0
 20 23  1  0
 20 53  1  1
 21 22  1  0
 21 54  1  1
 22 55  1  6
 23 24  1  6
 24 56  1  0
 25 57  1  6
M  CHG  2   5   1  14   1
M  END
>  <i_m_ct_stereo_status>  (384) 
1

>  <s_m_source_file>  (384) 
/var/tmp/pbs.5083856.sched01/tmpq5ya_4u_/160jg8mjrpw.sdf

>  <i_m_source_file_index>  (384) 
2

>  <i_lp_mmshare_version>  (384) 
48012

>  <i_f3d_flags>  (384) 
0

>  <s_epik_input>  (384) 
W0NIM11DMT1bQ0hdW0NIMl1OKFtDSDJdW0NIMl0yKVtDQEhdMVtDQEBdMjNbQ0BdNChbT0hdKVtDQF01KFtDSDJdW0NIMl0zKVtDQEBIXTZbQ0hdNFtDSDJdW0NASF03W0NASF02TihbQ0gyXVtDSDJdNSlbQ0gyXVtDSDJdW0NIMl03

>  <s_epik_cmdline>  (384) 
J2VwaWtfcHl0aG9uJywgJy1waHQnLCAnMi4wJywgJy1waCcsICc3LjAnLCAnLXRuJywgJzgnLCAnLW1hJywgJzIwMCcsICctaW1hZScsICc8aW5maWxlLm1hZT4nLCAnLW9tYWUnLCAnPG91dGZpbGUubWFlPic=

>  <r_epik_Ionization_Penalty>  (384) 
0.000664475

>  <r_epik_Ionization_Penalty_Charging>  (384) 
0.000664415

>  <r_epik_Ionization_Penalty_Neutral>  (384) 
6.00534e-08

>  <r_epik_State_Penalty>  (384) 
0.00025852

>  <r_epik_Charging_Adjusted_Penalty>  (384) 
0.000922934

>  <i_epik_Tot_Q>  (384) 
2

>  <i_epik_Tot_abs_Q>  (384) 
2

>  <s_lp_Force_Field>  (384) 
OPLS3e

>  <r_lp_Energy>  (384) 
98.308

>  <b_lp_Chiralities_Consistent>  (384) 
1

>  <s_lp_Variant>  (384) 
114:0-1

>  <s_i_glide_gridfile>  (384) 
pfpi4k_grid

>  <i_i_glide_lignum>  (384) 
2

>  <i_i_glide_rotatable_bonds>  (384) 
1

>  <r_i_docking_score>  (384) 
-3.27874

>  <r_i_glide_ligand_efficiency>  (384) 
-0.131149

>  <r_i_glide_ligand_efficiency_sa>  (384) 
-0.383483

>  <r_i_glide_ligand_efficiency_ln>  (384) 
-0.777159

>  <r_i_glide_gscore>  (384) 
-3.27874

>  <r_i_glide_lipo>  (384) 
-0.094361

>  <r_i_glide_hbond>  (384) 
0

>  <r_i_glide_metal>  (384) 
-0

>  <r_i_glide_rewards>  (384) 
-1.07374

>  <r_i_glide_evdw>  (384) 
-21.5809

>  <r_i_glide_ecoul>  (384) 
-6.56236

>  <r_i_glide_erotb>  (384) 
0

>  <r_i_glide_esite>  (384) 
-0.0472355

>  <r_i_glide_emodel>  (384) 
-35.2875

>  <r_i_glide_energy>  (384) 
-28.1433

>  <r_i_glide_einternal>  (384) 
0.0540645

>  <r_i_glide_intrahb_reward>  (384) 
-0

>  <i_i_glide_confnum>  (384) 
2

>  <i_i_glide_posenum>  (384) 
36

>  <r_i_glide_eff_state_penalty>  (384) 
0

>  <ligand_id>  (384) 
114

>  <original_smiles>  (384) 
CC1=CCN2CCC3(CCC45CCN6CCCC7CC(C4C76)C53O)C12

>  <smiles>  (384) 
[H]OC12C3([H])C([H])([H])C4([H])C([H])([H])C([H])([H])C([H])([H])[N+]5([H])C([H])([H])C([H])([H])C1(C([H])([H])C([H])([H])C21C([H])([H])C([H])([H])[N+]2([H])C([H])([H])C([H])=C(C([H])([H])[H])C12[H])C3([H])C45[H]

$$$$
116:0:0
     RDKit          3D

 57 60  0  0  1  0  0  0  0  0999 V2000
    6.0197    1.7121    6.4584 C   0  0  0  0  0  0  0  0  0  0  0  0
    5.5266    0.6193    5.7010 O   0  0  0  0  0  0  0  0  0  0  0  0
    4.1929    0.4266    5.6173 C   0  0  0  0  0  0  0  0  0  0  0  0
    3.3674    1.1845    6.1255 O   0  0  0  0  0  0  0  0  0  0  0  0
    3.7902   -0.8254    4.7665 C   0  0  1  0  0  0  0  0  0  0  0  0
    4.7802   -1.8142    4.9882 O   0  0  0  0  0  0  0  0  0  0  0  0
    2.4418   -1.5470    5.1187 C   0  0  1  0  0  0  0  0  0  0  0  0
    1.3529   -0.7978    5.9238 C   0  0  0  0  0  0  0  0  0  0  0  0
    1.8683   -2.0551    3.7778 C   0  0  0  0  0  0  0  0  0  0  0  0
    2.8646   -1.7310    2.6383 C   0  0  2  0  0  0  0  0  0  0  0  0
    3.6861   -2.9664    2.1470 C   0  0  1  0  0  0  0  0  0  0  0  0
    2.8143   -4.0876    1.5329 C   0  0  0  0  0  0  0  0  0  0  0  0
    2.6333   -3.9764    0.0361 C   0  0  0  0  0  0  0  0  0  0  0  0
    3.3421   -3.1829   -0.7805 C   0  0  0  0  0  0  0  0  0  0  0  0
    3.0519   -3.1518   -2.2813 C   0  0  0  0  0  0  0  0  0  0  0  0
    4.3177   -3.3723   -3.1154 C   0  0  0  0  0  0  0  0  0  0  0  0
    4.2162   -3.7568   -4.2770 O   0  0  0  0  0  0  0  0  0  0  0  0
    5.6130   -3.0647   -2.4953 C   0  0  0  0  0  0  0  0  0  0  0  0
    5.6966   -2.5803   -1.2396 C   0  0  0  0  0  0  0  0  0  0  0  0
    4.5142   -2.3094   -0.2951 C   0  0  1  0  0  0  0  0  0  0  0  0
    4.1228   -0.8470   -0.5336 C   0  0  0  0  0  0  0  0  0  0  0  0
    4.8880   -2.6243    1.2209 C   0  0  2  0  0  0  0  0  0  0  0  0
    5.5914   -3.7623    1.1909 F   0  0  0  0  0  0  0  0  0  0  0  0
    5.7906   -1.6121    1.9856 C   0  0  1  0  0  0  0  0  0  0  0  0
    6.8892   -1.1664    1.2132 O   0  0  0  0  0  0  0  0  0  0  0  0
    5.0701   -0.3545    2.5062 C   0  0  0  0  0  0  0  0  0  0  0  0
    3.7009   -0.5484    3.2197 C   0  0  2  0  0  0  0  0  0  0  0  0
    2.8962    0.7552    2.9449 C   0  0  0  0  0  0  0  0  0  0  0  0
    7.1079    1.7525    6.3904 H   0  0  0  0  0  0  0  0  0  0  0  0
    5.7398    1.6080    7.5083 H   0  0  0  0  0  0  0  0  0  0  0  0
    5.6151    2.6543    6.0836 H   0  0  0  0  0  0  0  0  0  0  0  0
    4.5403   -2.5913    4.4994 H   0  0  0  0  0  0  0  0  0  0  0  0
    2.6623   -2.4302    5.7224 H   0  0  0  0  0  0  0  0  0  0  0  0
    1.0372    0.1254    5.4370 H   0  0  0  0  0  0  0  0  0  0  0  0
    1.7010   -0.5483    6.9265 H   0  0  0  0  0  0  0  0  0  0  0  0
    0.4611   -1.4128    6.0541 H   0  0  0  0  0  0  0  0  0  0  0  0
    1.6265   -3.1142    3.8542 H   0  0  0  0  0  0  0  0  0  0  0  0
    0.9250   -1.5513    3.5606 H   0  0  0  0  0  0  0  0  0  0  0  0
    2.2810   -1.3939    1.7794 H   0  0  0  0  0  0  0  0  0  0  0  0
    4.1071   -3.4102    3.0482 H   0  0  0  0  0  0  0  0  0  0  0  0
    3.2715   -5.0578    1.7323 H   0  0  0  0  0  0  0  0  0  0  0  0
    1.8230   -4.1167    1.9817 H   0  0  0  0  0  0  0  0  0  0  0  0
    1.8640   -4.6068   -0.3856 H   0  0  0  0  0  0  0  0  0  0  0  0
    2.3328   -3.9347   -2.5192 H   0  0  0  0  0  0  0  0  0  0  0  0
    2.5750   -2.2148   -2.5630 H   0  0  0  0  0  0  0  0  0  0  0  0
    6.5039   -3.2200   -3.0874 H   0  0  0  0  0  0  0  0  0  0  0  0
    6.6795   -2.3573   -0.8560 H   0  0  0  0  0  0  0  0  0  0  0  0
    3.8069   -0.6705   -1.5621 H   0  0  0  0  0  0  0  0  0  0  0  0
    4.9655   -0.1825   -0.3769 H   0  0  0  0  0  0  0  0  0  0  0  0
    3.2920   -0.5313    0.0903 H   0  0  0  0  0  0  0  0  0  0  0  0
    6.2094   -2.1304    2.8490 H   0  0  0  0  0  0  0  0  0  0  0  0
    7.3408   -0.4706    1.6808 H   0  0  0  0  0  0  0  0  0  0  0  0
    5.7540    0.1724    3.1667 H   0  0  0  0  0  0  0  0  0  0  0  0
    4.9374    0.3307    1.6722 H   0  0  0  0  0  0  0  0  0  0  0  0
    2.7024    0.8831    1.8778 H   0  0  0  0  0  0  0  0  0  0  0  0
    3.4378    1.6467    3.2680 H   0  0  0  0  0  0  0  0  0  0  0  0
    1.9279    0.7588    3.4442 H   0  0  0  0  0  0  0  0  0  0  0  0
  1  2  1  0
  1 29  1  0
  1 30  1  0
  1 31  1  0
  2  3  1  0
  3  4  2  0
  3  5  1  0
  5 27  1  0
  5  6  1  6
  5  7  1  0
  6 32  1  0
  7  8  1  0
  7  9  1  0
  7 33  1  1
  8 34  1  0
  8 35  1  0
  8 36  1  0
  9 10  1  0
  9 37  1  0
  9 38  1  0
 10 27  1  0
 10 11  1  0
 10 39  1  6
 11 22  1  0
 11 12  1  0
 11 40  1  1
 12 13  1  0
 12 41  1  0
 12 42  1  0
 13 14  2  0
 13 43  1  0
 14 20  1  0
 14 15  1  0
 15 16  1  0
 15 44  1  0
 15 45  1  0
 16 17  2  0
 16 18  1  0
 18 19  2  0
 18 46  1  0
 19 20  1  0
 19 47  1  0
 20 21  1  1
 20 22  1  0
 21 48  1  0
 21 49  1  0
 21 50  1  0
 22 23  1  6
 22 24  1  0
 24 25  1  0
 24 26  1  0
 24 51  1  1
 25 52  1  0
 26 27  1  0
 26 53  1  0
 26 54  1  0
 27 28  1  1
 28 55  1  0
 28 56  1  0
 28 57  1  0
M  END
>  <i_m_ct_stereo_status>  (385) 
1

>  <s_m_source_file>  (385) 
/var/tmp/pbs.5083856.sched01/tmpq5ya_4u_/160jg8mjrpw.sdf

>  <i_m_source_file_index>  (385) 
5

>  <i_lp_mmshare_version>  (385) 
48012

>  <i_f3d_flags>  (385) 
0

>  <s_epik_input>  (385) 
W0NIM11PQyg9TylbQ0BAXShbT0hdKShbQ0BASF0oW0NIM10pW0NIMl0xKVtDQEBdKFtDSDNdKShbQ0gyXVtDQEBIXShbQ0BAXTIzRilbT0hdKVtDQEhdMVtDQEhdMltDSDJdW0NIXT1DKFtDQEBdMzRbQ0gzXSlbQ0gyXUMoPU8pW0NIXT1bQ0hdNA==

>  <s_epik_cmdline>  (385) 
J2VwaWtfcHl0aG9uJywgJy1waHQnLCAnMi4wJywgJy1waCcsICc3LjAnLCAnLXRuJywgJzgnLCAnLW1hJywgJzIwMCcsICctaW1hZScsICc8aW5maWxlLm1hZT4nLCAnLW9tYWUnLCAnPG91dGZpbGUubWFlPic=

>  <r_lp_tautomer_probability>  (385) 
1

>  <r_epik_Ionization_Penalty>  (385) 
8.86694e-07

>  <r_epik_Ionization_Penalty_Charging>  (385) 
0

>  <r_epik_Ionization_Penalty_Neutral>  (385) 
8.86694e-07

>  <r_epik_State_Penalty>  (385) 
-0

>  <r_epik_Charging_Adjusted_Penalty>  (385) 
0

>  <i_epik_Tot_Q>  (385) 
0

>  <i_epik_Tot_abs_Q>  (385) 
0

>  <s_epik_Chemistry_Notes>  (385) 
This compound has an ester and may undergo hydrolysis at high or low pH.

>  <s_lp_Force_Field>  (385) 
OPLS3e

>  <r_lp_Energy>  (385) 
63.0836

>  <b_lp_Chiralities_Consistent>  (385) 
1

>  <s_lp_Variant>  (385) 
116:0-1

>  <s_i_glide_gridfile>  (385) 
pfpi4k_grid

>  <i_i_glide_lignum>  (385) 
5

>  <i_i_glide_rotatable_bonds>  (385) 
4

>  <r_i_docking_score>  (385) 
-4.00319

>  <r_i_glide_ligand_efficiency>  (385) 
-0.142971

>  <r_i_glide_ligand_efficiency_sa>  (385) 
-0.434144

>  <r_i_glide_ligand_efficiency_ln>  (385) 
-0.924053

>  <r_i_glide_gscore>  (385) 
-4.00319

>  <r_i_glide_lipo>  (385) 
-0.605133

>  <r_i_glide_hbond>  (385) 
-0.371863

>  <r_i_glide_metal>  (385) 
-0

>  <r_i_glide_rewards>  (385) 
-0.929125

>  <r_i_glide_evdw>  (385) 
-26.9691

>  <r_i_glide_ecoul>  (385) 
-5.83586

>  <r_i_glide_erotb>  (385) 
0.126764

>  <r_i_glide_esite>  (385) 
0

>  <r_i_glide_emodel>  (385) 
-38.8168

>  <r_i_glide_energy>  (385) 
-32.8049

>  <r_i_glide_einternal>  (385) 
2.7087

>  <r_i_glide_intrahb_reward>  (385) 
-0

>  <i_i_glide_confnum>  (385) 
1

>  <i_i_glide_posenum>  (385) 
6

>  <r_i_glide_eff_state_penalty>  (385) 
0

>  <ligand_id>  (385) 
116

>  <original_smiles>  (385) 
COC(=O)C1(O)C(C)CC2C3CC=C4CC(=O)C=CC4(C)C3(F)C(O)CC21C

>  <smiles>  (385) 
[H]OC1([H])C([H])([H])C2(C([H])([H])[H])C(O[H])(C(=O)OC([H])([H])[H])C([H])(C([H])([H])[H])C([H])([H])C2([H])C2([H])C([H])([H])C([H])=C3C([H])([H])C(=O)C([H])=C([H])C3(C([H])([H])[H])C12F

$$$$
116:0:1
     RDKit          3D

 57 60  0  0  1  0  0  0  0  0999 V2000
    3.4332    2.7828    6.1814 C   0  0  0  0  0  0  0  0  0  0  0  0
    3.1978    1.5662    5.4982 O   0  0  0  0  0  0  0  0  0  0  0  0
    4.1102    0.5808    5.5288 C   0  0  0  0  0  0  0  0  0  0  0  0
    5.1612    0.6402    6.1734 O   0  0  0  0  0  0  0  0  0  0  0  0
    3.7410   -0.6670    4.6634 C   0  0  1  0  0  0  0  0  0  0  0  0
    4.7273   -1.6538    4.9184 O   0  0  0  0  0  0  0  0  0  0  0  0
    2.3929   -1.3818    5.0141 C   0  0  1  0  0  0  0  0  0  0  0  0
    1.2984   -0.5946    5.7765 C   0  0  0  0  0  0  0  0  0  0  0  0
    1.8408   -1.9260    3.6787 C   0  0  0  0  0  0  0  0  0  0  0  0
    2.8603   -1.6364    2.5475 C   0  0  2  0  0  0  0  0  0  0  0  0
    3.6943   -2.8827    2.1084 C   0  0  1  0  0  0  0  0  0  0  0  0
    2.8368   -4.0185    1.5086 C   0  0  0  0  0  0  0  0  0  0  0  0
    2.6873   -3.9496    0.0040 C   0  0  0  0  0  0  0  0  0  0  0  0
    3.4110   -3.1763   -0.8157 C   0  0  0  0  0  0  0  0  0  0  0  0
    3.1532   -3.1861   -2.3235 C   0  0  0  0  0  0  0  0  0  0  0  0
    4.4369   -3.4353   -3.1186 C   0  0  0  0  0  0  0  0  0  0  0  0
    4.3607   -3.8557   -4.2698 O   0  0  0  0  0  0  0  0  0  0  0  0
    5.7153   -3.1040   -2.4861 C   0  0  0  0  0  0  0  0  0  0  0  0
    5.7755   -2.5876   -1.2404 C   0  0  0  0  0  0  0  0  0  0  0  0
    4.5722   -2.2939   -0.3321 C   0  0  1  0  0  0  0  0  0  0  0  0
    4.1913   -0.8397   -0.6171 C   0  0  0  0  0  0  0  0  0  0  0  0
    4.9156   -2.5649    1.1989 C   0  0  2  0  0  0  0  0  0  0  0  0
    5.6190   -3.7030    1.2149 F   0  0  0  0  0  0  0  0  0  0  0  0
    5.7997   -1.5309    1.9552 C   0  0  1  0  0  0  0  0  0  0  0  0
    6.9131   -1.0995    1.1929 O   0  0  0  0  0  0  0  0  0  0  0  0
    5.0702   -0.2642    2.4310 C   0  0  0  0  0  0  0  0  0  0  0  0
    3.6812   -0.4338    3.1037 C   0  0  2  0  0  0  0  0  0  0  0  0
    2.8818    0.8520    2.7417 C   0  0  0  0  0  0  0  0  0  0  0  0
    2.5858    3.4502    6.0197 H   0  0  0  0  0  0  0  0  0  0  0  0
    4.3314    3.2774    5.8068 H   0  0  0  0  0  0  0  0  0  0  0  0
    3.5382    2.6141    7.2540 H   0  0  0  0  0  0  0  0  0  0  0  0
    4.4871   -2.4398    4.4476 H   0  0  0  0  0  0  0  0  0  0  0  0
    2.5992   -2.2454    5.6506 H   0  0  0  0  0  0  0  0  0  0  0  0
    0.9790    0.3044    5.2462 H   0  0  0  0  0  0  0  0  0  0  0  0
    1.6441   -0.2921    6.7666 H   0  0  0  0  0  0  0  0  0  0  0  0
    0.4049   -1.2041    5.9259 H   0  0  0  0  0  0  0  0  0  0  0  0
    1.5966   -2.9819    3.7769 H   0  0  0  0  0  0  0  0  0  0  0  0
    0.9035   -1.4238    3.4263 H   0  0  0  0  0  0  0  0  0  0  0  0
    2.2928   -1.3268    1.6657 H   0  0  0  0  0  0  0  0  0  0  0  0
    4.0964   -3.3003    3.0306 H   0  0  0  0  0  0  0  0  0  0  0  0
    3.2883   -4.9840    1.7441 H   0  0  0  0  0  0  0  0  0  0  0  0
    1.8359   -4.0350    1.9361 H   0  0  0  0  0  0  0  0  0  0  0  0
    1.9256   -4.5932   -0.4149 H   0  0  0  0  0  0  0  0  0  0  0  0
    2.4327   -3.9695   -2.5540 H   0  0  0  0  0  0  0  0  0  0  0  0
    2.6856   -2.2577   -2.6433 H   0  0  0  0  0  0  0  0  0  0  0  0
    6.6128   -3.2741   -3.0592 H   0  0  0  0  0  0  0  0  0  0  0  0
    6.7512   -2.3527   -0.8447 H   0  0  0  0  0  0  0  0  0  0  0  0
    3.8931   -0.6896   -1.6568 H   0  0  0  0  0  0  0  0  0  0  0  0
    5.0335   -0.1749   -0.4596 H   0  0  0  0  0  0  0  0  0  0  0  0
    3.3514   -0.5129   -0.0113 H   0  0  0  0  0  0  0  0  0  0  0  0
    6.1987   -2.0291    2.8391 H   0  0  0  0  0  0  0  0  0  0  0  0
    7.3754   -0.4200    1.6727 H   0  0  0  0  0  0  0  0  0  0  0  0
    5.7292    0.2742    3.1104 H   0  0  0  0  0  0  0  0  0  0  0  0
    4.9620    0.4021    1.5784 H   0  0  0  0  0  0  0  0  0  0  0  0
    2.7056    0.9356    1.6670 H   0  0  0  0  0  0  0  0  0  0  0  0
    3.4194    1.7586    3.0213 H   0  0  0  0  0  0  0  0  0  0  0  0
    1.9061    0.8824    3.2271 H   0  0  0  0  0  0  0  0  0  0  0  0
  1  2  1  0
  1 29  1  0
  1 30  1  0
  1 31  1  0
  2  3  1  0
  3  4  2  0
  3  5  1  0
  5 27  1  0
  5  6  1  6
  5  7  1  0
  6 32  1  0
  7  8  1  0
  7  9  1  0
  7 33  1  1
  8 34  1  0
  8 35  1  0
  8 36  1  0
  9 10  1  0
  9 37  1  0
  9 38  1  0
 10 27  1  0
 10 11  1  0
 10 39  1  6
 11 22  1  0
 11 12  1  0
 11 40  1  1
 12 13  1  0
 12 41  1  0
 12 42  1  0
 13 14  2  0
 13 43  1  0
 14 20  1  0
 14 15  1  0
 15 16  1  0
 15 44  1  0
 15 45  1  0
 16 17  2  0
 16 18  1  0
 18 19  2  0
 18 46  1  0
 19 20  1  0
 19 47  1  0
 20 21  1  1
 20 22  1  0
 21 48  1  0
 21 49  1  0
 21 50  1  0
 22 23  1  6
 22 24  1  0
 24 25  1  0
 24 26  1  0
 24 51  1  1
 25 52  1  0
 26 27  1  0
 26 53  1  0
 26 54  1  0
 27 28  1  1
 28 55  1  0
 28 56  1  0
 28 57  1  0
M  END
>  <i_m_ct_stereo_status>  (386) 
1

>  <s_m_source_file>  (386) 
/var/tmp/pbs.5083856.sched01/tmpq5ya_4u_/160jg8mjrpw.sdf

>  <i_m_source_file_index>  (386) 
5

>  <i_lp_mmshare_version>  (386) 
48012

>  <i_f3d_flags>  (386) 
0

>  <s_epik_input>  (386) 
W0NIM11PQyg9TylbQ0BAXShbT0hdKShbQ0BASF0oW0NIM10pW0NIMl0xKVtDQEBdKFtDSDNdKShbQ0gyXVtDQEBIXShbQ0BAXTIzRilbT0hdKVtDQEhdMVtDQEhdMltDSDJdW0NIXT1DKFtDQEBdMzRbQ0gzXSlbQ0gyXUMoPU8pW0NIXT1bQ0hdNA==

>  <s_epik_cmdline>  (386) 
J2VwaWtfcHl0aG9uJywgJy1waHQnLCAnMi4wJywgJy1waCcsICc3LjAnLCAnLXRuJywgJzgnLCAnLW1hJywgJzIwMCcsICctaW1hZScsICc8aW5maWxlLm1hZT4nLCAnLW9tYWUnLCAnPG91dGZpbGUubWFlPic=

>  <r_lp_tautomer_probability>  (386) 
1

>  <r_epik_Ionization_Penalty>  (386) 
8.86694e-07

>  <r_epik_Ionization_Penalty_Charging>  (386) 
0

>  <r_epik_Ionization_Penalty_Neutral>  (386) 
8.86694e-07

>  <r_epik_State_Penalty>  (386) 
-0

>  <r_epik_Charging_Adjusted_Penalty>  (386) 
0

>  <i_epik_Tot_Q>  (386) 
0

>  <i_epik_Tot_abs_Q>  (386) 
0

>  <s_epik_Chemistry_Notes>  (386) 
This compound has an ester and may undergo hydrolysis at high or low pH.

>  <s_lp_Force_Field>  (386) 
OPLS3e

>  <r_lp_Energy>  (386) 
63.0836

>  <b_lp_Chiralities_Consistent>  (386) 
1

>  <s_lp_Variant>  (386) 
116:0-1

>  <s_i_glide_gridfile>  (386) 
pfpi4k_grid

>  <i_i_glide_lignum>  (386) 
5

>  <i_i_glide_rotatable_bonds>  (386) 
4

>  <r_i_docking_score>  (386) 
-3.98582

>  <r_i_glide_ligand_efficiency>  (386) 
-0.142351

>  <r_i_glide_ligand_efficiency_sa>  (386) 
-0.432261

>  <r_i_glide_ligand_efficiency_ln>  (386) 
-0.920044

>  <r_i_glide_gscore>  (386) 
-3.98582

>  <r_i_glide_lipo>  (386) 
-0.568096

>  <r_i_glide_hbond>  (386) 
-0.339101

>  <r_i_glide_metal>  (386) 
-0

>  <r_i_glide_rewards>  (386) 
-0.935865

>  <r_i_glide_evdw>  (386) 
-26.383

>  <r_i_glide_ecoul>  (386) 
-6.33581

>  <r_i_glide_erotb>  (386) 
0.126764

>  <r_i_glide_esite>  (386) 
0

>  <r_i_glide_emodel>  (386) 
-39.7235

>  <r_i_glide_energy>  (386) 
-32.7188

>  <r_i_glide_einternal>  (386) 
0.663792

>  <r_i_glide_intrahb_reward>  (386) 
-0

>  <i_i_glide_confnum>  (386) 
2

>  <i_i_glide_posenum>  (386) 
7

>  <r_i_glide_eff_state_penalty>  (386) 
0

>  <ligand_id>  (386) 
116

>  <original_smiles>  (386) 
COC(=O)C1(O)C(C)CC2C3CC=C4CC(=O)C=CC4(C)C3(F)C(O)CC21C

>  <smiles>  (386) 
[H]OC1([H])C([H])([H])C2(C([H])([H])[H])C(O[H])(C(=O)OC([H])([H])[H])C([H])(C([H])([H])[H])C([H])([H])C2([H])C2([H])C([H])([H])C([H])=C3C([H])([H])C(=O)C([H])=C([H])C3(C([H])([H])[H])C12F

$$$$
116:0:2
     RDKit          3D

 57 60  0  0  1  0  0  0  0  0999 V2000
    3.2158    1.0294    7.4624 C   0  0  0  0  0  0  0  0  0  0  0  0
    3.0849   -0.0429    6.5493 O   0  0  0  0  0  0  0  0  0  0  0  0
    4.1392   -0.8238    6.2578 C   0  0  0  0  0  0  0  0  0  0  0  0
    5.2518   -0.6927    6.7710 O   0  0  0  0  0  0  0  0  0  0  0  0
    3.8467   -1.9243    5.1856 C   0  0  1  0  0  0  0  0  0  0  0  0
    5.0013   -2.7438    5.1113 O   0  0  0  0  0  0  0  0  0  0  0  0
    2.6884   -2.9237    5.5169 C   0  0  1  0  0  0  0  0  0  0  0  0
    1.6097   -2.5158    6.5499 C   0  0  0  0  0  0  0  0  0  0  0  0
    2.0403   -3.2829    4.1626 C   0  0  0  0  0  0  0  0  0  0  0  0
    2.8285   -2.5963    3.0190 C   0  0  2  0  0  0  0  0  0  0  0  0
    3.7686   -3.5629    2.2325 C   0  0  1  0  0  0  0  0  0  0  0  0
    3.0118   -4.6948    1.4981 C   0  0  0  0  0  0  0  0  0  0  0  0
    2.6341   -4.3640    0.0756 C   0  0  0  0  0  0  0  0  0  0  0  0
    3.1056   -3.3300   -0.6368 C   0  0  0  0  0  0  0  0  0  0  0  0
    2.6458   -3.1150   -2.0820 C   0  0  0  0  0  0  0  0  0  0  0  0
    3.8239   -2.9500   -3.0343 C   0  0  0  0  0  0  0  0  0  0  0  0
    3.6529   -3.1242   -4.2406 O   0  0  0  0  0  0  0  0  0  0  0  0
    5.1100   -2.5327   -2.4822 C   0  0  0  0  0  0  0  0  0  0  0  0
    5.2622   -2.2499   -1.1750 C   0  0  0  0  0  0  0  0  0  0  0  0
    4.1750   -2.3571   -0.0955 C   0  0  1  0  0  0  0  0  0  0  0  0
    3.5364   -0.9671   -0.0063 C   0  0  0  0  0  0  0  0  0  0  0  0
    4.7815   -2.8573    1.2866 C   0  0  2  0  0  0  0  0  0  0  0  0
    5.6447   -3.8315    0.9746 F   0  0  0  0  0  0  0  0  0  0  0  0
    5.6040   -1.8475    2.1457 C   0  0  1  0  0  0  0  0  0  0  0  0
    6.5475   -1.1122    1.3865 O   0  0  0  0  0  0  0  0  0  0  0  0
    4.7658   -0.8405    2.9615 C   0  0  0  0  0  0  0  0  0  0  0  0
    3.5296   -1.3961    3.7305 C   0  0  2  0  0  0  0  0  0  0  0  0
    2.5000   -0.2306    3.7506 C   0  0  0  0  0  0  0  0  0  0  0  0
    2.2567    1.5402    7.5483 H   0  0  0  0  0  0  0  0  0  0  0  0
    3.9554    1.7528    7.1176 H   0  0  0  0  0  0  0  0  0  0  0  0
    3.5016    0.6647    8.4488 H   0  0  0  0  0  0  0  0  0  0  0  0
    4.8175   -3.4623    4.5211 H   0  0  0  0  0  0  0  0  0  0  0  0
    3.1143   -3.8449    5.9214 H   0  0  0  0  0  0  0  0  0  0  0  0
    1.0820   -1.6030    6.2699 H   0  0  0  0  0  0  0  0  0  0  0  0
    2.0454   -2.3599    7.5383 H   0  0  0  0  0  0  0  0  0  0  0  0
    0.8524   -3.2950    6.6607 H   0  0  0  0  0  0  0  0  0  0  0  0
    1.9797   -4.3655    4.0563 H   0  0  0  0  0  0  0  0  0  0  0  0
    1.0091   -2.9238    4.1335 H   0  0  0  0  0  0  0  0  0  0  0  0
    2.0995   -2.2278    2.2949 H   0  0  0  0  0  0  0  0  0  0  0  0
    4.3591   -4.0766    2.9887 H   0  0  0  0  0  0  0  0  0  0  0  0
    3.6341   -5.5889    1.4632 H   0  0  0  0  0  0  0  0  0  0  0  0
    2.0982   -4.9772    2.0157 H   0  0  0  0  0  0  0  0  0  0  0  0
    1.9357   -5.0445   -0.3908 H   0  0  0  0  0  0  0  0  0  0  0  0
    2.0435   -3.9621   -2.4098 H   0  0  0  0  0  0  0  0  0  0  0  0
    1.9995   -2.2464   -2.1554 H   0  0  0  0  0  0  0  0  0  0  0  0
    5.9347   -2.4378   -3.1657 H   0  0  0  0  0  0  0  0  0  0  0  0
    6.2352   -1.9230   -0.8472 H   0  0  0  0  0  0  0  0  0  0  0  0
    3.0774   -0.6939   -0.9553 H   0  0  0  0  0  0  0  0  0  0  0  0
    4.2727   -0.1896    0.1829 H   0  0  0  0  0  0  0  0  0  0  0  0
    2.7445   -0.9078    0.7328 H   0  0  0  0  0  0  0  0  0  0  0  0
    6.1841   -2.4362    2.8550 H   0  0  0  0  0  0  0  0  0  0  0  0
    7.0181   -0.5081    1.9521 H   0  0  0  0  0  0  0  0  0  0  0  0
    5.4233   -0.3349    3.6658 H   0  0  0  0  0  0  0  0  0  0  0  0
    4.4429   -0.0399    2.2992 H   0  0  0  0  0  0  0  0  0  0  0  0
    2.1557    0.0271    2.7476 H   0  0  0  0  0  0  0  0  0  0  0  0
    2.9353    0.6835    4.1580 H   0  0  0  0  0  0  0  0  0  0  0  0
    1.6138   -0.4753    4.3358 H   0  0  0  0  0  0  0  0  0  0  0  0
  1  2  1  0
  1 29  1  0
  1 30  1  0
  1 31  1  0
  2  3  1  0
  3  4  2  0
  3  5  1  0
  5 27  1  0
  5  6  1  6
  5  7  1  0
  6 32  1  0
  7  8  1  0
  7  9  1  0
  7 33  1  1
  8 34  1  0
  8 35  1  0
  8 36  1  0
  9 10  1  0
  9 37  1  0
  9 38  1  0
 10 27  1  0
 10 11  1  0
 10 39  1  6
 11 22  1  0
 11 12  1  0
 11 40  1  1
 12 13  1  0
 12 41  1  0
 12 42  1  0
 13 14  2  0
 13 43  1  0
 14 20  1  0
 14 15  1  0
 15 16  1  0
 15 44  1  0
 15 45  1  0
 16 17  2  0
 16 18  1  0
 18 19  2  0
 18 46  1  0
 19 20  1  0
 19 47  1  0
 20 21  1  1
 20 22  1  0
 21 48  1  0
 21 49  1  0
 21 50  1  0
 22 23  1  6
 22 24  1  0
 24 25  1  0
 24 26  1  0
 24 51  1  1
 25 52  1  0
 26 27  1  0
 26 53  1  0
 26 54  1  0
 27 28  1  1
 28 55  1  0
 28 56  1  0
 28 57  1  0
M  END
>  <i_m_ct_stereo_status>  (387) 
1

>  <s_m_source_file>  (387) 
/var/tmp/pbs.5083856.sched01/tmpq5ya_4u_/160jg8mjrpw.sdf

>  <i_m_source_file_index>  (387) 
5

>  <i_lp_mmshare_version>  (387) 
48012

>  <i_f3d_flags>  (387) 
0

>  <s_epik_input>  (387) 
W0NIM11PQyg9TylbQ0BAXShbT0hdKShbQ0BASF0oW0NIM10pW0NIMl0xKVtDQEBdKFtDSDNdKShbQ0gyXVtDQEBIXShbQ0BAXTIzRilbT0hdKVtDQEhdMVtDQEhdMltDSDJdW0NIXT1DKFtDQEBdMzRbQ0gzXSlbQ0gyXUMoPU8pW0NIXT1bQ0hdNA==

>  <s_epik_cmdline>  (387) 
J2VwaWtfcHl0aG9uJywgJy1waHQnLCAnMi4wJywgJy1waCcsICc3LjAnLCAnLXRuJywgJzgnLCAnLW1hJywgJzIwMCcsICctaW1hZScsICc8aW5maWxlLm1hZT4nLCAnLW9tYWUnLCAnPG91dGZpbGUubWFlPic=

>  <r_lp_tautomer_probability>  (387) 
1

>  <r_epik_Ionization_Penalty>  (387) 
8.86694e-07

>  <r_epik_Ionization_Penalty_Charging>  (387) 
0

>  <r_epik_Ionization_Penalty_Neutral>  (387) 
8.86694e-07

>  <r_epik_State_Penalty>  (387) 
-0

>  <r_epik_Charging_Adjusted_Penalty>  (387) 
0

>  <i_epik_Tot_Q>  (387) 
0

>  <i_epik_Tot_abs_Q>  (387) 
0

>  <s_epik_Chemistry_Notes>  (387) 
This compound has an ester and may undergo hydrolysis at high or low pH.

>  <s_lp_Force_Field>  (387) 
OPLS3e

>  <r_lp_Energy>  (387) 
63.0836

>  <b_lp_Chiralities_Consistent>  (387) 
1

>  <s_lp_Variant>  (387) 
116:0-1

>  <s_i_glide_gridfile>  (387) 
pfpi4k_grid

>  <i_i_glide_lignum>  (387) 
5

>  <i_i_glide_rotatable_bonds>  (387) 
4

>  <r_i_docking_score>  (387) 
-3.57923

>  <r_i_glide_ligand_efficiency>  (387) 
-0.12783

>  <r_i_glide_ligand_efficiency_sa>  (387) 
-0.388166

>  <r_i_glide_ligand_efficiency_ln>  (387) 
-0.826192

>  <r_i_glide_gscore>  (387) 
-3.57923

>  <r_i_glide_lipo>  (387) 
-0.464711

>  <r_i_glide_hbond>  (387) 
-0.446958

>  <r_i_glide_metal>  (387) 
-0

>  <r_i_glide_rewards>  (387) 
-0.895776

>  <r_i_glide_evdw>  (387) 
-24.5054

>  <r_i_glide_ecoul>  (387) 
-4.48854

>  <r_i_glide_erotb>  (387) 
0.126764

>  <r_i_glide_esite>  (387) 
0

>  <r_i_glide_emodel>  (387) 
-35.3301

>  <r_i_glide_energy>  (387) 
-28.9939

>  <r_i_glide_einternal>  (387) 
0.486148

>  <r_i_glide_intrahb_reward>  (387) 
-0

>  <i_i_glide_confnum>  (387) 
1

>  <i_i_glide_posenum>  (387) 
1

>  <r_i_glide_eff_state_penalty>  (387) 
0

>  <ligand_id>  (387) 
116

>  <original_smiles>  (387) 
COC(=O)C1(O)C(C)CC2C3CC=C4CC(=O)C=CC4(C)C3(F)C(O)CC21C

>  <smiles>  (387) 
[H]OC1([H])C([H])([H])C2(C([H])([H])[H])C(O[H])(C(=O)OC([H])([H])[H])C([H])(C([H])([H])[H])C([H])([H])C2([H])C2([H])C([H])([H])C([H])=C3C([H])([H])C(=O)C([H])=C([H])C3(C([H])([H])[H])C12F

$$$$
117:0:0
     RDKit          3D

 24 25  0  0  1  0  0  0  0  0999 V2000
   -1.5194   -9.1909    2.4792 C   0  0  0  0  0  0  0  0  0  0  0  0
   -0.6984   -7.9864    2.0020 C   0  0  0  0  0  0  0  0  0  0  0  0
    0.6749   -8.2524    2.2551 O   0  0  0  0  0  0  0  0  0  0  0  0
    1.6365   -7.4480    1.6809 C   0  0  0  0  0  0  0  0  0  0  0  0
    2.9817   -7.8520    1.7661 C   0  0  0  0  0  0  0  0  0  0  0  0
    3.9538   -7.0290    1.1702 C   0  0  0  0  0  0  0  0  0  0  0  0
    3.5149   -5.8564    0.5292 C   0  0  0  0  0  0  0  0  0  0  0  0
    4.4408   -5.0854   -0.1442 O   0  0  0  0  0  0  0  0  0  0  0  0
    4.2856   -3.7620   -0.3594 C   0  0  0  0  0  0  0  0  0  0  0  0
    3.4878   -2.8796    0.2534 N   0  0  0  0  0  0  0  0  0  0  0  0
    3.6300   -1.5963   -0.2846 C   0  0  0  0  0  0  0  0  0  0  0  0
    4.5764   -1.5107   -1.2745 C   0  0  0  0  0  0  0  0  0  0  0  0
    5.3222   -3.0538   -1.5931 S   0  0  0  0  0  0  0  0  0  0  0  0
    2.1965   -5.5198    0.4785 N   0  0  0  0  0  0  0  0  0  0  0  0
    1.2669   -6.2970    1.0555 N   0  0  0  0  0  0  0  0  0  0  0  0
   -2.5836   -9.0416    2.2979 H   0  0  0  0  0  0  0  0  0  0  0  0
   -1.3830   -9.3721    3.5465 H   0  0  0  0  0  0  0  0  0  0  0  0
   -1.2209  -10.0988    1.9531 H   0  0  0  0  0  0  0  0  0  0  0  0
   -0.8741   -7.8395    0.9352 H   0  0  0  0  0  0  0  0  0  0  0  0
   -1.0120   -7.0851    2.5306 H   0  0  0  0  0  0  0  0  0  0  0  0
    3.2503   -8.7807    2.2479 H   0  0  0  0  0  0  0  0  0  0  0  0
    4.9985   -7.3047    1.1723 H   0  0  0  0  0  0  0  0  0  0  0  0
    3.0061   -0.7953    0.0877 H   0  0  0  0  0  0  0  0  0  0  0  0
    4.8597   -0.6394   -1.8391 H   0  0  0  0  0  0  0  0  0  0  0  0
  1  2  1  0
  1 16  1  0
  1 17  1  0
  1 18  1  0
  2  3  1  0
  2 19  1  0
  2 20  1  0
  3  4  1  0
  4 15  2  0
  4  5  1  0
  5  6  2  0
  5 21  1  0
  6  7  1  0
  6 22  1  0
  7  8  1  0
  7 14  2  0
  8  9  1  0
  9 13  1  0
  9 10  2  0
 10 11  1  0
 11 12  2  0
 11 23  1  0
 12 13  1  0
 12 24  1  0
 14 15  1  0
M  END
>  <i_m_ct_stereo_status>  (388) 
1

>  <s_m_source_file>  (388) 
/var/tmp/pbs.5083856.sched01/tmpuexfr_0l/165wzclywyu.sdf

>  <i_m_source_file_index>  (388) 
1

>  <i_lp_mmshare_version>  (388) 
48012

>  <i_f3d_flags>  (388) 
0

>  <s_epik_input>  (388) 
W0NIM11bQ0gyXU9jMVtjSF1bY0hdYyhubjEpT2MybltjSF1bY0hdczI=

>  <s_epik_cmdline>  (388) 
J2VwaWtfcHl0aG9uJywgJy1waHQnLCAnMi4wJywgJy1waCcsICc3LjAnLCAnLXRuJywgJzgnLCAnLW1hJywgJzIwMCcsICctaW1hZScsICc8aW5maWxlLm1hZT4nLCAnLW9tYWUnLCAnPG91dGZpbGUubWFlPic=

>  <r_lp_tautomer_probability>  (388) 
1

>  <r_epik_Ionization_Penalty>  (388) 
3.99341e-07

>  <r_epik_Ionization_Penalty_Charging>  (388) 
0

>  <r_epik_Ionization_Penalty_Neutral>  (388) 
3.99341e-07

>  <r_epik_State_Penalty>  (388) 
-0

>  <r_epik_Charging_Adjusted_Penalty>  (388) 
0

>  <i_epik_Tot_Q>  (388) 
0

>  <i_epik_Tot_abs_Q>  (388) 
0

>  <s_lp_Force_Field>  (388) 
OPLS3e

>  <r_lp_Energy>  (388) 
26.0235

>  <b_lp_Chiralities_Consistent>  (388) 
1

>  <s_lp_Variant>  (388) 
117:0-1

>  <s_i_glide_gridfile>  (388) 
pfpi4k_grid

>  <i_i_glide_lignum>  (388) 
1

>  <i_i_glide_rotatable_bonds>  (388) 
4

>  <r_i_docking_score>  (388) 
-2.80601

>  <r_i_glide_ligand_efficiency>  (388) 
-0.187068

>  <r_i_glide_ligand_efficiency_sa>  (388) 
-0.461348

>  <r_i_glide_ligand_efficiency_ln>  (388) 
-0.756735

>  <r_i_glide_gscore>  (388) 
-2.80601

>  <r_i_glide_lipo>  (388) 
-0.374113

>  <r_i_glide_hbond>  (388) 
0

>  <r_i_glide_metal>  (388) 
-0

>  <r_i_glide_rewards>  (388) 
-1.88691

>  <r_i_glide_evdw>  (388) 
-23.1863

>  <r_i_glide_ecoul>  (388) 
-1.78429

>  <r_i_glide_erotb>  (388) 
1.01847

>  <r_i_glide_esite>  (388) 
-0.136499

>  <r_i_glide_emodel>  (388) 
-29.4004

>  <r_i_glide_energy>  (388) 
-24.9706

>  <r_i_glide_einternal>  (388) 
1.07004

>  <r_i_glide_intrahb_reward>  (388) 
-0

>  <i_i_glide_confnum>  (388) 
6

>  <i_i_glide_posenum>  (388) 
25

>  <r_i_glide_eff_state_penalty>  (388) 
0

>  <ligand_id>  (388) 
117

>  <original_smiles>  (388) 
CCOc1ccc(Oc2nccs2)nn1

>  <smiles>  (388) 
[H]c1nc(Oc2nnc(OC([H])([H])C([H])([H])[H])c([H])c2[H])sc1[H]

$$$$
117:0:1
     RDKit          3D

 24 25  0  0  1  0  0  0  0  0999 V2000
    3.8096   -1.3598   -1.6962 C   0  0  0  0  0  0  0  0  0  0  0  0
    3.1914   -2.7478   -1.5077 C   0  0  0  0  0  0  0  0  0  0  0  0
    4.0861   -3.5315   -0.7229 O   0  0  0  0  0  0  0  0  0  0  0  0
    3.6071   -4.6325   -0.0432 C   0  0  0  0  0  0  0  0  0  0  0  0
    4.5175   -5.5495    0.5129 C   0  0  0  0  0  0  0  0  0  0  0  0
    3.9946   -6.6600    1.2060 C   0  0  0  0  0  0  0  0  0  0  0  0
    2.5917   -6.7733    1.2937 C   0  0  0  0  0  0  0  0  0  0  0  0
    2.0507   -7.8613    1.9513 O   0  0  0  0  0  0  0  0  0  0  0  0
    0.7433   -7.9745    2.2977 C   0  0  0  0  0  0  0  0  0  0  0  0
   -0.2880   -7.1189    2.1542 N   0  0  0  0  0  0  0  0  0  0  0  0
   -1.4808   -7.6527    2.6362 C   0  0  0  0  0  0  0  0  0  0  0  0
   -1.3239   -8.8735    3.2308 C   0  0  0  0  0  0  0  0  0  0  0  0
    0.3158   -9.4515    3.1541 S   0  0  0  0  0  0  0  0  0  0  0  0
    1.7703   -5.8618    0.7156 N   0  0  0  0  0  0  0  0  0  0  0  0
    2.2644   -4.8025    0.0792 N   0  0  0  0  0  0  0  0  0  0  0  0
    3.1606   -0.7241   -2.3009 H   0  0  0  0  0  0  0  0  0  0  0  0
    4.7814   -1.4197   -2.1873 H   0  0  0  0  0  0  0  0  0  0  0  0
    3.9471   -0.8641   -0.7332 H   0  0  0  0  0  0  0  0  0  0  0  0
    2.2134   -2.6277   -1.0544 H   0  0  0  0  0  0  0  0  0  0  0  0
    3.0362   -3.2368   -2.4678 H   0  0  0  0  0  0  0  0  0  0  0  0
    5.5836   -5.3989    0.3932 H   0  0  0  0  0  0  0  0  0  0  0  0
    4.6359   -7.4115    1.6431 H   0  0  0  0  0  0  0  0  0  0  0  0
   -2.4052   -7.1048    2.5226 H   0  0  0  0  0  0  0  0  0  0  0  0
   -2.0945   -9.4564    3.6975 H   0  0  0  0  0  0  0  0  0  0  0  0
  1  2  1  0
  1 16  1  0
  1 17  1  0
  1 18  1  0
  2  3  1  0
  2 19  1  0
  2 20  1  0
  3  4  1  0
  4 15  2  0
  4  5  1  0
  5  6  2  0
  5 21  1  0
  6  7  1  0
  6 22  1  0
  7  8  1  0
  7 14  2  0
  8  9  1  0
  9 13  1  0
  9 10  2  0
 10 11  1  0
 11 12  2  0
 11 23  1  0
 12 13  1  0
 12 24  1  0
 14 15  1  0
M  END
>  <i_m_ct_stereo_status>  (389) 
1

>  <s_m_source_file>  (389) 
/var/tmp/pbs.5083856.sched01/tmpuexfr_0l/165wzclywyu.sdf

>  <i_m_source_file_index>  (389) 
1

>  <i_lp_mmshare_version>  (389) 
48012

>  <i_f3d_flags>  (389) 
0

>  <s_epik_input>  (389) 
W0NIM11bQ0gyXU9jMVtjSF1bY0hdYyhubjEpT2MybltjSF1bY0hdczI=

>  <s_epik_cmdline>  (389) 
J2VwaWtfcHl0aG9uJywgJy1waHQnLCAnMi4wJywgJy1waCcsICc3LjAnLCAnLXRuJywgJzgnLCAnLW1hJywgJzIwMCcsICctaW1hZScsICc8aW5maWxlLm1hZT4nLCAnLW9tYWUnLCAnPG91dGZpbGUubWFlPic=

>  <r_lp_tautomer_probability>  (389) 
1

>  <r_epik_Ionization_Penalty>  (389) 
3.99341e-07

>  <r_epik_Ionization_Penalty_Charging>  (389) 
0

>  <r_epik_Ionization_Penalty_Neutral>  (389) 
3.99341e-07

>  <r_epik_State_Penalty>  (389) 
-0

>  <r_epik_Charging_Adjusted_Penalty>  (389) 
0

>  <i_epik_Tot_Q>  (389) 
0

>  <i_epik_Tot_abs_Q>  (389) 
0

>  <s_lp_Force_Field>  (389) 
OPLS3e

>  <r_lp_Energy>  (389) 
26.0235

>  <b_lp_Chiralities_Consistent>  (389) 
1

>  <s_lp_Variant>  (389) 
117:0-1

>  <s_i_glide_gridfile>  (389) 
pfpi4k_grid

>  <i_i_glide_lignum>  (389) 
1

>  <i_i_glide_rotatable_bonds>  (389) 
4

>  <r_i_docking_score>  (389) 
-2.79385

>  <r_i_glide_ligand_efficiency>  (389) 
-0.186257

>  <r_i_glide_ligand_efficiency_sa>  (389) 
-0.459349

>  <r_i_glide_ligand_efficiency_ln>  (389) 
-0.753456

>  <r_i_glide_gscore>  (389) 
-2.79385

>  <r_i_glide_lipo>  (389) 
-0.161374

>  <r_i_glide_hbond>  (389) 
-0.0624773

>  <r_i_glide_metal>  (389) 
-0

>  <r_i_glide_rewards>  (389) 
-1.88691

>  <r_i_glide_evdw>  (389) 
-21.4047

>  <r_i_glide_ecoul>  (389) 
-3.28587

>  <r_i_glide_erotb>  (389) 
1.01847

>  <r_i_glide_esite>  (389) 
-0.13844

>  <r_i_glide_emodel>  (389) 
-28.4838

>  <r_i_glide_energy>  (389) 
-24.6906

>  <r_i_glide_einternal>  (389) 
1.86691

>  <r_i_glide_intrahb_reward>  (389) 
-0

>  <i_i_glide_confnum>  (389) 
4

>  <i_i_glide_posenum>  (389) 
17

>  <r_i_glide_eff_state_penalty>  (389) 
0

>  <ligand_id>  (389) 
117

>  <original_smiles>  (389) 
CCOc1ccc(Oc2nccs2)nn1

>  <smiles>  (389) 
[H]c1nc(Oc2nnc(OC([H])([H])C([H])([H])[H])c([H])c2[H])sc1[H]

$$$$
117:0:2
     RDKit          3D

 24 25  0  0  1  0  0  0  0  0999 V2000
    2.4877   -3.0464   -2.2608 C   0  0  0  0  0  0  0  0  0  0  0  0
    3.2668   -2.5884   -1.0095 C   0  0  0  0  0  0  0  0  0  0  0  0
    4.1874   -3.5792   -0.5509 O   0  0  0  0  0  0  0  0  0  0  0  0
    3.7043   -4.6956    0.0980 C   0  0  0  0  0  0  0  0  0  0  0  0
    4.5889   -5.7163    0.4907 C   0  0  0  0  0  0  0  0  0  0  0  0
    4.0477   -6.8348    1.1566 C   0  0  0  0  0  0  0  0  0  0  0  0
    2.6518   -6.8630    1.3611 C   0  0  0  0  0  0  0  0  0  0  0  0
    2.0879   -7.9586    1.9847 O   0  0  0  0  0  0  0  0  0  0  0  0
    0.7668   -8.0836    2.2711 C   0  0  0  0  0  0  0  0  0  0  0  0
   -0.2348   -7.1833    2.2319 N   0  0  0  0  0  0  0  0  0  0  0  0
   -1.4639   -7.7495    2.5723 C   0  0  0  0  0  0  0  0  0  0  0  0
   -1.3712   -9.0684    2.9446 C   0  0  0  0  0  0  0  0  0  0  0  0
    0.2631   -9.6598    2.8789 S   0  0  0  0  0  0  0  0  0  0  0  0
    1.8545   -5.8532    0.9267 N   0  0  0  0  0  0  0  0  0  0  0  0
    2.3692   -4.7795    0.3369 N   0  0  0  0  0  0  0  0  0  0  0  0
    1.8235   -2.2564   -2.6150 H   0  0  0  0  0  0  0  0  0  0  0  0
    1.8557   -3.9116   -2.0694 H   0  0  0  0  0  0  0  0  0  0  0  0
    3.1688   -3.3175   -3.0686 H   0  0  0  0  0  0  0  0  0  0  0  0
    3.8626   -1.7171   -1.2687 H   0  0  0  0  0  0  0  0  0  0  0  0
    2.6120   -2.2490   -0.2051 H   0  0  0  0  0  0  0  0  0  0  0  0
    5.6478   -5.6326    0.2779 H   0  0  0  0  0  0  0  0  0  0  0  0
    4.6678   -7.6560    1.4874 H   0  0  0  0  0  0  0  0  0  0  0  0
   -2.3565   -7.1391    2.5222 H   0  0  0  0  0  0  0  0  0  0  0  0
   -2.1563   -9.7256    3.2759 H   0  0  0  0  0  0  0  0  0  0  0  0
  1  2  1  0
  1 16  1  0
  1 17  1  0
  1 18  1  0
  2  3  1  0
  2 19  1  0
  2 20  1  0
  3  4  1  0
  4 15  2  0
  4  5  1  0
  5  6  2  0
  5 21  1  0
  6  7  1  0
  6 22  1  0
  7  8  1  0
  7 14  2  0
  8  9  1  0
  9 13  1  0
  9 10  2  0
 10 11  1  0
 11 12  2  0
 11 23  1  0
 12 13  1  0
 12 24  1  0
 14 15  1  0
M  END
>  <i_m_ct_stereo_status>  (390) 
1

>  <s_m_source_file>  (390) 
/var/tmp/pbs.5083856.sched01/tmpuexfr_0l/165wzclywyu.sdf

>  <i_m_source_file_index>  (390) 
1

>  <i_lp_mmshare_version>  (390) 
48012

>  <i_f3d_flags>  (390) 
0

>  <s_epik_input>  (390) 
W0NIM11bQ0gyXU9jMVtjSF1bY0hdYyhubjEpT2MybltjSF1bY0hdczI=

>  <s_epik_cmdline>  (390) 
J2VwaWtfcHl0aG9uJywgJy1waHQnLCAnMi4wJywgJy1waCcsICc3LjAnLCAnLXRuJywgJzgnLCAnLW1hJywgJzIwMCcsICctaW1hZScsICc8aW5maWxlLm1hZT4nLCAnLW9tYWUnLCAnPG91dGZpbGUubWFlPic=

>  <r_lp_tautomer_probability>  (390) 
1

>  <r_epik_Ionization_Penalty>  (390) 
3.99341e-07

>  <r_epik_Ionization_Penalty_Charging>  (390) 
0

>  <r_epik_Ionization_Penalty_Neutral>  (390) 
3.99341e-07

>  <r_epik_State_Penalty>  (390) 
-0

>  <r_epik_Charging_Adjusted_Penalty>  (390) 
0

>  <i_epik_Tot_Q>  (390) 
0

>  <i_epik_Tot_abs_Q>  (390) 
0

>  <s_lp_Force_Field>  (390) 
OPLS3e

>  <r_lp_Energy>  (390) 
26.0235

>  <b_lp_Chiralities_Consistent>  (390) 
1

>  <s_lp_Variant>  (390) 
117:0-1

>  <s_i_glide_gridfile>  (390) 
pfpi4k_grid

>  <i_i_glide_lignum>  (390) 
1

>  <i_i_glide_rotatable_bonds>  (390) 
4

>  <r_i_docking_score>  (390) 
-2.75644

>  <r_i_glide_ligand_efficiency>  (390) 
-0.183763

>  <r_i_glide_ligand_efficiency_sa>  (390) 
-0.453197

>  <r_i_glide_ligand_efficiency_ln>  (390) 
-0.743366

>  <r_i_glide_gscore>  (390) 
-2.75644

>  <r_i_glide_lipo>  (390) 
-0.217696

>  <r_i_glide_hbond>  (390) 
-0.0322106

>  <r_i_glide_metal>  (390) 
-0

>  <r_i_glide_rewards>  (390) 
-1.88691

>  <r_i_glide_evdw>  (390) 
-22.5581

>  <r_i_glide_ecoul>  (390) 
-2.63147

>  <r_i_glide_erotb>  (390) 
1.01847

>  <r_i_glide_esite>  (390) 
-0.115464

>  <r_i_glide_emodel>  (390) 
-29.7017

>  <r_i_glide_energy>  (390) 
-25.1895

>  <r_i_glide_einternal>  (390) 
0.742349

>  <r_i_glide_intrahb_reward>  (390) 
-0

>  <i_i_glide_confnum>  (390) 
6

>  <i_i_glide_posenum>  (390) 
19

>  <r_i_glide_eff_state_penalty>  (390) 
0

>  <ligand_id>  (390) 
117

>  <original_smiles>  (390) 
CCOc1ccc(Oc2nccs2)nn1

>  <smiles>  (390) 
[H]c1nc(Oc2nnc(OC([H])([H])C([H])([H])[H])c([H])c2[H])sc1[H]

$$$$
118:0:0
     RDKit          3D

 47 50  0  0  1  0  0  0  0  0999 V2000
    3.1319   -9.4714    2.5793 C   0  0  0  0  0  0  0  0  0  0  0  0
    3.8734   -8.5645    1.5864 C   0  0  0  0  0  0  0  0  0  0  0  0
    4.1828   -9.0569    0.4924 O   0  0  0  0  0  0  0  0  0  0  0  0
    4.0350   -7.2646    2.0679 N   0  0  0  0  0  0  0  0  0  0  0  0
    4.5249   -6.3966    1.2610 C   0  0  0  0  0  0  0  0  0  0  0  0
    4.7362   -4.8827    1.5922 C   0  0  1  0  0  0  0  0  0  0  0  0
    5.8881   -4.8461    2.6288 C   0  0  0  0  0  0  0  0  0  0  0  0
    6.9094   -4.7691    1.4470 C   0  0  1  0  0  0  0  0  0  0  0  0
    7.6745   -5.9521    0.8920 C   0  0  0  0  0  0  0  0  0  0  0  0
    5.7528   -4.0998    0.6975 C   0  0  1  0  0  0  0  0  0  0  0  0
    5.3902   -4.2241   -0.7881 C   0  0  0  0  0  0  0  0  0  0  0  0
    3.9570   -3.6491   -0.9567 C   0  0  2  0  0  0  0  0  0  0  0  0
    3.9875   -2.1416   -0.6956 C   0  0  0  0  0  0  0  0  0  0  0  0
    4.4500   -1.9083    0.7587 C   0  0  1  0  0  0  0  0  0  0  0  0
    4.5123   -0.3943    1.0528 C   0  0  0  0  0  0  0  0  0  0  0  0
    3.5194   -2.6186    1.7710 C   0  0  0  0  0  0  0  0  0  0  0  0
    3.3720   -4.1444    1.4958 C   0  0  2  0  0  0  0  0  0  0  0  0
    2.3116   -4.6845    2.4790 C   0  0  0  0  0  0  0  0  0  0  0  0
    2.8978   -4.2469    0.0129 C   0  0  0  0  0  0  0  0  0  0  0  0
    5.8277   -2.5519    0.8938 C   0  0  0  0  0  0  0  0  0  0  0  0
    2.1346   -9.0857    2.8188 H   0  0  0  0  0  0  0  0  0  0  0  0
    3.6989   -9.5779    3.5105 H   0  0  0  0  0  0  0  0  0  0  0  0
    3.0018  -10.4781    2.1555 H   0  0  0  0  0  0  0  0  0  0  0  0
    4.8176   -6.6819    0.2382 H   0  0  0  0  0  0  0  0  0  0  0  0
    5.8262   -3.9551    3.2537 H   0  0  0  0  0  0  0  0  0  0  0  0
    6.0024   -5.7404    3.2380 H   0  0  0  0  0  0  0  0  0  0  0  0
    7.6422   -3.9887    1.6939 H   0  0  0  0  0  0  0  0  0  0  0  0
    7.0397   -6.7208    0.4867 H   0  0  0  0  0  0  0  0  0  0  0  0
    8.3122   -6.4178    1.6394 H   0  0  0  0  0  0  0  0  0  0  0  0
    8.3305   -5.6314    0.0843 H   0  0  0  0  0  0  0  0  0  0  0  0
    6.1035   -3.7185   -1.4379 H   0  0  0  0  0  0  0  0  0  0  0  0
    5.3920   -5.2609   -1.1283 H   0  0  0  0  0  0  0  0  0  0  0  0
    3.6246   -3.8210   -1.9861 H   0  0  0  0  0  0  0  0  0  0  0  0
    4.6661   -1.6530   -1.3969 H   0  0  0  0  0  0  0  0  0  0  0  0
    3.0105   -1.6951   -0.8605 H   0  0  0  0  0  0  0  0  0  0  0  0
    4.8535   -0.1978    2.0726 H   0  0  0  0  0  0  0  0  0  0  0  0
    3.5282    0.0693    0.9387 H   0  0  0  0  0  0  0  0  0  0  0  0
    5.1964    0.1155    0.3704 H   0  0  0  0  0  0  0  0  0  0  0  0
    3.8869   -2.4570    2.7857 H   0  0  0  0  0  0  0  0  0  0  0  0
    2.5369   -2.1448    1.7256 H   0  0  0  0  0  0  0  0  0  0  0  0
    1.4168   -4.0624    2.4644 H   0  0  0  0  0  0  0  0  0  0  0  0
    2.6876   -4.6876    3.5028 H   0  0  0  0  0  0  0  0  0  0  0  0
    1.9800   -5.6883    2.2344 H   0  0  0  0  0  0  0  0  0  0  0  0
    1.9565   -3.7211   -0.1138 H   0  0  0  0  0  0  0  0  0  0  0  0
    2.6876   -5.2776   -0.2659 H   0  0  0  0  0  0  0  0  0  0  0  0
    6.2197   -2.2852    1.8796 H   0  0  0  0  0  0  0  0  0  0  0  0
    6.5323   -2.0926    0.1951 H   0  0  0  0  0  0  0  0  0  0  0  0
  1  2  1  0
  1 21  1  0
  1 22  1  0
  1 23  1  0
  2  3  2  0
  2  4  1  0
  4  5  2  3
  5  6  1  0
  5 24  1  0
  6 10  1  0
  6 17  1  0
  6  7  1  1
  7  8  1  0
  7 25  1  0
  7 26  1  0
  8  9  1  0
  8 10  1  0
  8 27  1  1
  9 28  1  0
  9 29  1  0
  9 30  1  0
 10 20  1  1
 10 11  1  0
 11 12  1  0
 11 31  1  0
 11 32  1  0
 12 19  1  0
 12 13  1  0
 12 33  1  6
 13 14  1  0
 13 34  1  0
 13 35  1  0
 14 15  1  1
 14 16  1  0
 14 20  1  0
 15 36  1  0
 15 37  1  0
 15 38  1  0
 16 17  1  0
 16 39  1  0
 16 40  1  0
 17 18  1  1
 17 19  1  0
 18 41  1  0
 18 42  1  0
 18 43  1  0
 19 44  1  0
 19 45  1  0
 20 46  1  0
 20 47  1  0
M  END
>  <i_m_ct_stereo_status>  (391) 
1

>  <s_m_source_file>  (391) 
/var/tmp/pbs.5083856.sched01/tmpuexfr_0l/165wzclywyu.sdf

>  <i_m_source_file_index>  (391) 
2

>  <i_lp_mmshare_version>  (391) 
48012

>  <i_f3d_flags>  (391) 
0

>  <s_epik_input>  (391) 
W0NIM11DKD1PKS9OPVtDSF0vW0NAXShbQ0BAXTEyMykoW0NIMl1bQ0BIXTFbQ0gzXSlbQ0BAXTQoW0NIM10pW0NIMl1bQ0BAXShbQ0gzXSkoW0NIMl0zKVtDSDJdW0NAQEhdKFtDSDJdMilbQ0gyXTQ=

>  <s_epik_cmdline>  (391) 
J2VwaWtfcHl0aG9uJywgJy1waHQnLCAnMi4wJywgJy1waCcsICc3LjAnLCAnLXRuJywgJzgnLCAnLW1hJywgJzIwMCcsICctaW1hZScsICc8aW5maWxlLm1hZT4nLCAnLW9tYWUnLCAnPG91dGZpbGUubWFlPic=

>  <r_lp_tautomer_probability>  (391) 
1

>  <r_epik_Ionization_Penalty>  (391) 
0

>  <r_epik_Ionization_Penalty_Charging>  (391) 
0

>  <r_epik_Ionization_Penalty_Neutral>  (391) 
0

>  <r_epik_State_Penalty>  (391) 
-0

>  <r_epik_Charging_Adjusted_Penalty>  (391) 
0

>  <i_epik_Tot_Q>  (391) 
0

>  <i_epik_Tot_abs_Q>  (391) 
0

>  <s_epik_Chemistry_Notes>  (391) 
This compound has an imine and may undergo hydrolysis.

>  <s_lp_Force_Field>  (391) 
OPLS3e

>  <r_lp_Energy>  (391) 
57.772

>  <b_lp_Chiralities_Consistent>  (391) 
1

>  <s_lp_Variant>  (391) 
118:0-1

>  <s_i_glide_gridfile>  (391) 
pfpi4k_grid

>  <i_i_glide_lignum>  (391) 
2

>  <i_i_glide_rotatable_bonds>  (391) 
2

>  <r_i_docking_score>  (391) 
-2.79259

>  <r_i_glide_ligand_efficiency>  (391) 
-0.13963

>  <r_i_glide_ligand_efficiency_sa>  (391) 
-0.379013

>  <r_i_glide_ligand_efficiency_ln>  (391) 
-0.698894

>  <r_i_glide_gscore>  (391) 
-2.79259

>  <r_i_glide_lipo>  (391) 
-0.493497

>  <r_i_glide_hbond>  (391) 
0

>  <r_i_glide_metal>  (391) 
-0

>  <r_i_glide_rewards>  (391) 
-1.65784

>  <r_i_glide_evdw>  (391) 
-19.06

>  <r_i_glide_ecoul>  (391) 
-0.949628

>  <r_i_glide_erotb>  (391) 
0.47994

>  <r_i_glide_esite>  (391) 
-0.0257534

>  <r_i_glide_emodel>  (391) 
-23.2653

>  <r_i_glide_energy>  (391) 
-20.0096

>  <r_i_glide_einternal>  (391) 
0.0457673

>  <r_i_glide_intrahb_reward>  (391) 
-0

>  <i_i_glide_confnum>  (391) 
1

>  <i_i_glide_posenum>  (391) 
1

>  <r_i_glide_eff_state_penalty>  (391) 
0

>  <ligand_id>  (391) 
118

>  <original_smiles>  (391) 
CC(=O)N=CC12CC(C)C13CC1CC(C)(CC2(C)C1)C3

>  <smiles>  (391) 
[H]C(=NC(=O)C([H])([H])[H])C12C([H])([H])C([H])(C([H])([H])[H])C13C([H])([H])C1([H])C([H])([H])C(C([H])([H])[H])(C([H])([H])C2(C([H])([H])[H])C1([H])[H])C3([H])[H]

$$$$
118:0:1
     RDKit          3D

 47 50  0  0  1  0  0  0  0  0999 V2000
    6.0447   -9.6576    1.4345 C   0  0  0  0  0  0  0  0  0  0  0  0
    4.9185   -8.6471    1.3309 C   0  0  0  0  0  0  0  0  0  0  0  0
    3.8190   -9.0220    0.8855 O   0  0  0  0  0  0  0  0  0  0  0  0
    5.2967   -7.3742    1.6766 N   0  0  0  0  0  0  0  0  0  0  0  0
    4.5276   -6.4009    1.3615 C   0  0  0  0  0  0  0  0  0  0  0  0
    4.7926   -4.8612    1.5825 C   0  0  1  0  0  0  0  0  0  0  0  0
    5.9305   -4.7159    2.6219 C   0  0  0  0  0  0  0  0  0  0  0  0
    6.9580   -4.6564    1.4339 C   0  0  1  0  0  0  0  0  0  0  0  0
    7.7571   -5.8534    0.8746 C   0  0  0  0  0  0  0  0  0  0  0  0
    5.7826   -4.0596    0.6524 C   0  0  1  0  0  0  0  0  0  0  0  0
    5.3876   -4.2858   -0.8101 C   0  0  0  0  0  0  0  0  0  0  0  0
    3.9564   -3.6835   -1.0065 C   0  0  2  0  0  0  0  0  0  0  0  0
    3.9971   -2.1670   -0.7946 C   0  0  0  0  0  0  0  0  0  0  0  0
    4.4705   -1.8673    0.6433 C   0  0  1  0  0  0  0  0  0  0  0  0
    4.5314   -0.3470    0.8630 C   0  0  0  0  0  0  0  0  0  0  0  0
    3.5504   -2.5365    1.6926 C   0  0  0  0  0  0  0  0  0  0  0  0
    3.4164   -4.0845    1.4955 C   0  0  2  0  0  0  0  0  0  0  0  0
    2.3554   -4.5890    2.5040 C   0  0  0  0  0  0  0  0  0  0  0  0
    2.9057   -4.2277    0.0097 C   0  0  0  0  0  0  0  0  0  0  0  0
    5.8457   -2.5042    0.7919 C   0  0  0  0  0  0  0  0  0  0  0  0
    6.4595   -9.6496    2.4410 H   0  0  0  0  0  0  0  0  0  0  0  0
    6.8437   -9.4418    0.7188 H   0  0  0  0  0  0  0  0  0  0  0  0
    5.6711  -10.6596    1.2259 H   0  0  0  0  0  0  0  0  0  0  0  0
    3.5682   -6.5952    0.9035 H   0  0  0  0  0  0  0  0  0  0  0  0
    5.8539   -3.7925    3.2041 H   0  0  0  0  0  0  0  0  0  0  0  0
    6.0815   -5.5510    3.3049 H   0  0  0  0  0  0  0  0  0  0  0  0
    7.6835   -3.8737    1.6790 H   0  0  0  0  0  0  0  0  0  0  0  0
    7.1315   -6.6247    0.4208 H   0  0  0  0  0  0  0  0  0  0  0  0
    8.3660   -6.3302    1.6539 H   0  0  0  0  0  0  0  0  0  0  0  0
    8.4733   -5.5093    0.1069 H   0  0  0  0  0  0  0  0  0  0  0  0
    6.0971   -3.8177   -1.4925 H   0  0  0  0  0  0  0  0  0  0  0  0
    5.3854   -5.3470   -1.0554 H   0  0  0  0  0  0  0  0  0  0  0  0
    3.6180   -3.8797   -2.0202 H   0  0  0  0  0  0  0  0  0  0  0  0
    4.6634   -1.7133   -1.5291 H   0  0  0  0  0  0  0  0  0  0  0  0
    3.0158   -1.7345   -0.9755 H   0  0  0  0  0  0  0  0  0  0  0  0
    4.8824   -0.1002    1.8643 H   0  0  0  0  0  0  0  0  0  0  0  0
    3.5492    0.1128    0.7378 H   0  0  0  0  0  0  0  0  0  0  0  0
    5.2059    0.1295    0.1478 H   0  0  0  0  0  0  0  0  0  0  0  0
    3.9223   -2.3321    2.6921 H   0  0  0  0  0  0  0  0  0  0  0  0
    2.5650   -2.0727    1.6338 H   0  0  0  0  0  0  0  0  0  0  0  0
    1.4531   -3.9848    2.4522 H   0  0  0  0  0  0  0  0  0  0  0  0
    2.7373   -4.5222    3.5198 H   0  0  0  0  0  0  0  0  0  0  0  0
    2.0588   -5.6189    2.3179 H   0  0  0  0  0  0  0  0  0  0  0  0
    1.9679   -3.6869   -0.1237 H   0  0  0  0  0  0  0  0  0  0  0  0
    2.6463   -5.2466   -0.2770 H   0  0  0  0  0  0  0  0  0  0  0  0
    6.2426   -2.1970    1.7570 H   0  0  0  0  0  0  0  0  0  0  0  0
    6.5433   -2.0797    0.0659 H   0  0  0  0  0  0  0  0  0  0  0  0
  1  2  1  0
  1 21  1  0
  1 22  1  0
  1 23  1  0
  2  3  2  0
  2  4  1  0
  4  5  2  3
  5  6  1  0
  5 24  1  0
  6 10  1  0
  6 17  1  0
  6  7  1  1
  7  8  1  0
  7 25  1  0
  7 26  1  0
  8  9  1  0
  8 10  1  0
  8 27  1  1
  9 28  1  0
  9 29  1  0
  9 30  1  0
 10 20  1  1
 10 11  1  0
 11 12  1  0
 11 31  1  0
 11 32  1  0
 12 19  1  0
 12 13  1  0
 12 33  1  6
 13 14  1  0
 13 34  1  0
 13 35  1  0
 14 15  1  1
 14 16  1  0
 14 20  1  0
 15 36  1  0
 15 37  1  0
 15 38  1  0
 16 17  1  0
 16 39  1  0
 16 40  1  0
 17 18  1  1
 17 19  1  0
 18 41  1  0
 18 42  1  0
 18 43  1  0
 19 44  1  0
 19 45  1  0
 20 46  1  0
 20 47  1  0
M  END
>  <i_m_ct_stereo_status>  (392) 
1

>  <s_m_source_file>  (392) 
/var/tmp/pbs.5083856.sched01/tmpuexfr_0l/165wzclywyu.sdf

>  <i_m_source_file_index>  (392) 
2

>  <i_lp_mmshare_version>  (392) 
48012

>  <i_f3d_flags>  (392) 
0

>  <s_epik_input>  (392) 
W0NIM11DKD1PKS9OPVtDSF0vW0NAXShbQ0BAXTEyMykoW0NIMl1bQ0BIXTFbQ0gzXSlbQ0BAXTQoW0NIM10pW0NIMl1bQ0BAXShbQ0gzXSkoW0NIMl0zKVtDSDJdW0NAQEhdKFtDSDJdMilbQ0gyXTQ=

>  <s_epik_cmdline>  (392) 
J2VwaWtfcHl0aG9uJywgJy1waHQnLCAnMi4wJywgJy1waCcsICc3LjAnLCAnLXRuJywgJzgnLCAnLW1hJywgJzIwMCcsICctaW1hZScsICc8aW5maWxlLm1hZT4nLCAnLW9tYWUnLCAnPG91dGZpbGUubWFlPic=

>  <r_lp_tautomer_probability>  (392) 
1

>  <r_epik_Ionization_Penalty>  (392) 
0

>  <r_epik_Ionization_Penalty_Charging>  (392) 
0

>  <r_epik_Ionization_Penalty_Neutral>  (392) 
0

>  <r_epik_State_Penalty>  (392) 
-0

>  <r_epik_Charging_Adjusted_Penalty>  (392) 
0

>  <i_epik_Tot_Q>  (392) 
0

>  <i_epik_Tot_abs_Q>  (392) 
0

>  <s_epik_Chemistry_Notes>  (392) 
This compound has an imine and may undergo hydrolysis.

>  <s_lp_Force_Field>  (392) 
OPLS3e

>  <r_lp_Energy>  (392) 
57.772

>  <b_lp_Chiralities_Consistent>  (392) 
1

>  <s_lp_Variant>  (392) 
118:0-1

>  <s_i_glide_gridfile>  (392) 
pfpi4k_grid

>  <i_i_glide_lignum>  (392) 
2

>  <i_i_glide_rotatable_bonds>  (392) 
2

>  <r_i_docking_score>  (392) 
-2.78965

>  <r_i_glide_ligand_efficiency>  (392) 
-0.139483

>  <r_i_glide_ligand_efficiency_sa>  (392) 
-0.378614

>  <r_i_glide_ligand_efficiency_ln>  (392) 
-0.698158

>  <r_i_glide_gscore>  (392) 
-2.78965

>  <r_i_glide_lipo>  (392) 
-0.511

>  <r_i_glide_hbond>  (392) 
0

>  <r_i_glide_metal>  (392) 
-0

>  <r_i_glide_rewards>  (392) 
-1.6469

>  <r_i_glide_evdw>  (392) 
-19.9562

>  <r_i_glide_ecoul>  (392) 
-0.695939

>  <r_i_glide_erotb>  (392) 
0.47994

>  <r_i_glide_esite>  (392) 
-0.00948919

>  <r_i_glide_emodel>  (392) 
-21.9447

>  <r_i_glide_energy>  (392) 
-20.6521

>  <r_i_glide_einternal>  (392) 
3.32172

>  <r_i_glide_intrahb_reward>  (392) 
-0

>  <i_i_glide_confnum>  (392) 
1

>  <i_i_glide_posenum>  (392) 
5

>  <r_i_glide_eff_state_penalty>  (392) 
0

>  <ligand_id>  (392) 
118

>  <original_smiles>  (392) 
CC(=O)N=CC12CC(C)C13CC1CC(C)(CC2(C)C1)C3

>  <smiles>  (392) 
[H]C(=NC(=O)C([H])([H])[H])C12C([H])([H])C([H])(C([H])([H])[H])C13C([H])([H])C1([H])C([H])([H])C(C([H])([H])[H])(C([H])([H])C2(C([H])([H])[H])C1([H])[H])C3([H])[H]

$$$$
118:0:2
     RDKit          3D

 47 50  0  0  1  0  0  0  0  0999 V2000
    0.2317   -7.2091    3.5144 C   0  0  0  0  0  0  0  0  0  0  0  0
    0.8697   -6.5389    2.2933 C   0  0  0  0  0  0  0  0  0  0  0  0
    0.3039   -6.7215    1.2000 O   0  0  0  0  0  0  0  0  0  0  0  0
    1.9582   -5.7392    2.6324 N   0  0  0  0  0  0  0  0  0  0  0  0
    2.6822   -5.2718    1.6785 C   0  0  0  0  0  0  0  0  0  0  0  0
    3.9155   -4.3138    1.8453 C   0  0  1  0  0  0  0  0  0  0  0  0
    4.7669   -4.8918    3.0078 C   0  0  0  0  0  0  0  0  0  0  0  0
    5.5149   -5.7849    1.9659 C   0  0  1  0  0  0  0  0  0  0  0  0
    5.1888   -7.2312    1.6659 C   0  0  0  0  0  0  0  0  0  0  0  0
    5.1761   -4.6504    0.9884 C   0  0  1  0  0  0  0  0  0  0  0  0
    4.8191   -4.7699   -0.4950 C   0  0  0  0  0  0  0  0  0  0  0  0
    4.2201   -3.4002   -0.9374 C   0  0  2  0  0  0  0  0  0  0  0  0
    5.3162   -2.3261   -0.8862 C   0  0  0  0  0  0  0  0  0  0  0  0
    5.8186   -2.2199    0.5697 C   0  0  1  0  0  0  0  0  0  0  0  0
    6.9446   -1.1662    0.6572 C   0  0  0  0  0  0  0  0  0  0  0  0
    4.6674   -1.8677    1.5454 C   0  0  0  0  0  0  0  0  0  0  0  0
    3.4790   -2.8740    1.4636 C   0  0  2  0  0  0  0  0  0  0  0  0
    2.3512   -2.3333    2.3633 C   0  0  0  0  0  0  0  0  0  0  0  0
    3.0637   -2.8766   -0.0389 C   0  0  0  0  0  0  0  0  0  0  0  0
    6.3286   -3.6031    0.9710 C   0  0  0  0  0  0  0  0  0  0  0  0
   -0.0939   -6.4730    4.2575 H   0  0  0  0  0  0  0  0  0  0  0  0
    0.9367   -7.8992    3.9962 H   0  0  0  0  0  0  0  0  0  0  0  0
   -0.6471   -7.7977    3.2179 H   0  0  0  0  0  0  0  0  0  0  0  0
    2.4414   -5.5121    0.6269 H   0  0  0  0  0  0  0  0  0  0  0  0
    5.3732   -4.1269    3.4847 H   0  0  0  0  0  0  0  0  0  0  0  0
    4.2366   -5.4727    3.7624 H   0  0  0  0  0  0  0  0  0  0  0  0
    6.5822   -5.7162    2.2314 H   0  0  0  0  0  0  0  0  0  0  0  0
    4.1896   -7.3879    1.2735 H   0  0  0  0  0  0  0  0  0  0  0  0
    5.3033   -7.8600    2.5434 H   0  0  0  0  0  0  0  0  0  0  0  0
    5.8687   -7.6234    0.9106 H   0  0  0  0  0  0  0  0  0  0  0  0
    5.6737   -5.0275   -1.1066 H   0  0  0  0  0  0  0  0  0  0  0  0
    4.1014   -5.5716   -0.6756 H   0  0  0  0  0  0  0  0  0  0  0  0
    3.8592   -3.4802   -1.9700 H   0  0  0  0  0  0  0  0  0  0  0  0
    6.1341   -2.6023   -1.5537 H   0  0  0  0  0  0  0  0  0  0  0  0
    4.9376   -1.3648   -1.2343 H   0  0  0  0  0  0  0  0  0  0  0  0
    7.3197   -1.0505    1.6746 H   0  0  0  0  0  0  0  0  0  0  0  0
    6.5814   -0.1849    0.3499 H   0  0  0  0  0  0  0  0  0  0  0  0
    7.7940   -1.4376    0.0261 H   0  0  0  0  0  0  0  0  0  0  0  0
    5.0510   -1.8188    2.5671 H   0  0  0  0  0  0  0  0  0  0  0  0
    4.3132   -0.8606    1.3096 H   0  0  0  0  0  0  0  0  0  0  0  0
    2.1322   -1.2888    2.1187 H   0  0  0  0  0  0  0  0  0  0  0  0
    2.6231   -2.3758    3.4195 H   0  0  0  0  0  0  0  0  0  0  0  0
    1.4201   -2.8799    2.2336 H   0  0  0  0  0  0  0  0  0  0  0  0
    2.7819   -1.8710   -0.3456 H   0  0  0  0  0  0  0  0  0  0  0  0
    2.1718   -3.4722   -0.2130 H   0  0  0  0  0  0  0  0  0  0  0  0
    6.7995   -3.5061    1.9517 H   0  0  0  0  0  0  0  0  0  0  0  0
    7.1437   -3.9150    0.3142 H   0  0  0  0  0  0  0  0  0  0  0  0
  1  2  1  0
  1 21  1  0
  1 22  1  0
  1 23  1  0
  2  3  2  0
  2  4  1  0
  4  5  2  3
  5  6  1  0
  5 24  1  0
  6 10  1  0
  6 17  1  0
  6  7  1  1
  7  8  1  0
  7 25  1  0
  7 26  1  0
  8  9  1  0
  8 10  1  0
  8 27  1  1
  9 28  1  0
  9 29  1  0
  9 30  1  0
 10 20  1  6
 10 11  1  0
 11 12  1  0
 11 31  1  0
 11 32  1  0
 12 19  1  0
 12 13  1  0
 12 33  1  6
 13 14  1  0
 13 34  1  0
 13 35  1  0
 14 15  1  6
 14 16  1  0
 14 20  1  0
 15 36  1  0
 15 37  1  0
 15 38  1  0
 16 17  1  0
 16 39  1  0
 16 40  1  0
 17 18  1  1
 17 19  1  0
 18 41  1  0
 18 42  1  0
 18 43  1  0
 19 44  1  0
 19 45  1  0
 20 46  1  0
 20 47  1  0
M  END
>  <i_m_ct_stereo_status>  (393) 
1

>  <s_m_source_file>  (393) 
/var/tmp/pbs.5083856.sched01/tmpuexfr_0l/165wzclywyu.sdf

>  <i_m_source_file_index>  (393) 
2

>  <i_lp_mmshare_version>  (393) 
48012

>  <i_f3d_flags>  (393) 
0

>  <s_epik_input>  (393) 
W0NIM11DKD1PKS9OPVtDSF0vW0NAXShbQ0BAXTEyMykoW0NIMl1bQ0BIXTFbQ0gzXSlbQ0BAXTQoW0NIM10pW0NIMl1bQ0BAXShbQ0gzXSkoW0NIMl0zKVtDSDJdW0NAQEhdKFtDSDJdMilbQ0gyXTQ=

>  <s_epik_cmdline>  (393) 
J2VwaWtfcHl0aG9uJywgJy1waHQnLCAnMi4wJywgJy1waCcsICc3LjAnLCAnLXRuJywgJzgnLCAnLW1hJywgJzIwMCcsICctaW1hZScsICc8aW5maWxlLm1hZT4nLCAnLW9tYWUnLCAnPG91dGZpbGUubWFlPic=

>  <r_lp_tautomer_probability>  (393) 
1

>  <r_epik_Ionization_Penalty>  (393) 
0

>  <r_epik_Ionization_Penalty_Charging>  (393) 
0

>  <r_epik_Ionization_Penalty_Neutral>  (393) 
0

>  <r_epik_State_Penalty>  (393) 
-0

>  <r_epik_Charging_Adjusted_Penalty>  (393) 
0

>  <i_epik_Tot_Q>  (393) 
0

>  <i_epik_Tot_abs_Q>  (393) 
0

>  <s_epik_Chemistry_Notes>  (393) 
This compound has an imine and may undergo hydrolysis.

>  <s_lp_Force_Field>  (393) 
OPLS3e

>  <r_lp_Energy>  (393) 
57.772

>  <b_lp_Chiralities_Consistent>  (393) 
1

>  <s_lp_Variant>  (393) 
118:0-1

>  <s_i_glide_gridfile>  (393) 
pfpi4k_grid

>  <i_i_glide_lignum>  (393) 
2

>  <i_i_glide_rotatable_bonds>  (393) 
2

>  <r_i_docking_score>  (393) 
-2.66555

>  <r_i_glide_ligand_efficiency>  (393) 
-0.133278

>  <r_i_glide_ligand_efficiency_sa>  (393) 
-0.361771

>  <r_i_glide_ligand_efficiency_ln>  (393) 
-0.667099

>  <r_i_glide_gscore>  (393) 
-2.66555

>  <r_i_glide_lipo>  (393) 
-0.363467

>  <r_i_glide_hbond>  (393) 
-0.111246

>  <r_i_glide_metal>  (393) 
-0

>  <r_i_glide_rewards>  (393) 
-1.54491

>  <r_i_glide_evdw>  (393) 
-17.3789

>  <r_i_glide_ecoul>  (393) 
-1.20131

>  <r_i_glide_erotb>  (393) 
0.47994

>  <r_i_glide_esite>  (393) 
-0.0767275

>  <r_i_glide_emodel>  (393) 
-21.4085

>  <r_i_glide_energy>  (393) 
-18.5802

>  <r_i_glide_einternal>  (393) 
0.49471

>  <r_i_glide_intrahb_reward>  (393) 
-0

>  <i_i_glide_confnum>  (393) 
1

>  <i_i_glide_posenum>  (393) 
6

>  <r_i_glide_eff_state_penalty>  (393) 
0

>  <ligand_id>  (393) 
118

>  <original_smiles>  (393) 
CC(=O)N=CC12CC(C)C13CC1CC(C)(CC2(C)C1)C3

>  <smiles>  (393) 
[H]C(=NC(=O)C([H])([H])[H])C12C([H])([H])C([H])(C([H])([H])[H])C13C([H])([H])C1([H])C([H])([H])C(C([H])([H])[H])(C([H])([H])C2(C([H])([H])[H])C1([H])[H])C3([H])[H]

$$$$
119:0:0
     RDKit          3D

 68 73  0  0  1  0  0  0  0  0999 V2000
   -1.1000   -7.5039    3.8322 C   0  0  0  0  0  0  0  0  0  0  0  0
   -1.2353   -7.0548    2.4908 O   0  0  0  0  0  0  0  0  0  0  0  0
   -0.5408   -7.8480    1.5381 C   0  0  0  0  0  0  0  0  0  0  0  0
    0.9699   -7.5570    1.5262 C   0  0  0  0  0  0  0  0  0  0  0  0
    1.2161   -6.2802    0.9529 O   0  0  0  0  0  0  0  0  0  0  0  0
    2.6033   -5.9592    0.9267 C   0  0  0  0  0  0  0  0  0  0  0  0
    2.7711   -4.4511    0.7163 C   0  0  0  0  0  0  0  0  0  0  0  0
    2.3170   -3.7887    1.8863 O   0  0  0  0  0  0  0  0  0  0  0  0
    2.4136   -2.3777    1.8019 C   0  0  0  0  0  0  0  0  0  0  0  0
    1.8504   -1.7796    3.1101 C   0  0  0  0  0  0  0  0  0  0  0  0
    2.0097   -0.2524    3.2317 C   0  0  1  0  0  0  0  0  0  0  0  0
    3.4067   -0.0582    3.1313 O   0  0  0  0  0  0  0  0  0  0  0  0
    1.1068    0.5584    2.3949 C   0  0  2  0  0  0  0  0  0  0  0  0
    1.8405    1.8983    2.0188 C   0  0  0  0  0  0  0  0  0  0  0  0
    2.0534    2.7726    3.2808 C   0  0  0  0  0  0  0  0  0  0  0  0
    2.2796    4.1516    3.3725 C   0  0  0  0  0  0  0  0  0  0  0  0
    1.9926    4.8126    4.5914 C   0  0  0  0  0  0  0  0  0  0  0  0
    1.3308    4.1363    5.6526 C   0  0  0  0  0  0  0  0  0  0  0  0
    0.9095    4.8539    6.7333 O   0  0  0  0  0  0  0  0  0  0  0  0
    1.0278    2.7575    5.5643 C   0  0  0  0  0  0  0  0  0  0  0  0
    1.6089    2.1196    4.4514 C   0  0  0  0  0  0  0  0  0  0  0  0
    1.3715    0.6440    4.3276 C   0  0  2  0  0  0  0  0  0  0  0  0
    1.4539   -0.1654    5.6389 C   0  0  0  0  0  0  0  0  0  0  0  0
    0.1026   -0.8142    5.6884 C   0  0  0  0  0  0  0  0  0  0  0  0
   -0.7208    0.1659    4.8515 C   0  0  1  0  0  0  0  0  0  0  0  0
   -1.9045   -0.5265    4.5037 O   0  0  0  0  0  0  0  0  0  0  0  0
   -1.0317    1.4086    5.8455 C   0  0  1  0  0  0  0  0  0  0  0  0
    0.1120    2.1134    6.4006 O   0  0  0  0  0  0  0  0  0  0  0  0
   -2.0125    2.3185    5.2589 N   0  0  0  0  0  0  0  0  0  0  0  0
   -2.5127    3.3316    6.1796 C   0  0  0  0  0  0  0  0  0  0  0  0
   -1.5529    2.8788    4.0014 C   0  0  0  0  0  0  0  0  0  0  0  0
   -1.0004    1.8236    3.0337 C   0  0  0  0  0  0  0  0  0  0  0  0
   -0.0013    0.7172    3.5633 C   0  0  2  0  0  0  0  0  0  0  0  0
   -1.6486   -6.8397    4.5014 H   0  0  0  0  0  0  0  0  0  0  0  0
   -0.0621   -7.5012    4.1623 H   0  0  0  0  0  0  0  0  0  0  0  0
   -1.4959   -8.5136    3.9536 H   0  0  0  0  0  0  0  0  0  0  0  0
   -0.7324   -8.9004    1.7377 H   0  0  0  0  0  0  0  0  0  0  0  0
   -0.9469   -7.6556    0.5467 H   0  0  0  0  0  0  0  0  0  0  0  0
    1.3929   -7.5958    2.5279 H   0  0  0  0  0  0  0  0  0  0  0  0
    1.4850   -8.3231    0.9457 H   0  0  0  0  0  0  0  0  0  0  0  0
    3.1080   -6.2582    1.8470 H   0  0  0  0  0  0  0  0  0  0  0  0
    3.0828   -6.5049    0.1146 H   0  0  0  0  0  0  0  0  0  0  0  0
    3.8258   -4.2212    0.5535 H   0  0  0  0  0  0  0  0  0  0  0  0
    2.2213   -4.1266   -0.1685 H   0  0  0  0  0  0  0  0  0  0  0  0
    3.4580   -2.1037    1.6390 H   0  0  0  0  0  0  0  0  0  0  0  0
    1.8473   -2.0143    0.9459 H   0  0  0  0  0  0  0  0  0  0  0  0
    0.7971   -2.0547    3.1541 H   0  0  0  0  0  0  0  0  0  0  0  0
    2.3490   -2.2768    3.9403 H   0  0  0  0  0  0  0  0  0  0  0  0
    3.5355    0.8806    3.1094 H   0  0  0  0  0  0  0  0  0  0  0  0
    0.7433    0.0085    1.5288 H   0  0  0  0  0  0  0  0  0  0  0  0
    2.7970    1.7232    1.5283 H   0  0  0  0  0  0  0  0  0  0  0  0
    1.2696    2.4741    1.2943 H   0  0  0  0  0  0  0  0  0  0  0  0
    2.5923    4.7058    2.4972 H   0  0  0  0  0  0  0  0  0  0  0  0
    2.1696    5.8739    4.6524 H   0  0  0  0  0  0  0  0  0  0  0  0
    1.1784    5.7578    6.6811 H   0  0  0  0  0  0  0  0  0  0  0  0
    2.2358   -0.9192    5.6313 H   0  0  0  0  0  0  0  0  0  0  0  0
    1.6632    0.4101    6.5386 H   0  0  0  0  0  0  0  0  0  0  0  0
    0.1146   -1.7912    5.2078 H   0  0  0  0  0  0  0  0  0  0  0  0
   -0.2709   -0.9701    6.6996 H   0  0  0  0  0  0  0  0  0  0  0  0
   -2.4766    0.1034    4.0812 H   0  0  0  0  0  0  0  0  0  0  0  0
   -1.5045    0.9967    6.7404 H   0  0  0  0  0  0  0  0  0  0  0  0
   -3.3662    3.8359    5.7357 H   0  0  0  0  0  0  0  0  0  0  0  0
   -1.7544    4.0810    6.4071 H   0  0  0  0  0  0  0  0  0  0  0  0
   -2.8516    2.8914    7.1169 H   0  0  0  0  0  0  0  0  0  0  0  0
   -2.3932    3.3688    3.5062 H   0  0  0  0  0  0  0  0  0  0  0  0
   -0.8232    3.6702    4.1617 H   0  0  0  0  0  0  0  0  0  0  0  0
   -1.8649    1.3078    2.6190 H   0  0  0  0  0  0  0  0  0  0  0  0
   -0.6380    2.3688    2.1670 H   0  0  0  0  0  0  0  0  0  0  0  0
  1  2  1  0
  1 34  1  0
  1 35  1  0
  1 36  1  0
  2  3  1  0
  3  4  1  0
  3 37  1  0
  3 38  1  0
  4  5  1  0
  4 39  1  0
  4 40  1  0
  5  6  1  0
  6  7  1  0
  6 41  1  0
  6 42  1  0
  7  8  1  0
  7 43  1  0
  7 44  1  0
  8  9  1  0
  9 10  1  0
  9 45  1  0
  9 46  1  0
 10 11  1  0
 10 47  1  0
 10 48  1  0
 11 22  1  0
 11 12  1  6
 11 13  1  0
 12 49  1  0
 13 33  1  0
 13 14  1  0
 13 50  1  6
 14 15  1  0
 14 51  1  0
 14 52  1  0
 15 21  2  0
 15 16  1  0
 16 17  2  0
 16 53  1  0
 17 18  1  0
 17 54  1  0
 18 19  1  0
 18 20  2  0
 19 55  1  0
 20 28  1  0
 20 21  1  0
 21 22  1  0
 22 33  1  0
 22 23  1  1
 23 24  1  0
 23 56  1  0
 23 57  1  0
 24 25  1  0
 24 58  1  0
 24 59  1  0
 25 33  1  0
 25 26  1  6
 25 27  1  0
 26 60  1  0
 27 28  1  0
 27 29  1  0
 27 61  1  1
 29 30  1  0
 29 31  1  0
 30 62  1  0
 30 63  1  0
 30 64  1  0
 31 32  1  0
 31 65  1  0
 31 66  1  0
 33 32  1  6
 32 67  1  0
 32 68  1  0
M  END
>  <i_m_ct_stereo_status>  (394) 
1

>  <s_m_source_file>  (394) 
/var/tmp/pbs.5083856.sched01/tmpuexfr_0l/165wzclywyu.sdf

>  <i_m_source_file_index>  (394) 
4

>  <i_lp_mmshare_version>  (394) 
48012

>  <i_f3d_flags>  (394) 
0

>  <s_epik_input>  (394) 
W0NIM11PW0NIMl1bQ0gyXU9bQ0gyXVtDSDJdT1tDSDJdW0NIMl1bQ0BAXTEoW09IXSlbQ0BASF0oW0NAXTIzW0NAQF0xNDUpW0NIMl1jNmM0YyhjKFtPSF0pW2NIXVtjSF02KU9bQ0BIXShbQ0BdMihbT0hdKVtDSDJdW0NIMl01KU4oW0NIM10pW0NIMl1bQ0gyXTM=

>  <s_epik_cmdline>  (394) 
J2VwaWtfcHl0aG9uJywgJy1waHQnLCAnMi4wJywgJy1waCcsICc3LjAnLCAnLXRuJywgJzgnLCAnLW1hJywgJzIwMCcsICctaW1hZScsICc8aW5maWxlLm1hZT4nLCAnLW9tYWUnLCAnPG91dGZpbGUubWFlPic=

>  <r_lp_tautomer_probability>  (394) 
1

>  <r_epik_Ionization_Penalty>  (394) 
0.0934027

>  <r_epik_Ionization_Penalty_Charging>  (394) 
0

>  <r_epik_Ionization_Penalty_Neutral>  (394) 
0.0934027

>  <r_epik_State_Penalty>  (394) 
0.0836258

>  <r_epik_Charging_Adjusted_Penalty>  (394) 
0.0836258

>  <i_epik_Tot_Q>  (394) 
0

>  <i_epik_Tot_abs_Q>  (394) 
0

>  <s_epik_Chemistry_Notes>  (394) 
This compound contains an acetal/aminal-like group ( X-CH(R)-Y where X, Y are N, S, or O) that may be acid/base labile, releasing an aldehyde.

>  <s_lp_Force_Field>  (394) 
OPLS3e

>  <r_lp_Energy>  (394) 
188.239

>  <b_lp_Chiralities_Consistent>  (394) 
1

>  <s_lp_Variant>  (394) 
119:0-1

>  <s_i_glide_gridfile>  (394) 
pfpi4k_grid

>  <i_i_glide_lignum>  (394) 
4

>  <i_i_glide_rotatable_bonds>  (394) 
12

>  <r_i_docking_score>  (394) 
-2.75764

>  <r_i_glide_ligand_efficiency>  (394) 
-0.083565

>  <r_i_glide_ligand_efficiency_sa>  (394) 
-0.268037

>  <r_i_glide_ligand_efficiency_ln>  (394) 
-0.613286

>  <r_i_glide_gscore>  (394) 
-2.75764

>  <r_i_glide_lipo>  (394) 
-0.0830312

>  <r_i_glide_hbond>  (394) 
-0.557473

>  <r_i_glide_metal>  (394) 
-0

>  <r_i_glide_rewards>  (394) 
-0.262173

>  <r_i_glide_evdw>  (394) 
-28.2761

>  <r_i_glide_ecoul>  (394) 
-7.85501

>  <r_i_glide_erotb>  (394) 
0.756228

>  <r_i_glide_esite>  (394) 
-0.0191365

>  <r_i_glide_emodel>  (394) 
-42.3186

>  <r_i_glide_energy>  (394) 
-36.1311

>  <r_i_glide_einternal>  (394) 
1.87646

>  <r_i_glide_intrahb_reward>  (394) 
-0

>  <i_i_glide_confnum>  (394) 
1

>  <i_i_glide_posenum>  (394) 
11

>  <r_i_glide_eff_state_penalty>  (394) 
0

>  <ligand_id>  (394) 
119

>  <original_smiles>  (394) 
COCCOCCOCCC1(O)C2Cc3ccc(O)c4c3C13CCC1(O)C(O4)N(C)CCC213

>  <smiles>  (394) 
[H]Oc1c([H])c([H])c2c3c1OC1([H])N(C([H])([H])[H])C([H])([H])C([H])([H])C45C([H])(C2([H])[H])C(O[H])(C([H])([H])C([H])([H])OC([H])([H])C([H])([H])OC([H])([H])C([H])([H])OC([H])([H])[H])C34C([H])([H])C([H])([H])C15O[H]

$$$$
119:0:1
     RDKit          3D

 68 73  0  0  1  0  0  0  0  0999 V2000
   -2.1199   -7.4991    3.3123 C   0  0  0  0  0  0  0  0  0  0  0  0
   -0.8808   -7.0211    2.8146 O   0  0  0  0  0  0  0  0  0  0  0  0
   -0.3553   -7.8387    1.7762 C   0  0  0  0  0  0  0  0  0  0  0  0
    1.1127   -7.4706    1.5153 C   0  0  0  0  0  0  0  0  0  0  0  0
    1.1988   -6.1939    0.8914 O   0  0  0  0  0  0  0  0  0  0  0  0
    2.5433   -5.7897    0.6373 C   0  0  0  0  0  0  0  0  0  0  0  0
    2.6115   -4.2672    0.4855 C   0  0  0  0  0  0  0  0  0  0  0  0
    2.4026   -3.6910    1.7635 O   0  0  0  0  0  0  0  0  0  0  0  0
    2.5554   -2.2831    1.7723 C   0  0  0  0  0  0  0  0  0  0  0  0
    2.0421   -1.7511    3.1282 C   0  0  0  0  0  0  0  0  0  0  0  0
    2.1646   -0.2265    3.2974 C   0  0  1  0  0  0  0  0  0  0  0  0
    3.5611   -0.0158    3.2448 O   0  0  0  0  0  0  0  0  0  0  0  0
    1.2803    0.5948    2.4487 C   0  0  2  0  0  0  0  0  0  0  0  0
    2.0097    1.9557    2.1380 C   0  0  0  0  0  0  0  0  0  0  0  0
    2.1530    2.7965    3.4318 C   0  0  0  0  0  0  0  0  0  0  0  0
    2.3477    4.1783    3.5696 C   0  0  0  0  0  0  0  0  0  0  0  0
    1.9901    4.7995    4.7936 C   0  0  0  0  0  0  0  0  0  0  0  0
    1.3000    4.0823    5.8053 C   0  0  0  0  0  0  0  0  0  0  0  0
    0.8174    4.7562    6.8903 O   0  0  0  0  0  0  0  0  0  0  0  0
    1.0300    2.7022    5.6681 C   0  0  0  0  0  0  0  0  0  0  0  0
    1.6692    2.1047    4.5632 C   0  0  0  0  0  0  0  0  0  0  0  0
    1.4629    0.6274    4.3897 C   0  0  2  0  0  0  0  0  0  0  0  0
    1.5059   -0.2147    5.6829 C   0  0  0  0  0  0  0  0  0  0  0  0
    0.1647   -0.8824    5.6671 C   0  0  0  0  0  0  0  0  0  0  0  0
   -0.6385    0.1063    4.8246 C   0  0  1  0  0  0  0  0  0  0  0  0
   -1.8026   -0.5937    4.4430 O   0  0  0  0  0  0  0  0  0  0  0  0
   -1.0136    1.3159    5.8288 C   0  0  1  0  0  0  0  0  0  0  0  0
    0.0926    2.0247    6.4506 O   0  0  0  0  0  0  0  0  0  0  0  0
   -1.9850    2.2230    5.2203 N   0  0  0  0  0  0  0  0  0  0  0  0
   -2.5473    3.2036    6.1407 C   0  0  0  0  0  0  0  0  0  0  0  0
   -1.4859    2.8188    3.9947 C   0  0  0  0  0  0  0  0  0  0  0  0
   -0.8776    1.7956    3.0261 C   0  0  0  0  0  0  0  0  0  0  0  0
    0.1191    0.6973    3.5727 C   0  0  2  0  0  0  0  0  0  0  0  0
   -2.4813   -6.8316    4.0926 H   0  0  0  0  0  0  0  0  0  0  0  0
   -2.0313   -8.4950    3.7490 H   0  0  0  0  0  0  0  0  0  0  0  0
   -2.8660   -7.5296    2.5204 H   0  0  0  0  0  0  0  0  0  0  0  0
   -0.3952   -8.8840    2.0840 H   0  0  0  0  0  0  0  0  0  0  0  0
   -0.9495   -7.7480    0.8660 H   0  0  0  0  0  0  0  0  0  0  0  0
    1.6599   -7.4698    2.4596 H   0  0  0  0  0  0  0  0  0  0  0  0
    1.5723   -8.2291    0.8805 H   0  0  0  0  0  0  0  0  0  0  0  0
    3.2288   -6.1075    1.4251 H   0  0  0  0  0  0  0  0  0  0  0  0
    2.8865   -6.2558   -0.2855 H   0  0  0  0  0  0  0  0  0  0  0  0
    3.5933   -3.9773    0.1064 H   0  0  0  0  0  0  0  0  0  0  0  0
    1.8711   -3.9236   -0.2380 H   0  0  0  0  0  0  0  0  0  0  0  0
    3.6048   -2.0333    1.6010 H   0  0  0  0  0  0  0  0  0  0  0  0
    1.9814   -1.8460    0.9576 H   0  0  0  0  0  0  0  0  0  0  0  0
    1.0007   -2.0589    3.1969 H   0  0  0  0  0  0  0  0  0  0  0  0
    2.5882   -2.2591    3.9224 H   0  0  0  0  0  0  0  0  0  0  0  0
    3.6756    0.9251    3.2213 H   0  0  0  0  0  0  0  0  0  0  0  0
    0.9583    0.0714    1.5513 H   0  0  0  0  0  0  0  0  0  0  0  0
    2.9896    1.7978    1.6886 H   0  0  0  0  0  0  0  0  0  0  0  0
    1.4572    2.5444    1.4100 H   0  0  0  0  0  0  0  0  0  0  0  0
    2.6912    4.7664    2.7275 H   0  0  0  0  0  0  0  0  0  0  0  0
    2.1361    5.8597    4.9061 H   0  0  0  0  0  0  0  0  0  0  0  0
    0.4095    4.1755    7.5143 H   0  0  0  0  0  0  0  0  0  0  0  0
    2.2969   -0.9588    5.6842 H   0  0  0  0  0  0  0  0  0  0  0  0
    1.6684    0.3390    6.6064 H   0  0  0  0  0  0  0  0  0  0  0  0
    0.2068   -1.8491    5.1690 H   0  0  0  0  0  0  0  0  0  0  0  0
   -0.2505   -1.0695    6.6564 H   0  0  0  0  0  0  0  0  0  0  0  0
   -2.3838    0.0412    4.0407 H   0  0  0  0  0  0  0  0  0  0  0  0
   -1.5207    0.8692    6.6870 H   0  0  0  0  0  0  0  0  0  0  0  0
   -3.3805    3.7241    5.6738 H   0  0  0  0  0  0  0  0  0  0  0  0
   -1.8111    3.9544    6.4247 H   0  0  0  0  0  0  0  0  0  0  0  0
   -2.9259    2.7292    7.0453 H   0  0  0  0  0  0  0  0  0  0  0  0
   -2.3117    3.3067    3.4745 H   0  0  0  0  0  0  0  0  0  0  0  0
   -0.7768    3.6164    4.2051 H   0  0  0  0  0  0  0  0  0  0  0  0
   -1.7155    1.2705    2.5649 H   0  0  0  0  0  0  0  0  0  0  0  0
   -0.4875    2.3702    2.1898 H   0  0  0  0  0  0  0  0  0  0  0  0
  1  2  1  0
  1 34  1  0
  1 35  1  0
  1 36  1  0
  2  3  1  0
  3  4  1  0
  3 37  1  0
  3 38  1  0
  4  5  1  0
  4 39  1  0
  4 40  1  0
  5  6  1  0
  6  7  1  0
  6 41  1  0
  6 42  1  0
  7  8  1  0
  7 43  1  0
  7 44  1  0
  8  9  1  0
  9 10  1  0
  9 45  1  0
  9 46  1  0
 10 11  1  0
 10 47  1  0
 10 48  1  0
 11 22  1  0
 11 12  1  6
 11 13  1  0
 12 49  1  0
 13 33  1  0
 13 14  1  0
 13 50  1  6
 14 15  1  0
 14 51  1  0
 14 52  1  0
 15 21  2  0
 15 16  1  0
 16 17  2  0
 16 53  1  0
 17 18  1  0
 17 54  1  0
 18 19  1  0
 18 20  2  0
 19 55  1  0
 20 28  1  0
 20 21  1  0
 21 22  1  0
 22 33  1  0
 22 23  1  1
 23 24  1  0
 23 56  1  0
 23 57  1  0
 24 25  1  0
 24 58  1  0
 24 59  1  0
 25 33  1  0
 25 26  1  6
 25 27  1  0
 26 60  1  0
 27 28  1  0
 27 29  1  0
 27 61  1  1
 29 30  1  0
 29 31  1  0
 30 62  1  0
 30 63  1  0
 30 64  1  0
 31 32  1  0
 31 65  1  0
 31 66  1  0
 33 32  1  6
 32 67  1  0
 32 68  1  0
M  END
>  <i_m_ct_stereo_status>  (395) 
1

>  <s_m_source_file>  (395) 
/var/tmp/pbs.5083856.sched01/tmpuexfr_0l/165wzclywyu.sdf

>  <i_m_source_file_index>  (395) 
4

>  <i_lp_mmshare_version>  (395) 
48012

>  <i_f3d_flags>  (395) 
0

>  <s_epik_input>  (395) 
W0NIM11PW0NIMl1bQ0gyXU9bQ0gyXVtDSDJdT1tDSDJdW0NIMl1bQ0BAXTEoW09IXSlbQ0BASF0oW0NAXTIzW0NAQF0xNDUpW0NIMl1jNmM0YyhjKFtPSF0pW2NIXVtjSF02KU9bQ0BIXShbQ0BdMihbT0hdKVtDSDJdW0NIMl01KU4oW0NIM10pW0NIMl1bQ0gyXTM=

>  <s_epik_cmdline>  (395) 
J2VwaWtfcHl0aG9uJywgJy1waHQnLCAnMi4wJywgJy1waCcsICc3LjAnLCAnLXRuJywgJzgnLCAnLW1hJywgJzIwMCcsICctaW1hZScsICc8aW5maWxlLm1hZT4nLCAnLW9tYWUnLCAnPG91dGZpbGUubWFlPic=

>  <r_lp_tautomer_probability>  (395) 
1

>  <r_epik_Ionization_Penalty>  (395) 
0.0934027

>  <r_epik_Ionization_Penalty_Charging>  (395) 
0

>  <r_epik_Ionization_Penalty_Neutral>  (395) 
0.0934027

>  <r_epik_State_Penalty>  (395) 
0.0836258

>  <r_epik_Charging_Adjusted_Penalty>  (395) 
0.0836258

>  <i_epik_Tot_Q>  (395) 
0

>  <i_epik_Tot_abs_Q>  (395) 
0

>  <s_epik_Chemistry_Notes>  (395) 
This compound contains an acetal/aminal-like group ( X-CH(R)-Y where X, Y are N, S, or O) that may be acid/base labile, releasing an aldehyde.

>  <s_lp_Force_Field>  (395) 
OPLS3e

>  <r_lp_Energy>  (395) 
188.239

>  <b_lp_Chiralities_Consistent>  (395) 
1

>  <s_lp_Variant>  (395) 
119:0-1

>  <s_i_glide_gridfile>  (395) 
pfpi4k_grid

>  <i_i_glide_lignum>  (395) 
4

>  <i_i_glide_rotatable_bonds>  (395) 
12

>  <r_i_docking_score>  (395) 
-2.6829

>  <r_i_glide_ligand_efficiency>  (395) 
-0.0812999

>  <r_i_glide_ligand_efficiency_sa>  (395) 
-0.260772

>  <r_i_glide_ligand_efficiency_ln>  (395) 
-0.596663

>  <r_i_glide_gscore>  (395) 
-2.6829

>  <r_i_glide_lipo>  (395) 
-0.0879988

>  <r_i_glide_hbond>  (395) 
-0.561614

>  <r_i_glide_metal>  (395) 
-0

>  <r_i_glide_rewards>  (395) 
-0.262173

>  <r_i_glide_evdw>  (395) 
-28.8994

>  <r_i_glide_ecoul>  (395) 
-7.07725

>  <r_i_glide_erotb>  (395) 
0.756228

>  <r_i_glide_esite>  (395) 
-0.020783

>  <r_i_glide_emodel>  (395) 
-42.0491

>  <r_i_glide_energy>  (395) 
-35.9766

>  <r_i_glide_einternal>  (395) 
1.44543

>  <r_i_glide_intrahb_reward>  (395) 
-0

>  <i_i_glide_confnum>  (395) 
1

>  <i_i_glide_posenum>  (395) 
27

>  <r_i_glide_eff_state_penalty>  (395) 
0

>  <ligand_id>  (395) 
119

>  <original_smiles>  (395) 
COCCOCCOCCC1(O)C2Cc3ccc(O)c4c3C13CCC1(O)C(O4)N(C)CCC213

>  <smiles>  (395) 
[H]Oc1c([H])c([H])c2c3c1OC1([H])N(C([H])([H])[H])C([H])([H])C([H])([H])C45C([H])(C2([H])[H])C(O[H])(C([H])([H])C([H])([H])OC([H])([H])C([H])([H])OC([H])([H])C([H])([H])OC([H])([H])[H])C34C([H])([H])C([H])([H])C15O[H]

$$$$
119:0:2
     RDKit          3D

 68 73  0  0  1  0  0  0  0  0999 V2000
   -1.9251   -7.5117    3.3217 C   0  0  0  0  0  0  0  0  0  0  0  0
   -0.7249   -6.9956    2.7695 O   0  0  0  0  0  0  0  0  0  0  0  0
   -0.1870   -7.8340    1.7540 C   0  0  0  0  0  0  0  0  0  0  0  0
    1.2831   -7.4681    1.5039 C   0  0  0  0  0  0  0  0  0  0  0  0
    1.3707   -6.1968    0.8684 O   0  0  0  0  0  0  0  0  0  0  0  0
    2.7168   -5.7883    0.6302 C   0  0  0  0  0  0  0  0  0  0  0  0
    2.7629   -4.2647    0.4681 C   0  0  0  0  0  0  0  0  0  0  0  0
    2.5626   -3.6814    1.7453 O   0  0  0  0  0  0  0  0  0  0  0  0
    2.6096   -2.2665    1.7261 C   0  0  0  0  0  0  0  0  0  0  0  0
    2.2164   -1.7570    3.1298 C   0  0  0  0  0  0  0  0  0  0  0  0
    2.2390   -0.2255    3.2756 C   0  0  1  0  0  0  0  0  0  0  0  0
    3.5992    0.0882    3.0464 O   0  0  0  0  0  0  0  0  0  0  0  0
    1.1945    0.5115    2.5407 C   0  0  2  0  0  0  0  0  0  0  0  0
    1.7705    1.9176    2.1362 C   0  0  0  0  0  0  0  0  0  0  0  0
    2.0124    2.7906    3.3947 C   0  0  0  0  0  0  0  0  0  0  0  0
    2.1191    4.1853    3.5005 C   0  0  0  0  0  0  0  0  0  0  0  0
    1.8709    4.7967    4.7548 C   0  0  0  0  0  0  0  0  0  0  0  0
    1.3639    4.0429    5.8492 C   0  0  0  0  0  0  0  0  0  0  0  0
    0.9688    4.6988    6.9782 O   0  0  0  0  0  0  0  0  0  0  0  0
    1.1854    2.6438    5.7539 C   0  0  0  0  0  0  0  0  0  0  0  0
    1.7287    2.0812    4.5817 C   0  0  0  0  0  0  0  0  0  0  0  0
    1.6181    0.5900    4.4448 C   0  0  2  0  0  0  0  0  0  0  0  0
    1.8826   -0.2274    5.7241 C   0  0  0  0  0  0  0  0  0  0  0  0
    0.6038   -0.9976    5.8772 C   0  0  0  0  0  0  0  0  0  0  0  0
   -0.3813   -0.0920    5.1358 C   0  0  1  0  0  0  0  0  0  0  0  0
   -1.5376   -0.8897    4.9173 O   0  0  0  0  0  0  0  0  0  0  0  0
   -0.7100    1.1063    6.1735 C   0  0  1  0  0  0  0  0  0  0  0  0
    0.4087    1.9004    6.6475 O   0  0  0  0  0  0  0  0  0  0  0  0
   -1.8126    1.9329    5.6895 N   0  0  0  0  0  0  0  0  0  0  0  0
   -2.3348    2.8841    6.6648 C   0  0  0  0  0  0  0  0  0  0  0  0
   -1.5166    2.5457    4.4083 C   0  0  0  0  0  0  0  0  0  0  0  0
   -0.9466    1.5595    3.3787 C   0  0  0  0  0  0  0  0  0  0  0  0
    0.1820    0.5445    3.8029 C   0  0  2  0  0  0  0  0  0  0  0  0
   -2.3033   -6.8263    4.0788 H   0  0  0  0  0  0  0  0  0  0  0  0
   -1.7720   -8.4783    3.8040 H   0  0  0  0  0  0  0  0  0  0  0  0
   -2.6865   -7.6272    2.5528 H   0  0  0  0  0  0  0  0  0  0  0  0
   -0.2227   -8.8744    2.0813 H   0  0  0  0  0  0  0  0  0  0  0  0
   -0.7730   -7.7628    0.8364 H   0  0  0  0  0  0  0  0  0  0  0  0
    1.8189   -7.4525    2.4549 H   0  0  0  0  0  0  0  0  0  0  0  0
    1.7531   -8.2357    0.8853 H   0  0  0  0  0  0  0  0  0  0  0  0
    3.3903   -6.0897    1.4356 H   0  0  0  0  0  0  0  0  0  0  0  0
    3.0833   -6.2618   -0.2779 H   0  0  0  0  0  0  0  0  0  0  0  0
    3.7391   -3.9662    0.0843 H   0  0  0  0  0  0  0  0  0  0  0  0
    2.0137   -3.9349   -0.2533 H   0  0  0  0  0  0  0  0  0  0  0  0
    3.6081   -1.9370    1.4314 H   0  0  0  0  0  0  0  0  0  0  0  0
    1.9106   -1.8890    0.9824 H   0  0  0  0  0  0  0  0  0  0  0  0
    1.2173   -2.1415    3.3220 H   0  0  0  0  0  0  0  0  0  0  0  0
    2.8893   -2.2102    3.8570 H   0  0  0  0  0  0  0  0  0  0  0  0
    3.6436    1.0350    2.9958 H   0  0  0  0  0  0  0  0  0  0  0  0
    0.8072   -0.0481    1.6910 H   0  0  0  0  0  0  0  0  0  0  0  0
    2.6919    1.8201    1.5688 H   0  0  0  0  0  0  0  0  0  0  0  0
    1.0922    2.4500    1.4749 H   0  0  0  0  0  0  0  0  0  0  0  0
    2.3055    4.7821    2.6168 H   0  0  0  0  0  0  0  0  0  0  0  0
    1.9524    5.8685    4.8275 H   0  0  0  0  0  0  0  0  0  0  0  0
    1.1600    5.6221    6.9349 H   0  0  0  0  0  0  0  0  0  0  0  0
    2.7236   -0.9075    5.6295 H   0  0  0  0  0  0  0  0  0  0  0  0
    2.1174    0.3505    6.6160 H   0  0  0  0  0  0  0  0  0  0  0  0
    0.6684   -1.9664    5.3854 H   0  0  0  0  0  0  0  0  0  0  0  0
    0.3317   -1.1968    6.9120 H   0  0  0  0  0  0  0  0  0  0  0  0
   -1.3085   -1.5744    4.3086 H   0  0  0  0  0  0  0  0  0  0  0  0
   -1.0658    0.6378    7.0931 H   0  0  0  0  0  0  0  0  0  0  0  0
   -3.2599    3.3286    6.2999 H   0  0  0  0  0  0  0  0  0  0  0  0
   -1.6305    3.6940    6.8531 H   0  0  0  0  0  0  0  0  0  0  0  0
   -2.5585    2.3973    7.6130 H   0  0  0  0  0  0  0  0  0  0  0  0
   -2.4380    2.9568    3.9920 H   0  0  0  0  0  0  0  0  0  0  0  0
   -0.8541    3.4010    4.5256 H   0  0  0  0  0  0  0  0  0  0  0  0
   -1.7780    0.9509    3.0271 H   0  0  0  0  0  0  0  0  0  0  0  0
   -0.7150    2.1502    2.4951 H   0  0  0  0  0  0  0  0  0  0  0  0
  1  2  1  0
  1 34  1  0
  1 35  1  0
  1 36  1  0
  2  3  1  0
  3  4  1  0
  3 37  1  0
  3 38  1  0
  4  5  1  0
  4 39  1  0
  4 40  1  0
  5  6  1  0
  6  7  1  0
  6 41  1  0
  6 42  1  0
  7  8  1  0
  7 43  1  0
  7 44  1  0
  8  9  1  0
  9 10  1  0
  9 45  1  0
  9 46  1  0
 10 11  1  0
 10 47  1  0
 10 48  1  0
 11 22  1  0
 11 12  1  6
 11 13  1  0
 12 49  1  0
 13 33  1  0
 13 14  1  0
 13 50  1  6
 14 15  1  0
 14 51  1  0
 14 52  1  0
 15 21  2  0
 15 16  1  0
 16 17  2  0
 16 53  1  0
 17 18  1  0
 17 54  1  0
 18 19  1  0
 18 20  2  0
 19 55  1  0
 20 28  1  0
 20 21  1  0
 21 22  1  0
 22 33  1  0
 22 23  1  1
 23 24  1  0
 23 56  1  0
 23 57  1  0
 24 25  1  0
 24 58  1  0
 24 59  1  0
 25 33  1  0
 25 26  1  6
 25 27  1  0
 26 60  1  0
 27 28  1  0
 27 29  1  0
 27 61  1  1
 29 30  1  0
 29 31  1  0
 30 62  1  0
 30 63  1  0
 30 64  1  0
 31 32  1  0
 31 65  1  0
 31 66  1  0
 33 32  1  6
 32 67  1  0
 32 68  1  0
M  END
>  <i_m_ct_stereo_status>  (396) 
1

>  <s_m_source_file>  (396) 
/var/tmp/pbs.5083856.sched01/tmpuexfr_0l/165wzclywyu.sdf

>  <i_m_source_file_index>  (396) 
4

>  <i_lp_mmshare_version>  (396) 
48012

>  <i_f3d_flags>  (396) 
0

>  <s_epik_input>  (396) 
W0NIM11PW0NIMl1bQ0gyXU9bQ0gyXVtDSDJdT1tDSDJdW0NIMl1bQ0BAXTEoW09IXSlbQ0BASF0oW0NAXTIzW0NAQF0xNDUpW0NIMl1jNmM0YyhjKFtPSF0pW2NIXVtjSF02KU9bQ0BIXShbQ0BdMihbT0hdKVtDSDJdW0NIMl01KU4oW0NIM10pW0NIMl1bQ0gyXTM=

>  <s_epik_cmdline>  (396) 
J2VwaWtfcHl0aG9uJywgJy1waHQnLCAnMi4wJywgJy1waCcsICc3LjAnLCAnLXRuJywgJzgnLCAnLW1hJywgJzIwMCcsICctaW1hZScsICc8aW5maWxlLm1hZT4nLCAnLW9tYWUnLCAnPG91dGZpbGUubWFlPic=

>  <r_lp_tautomer_probability>  (396) 
1

>  <r_epik_Ionization_Penalty>  (396) 
0.0934027

>  <r_epik_Ionization_Penalty_Charging>  (396) 
0

>  <r_epik_Ionization_Penalty_Neutral>  (396) 
0.0934027

>  <r_epik_State_Penalty>  (396) 
0.0836258

>  <r_epik_Charging_Adjusted_Penalty>  (396) 
0.0836258

>  <i_epik_Tot_Q>  (396) 
0

>  <i_epik_Tot_abs_Q>  (396) 
0

>  <s_epik_Chemistry_Notes>  (396) 
This compound contains an acetal/aminal-like group ( X-CH(R)-Y where X, Y are N, S, or O) that may be acid/base labile, releasing an aldehyde.

>  <s_lp_Force_Field>  (396) 
OPLS3e

>  <r_lp_Energy>  (396) 
188.239

>  <b_lp_Chiralities_Consistent>  (396) 
1

>  <s_lp_Variant>  (396) 
119:0-1

>  <s_i_glide_gridfile>  (396) 
pfpi4k_grid

>  <i_i_glide_lignum>  (396) 
4

>  <i_i_glide_rotatable_bonds>  (396) 
12

>  <r_i_docking_score>  (396) 
-2.40132

>  <r_i_glide_ligand_efficiency>  (396) 
-0.0727673

>  <r_i_glide_ligand_efficiency_sa>  (396) 
-0.233404

>  <r_i_glide_ligand_efficiency_ln>  (396) 
-0.534041

>  <r_i_glide_gscore>  (396) 
-2.40132

>  <r_i_glide_lipo>  (396) 
-0.119665

>  <r_i_glide_hbond>  (396) 
-0.284063

>  <r_i_glide_metal>  (396) 
-0

>  <r_i_glide_rewards>  (396) 
-0.262173

>  <r_i_glide_evdw>  (396) 
-28.8956

>  <r_i_glide_ecoul>  (396) 
-6.82684

>  <r_i_glide_erotb>  (396) 
0.756228

>  <r_i_glide_esite>  (396) 
-0.0228415

>  <r_i_glide_emodel>  (396) 
-41.0089

>  <r_i_glide_energy>  (396) 
-35.7224

>  <r_i_glide_einternal>  (396) 
1.49666

>  <r_i_glide_intrahb_reward>  (396) 
-0

>  <i_i_glide_confnum>  (396) 
1

>  <i_i_glide_posenum>  (396) 
37

>  <r_i_glide_eff_state_penalty>  (396) 
0

>  <ligand_id>  (396) 
119

>  <original_smiles>  (396) 
COCCOCCOCCC1(O)C2Cc3ccc(O)c4c3C13CCC1(O)C(O4)N(C)CCC213

>  <smiles>  (396) 
[H]Oc1c([H])c([H])c2c3c1OC1([H])N(C([H])([H])[H])C([H])([H])C([H])([H])C45C([H])(C2([H])[H])C(O[H])(C([H])([H])C([H])([H])OC([H])([H])C([H])([H])OC([H])([H])C([H])([H])OC([H])([H])[H])C34C([H])([H])C([H])([H])C15O[H]

$$$$
119:1:0
     RDKit          3D

 69 74  0  0  1  0  0  0  0  0999 V2000
    2.0079   -5.5885    0.1822 C   0  0  0  0  0  0  0  0  0  0  0  0
    0.8103   -6.2528    0.5497 O   0  0  0  0  0  0  0  0  0  0  0  0
    1.0640   -7.3655    1.4051 C   0  0  0  0  0  0  0  0  0  0  0  0
   -0.2132   -7.6621    2.2165 C   0  0  0  0  0  0  0  0  0  0  0  0
   -0.4759   -6.6549    3.1919 O   0  0  0  0  0  0  0  0  0  0  0  0
    0.4473   -6.6127    4.2823 C   0  0  0  0  0  0  0  0  0  0  0  0
    0.1334   -5.4309    5.2011 C   0  0  0  0  0  0  0  0  0  0  0  0
    0.3881   -4.2251    4.4891 O   0  0  0  0  0  0  0  0  0  0  0  0
    0.2272   -3.0632    5.2847 C   0  0  0  0  0  0  0  0  0  0  0  0
    0.2122   -1.8045    4.3808 C   0  0  0  0  0  0  0  0  0  0  0  0
    0.1434   -0.4752    5.1585 C   0  0  1  0  0  0  0  0  0  0  0  0
   -1.0256   -0.6182    5.9542 O   0  0  0  0  0  0  0  0  0  0  0  0
    1.3907   -0.0083    5.7872 C   0  0  2  0  0  0  0  0  0  0  0  0
    1.0488    0.7943    7.0906 C   0  0  0  0  0  0  0  0  0  0  0  0
    0.3145    2.1105    6.7436 C   0  0  0  0  0  0  0  0  0  0  0  0
    0.1809    3.2866    7.4973 C   0  0  0  0  0  0  0  0  0  0  0  0
   -0.1047    4.5054    6.8332 C   0  0  0  0  0  0  0  0  0  0  0  0
   -0.0772    4.5801    5.4047 C   0  0  0  0  0  0  0  0  0  0  0  0
   -0.1634    5.8028    4.8092 O   0  0  0  0  0  0  0  0  0  0  0  0
    0.1222    3.4279    4.6254 C   0  0  0  0  0  0  0  0  0  0  0  0
    0.1105    2.2278    5.3472 C   0  0  0  0  0  0  0  0  0  0  0  0
    0.2483    0.9611    4.5560 C   0  0  2  0  0  0  0  0  0  0  0  0
   -0.5119    0.9086    3.2156 C   0  0  0  0  0  0  0  0  0  0  0  0
    0.5902    0.6271    2.2307 C   0  0  0  0  0  0  0  0  0  0  0  0
    1.7966    1.2224    2.9704 C   0  0  1  0  0  0  0  0  0  0  0  0
    2.9400    0.7156    2.3052 O   0  0  0  0  0  0  0  0  0  0  0  0
    1.5843    2.8060    2.6975 C   0  0  1  0  0  0  0  0  0  0  0  0
    0.4459    3.4949    3.2640 O   0  0  0  0  0  0  0  0  0  0  0  0
    2.9178    3.5053    3.2458 N   0  0  1  0  0  0  0  0  0  0  0  0
    2.9548    4.9346    2.8960 C   0  0  0  0  0  0  0  0  0  0  0  0
    3.1543    3.2508    4.6679 C   0  0  0  0  0  0  0  0  0  0  0  0
    3.0543    1.7611    5.0172 C   0  0  0  0  0  0  0  0  0  0  0  0
    1.8207    0.9123    4.5200 C   0  0  2  0  0  0  0  0  0  0  0  0
    1.7817   -4.7643   -0.4986 H   0  0  0  0  0  0  0  0  0  0  0  0
    2.7049   -6.2570   -0.3041 H   0  0  0  0  0  0  0  0  0  0  0  0
    2.4999   -5.1620    1.0599 H   0  0  0  0  0  0  0  0  0  0  0  0
    1.3425   -8.2348    0.8129 H   0  0  0  0  0  0  0  0  0  0  0  0
    1.9313   -7.1813    2.0425 H   0  0  0  0  0  0  0  0  0  0  0  0
   -1.0671   -7.7180    1.5448 H   0  0  0  0  0  0  0  0  0  0  0  0
   -0.1663   -8.6321    2.7053 H   0  0  0  0  0  0  0  0  0  0  0  0
    0.3979   -7.5582    4.8257 H   0  0  0  0  0  0  0  0  0  0  0  0
    1.4823   -6.4688    3.9748 H   0  0  0  0  0  0  0  0  0  0  0  0
   -0.8914   -5.4853    5.5630 H   0  0  0  0  0  0  0  0  0  0  0  0
    0.8049   -5.4869    6.0590 H   0  0  0  0  0  0  0  0  0  0  0  0
   -0.7036   -3.1393    5.8526 H   0  0  0  0  0  0  0  0  0  0  0  0
    1.0453   -3.0114    6.0006 H   0  0  0  0  0  0  0  0  0  0  0  0
    1.1094   -1.8279    3.7613 H   0  0  0  0  0  0  0  0  0  0  0  0
   -0.6268   -1.9082    3.6969 H   0  0  0  0  0  0  0  0  0  0  0  0
   -1.7071   -0.1759    5.4740 H   0  0  0  0  0  0  0  0  0  0  0  0
    2.0741   -0.8426    5.9493 H   0  0  0  0  0  0  0  0  0  0  0  0
    0.4438    0.2193    7.7950 H   0  0  0  0  0  0  0  0  0  0  0  0
    1.9538    1.0405    7.6433 H   0  0  0  0  0  0  0  0  0  0  0  0
    0.3722    3.2737    8.5689 H   0  0  0  0  0  0  0  0  0  0  0  0
   -0.2171    5.4095    7.4059 H   0  0  0  0  0  0  0  0  0  0  0  0
    0.0967    5.7921    3.8977 H   0  0  0  0  0  0  0  0  0  0  0  0
   -1.2671    0.1282    3.1723 H   0  0  0  0  0  0  0  0  0  0  0  0
   -1.0704    1.8057    2.9452 H   0  0  0  0  0  0  0  0  0  0  0  0
    0.7308   -0.4407    2.0702 H   0  0  0  0  0  0  0  0  0  0  0  0
    0.4110    1.0606    1.2475 H   0  0  0  0  0  0  0  0  0  0  0  0
    3.6698    1.3005    2.3984 H   0  0  0  0  0  0  0  0  0  0  0  0
    1.5549    2.9566    1.6160 H   0  0  0  0  0  0  0  0  0  0  0  0
    2.1740    5.4949    3.4106 H   0  0  0  0  0  0  0  0  0  0  0  0
    2.7984    5.0522    1.8275 H   0  0  0  0  0  0  0  0  0  0  0  0
    3.9190    5.3899    3.1539 H   0  0  0  0  0  0  0  0  0  0  0  0
    4.1651    3.5957    4.9106 H   0  0  0  0  0  0  0  0  0  0  0  0
    2.5088    3.8509    5.3061 H   0  0  0  0  0  0  0  0  0  0  0  0
    3.9580    1.2896    4.6216 H   0  0  0  0  0  0  0  0  0  0  0  0
    3.2181    1.6912    6.0866 H   0  0  0  0  0  0  0  0  0  0  0  0
    3.7172    3.1161    2.7601 H   0  0  0  0  0  0  0  0  0  0  0  0
  1  2  1  0
  1 34  1  0
  1 35  1  0
  1 36  1  0
  2  3  1  0
  3  4  1  0
  3 37  1  0
  3 38  1  0
  4  5  1  0
  4 39  1  0
  4 40  1  0
  5  6  1  0
  6  7  1  0
  6 41  1  0
  6 42  1  0
  7  8  1  0
  7 43  1  0
  7 44  1  0
  8  9  1  0
  9 10  1  0
  9 45  1  0
  9 46  1  0
 10 11  1  0
 10 47  1  0
 10 48  1  0
 11 22  1  0
 11 12  1  1
 11 13  1  0
 12 49  1  0
 13 33  1  0
 13 14  1  0
 13 50  1  1
 14 15  1  0
 14 51  1  0
 14 52  1  0
 15 21  2  0
 15 16  1  0
 16 17  2  0
 16 53  1  0
 17 18  1  0
 17 54  1  0
 18 19  1  0
 18 20  2  0
 19 55  1  0
 20 28  1  0
 20 21  1  0
 21 22  1  0
 22 33  1  0
 22 23  1  6
 23 24  1  0
 23 56  1  0
 23 57  1  0
 24 25  1  0
 24 58  1  0
 24 59  1  0
 25 33  1  0
 25 26  1  6
 25 27  1  0
 26 60  1  0
 27 28  1  0
 27 29  1  0
 27 61  1  6
 29 30  1  0
 29 31  1  0
 29 69  1  6
 30 62  1  0
 30 63  1  0
 30 64  1  0
 31 32  1  0
 31 65  1  0
 31 66  1  0
 33 32  1  1
 32 67  1  0
 32 68  1  0
M  CHG  1  29   1
M  END
>  <i_m_ct_stereo_status>  (397) 
1

>  <s_m_source_file>  (397) 
/var/tmp/pbs.5083856.sched01/tmpuexfr_0l/165wzclywyu.sdf

>  <i_m_source_file_index>  (397) 
5

>  <i_lp_mmshare_version>  (397) 
48012

>  <i_f3d_flags>  (397) 
0

>  <s_epik_input>  (397) 
W0NIM11PW0NIMl1bQ0gyXU9bQ0gyXVtDSDJdT1tDSDJdW0NIMl1bQ0BAXTEoW09IXSlbQ0BASF0oW0NAXTIzW0NAQF0xNDUpW0NIMl1jNmM0YyhjKFtPSF0pW2NIXVtjSF02KU9bQ0BIXShbQ0BdMihbT0hdKVtDSDJdW0NIMl01KU4oW0NIM10pW0NIMl1bQ0gyXTM=

>  <s_epik_cmdline>  (397) 
J2VwaWtfcHl0aG9uJywgJy1waHQnLCAnMi4wJywgJy1waCcsICc3LjAnLCAnLXRuJywgJzgnLCAnLW1hJywgJzIwMCcsICctaW1hZScsICc8aW5maWxlLm1hZT4nLCAnLW9tYWUnLCAnPG91dGZpbGUubWFlPic=

>  <r_lp_tautomer_probability>  (397) 
1

>  <r_epik_Ionization_Penalty>  (397) 
1.14114

>  <r_epik_Ionization_Penalty_Charging>  (397) 
1.14087

>  <r_epik_Ionization_Penalty_Neutral>  (397) 
0.000274554

>  <r_epik_State_Penalty>  (397) 
1.20139

>  <r_epik_Charging_Adjusted_Penalty>  (397) 
2.34226

>  <i_epik_Tot_Q>  (397) 
1

>  <i_epik_Tot_abs_Q>  (397) 
1

>  <s_epik_Chemistry_Notes>  (397) 
This compound contains an acetal/aminal-like group ( X-CH(R)-Y where X, Y are N, S, or O) that may be acid/base labile, releasing an aldehyde.

>  <s_lp_Force_Field>  (397) 
OPLS3e

>  <r_lp_Energy>  (397) 
183.598

>  <b_lp_Chiralities_Consistent>  (397) 
1

>  <s_lp_Variant>  (397) 
119:0-2

>  <s_i_glide_gridfile>  (397) 
pfpi4k_grid

>  <i_i_glide_lignum>  (397) 
5

>  <i_i_glide_rotatable_bonds>  (397) 
12

>  <r_i_docking_score>  (397) 
-3.48836

>  <r_i_glide_ligand_efficiency>  (397) 
-0.105708

>  <r_i_glide_ligand_efficiency_sa>  (397) 
-0.339062

>  <r_i_glide_ligand_efficiency_ln>  (397) 
-0.775793

>  <r_i_glide_gscore>  (397) 
-3.48836

>  <r_i_glide_lipo>  (397) 
-0.0967885

>  <r_i_glide_hbond>  (397) 
-0.466146

>  <r_i_glide_metal>  (397) 
-0

>  <r_i_glide_rewards>  (397) 
-0.255301

>  <r_i_glide_evdw>  (397) 
-24.7297

>  <r_i_glide_ecoul>  (397) 
-13.862

>  <r_i_glide_erotb>  (397) 
0.753228

>  <r_i_glide_esite>  (397) 
-0.107567

>  <r_i_glide_emodel>  (397) 
-47.2507

>  <r_i_glide_energy>  (397) 
-38.5917

>  <r_i_glide_einternal>  (397) 
3.40581

>  <r_i_glide_intrahb_reward>  (397) 
-0

>  <i_i_glide_confnum>  (397) 
4

>  <i_i_glide_posenum>  (397) 
17

>  <r_i_glide_eff_state_penalty>  (397) 
0

>  <ligand_id>  (397) 
119

>  <original_smiles>  (397) 
COCCOCCOCCC1(O)C2Cc3ccc(O)c4c3C13CCC1(O)C(O4)N(C)CCC213

>  <smiles>  (397) 
[H]Oc1c([H])c([H])c2c3c1OC1([H])C4(O[H])C([H])([H])C([H])([H])C35C(O[H])(C([H])([H])C([H])([H])OC([H])([H])C([H])([H])OC([H])([H])C([H])([H])OC([H])([H])[H])C([H])(C2([H])[H])C45C([H])([H])C([H])([H])[N+]1([H])C([H])([H])[H]

$$$$
119:1:1
     RDKit          3D

 69 74  0  0  1  0  0  0  0  0999 V2000
    2.1474   -5.5628    0.1923 C   0  0  0  0  0  0  0  0  0  0  0  0
    0.9266   -6.2048    0.5252 O   0  0  0  0  0  0  0  0  0  0  0  0
    1.1350   -7.3351    1.3618 C   0  0  0  0  0  0  0  0  0  0  0  0
   -0.1787   -7.6302    2.1186 C   0  0  0  0  0  0  0  0  0  0  0  0
   -0.4846   -6.6382    3.0985 O   0  0  0  0  0  0  0  0  0  0  0  0
    0.3697   -6.6381    4.2461 C   0  0  0  0  0  0  0  0  0  0  0  0
    0.0130   -5.4802    5.1742 C   0  0  0  0  0  0  0  0  0  0  0  0
    0.2592   -4.2598    4.4910 O   0  0  0  0  0  0  0  0  0  0  0  0
    0.0232   -3.1173    5.2953 C   0  0  0  0  0  0  0  0  0  0  0  0
   -0.0503   -1.8664    4.3881 C   0  0  0  0  0  0  0  0  0  0  0  0
   -0.0445   -0.5350    5.1602 C   0  0  1  0  0  0  0  0  0  0  0  0
   -1.1846   -0.6608    5.9887 O   0  0  0  0  0  0  0  0  0  0  0  0
    1.2330   -0.1036    5.7424 C   0  0  2  0  0  0  0  0  0  0  0  0
    0.9600    0.7026    7.0631 C   0  0  0  0  0  0  0  0  0  0  0  0
    0.2589    2.0518    6.7607 C   0  0  0  0  0  0  0  0  0  0  0  0
    0.2017    3.2279    7.5120 C   0  0  0  0  0  0  0  0  0  0  0  0
   -0.0668    4.4546    6.8509 C   0  0  0  0  0  0  0  0  0  0  0  0
   -0.0937    4.5328    5.4293 C   0  0  0  0  0  0  0  0  0  0  0  0
   -0.1755    5.7453    4.8226 O   0  0  0  0  0  0  0  0  0  0  0  0
    0.0477    3.3663    4.6325 C   0  0  0  0  0  0  0  0  0  0  0  0
    0.0142    2.1727    5.3628 C   0  0  0  0  0  0  0  0  0  0  0  0
    0.0769    0.9075    4.5643 C   0  0  2  0  0  0  0  0  0  0  0  0
   -0.7390    0.8881    3.2556 C   0  0  0  0  0  0  0  0  0  0  0  0
    0.3101    0.5712    2.2250 C   0  0  0  0  0  0  0  0  0  0  0  0
    1.5564    1.1168    2.9149 C   0  0  1  0  0  0  0  0  0  0  0  0
    2.6659    0.5874    2.2236 O   0  0  0  0  0  0  0  0  0  0  0  0
    1.4094    2.6986    2.6450 C   0  0  1  0  0  0  0  0  0  0  0  0
    0.3116    3.4222    3.2744 O   0  0  0  0  0  0  0  0  0  0  0  0
    2.7792    3.3342    3.1421 N   0  0  1  0  0  0  0  0  0  0  0  0
    2.8589    4.7644    2.7862 C   0  0  0  0  0  0  0  0  0  0  0  0
    3.0607    3.0745    4.5523 C   0  0  0  0  0  0  0  0  0  0  0  0
    2.9208    1.5928    4.9008 C   0  0  0  0  0  0  0  0  0  0  0  0
    1.6378    0.8018    4.4574 C   0  0  2  0  0  0  0  0  0  0  0  0
    1.9616   -4.7236   -0.4783 H   0  0  0  0  0  0  0  0  0  0  0  0
    2.8319   -6.2531   -0.2975 H   0  0  0  0  0  0  0  0  0  0  0  0
    2.6443   -5.1760    1.0830 H   0  0  0  0  0  0  0  0  0  0  0  0
    1.4024   -8.1978    0.7543 H   0  0  0  0  0  0  0  0  0  0  0  0
    1.9989   -7.1880    2.0128 H   0  0  0  0  0  0  0  0  0  0  0  0
   -0.9938   -7.6704    1.3984 H   0  0  0  0  0  0  0  0  0  0  0  0
   -0.1685   -8.6159    2.5799 H   0  0  0  0  0  0  0  0  0  0  0  0
    0.2848   -7.6011    4.7570 H   0  0  0  0  0  0  0  0  0  0  0  0
    1.4232   -6.4791    4.0247 H   0  0  0  0  0  0  0  0  0  0  0  0
   -1.0176   -5.5582    5.5050 H   0  0  0  0  0  0  0  0  0  0  0  0
    0.6609   -5.5397    6.0485 H   0  0  0  0  0  0  0  0  0  0  0  0
   -0.9078   -3.2306    5.8595 H   0  0  0  0  0  0  0  0  0  0  0  0
    0.8354   -3.0336    6.0149 H   0  0  0  0  0  0  0  0  0  0  0  0
    0.7855   -1.9123    3.6933 H   0  0  0  0  0  0  0  0  0  0  0  0
   -0.9593   -1.9594    3.7987 H   0  0  0  0  0  0  0  0  0  0  0  0
   -1.8315   -0.1362    5.5491 H   0  0  0  0  0  0  0  0  0  0  0  0
    1.8957   -0.9557    5.8639 H   0  0  0  0  0  0  0  0  0  0  0  0
    0.3637    0.1400    7.7875 H   0  0  0  0  0  0  0  0  0  0  0  0
    1.8992    0.9171    7.5730 H   0  0  0  0  0  0  0  0  0  0  0  0
    0.4409    3.2150    8.5802 H   0  0  0  0  0  0  0  0  0  0  0  0
   -0.1253    5.3710    7.4201 H   0  0  0  0  0  0  0  0  0  0  0  0
    0.0850    5.7367    3.9095 H   0  0  0  0  0  0  0  0  0  0  0  0
   -1.5063    0.1245    3.2445 H   0  0  0  0  0  0  0  0  0  0  0  0
   -1.2831    1.7988    3.0084 H   0  0  0  0  0  0  0  0  0  0  0  0
    0.4134   -0.4975    2.0619 H   0  0  0  0  0  0  0  0  0  0  0  0
    0.1171    1.0195    1.2506 H   0  0  0  0  0  0  0  0  0  0  0  0
    2.4747    0.6124    1.3005 H   0  0  0  0  0  0  0  0  0  0  0  0
    1.4120    2.8916    1.5694 H   0  0  0  0  0  0  0  0  0  0  0  0
    2.1171    5.3509    3.3280 H   0  0  0  0  0  0  0  0  0  0  0  0
    2.6578    4.8983    1.7241 H   0  0  0  0  0  0  0  0  0  0  0  0
    3.8395    5.1932    3.0077 H   0  0  0  0  0  0  0  0  0  0  0  0
    4.0882    3.3810    4.7506 H   0  0  0  0  0  0  0  0  0  0  0  0
    2.4648    3.6956    5.2134 H   0  0  0  0  0  0  0  0  0  0  0  0
    3.7877    1.0907    4.4621 H   0  0  0  0  0  0  0  0  0  0  0  0
    3.1253    1.5237    5.9625 H   0  0  0  0  0  0  0  0  0  0  0  0
    3.5444    2.8850    2.6449 H   0  0  0  0  0  0  0  0  0  0  0  0
  1  2  1  0
  1 34  1  0
  1 35  1  0
  1 36  1  0
  2  3  1  0
  3  4  1  0
  3 37  1  0
  3 38  1  0
  4  5  1  0
  4 39  1  0
  4 40  1  0
  5  6  1  0
  6  7  1  0
  6 41  1  0
  6 42  1  0
  7  8  1  0
  7 43  1  0
  7 44  1  0
  8  9  1  0
  9 10  1  0
  9 45  1  0
  9 46  1  0
 10 11  1  0
 10 47  1  0
 10 48  1  0
 11 22  1  0
 11 12  1  1
 11 13  1  0
 12 49  1  0
 13 33  1  0
 13 14  1  0
 13 50  1  1
 14 15  1  0
 14 51  1  0
 14 52  1  0
 15 21  2  0
 15 16  1  0
 16 17  2  0
 16 53  1  0
 17 18  1  0
 17 54  1  0
 18 19  1  0
 18 20  2  0
 19 55  1  0
 20 28  1  0
 20 21  1  0
 21 22  1  0
 22 33  1  0
 22 23  1  6
 23 24  1  0
 23 56  1  0
 23 57  1  0
 24 25  1  0
 24 58  1  0
 24 59  1  0
 25 33  1  0
 25 26  1  6
 25 27  1  0
 26 60  1  0
 27 28  1  0
 27 29  1  0
 27 61  1  6
 29 30  1  0
 29 31  1  0
 29 69  1  6
 30 62  1  0
 30 63  1  0
 30 64  1  0
 31 32  1  0
 31 65  1  0
 31 66  1  0
 33 32  1  1
 32 67  1  0
 32 68  1  0
M  CHG  1  29   1
M  END
>  <i_m_ct_stereo_status>  (398) 
1

>  <s_m_source_file>  (398) 
/var/tmp/pbs.5083856.sched01/tmpuexfr_0l/165wzclywyu.sdf

>  <i_m_source_file_index>  (398) 
5

>  <i_lp_mmshare_version>  (398) 
48012

>  <i_f3d_flags>  (398) 
0

>  <s_epik_input>  (398) 
W0NIM11PW0NIMl1bQ0gyXU9bQ0gyXVtDSDJdT1tDSDJdW0NIMl1bQ0BAXTEoW09IXSlbQ0BASF0oW0NAXTIzW0NAQF0xNDUpW0NIMl1jNmM0YyhjKFtPSF0pW2NIXVtjSF02KU9bQ0BIXShbQ0BdMihbT0hdKVtDSDJdW0NIMl01KU4oW0NIM10pW0NIMl1bQ0gyXTM=

>  <s_epik_cmdline>  (398) 
J2VwaWtfcHl0aG9uJywgJy1waHQnLCAnMi4wJywgJy1waCcsICc3LjAnLCAnLXRuJywgJzgnLCAnLW1hJywgJzIwMCcsICctaW1hZScsICc8aW5maWxlLm1hZT4nLCAnLW9tYWUnLCAnPG91dGZpbGUubWFlPic=

>  <r_lp_tautomer_probability>  (398) 
1

>  <r_epik_Ionization_Penalty>  (398) 
1.14114

>  <r_epik_Ionization_Penalty_Charging>  (398) 
1.14087

>  <r_epik_Ionization_Penalty_Neutral>  (398) 
0.000274554

>  <r_epik_State_Penalty>  (398) 
1.20139

>  <r_epik_Charging_Adjusted_Penalty>  (398) 
2.34226

>  <i_epik_Tot_Q>  (398) 
1

>  <i_epik_Tot_abs_Q>  (398) 
1

>  <s_epik_Chemistry_Notes>  (398) 
This compound contains an acetal/aminal-like group ( X-CH(R)-Y where X, Y are N, S, or O) that may be acid/base labile, releasing an aldehyde.

>  <s_lp_Force_Field>  (398) 
OPLS3e

>  <r_lp_Energy>  (398) 
183.598

>  <b_lp_Chiralities_Consistent>  (398) 
1

>  <s_lp_Variant>  (398) 
119:0-2

>  <s_i_glide_gridfile>  (398) 
pfpi4k_grid

>  <i_i_glide_lignum>  (398) 
5

>  <i_i_glide_rotatable_bonds>  (398) 
12

>  <r_i_docking_score>  (398) 
-3.26075

>  <r_i_glide_ligand_efficiency>  (398) 
-0.0988105

>  <r_i_glide_ligand_efficiency_sa>  (398) 
-0.316938

>  <r_i_glide_ligand_efficiency_ln>  (398) 
-0.725173

>  <r_i_glide_gscore>  (398) 
-3.26075

>  <r_i_glide_lipo>  (398) 
-0.0636922

>  <r_i_glide_hbond>  (398) 
-0.374

>  <r_i_glide_metal>  (398) 
-0

>  <r_i_glide_rewards>  (398) 
-0.255301

>  <r_i_glide_evdw>  (398) 
-24.4739

>  <r_i_glide_ecoul>  (398) 
-13.1684

>  <r_i_glide_erotb>  (398) 
0.753228

>  <r_i_glide_esite>  (398) 
-0.122017

>  <r_i_glide_emodel>  (398) 
-45.5899

>  <r_i_glide_energy>  (398) 
-37.6424

>  <r_i_glide_einternal>  (398) 
3.33472

>  <r_i_glide_intrahb_reward>  (398) 
-0

>  <i_i_glide_confnum>  (398) 
4

>  <i_i_glide_posenum>  (398) 
19

>  <r_i_glide_eff_state_penalty>  (398) 
0

>  <ligand_id>  (398) 
119

>  <original_smiles>  (398) 
COCCOCCOCCC1(O)C2Cc3ccc(O)c4c3C13CCC1(O)C(O4)N(C)CCC213

>  <smiles>  (398) 
[H]Oc1c([H])c([H])c2c3c1OC1([H])C4(O[H])C([H])([H])C([H])([H])C35C(O[H])(C([H])([H])C([H])([H])OC([H])([H])C([H])([H])OC([H])([H])C([H])([H])OC([H])([H])[H])C([H])(C2([H])[H])C45C([H])([H])C([H])([H])[N+]1([H])C([H])([H])[H]

$$$$
119:1:2
     RDKit          3D

 69 74  0  0  1  0  0  0  0  0999 V2000
   -1.5414   -7.8725    3.9545 C   0  0  0  0  0  0  0  0  0  0  0  0
   -1.5817   -7.2639    2.6725 O   0  0  0  0  0  0  0  0  0  0  0  0
   -0.7349   -7.8877    1.7109 C   0  0  0  0  0  0  0  0  0  0  0  0
    0.7487   -7.6091    1.9983 C   0  0  0  0  0  0  0  0  0  0  0  0
    0.9151   -6.2039    2.1172 O   0  0  0  0  0  0  0  0  0  0  0  0
    2.1833   -5.8468    2.6460 C   0  0  0  0  0  0  0  0  0  0  0  0
    2.1072   -4.4322    3.2233 C   0  0  0  0  0  0  0  0  0  0  0  0
    1.2155   -4.4484    4.3342 O   0  0  0  0  0  0  0  0  0  0  0  0
    1.2028   -3.2562    5.1150 C   0  0  0  0  0  0  0  0  0  0  0  0
    0.7082   -2.0276    4.3082 C   0  0  0  0  0  0  0  0  0  0  0  0
    0.5672   -0.7235    5.1234 C   0  0  1  0  0  0  0  0  0  0  0  0
   -0.5105   -1.0133    5.9968 O   0  0  0  0  0  0  0  0  0  0  0  0
    1.8330   -0.1570    5.6570 C   0  0  2  0  0  0  0  0  0  0  0  0
    1.5133    0.5871    7.0106 C   0  0  0  0  0  0  0  0  0  0  0  0
    0.6352    1.8387    6.7475 C   0  0  0  0  0  0  0  0  0  0  0  0
    0.4448    2.9714    7.5377 C   0  0  0  0  0  0  0  0  0  0  0  0
   -0.0091    4.1607    6.9186 C   0  0  0  0  0  0  0  0  0  0  0  0
   -0.1116    4.2623    5.5045 C   0  0  0  0  0  0  0  0  0  0  0  0
   -0.3602    5.4678    4.9282 O   0  0  0  0  0  0  0  0  0  0  0  0
    0.1305    3.1459    4.6610 C   0  0  0  0  0  0  0  0  0  0  0  0
    0.3003    1.9482    5.3697 C   0  0  0  0  0  0  0  0  0  0  0  0
    0.5054    0.7198    4.5420 C   0  0  2  0  0  0  0  0  0  0  0  0
   -0.3685    0.6008    3.2819 C   0  0  0  0  0  0  0  0  0  0  0  0
    0.6621    0.4555    2.1949 C   0  0  0  0  0  0  0  0  0  0  0  0
    1.8642    1.1454    2.8388 C   0  0  1  0  0  0  0  0  0  0  0  0
    3.0026    0.7511    2.0872 O   0  0  0  0  0  0  0  0  0  0  0  0
    1.4959    2.7009    2.6101 C   0  0  1  0  0  0  0  0  0  0  0  0
    0.3247    3.2565    3.2839 O   0  0  0  0  0  0  0  0  0  0  0  0
    2.7808    3.5183    3.0806 N   0  0  1  0  0  0  0  0  0  0  0  0
    2.6643    4.9581    2.7639 C   0  0  0  0  0  0  0  0  0  0  0  0
    3.1616    3.2695    4.4825 C   0  0  0  0  0  0  0  0  0  0  0  0
    3.2391    1.7713    4.7933 C   0  0  0  0  0  0  0  0  0  0  0  0
    2.0615    0.8208    4.3739 C   0  0  2  0  0  0  0  0  0  0  0  0
   -2.2083   -7.3370    4.6246 H   0  0  0  0  0  0  0  0  0  0  0  0
   -0.5547   -7.8172    4.4093 H   0  0  0  0  0  0  0  0  0  0  0  0
   -1.8487   -8.9183    3.9080 H   0  0  0  0  0  0  0  0  0  0  0  0
   -0.9355   -8.9596    1.6746 H   0  0  0  0  0  0  0  0  0  0  0  0
   -0.9852   -7.4970    0.7260 H   0  0  0  0  0  0  0  0  0  0  0  0
    1.0544   -8.1184    2.9116 H   0  0  0  0  0  0  0  0  0  0  0  0
    1.3863   -8.0019    1.2054 H   0  0  0  0  0  0  0  0  0  0  0  0
    2.5139   -6.5266    3.4322 H   0  0  0  0  0  0  0  0  0  0  0  0
    2.9150   -5.9018    1.8411 H   0  0  0  0  0  0  0  0  0  0  0  0
    3.1017   -4.1158    3.5446 H   0  0  0  0  0  0  0  0  0  0  0  0
    1.7735   -3.7395    2.4512 H   0  0  0  0  0  0  0  0  0  0  0  0
    0.5539   -3.4398    5.9738 H   0  0  0  0  0  0  0  0  0  0  0  0
    2.2016   -3.0840    5.5181 H   0  0  0  0  0  0  0  0  0  0  0  0
    1.4225   -1.8818    3.5079 H   0  0  0  0  0  0  0  0  0  0  0  0
   -0.2522   -2.2845    3.8565 H   0  0  0  0  0  0  0  0  0  0  0  0
   -0.1556   -1.6019    6.6459 H   0  0  0  0  0  0  0  0  0  0  0  0
    2.6253   -0.8990    5.7515 H   0  0  0  0  0  0  0  0  0  0  0  0
    1.0266   -0.0621    7.7482 H   0  0  0  0  0  0  0  0  0  0  0  0
    2.4381    0.9127    7.4953 H   0  0  0  0  0  0  0  0  0  0  0  0
    0.7250    2.9650    8.5916 H   0  0  0  0  0  0  0  0  0  0  0  0
   -0.1644    5.0415    7.5178 H   0  0  0  0  0  0  0  0  0  0  0  0
   -0.1834    5.4633    3.9941 H   0  0  0  0  0  0  0  0  0  0  0  0
   -1.0294   -0.2577    3.3044 H   0  0  0  0  0  0  0  0  0  0  0  0
   -1.0411    1.4287    3.0862 H   0  0  0  0  0  0  0  0  0  0  0  0
    0.8901   -0.5779    1.9660 H   0  0  0  0  0  0  0  0  0  0  0  0
    0.3631    0.9021    1.2479 H   0  0  0  0  0  0  0  0  0  0  0  0
    3.7218    1.3477    2.2277 H   0  0  0  0  0  0  0  0  0  0  0  0
    1.4206    2.8916    1.5364 H   0  0  0  0  0  0  0  0  0  0  0  0
    1.8744    5.4267    3.3538 H   0  0  0  0  0  0  0  0  0  0  0  0
    2.4083    5.0694    1.7053 H   0  0  0  0  0  0  0  0  0  0  0  0
    3.6051    5.4821    2.9513 H   0  0  0  0  0  0  0  0  0  0  0  0
    4.1463    3.7000    4.6405 H   0  0  0  0  0  0  0  0  0  0  0  0
    2.5142    3.7862    5.1801 H   0  0  0  0  0  0  0  0  0  0  0  0
    4.1437    1.3931    4.3165 H   0  0  0  0  0  0  0  0  0  0  0  0
    3.4962    1.7045    5.8490 H   0  0  0  0  0  0  0  0  0  0  0  0
    3.5748    3.2156    2.5365 H   0  0  0  0  0  0  0  0  0  0  0  0
  1  2  1  0
  1 34  1  0
  1 35  1  0
  1 36  1  0
  2  3  1  0
  3  4  1  0
  3 37  1  0
  3 38  1  0
  4  5  1  0
  4 39  1  0
  4 40  1  0
  5  6  1  0
  6  7  1  0
  6 41  1  0
  6 42  1  0
  7  8  1  0
  7 43  1  0
  7 44  1  0
  8  9  1  0
  9 10  1  0
  9 45  1  0
  9 46  1  0
 10 11  1  0
 10 47  1  0
 10 48  1  0
 11 22  1  0
 11 12  1  1
 11 13  1  0
 12 49  1  0
 13 33  1  0
 13 14  1  0
 13 50  1  1
 14 15  1  0
 14 51  1  0
 14 52  1  0
 15 21  2  0
 15 16  1  0
 16 17  2  0
 16 53  1  0
 17 18  1  0
 17 54  1  0
 18 19  1  0
 18 20  2  0
 19 55  1  0
 20 28  1  0
 20 21  1  0
 21 22  1  0
 22 33  1  0
 22 23  1  6
 23 24  1  0
 23 56  1  0
 23 57  1  0
 24 25  1  0
 24 58  1  0
 24 59  1  0
 25 33  1  0
 25 26  1  6
 25 27  1  0
 26 60  1  0
 27 28  1  0
 27 29  1  0
 27 61  1  6
 29 30  1  0
 29 31  1  0
 29 69  1  6
 30 62  1  0
 30 63  1  0
 30 64  1  0
 31 32  1  0
 31 65  1  0
 31 66  1  0
 33 32  1  1
 32 67  1  0
 32 68  1  0
M  CHG  1  29   1
M  END
>  <i_m_ct_stereo_status>  (399) 
1

>  <s_m_source_file>  (399) 
/var/tmp/pbs.5083856.sched01/tmpuexfr_0l/165wzclywyu.sdf

>  <i_m_source_file_index>  (399) 
5

>  <i_lp_mmshare_version>  (399) 
48012

>  <i_f3d_flags>  (399) 
0

>  <s_epik_input>  (399) 
W0NIM11PW0NIMl1bQ0gyXU9bQ0gyXVtDSDJdT1tDSDJdW0NIMl1bQ0BAXTEoW09IXSlbQ0BASF0oW0NAXTIzW0NAQF0xNDUpW0NIMl1jNmM0YyhjKFtPSF0pW2NIXVtjSF02KU9bQ0BIXShbQ0BdMihbT0hdKVtDSDJdW0NIMl01KU4oW0NIM10pW0NIMl1bQ0gyXTM=

>  <s_epik_cmdline>  (399) 
J2VwaWtfcHl0aG9uJywgJy1waHQnLCAnMi4wJywgJy1waCcsICc3LjAnLCAnLXRuJywgJzgnLCAnLW1hJywgJzIwMCcsICctaW1hZScsICc8aW5maWxlLm1hZT4nLCAnLW9tYWUnLCAnPG91dGZpbGUubWFlPic=

>  <r_lp_tautomer_probability>  (399) 
1

>  <r_epik_Ionization_Penalty>  (399) 
1.14114

>  <r_epik_Ionization_Penalty_Charging>  (399) 
1.14087

>  <r_epik_Ionization_Penalty_Neutral>  (399) 
0.000274554

>  <r_epik_State_Penalty>  (399) 
1.20139

>  <r_epik_Charging_Adjusted_Penalty>  (399) 
2.34226

>  <i_epik_Tot_Q>  (399) 
1

>  <i_epik_Tot_abs_Q>  (399) 
1

>  <s_epik_Chemistry_Notes>  (399) 
This compound contains an acetal/aminal-like group ( X-CH(R)-Y where X, Y are N, S, or O) that may be acid/base labile, releasing an aldehyde.

>  <s_lp_Force_Field>  (399) 
OPLS3e

>  <r_lp_Energy>  (399) 
183.598

>  <b_lp_Chiralities_Consistent>  (399) 
1

>  <s_lp_Variant>  (399) 
119:0-2

>  <s_i_glide_gridfile>  (399) 
pfpi4k_grid

>  <i_i_glide_lignum>  (399) 
5

>  <i_i_glide_rotatable_bonds>  (399) 
12

>  <r_i_docking_score>  (399) 
-3.07995

>  <r_i_glide_ligand_efficiency>  (399) 
-0.0933317

>  <r_i_glide_ligand_efficiency_sa>  (399) 
-0.299365

>  <r_i_glide_ligand_efficiency_ln>  (399) 
-0.684964

>  <r_i_glide_gscore>  (399) 
-3.07995

>  <r_i_glide_lipo>  (399) 
-0.0251055

>  <r_i_glide_hbond>  (399) 
-0.372107

>  <r_i_glide_metal>  (399) 
-0

>  <r_i_glide_rewards>  (399) 
-0.255301

>  <r_i_glide_evdw>  (399) 
-24.8191

>  <r_i_glide_ecoul>  (399) 
-12.1256

>  <r_i_glide_erotb>  (399) 
0.753228

>  <r_i_glide_esite>  (399) 
-0.120871

>  <r_i_glide_emodel>  (399) 
-43.9774

>  <r_i_glide_energy>  (399) 
-36.9447

>  <r_i_glide_einternal>  (399) 
4.00182

>  <r_i_glide_intrahb_reward>  (399) 
-0

>  <i_i_glide_confnum>  (399) 
9

>  <i_i_glide_posenum>  (399) 
26

>  <r_i_glide_eff_state_penalty>  (399) 
0

>  <ligand_id>  (399) 
119

>  <original_smiles>  (399) 
COCCOCCOCCC1(O)C2Cc3ccc(O)c4c3C13CCC1(O)C(O4)N(C)CCC213

>  <smiles>  (399) 
[H]Oc1c([H])c([H])c2c3c1OC1([H])C4(O[H])C([H])([H])C([H])([H])C35C(O[H])(C([H])([H])C([H])([H])OC([H])([H])C([H])([H])OC([H])([H])C([H])([H])OC([H])([H])[H])C([H])(C2([H])[H])C45C([H])([H])C([H])([H])[N+]1([H])C([H])([H])[H]

$$$$
121:0:0
     RDKit          3D

 74 78  0  0  1  0  0  0  0  0999 V2000
   -2.2810    4.0930    2.8845 C   0  0  0  0  0  0  0  0  0  0  0  0
   -1.2349    3.1843    3.5470 C   0  0  1  0  0  0  0  0  0  0  0  0
   -0.5405    2.5421    2.5021 O   0  0  0  0  0  0  0  0  0  0  0  0
   -0.4510    4.0751    4.3148 O   0  0  0  0  0  0  0  0  0  0  0  0
    0.9654    3.8976    4.4837 C   0  0  1  0  0  0  0  0  0  0  0  0
    1.7971    4.7817    3.5852 C   0  0  0  0  0  0  0  0  0  0  0  0
    3.1229    4.9279    3.8102 C   0  0  0  0  0  0  0  0  0  0  0  0
    3.7834    4.5158    5.1264 C   0  0  0  0  0  0  0  0  0  0  0  0
    2.9123    3.6730    6.1584 C   0  0  1  0  0  0  0  0  0  0  0  0
    3.3590    4.1227    7.5938 C   0  0  0  0  0  0  0  0  0  0  0  0
    1.3962    4.2617    5.9264 C   0  0  2  0  0  0  0  0  0  0  0  0
    0.3570    3.8381    6.9861 C   0  0  0  0  0  0  0  0  0  0  0  0
    1.2430    5.8492    5.9952 C   0  0  0  0  0  0  0  0  0  0  0  0
    1.2509    6.4579    7.0680 O   0  0  0  0  0  0  0  0  0  0  0  0
    0.9756    6.6670    4.6832 C   0  0  0  0  0  0  0  0  0  0  0  0
    1.1305    5.9497    3.4267 O   0  0  0  0  0  0  0  0  0  0  0  0
    3.4012    2.0706    6.0011 C   0  0  2  0  0  0  0  0  0  0  0  0
    4.8863    2.0364    6.5606 C   0  0  0  0  0  0  0  0  0  0  0  0
    3.6529    1.6768    4.5105 C   0  0  0  0  0  0  0  0  0  0  0  0
    3.6128    0.1647    4.4088 C   0  0  0  0  0  0  0  0  0  0  0  0
    2.4592   -0.2659    5.3252 C   0  0  2  0  0  0  0  0  0  0  0  0
    1.0288   -0.4307    4.6450 C   0  0  0  0  0  0  0  0  0  0  0  0
    1.0889   -0.2592    3.0986 C   0  0  0  0  0  0  0  0  0  0  0  0
    0.5305   -1.8842    4.8636 C   0  0  0  0  0  0  0  0  0  0  0  0
    0.0242    0.5725    5.2860 C   0  0  2  0  0  0  0  0  0  0  0  0
   -0.0103    0.4127    6.8068 C   0  0  0  0  0  0  0  0  0  0  0  0
    1.3371    0.8073    7.4514 C   0  0  0  0  0  0  0  0  0  0  0  0
    2.6339    0.7060    6.5688 C   0  0  2  0  0  0  0  0  0  0  0  0
    3.5475   -0.1156    7.5521 C   0  0  0  0  0  0  0  0  0  0  0  0
   -1.3768    0.7184    4.6317 C   0  0  0  0  0  0  0  0  0  0  0  0
   -1.9711    2.1518    4.4903 C   0  0  1  0  0  0  0  0  0  0  0  0
   -2.3310    2.7127    5.7381 O   0  0  0  0  0  0  0  0  0  0  0  0
   -1.7890    4.8428    2.2619 H   0  0  0  0  0  0  0  0  0  0  0  0
   -2.8584    4.6055    3.6545 H   0  0  0  0  0  0  0  0  0  0  0  0
   -2.9697    3.5121    2.2726 H   0  0  0  0  0  0  0  0  0  0  0  0
   -0.2781    3.2030    1.8547 H   0  0  0  0  0  0  0  0  0  0  0  0
    1.2433    2.9228    4.1679 H   0  0  0  0  0  0  0  0  0  0  0  0
    3.6401    5.7305    3.3098 H   0  0  0  0  0  0  0  0  0  0  0  0
    4.7556    4.1096    4.8799 H   0  0  0  0  0  0  0  0  0  0  0  0
    4.0292    5.4688    5.5988 H   0  0  0  0  0  0  0  0  0  0  0  0
    3.0209    3.4238    8.3589 H   0  0  0  0  0  0  0  0  0  0  0  0
    3.0073    5.1026    7.8917 H   0  0  0  0  0  0  0  0  0  0  0  0
    4.4406    4.2252    7.6949 H   0  0  0  0  0  0  0  0  0  0  0  0
   -0.0355    2.8705    6.7714 H   0  0  0  0  0  0  0  0  0  0  0  0
   -0.5259    4.4793    6.9926 H   0  0  0  0  0  0  0  0  0  0  0  0
    0.7444    3.8595    8.0065 H   0  0  0  0  0  0  0  0  0  0  0  0
   -0.0568    7.0095    4.7252 H   0  0  0  0  0  0  0  0  0  0  0  0
    1.5854    7.5701    4.6870 H   0  0  0  0  0  0  0  0  0  0  0  0
    5.4559    1.1747    6.2257 H   0  0  0  0  0  0  0  0  0  0  0  0
    4.9425    2.0457    7.6474 H   0  0  0  0  0  0  0  0  0  0  0  0
    5.5206    2.8605    6.2543 H   0  0  0  0  0  0  0  0  0  0  0  0
    2.9390    2.0611    3.8027 H   0  0  0  0  0  0  0  0  0  0  0  0
    4.6082    2.0291    4.1265 H   0  0  0  0  0  0  0  0  0  0  0  0
    3.5841   -0.1781    3.3777 H   0  0  0  0  0  0  0  0  0  0  0  0
    4.5479   -0.2403    4.7924 H   0  0  0  0  0  0  0  0  0  0  0  0
    2.7329   -1.2766    5.6328 H   0  0  0  0  0  0  0  0  0  0  0  0
    0.1487   -0.4855    2.6043 H   0  0  0  0  0  0  0  0  0  0  0  0
    1.7854   -0.9581    2.6333 H   0  0  0  0  0  0  0  0  0  0  0  0
    1.3687    0.7508    2.8012 H   0  0  0  0  0  0  0  0  0  0  0  0
   -0.5088   -2.0014    4.5536 H   0  0  0  0  0  0  0  0  0  0  0  0
    0.6054   -2.2021    5.9036 H   0  0  0  0  0  0  0  0  0  0  0  0
    1.1213   -2.5962    4.2841 H   0  0  0  0  0  0  0  0  0  0  0  0
    0.4743    1.5183    5.1552 H   0  0  0  0  0  0  0  0  0  0  0  0
   -0.8266    0.9850    7.2512 H   0  0  0  0  0  0  0  0  0  0  0  0
   -0.2454   -0.6144    7.0693 H   0  0  0  0  0  0  0  0  0  0  0  0
    1.3202    1.7620    7.9531 H   0  0  0  0  0  0  0  0  0  0  0  0
    1.3856    0.1380    8.3205 H   0  0  0  0  0  0  0  0  0  0  0  0
    3.0711   -1.0481    7.8595 H   0  0  0  0  0  0  0  0  0  0  0  0
    3.7501    0.4359    8.4723 H   0  0  0  0  0  0  0  0  0  0  0  0
    4.4934   -0.4465    7.1250 H   0  0  0  0  0  0  0  0  0  0  0  0
   -1.4329    0.2701    3.6493 H   0  0  0  0  0  0  0  0  0  0  0  0
   -2.0793    0.1251    5.2134 H   0  0  0  0  0  0  0  0  0  0  0  0
   -2.9349    1.9835    4.0156 H   0  0  0  0  0  0  0  0  0  0  0  0
   -1.5325    2.9661    6.1780 H   0  0  0  0  0  0  0  0  0  0  0  0
  1  2  1  0
  1 33  1  0
  1 34  1  0
  1 35  1  0
  2 31  1  0
  2  3  1  6
  2  4  1  0
  3 36  1  0
  4  5  1  0
  5 11  1  0
  5  6  1  0
  5 37  1  6
  6 16  1  0
  6  7  2  0
  7  8  1  0
  7 38  1  0
  8  9  1  0
  8 39  1  0
  8 40  1  0
  9 10  1  1
  9 11  1  0
  9 17  1  0
 10 41  1  0
 10 42  1  0
 10 43  1  0
 11 12  1  1
 11 13  1  0
 12 44  1  0
 12 45  1  0
 12 46  1  0
 13 14  2  0
 13 15  1  0
 15 16  1  0
 15 47  1  0
 15 48  1  0
 17 28  1  0
 17 18  1  1
 17 19  1  0
 18 49  1  0
 18 50  1  0
 18 51  1  0
 19 20  1  0
 19 52  1  0
 19 53  1  0
 20 21  1  0
 20 54  1  0
 20 55  1  0
 21 28  1  0
 21 22  1  0
 21 56  1  1
 22 23  1  0
 22 24  1  0
 22 25  1  0
 23 57  1  0
 23 58  1  0
 23 59  1  0
 24 60  1  0
 24 61  1  0
 24 62  1  0
 25 26  1  0
 25 30  1  0
 25 63  1  1
 26 27  1  0
 26 64  1  0
 26 65  1  0
 27 28  1  0
 27 66  1  0
 27 67  1  0
 28 29  1  1
 29 68  1  0
 29 69  1  0
 29 70  1  0
 30 31  1  0
 30 71  1  0
 30 72  1  0
 31 32  1  0
 31 73  1  6
 32 74  1  0
M  END
>  <i_m_ct_stereo_status>  (400) 
1

>  <s_m_source_file>  (400) 
/var/tmp/pbs.5083856.sched01/tmp3ll7l_dp/1709t30sv2n.sdf

>  <i_m_source_file_index>  (400) 
2

>  <i_lp_mmshare_version>  (400) 
48012

>  <i_f3d_flags>  (400) 
0

>  <s_epik_input>  (400) 
Tz1DMVtDSDJdT0MoPVtDSF1bQ0gyXTIpW0NASF0oW0NAQF0xKFtDSDNdKVtDQF0yM1tDSDNdKU9bQ0BAXShbQ0gzXSkoW09IXSlbQ0BIXShbT0hdKVtDSDJdW0NAQEhdNEMoW0NIM10pKFtDSDNdKVtDQEBIXTVbQ0BdKFtDSDNdKShbQ0gyXVtDSDJdNClbQ0BAXTMoW0NIM10pW0NIMl1bQ0gyXTU=

>  <s_epik_cmdline>  (400) 
J2VwaWtfcHl0aG9uJywgJy1waHQnLCAnMi4wJywgJy1waCcsICc3LjAnLCAnLXRuJywgJzgnLCAnLW1hJywgJzIwMCcsICctaW1hZScsICc8aW5maWxlLm1hZT4nLCAnLW9tYWUnLCAnPG91dGZpbGUubWFlPic=

>  <r_lp_tautomer_probability>  (400) 
1

>  <r_epik_Ionization_Penalty>  (400) 
1.94543e-07

>  <r_epik_Ionization_Penalty_Charging>  (400) 
0

>  <r_epik_Ionization_Penalty_Neutral>  (400) 
1.94543e-07

>  <r_epik_State_Penalty>  (400) 
0

>  <r_epik_Charging_Adjusted_Penalty>  (400) 
0

>  <i_epik_Tot_Q>  (400) 
0

>  <i_epik_Tot_abs_Q>  (400) 
0

>  <s_lp_Force_Field>  (400) 
OPLS3e

>  <r_lp_Energy>  (400) 
193.807

>  <b_lp_Chiralities_Consistent>  (400) 
1

>  <s_lp_Variant>  (400) 
121:0-1

>  <s_i_glide_gridfile>  (400) 
pfpi4k_grid

>  <i_i_glide_lignum>  (400) 
2

>  <i_i_glide_rotatable_bonds>  (400) 
2

>  <r_i_docking_score>  (400) 
-2.40086

>  <r_i_glide_ligand_efficiency>  (400) 
-0.075027

>  <r_i_glide_ligand_efficiency_sa>  (400) 
-0.238196

>  <r_i_glide_ligand_efficiency_ln>  (400) 
-0.537619

>  <r_i_glide_gscore>  (400) 
-2.40086

>  <r_i_glide_lipo>  (400) 
-0.0679308

>  <r_i_glide_hbond>  (400) 
0

>  <r_i_glide_metal>  (400) 
-0

>  <r_i_glide_rewards>  (400) 
-0.363959

>  <r_i_glide_evdw>  (400) 
-23.3777

>  <r_i_glide_ecoul>  (400) 
-4.86901

>  <r_i_glide_erotb>  (400) 
0

>  <r_i_glide_esite>  (400) 
-0.0697381

>  <r_i_glide_emodel>  (400) 
-32.5189

>  <r_i_glide_energy>  (400) 
-28.2467

>  <r_i_glide_einternal>  (400) 
0.136792

>  <r_i_glide_intrahb_reward>  (400) 
-0

>  <i_i_glide_confnum>  (400) 
1

>  <i_i_glide_posenum>  (400) 
7

>  <r_i_glide_eff_state_penalty>  (400) 
0

>  <ligand_id>  (400) 
121

>  <original_smiles>  (400) 
CC1(O)OC2C3=CCC(C)(C2(C)C(=O)CO3)C2(C)CCC3C(C)(C)C(CCC32C)CC1O

>  <smiles>  (400) 
[H]OC1([H])C([H])([H])C2([H])C([H])([H])C([H])([H])C3(C([H])([H])[H])C([H])(C([H])([H])C([H])([H])C3(C([H])([H])[H])C3(C([H])([H])[H])C([H])([H])C([H])=C4OC([H])([H])C(=O)C3(C([H])([H])[H])C4([H])OC1(O[H])C([H])([H])[H])C2(C([H])([H])[H])C([H])([H])[H]

$$$$
121:0:1
     RDKit          3D

 74 78  0  0  1  0  0  0  0  0999 V2000
   -2.0280    4.1267    2.9817 C   0  0  0  0  0  0  0  0  0  0  0  0
   -1.0383    3.1257    3.5841 C   0  0  1  0  0  0  0  0  0  0  0  0
   -0.3525    2.5457    2.4873 O   0  0  0  0  0  0  0  0  0  0  0  0
   -0.2361    3.9093    4.4315 O   0  0  0  0  0  0  0  0  0  0  0  0
    1.1607    3.6504    4.6305 C   0  0  1  0  0  0  0  0  0  0  0  0
    2.0659    4.5688    3.8449 C   0  0  0  0  0  0  0  0  0  0  0  0
    3.3820    4.6359    4.1253 C   0  0  0  0  0  0  0  0  0  0  0  0
    3.9787    4.0796    5.4185 C   0  0  0  0  0  0  0  0  0  0  0  0
    3.0384    3.1866    6.3384 C   0  0  1  0  0  0  0  0  0  0  0  0
    3.4530    3.4821    7.8226 C   0  0  0  0  0  0  0  0  0  0  0  0
    1.5567    3.8597    6.1140 C   0  0  2  0  0  0  0  0  0  0  0  0
    0.4645    3.3873    7.0947 C   0  0  0  0  0  0  0  0  0  0  0  0
    1.4655    5.4362    6.3150 C   0  0  0  0  0  0  0  0  0  0  0  0
    1.4720    5.9503    7.4420 O   0  0  0  0  0  0  0  0  0  0  0  0
    1.2735    6.3830    5.0824 C   0  0  0  0  0  0  0  0  0  0  0  0
    1.4505    5.7773    3.7704 O   0  0  0  0  0  0  0  0  0  0  0  0
    3.4680    1.5853    6.0514 C   0  0  2  0  0  0  0  0  0  0  0  0
    4.9291    1.4322    6.6516 C   0  0  0  0  0  0  0  0  0  0  0  0
    3.7561    1.3169    4.5394 C   0  0  0  0  0  0  0  0  0  0  0  0
    3.6599   -0.1777    4.2980 C   0  0  0  0  0  0  0  0  0  0  0  0
    2.4587   -0.6395    5.1350 C   0  0  2  0  0  0  0  0  0  0  0  0
    1.0457   -0.6806    4.3986 C   0  0  0  0  0  0  0  0  0  0  0  0
    1.1655   -0.3738    2.8764 C   0  0  0  0  0  0  0  0  0  0  0  0
    0.4824   -2.1246    4.4701 C   0  0  0  0  0  0  0  0  0  0  0  0
    0.0607    0.3016    5.0980 C   0  0  2  0  0  0  0  0  0  0  0  0
   -0.0332    0.0127    6.5952 C   0  0  0  0  0  0  0  0  0  0  0  0
    1.3045    0.2861    7.3136 C   0  0  0  0  0  0  0  0  0  0  0  0
    2.6268    0.2095    6.4670 C   0  0  2  0  0  0  0  0  0  0  0  0
    3.4690   -0.7378    7.4000 C   0  0  0  0  0  0  0  0  0  0  0  0
   -1.3065    0.5700    4.4202 C   0  0  0  0  0  0  0  0  0  0  0  0
   -1.8304    2.0359    4.4089 C   0  0  1  0  0  0  0  0  0  0  0  0
   -2.2490    2.4924    5.6837 O   0  0  0  0  0  0  0  0  0  0  0  0
   -1.4799    4.9058    2.4472 H   0  0  0  0  0  0  0  0  0  0  0  0
   -2.5983    4.6023    3.7730 H   0  0  0  0  0  0  0  0  0  0  0  0
   -2.7062    3.6344    2.2825 H   0  0  0  0  0  0  0  0  0  0  0  0
   -0.1780    3.2431    1.8350 H   0  0  0  0  0  0  0  0  0  0  0  0
    1.4051    2.6974    4.2363 H   0  0  0  0  0  0  0  0  0  0  0  0
    3.9473    5.4615    3.7194 H   0  0  0  0  0  0  0  0  0  0  0  0
    4.9448    3.6598    5.1730 H   0  0  0  0  0  0  0  0  0  0  0  0
    4.2437    4.9731    5.9843 H   0  0  0  0  0  0  0  0  0  0  0  0
    3.0594    2.7341    8.5092 H   0  0  0  0  0  0  0  0  0  0  0  0
    3.1318    4.4459    8.1976 H   0  0  0  0  0  0  0  0  0  0  0  0
    4.5325    3.5281    7.9665 H   0  0  0  0  0  0  0  0  0  0  0  0
    0.0255    2.4676    6.7743 H   0  0  0  0  0  0  0  0  0  0  0  0
   -0.3913    4.0634    7.1318 H   0  0  0  0  0  0  0  0  0  0  0  0
    0.8143    3.2951    8.1252 H   0  0  0  0  0  0  0  0  0  0  0  0
    0.2540    6.7656    5.1206 H   0  0  0  0  0  0  0  0  0  0  0  0
    1.9234    7.2512    5.1871 H   0  0  0  0  0  0  0  0  0  0  0  0
    5.4755    0.5797    6.2583 H   0  0  0  0  0  0  0  0  0  0  0  0
    4.9466    1.3419    7.7365 H   0  0  0  0  0  0  0  0  0  0  0  0
    5.6097    2.2515    6.4435 H   0  0  0  0  0  0  0  0  0  0  0  0
    3.0817    1.7907    3.8477 H   0  0  0  0  0  0  0  0  0  0  0  0
    4.7360    1.6651    4.2208 H   0  0  0  0  0  0  0  0  0  0  0  0
    3.6527   -0.4282    3.2405 H   0  0  0  0  0  0  0  0  0  0  0  0
    4.5625   -0.6585    4.6740 H   0  0  0  0  0  0  0  0  0  0  0  0
    2.6776   -1.6849    5.3584 H   0  0  0  0  0  0  0  0  0  0  0  0
    0.2334   -0.5115    2.3352 H   0  0  0  0  0  0  0  0  0  0  0  0
    1.8485   -1.0564    2.3719 H   0  0  0  0  0  0  0  0  0  0  0  0
    1.4975    0.6447    2.6824 H   0  0  0  0  0  0  0  0  0  0  0  0
   -0.5488   -2.1667    4.1181 H   0  0  0  0  0  0  0  0  0  0  0  0
    0.5057   -2.5372    5.4783 H   0  0  0  0  0  0  0  0  0  0  0  0
    1.0618   -2.8060    3.8468 H   0  0  0  0  0  0  0  0  0  0  0  0
    0.5525    1.2385    5.0694 H   0  0  0  0  0  0  0  0  0  0  0  0
   -0.8386    0.5802    7.0573 H   0  0  0  0  0  0  0  0  0  0  0  0
   -0.3251   -1.0226    6.7549 H   0  0  0  0  0  0  0  0  0  0  0  0
    1.3061    1.1937    7.8973 H   0  0  0  0  0  0  0  0  0  0  0  0
    1.2941   -0.4559    8.1200 H   0  0  0  0  0  0  0  0  0  0  0  0
    2.9448   -1.6727    7.6053 H   0  0  0  0  0  0  0  0  0  0  0  0
    3.6613   -0.2817    8.3723 H   0  0  0  0  0  0  0  0  0  0  0  0
    4.4155   -1.0709    6.9753 H   0  0  0  0  0  0  0  0  0  0  0  0
   -1.3470    0.2210    3.3991 H   0  0  0  0  0  0  0  0  0  0  0  0
   -2.0534   -0.0443    4.9196 H   0  0  0  0  0  0  0  0  0  0  0  0
   -2.7719    1.9433    3.8744 H   0  0  0  0  0  0  0  0  0  0  0  0
   -2.6951    3.3122    5.5723 H   0  0  0  0  0  0  0  0  0  0  0  0
  1  2  1  0
  1 33  1  0
  1 34  1  0
  1 35  1  0
  2 31  1  0
  2  3  1  6
  2  4  1  0
  3 36  1  0
  4  5  1  0
  5 11  1  0
  5  6  1  0
  5 37  1  6
  6 16  1  0
  6  7  2  0
  7  8  1  0
  7 38  1  0
  8  9  1  0
  8 39  1  0
  8 40  1  0
  9 10  1  1
  9 11  1  0
  9 17  1  0
 10 41  1  0
 10 42  1  0
 10 43  1  0
 11 12  1  1
 11 13  1  0
 12 44  1  0
 12 45  1  0
 12 46  1  0
 13 14  2  0
 13 15  1  0
 15 16  1  0
 15 47  1  0
 15 48  1  0
 17 28  1  0
 17 18  1  1
 17 19  1  0
 18 49  1  0
 18 50  1  0
 18 51  1  0
 19 20  1  0
 19 52  1  0
 19 53  1  0
 20 21  1  0
 20 54  1  0
 20 55  1  0
 21 28  1  0
 21 22  1  0
 21 56  1  1
 22 23  1  0
 22 24  1  0
 22 25  1  0
 23 57  1  0
 23 58  1  0
 23 59  1  0
 24 60  1  0
 24 61  1  0
 24 62  1  0
 25 26  1  0
 25 30  1  0
 25 63  1  1
 26 27  1  0
 26 64  1  0
 26 65  1  0
 27 28  1  0
 27 66  1  0
 27 67  1  0
 28 29  1  1
 29 68  1  0
 29 69  1  0
 29 70  1  0
 30 31  1  0
 30 71  1  0
 30 72  1  0
 31 32  1  0
 31 73  1  6
 32 74  1  0
M  END
>  <i_m_ct_stereo_status>  (401) 
1

>  <s_m_source_file>  (401) 
/var/tmp/pbs.5083856.sched01/tmp3ll7l_dp/1709t30sv2n.sdf

>  <i_m_source_file_index>  (401) 
2

>  <i_lp_mmshare_version>  (401) 
48012

>  <i_f3d_flags>  (401) 
0

>  <s_epik_input>  (401) 
Tz1DMVtDSDJdT0MoPVtDSF1bQ0gyXTIpW0NASF0oW0NAQF0xKFtDSDNdKVtDQF0yM1tDSDNdKU9bQ0BAXShbQ0gzXSkoW09IXSlbQ0BIXShbT0hdKVtDSDJdW0NAQEhdNEMoW0NIM10pKFtDSDNdKVtDQEBIXTVbQ0BdKFtDSDNdKShbQ0gyXVtDSDJdNClbQ0BAXTMoW0NIM10pW0NIMl1bQ0gyXTU=

>  <s_epik_cmdline>  (401) 
J2VwaWtfcHl0aG9uJywgJy1waHQnLCAnMi4wJywgJy1waCcsICc3LjAnLCAnLXRuJywgJzgnLCAnLW1hJywgJzIwMCcsICctaW1hZScsICc8aW5maWxlLm1hZT4nLCAnLW9tYWUnLCAnPG91dGZpbGUubWFlPic=

>  <r_lp_tautomer_probability>  (401) 
1

>  <r_epik_Ionization_Penalty>  (401) 
1.94543e-07

>  <r_epik_Ionization_Penalty_Charging>  (401) 
0

>  <r_epik_Ionization_Penalty_Neutral>  (401) 
1.94543e-07

>  <r_epik_State_Penalty>  (401) 
0

>  <r_epik_Charging_Adjusted_Penalty>  (401) 
0

>  <i_epik_Tot_Q>  (401) 
0

>  <i_epik_Tot_abs_Q>  (401) 
0

>  <s_lp_Force_Field>  (401) 
OPLS3e

>  <r_lp_Energy>  (401) 
193.807

>  <b_lp_Chiralities_Consistent>  (401) 
1

>  <s_lp_Variant>  (401) 
121:0-1

>  <s_i_glide_gridfile>  (401) 
pfpi4k_grid

>  <i_i_glide_lignum>  (401) 
2

>  <i_i_glide_rotatable_bonds>  (401) 
2

>  <r_i_docking_score>  (401) 
-2.33885

>  <r_i_glide_ligand_efficiency>  (401) 
-0.0730891

>  <r_i_glide_ligand_efficiency_sa>  (401) 
-0.232043

>  <r_i_glide_ligand_efficiency_ln>  (401) 
-0.523732

>  <r_i_glide_gscore>  (401) 
-2.33885

>  <r_i_glide_lipo>  (401) 
-0.040432

>  <r_i_glide_hbond>  (401) 
0

>  <r_i_glide_metal>  (401) 
-0

>  <r_i_glide_rewards>  (401) 
-0.363959

>  <r_i_glide_evdw>  (401) 
-21.9877

>  <r_i_glide_ecoul>  (401) 
-5.12113

>  <r_i_glide_erotb>  (401) 
0

>  <r_i_glide_esite>  (401) 
-0.066906

>  <r_i_glide_emodel>  (401) 
-31.0583

>  <r_i_glide_energy>  (401) 
-27.1088

>  <r_i_glide_einternal>  (401) 
0.564904

>  <r_i_glide_intrahb_reward>  (401) 
-0

>  <i_i_glide_confnum>  (401) 
1

>  <i_i_glide_posenum>  (401) 
2

>  <r_i_glide_eff_state_penalty>  (401) 
0

>  <ligand_id>  (401) 
121

>  <original_smiles>  (401) 
CC1(O)OC2C3=CCC(C)(C2(C)C(=O)CO3)C2(C)CCC3C(C)(C)C(CCC32C)CC1O

>  <smiles>  (401) 
[H]OC1([H])C([H])([H])C2([H])C([H])([H])C([H])([H])C3(C([H])([H])[H])C([H])(C([H])([H])C([H])([H])C3(C([H])([H])[H])C3(C([H])([H])[H])C([H])([H])C([H])=C4OC([H])([H])C(=O)C3(C([H])([H])[H])C4([H])OC1(O[H])C([H])([H])[H])C2(C([H])([H])[H])C([H])([H])[H]

$$$$
121:0:2
     RDKit          3D

 74 78  0  0  1  0  0  0  0  0999 V2000
   -2.2936    4.1226    2.8839 C   0  0  0  0  0  0  0  0  0  0  0  0
   -1.2566    3.2281    3.5794 C   0  0  1  0  0  0  0  0  0  0  0  0
   -0.5648    2.5438    2.5461 O   0  0  0  0  0  0  0  0  0  0  0  0
   -0.4588    4.1414    4.3011 O   0  0  0  0  0  0  0  0  0  0  0  0
    0.9478    3.9442    4.4981 C   0  0  1  0  0  0  0  0  0  0  0  0
    1.8026    4.7887    3.5810 C   0  0  0  0  0  0  0  0  0  0  0  0
    3.1180    4.9293    3.8066 C   0  0  0  0  0  0  0  0  0  0  0  0
    3.7716    4.5521    5.1385 C   0  0  0  0  0  0  0  0  0  0  0  0
    2.8849    3.7504    6.1913 C   0  0  1  0  0  0  0  0  0  0  0  0
    3.3271    4.2409    7.6162 C   0  0  0  0  0  0  0  0  0  0  0  0
    1.3746    4.3450    5.9354 C   0  0  2  0  0  0  0  0  0  0  0  0
    0.3237    3.9627    6.9998 C   0  0  0  0  0  0  0  0  0  0  0  0
    1.2361    5.9353    5.9533 C   0  0  0  0  0  0  0  0  0  0  0  0
    1.2457    6.5782    7.0059 O   0  0  0  0  0  0  0  0  0  0  0  0
    0.9839    6.7139    4.6131 C   0  0  0  0  0  0  0  0  0  0  0  0
    1.1439    5.9598    3.3805 O   0  0  0  0  0  0  0  0  0  0  0  0
    3.3588    2.1389    6.0871 C   0  0  2  0  0  0  0  0  0  0  0  0
    4.8406    2.1099    6.6563 C   0  0  0  0  0  0  0  0  0  0  0  0
    3.6146    1.6987    4.6116 C   0  0  0  0  0  0  0  0  0  0  0  0
    3.5622    0.1846    4.5563 C   0  0  0  0  0  0  0  0  0  0  0  0
    2.4002   -0.2075    5.4791 C   0  0  2  0  0  0  0  0  0  0  0  0
    0.9705   -0.3799    4.7987 C   0  0  0  0  0  0  0  0  0  0  0  0
    1.0396   -0.2577    3.2475 C   0  0  0  0  0  0  0  0  0  0  0  0
    0.4587   -1.8230    5.0584 C   0  0  0  0  0  0  0  0  0  0  0  0
   -0.0270    0.6522    5.4029 C   0  0  2  0  0  0  0  0  0  0  0  0
   -0.0714    0.5404    6.9259 C   0  0  0  0  0  0  0  0  0  0  0  0
    1.2767    0.9395    7.5659 C   0  0  0  0  0  0  0  0  0  0  0  0
    2.5767    0.8000    6.6938 C   0  0  2  0  0  0  0  0  0  0  0  0
    3.4780    0.0018    7.7063 C   0  0  0  0  0  0  0  0  0  0  0  0
   -1.4194    0.7966    4.7401 C   0  0  0  0  0  0  0  0  0  0  0  0
   -1.9969    2.2389    4.5594 C   0  0  1  0  0  0  0  0  0  0  0  0
   -2.4086    2.8513    5.7683 O   0  0  0  0  0  0  0  0  0  0  0  0
   -1.7913    4.8483    2.2379 H   0  0  0  0  0  0  0  0  0  0  0  0
   -2.8671    4.6610    3.6344 H   0  0  0  0  0  0  0  0  0  0  0  0
   -2.9838    3.5223    2.2870 H   0  0  0  0  0  0  0  0  0  0  0  0
   -0.2964    3.1907    1.8870 H   0  0  0  0  0  0  0  0  0  0  0  0
    1.2150    2.9548    4.2164 H   0  0  0  0  0  0  0  0  0  0  0  0
    3.6492    5.7106    3.2846 H   0  0  0  0  0  0  0  0  0  0  0  0
    4.7379    4.1272    4.8997 H   0  0  0  0  0  0  0  0  0  0  0  0
    4.0236    5.5171    5.5828 H   0  0  0  0  0  0  0  0  0  0  0  0
    2.9756    3.5705    8.4013 H   0  0  0  0  0  0  0  0  0  0  0  0
    2.9824    5.2341    7.8815 H   0  0  0  0  0  0  0  0  0  0  0  0
    4.4091    4.3357    7.7222 H   0  0  0  0  0  0  0  0  0  0  0  0
   -0.0918    2.9994    6.8045 H   0  0  0  0  0  0  0  0  0  0  0  0
   -0.5524    4.6125    6.9802 H   0  0  0  0  0  0  0  0  0  0  0  0
    0.7041    4.0084    8.0220 H   0  0  0  0  0  0  0  0  0  0  0  0
   -0.0458    7.0655    4.6385 H   0  0  0  0  0  0  0  0  0  0  0  0
    1.6000    7.6102    4.5946 H   0  0  0  0  0  0  0  0  0  0  0  0
    5.4058    1.2338    6.3511 H   0  0  0  0  0  0  0  0  0  0  0  0
    4.8893    2.1511    7.7431 H   0  0  0  0  0  0  0  0  0  0  0  0
    5.4836    2.9198    6.3284 H   0  0  0  0  0  0  0  0  0  0  0  0
    2.9067    2.0656    3.8910 H   0  0  0  0  0  0  0  0  0  0  0  0
    4.5750    2.0331    4.2249 H   0  0  0  0  0  0  0  0  0  0  0  0
    3.5355   -0.1905    3.5372 H   0  0  0  0  0  0  0  0  0  0  0  0
    4.4929   -0.2158    4.9579 H   0  0  0  0  0  0  0  0  0  0  0  0
    2.6626   -1.2097    5.8186 H   0  0  0  0  0  0  0  0  0  0  0  0
    0.0979   -0.4917    2.7554 H   0  0  0  0  0  0  0  0  0  0  0  0
    1.7323   -0.9766    2.8075 H   0  0  0  0  0  0  0  0  0  0  0  0
    1.3289    0.7416    2.9214 H   0  0  0  0  0  0  0  0  0  0  0  0
   -0.5798   -1.9413    4.7443 H   0  0  0  0  0  0  0  0  0  0  0  0
    0.5232   -2.1082    6.1084 H   0  0  0  0  0  0  0  0  0  0  0  0
    1.0479   -2.5587    4.5066 H   0  0  0  0  0  0  0  0  0  0  0  0
    0.4314    1.5900    5.2474 H   0  0  0  0  0  0  0  0  0  0  0  0
   -0.8814    1.1363    7.3453 H   0  0  0  0  0  0  0  0  0  0  0  0
   -0.3201   -0.4771    7.2211 H   0  0  0  0  0  0  0  0  0  0  0  0
    1.2611    1.9118    8.0369 H   0  0  0  0  0  0  0  0  0  0  0  0
    1.3148    0.2991    8.4539 H   0  0  0  0  0  0  0  0  0  0  0  0
    2.9898   -0.9164    8.0381 H   0  0  0  0  0  0  0  0  0  0  0  0
    3.6814    0.5795    8.6110 H   0  0  0  0  0  0  0  0  0  0  0  0
    4.4235   -0.3505    7.2940 H   0  0  0  0  0  0  0  0  0  0  0  0
   -1.4751    0.3196    3.7715 H   0  0  0  0  0  0  0  0  0  0  0  0
   -2.1294    0.2199    5.3282 H   0  0  0  0  0  0  0  0  0  0  0  0
   -2.9492    2.0502    4.0657 H   0  0  0  0  0  0  0  0  0  0  0  0
   -2.9614    2.2498    6.2415 H   0  0  0  0  0  0  0  0  0  0  0  0
  1  2  1  0
  1 33  1  0
  1 34  1  0
  1 35  1  0
  2 31  1  0
  2  3  1  6
  2  4  1  0
  3 36  1  0
  4  5  1  0
  5 11  1  0
  5  6  1  0
  5 37  1  6
  6 16  1  0
  6  7  2  0
  7  8  1  0
  7 38  1  0
  8  9  1  0
  8 39  1  0
  8 40  1  0
  9 10  1  1
  9 11  1  0
  9 17  1  0
 10 41  1  0
 10 42  1  0
 10 43  1  0
 11 12  1  1
 11 13  1  0
 12 44  1  0
 12 45  1  0
 12 46  1  0
 13 14  2  0
 13 15  1  0
 15 16  1  0
 15 47  1  0
 15 48  1  0
 17 28  1  0
 17 18  1  1
 17 19  1  0
 18 49  1  0
 18 50  1  0
 18 51  1  0
 19 20  1  0
 19 52  1  0
 19 53  1  0
 20 21  1  0
 20 54  1  0
 20 55  1  0
 21 28  1  0
 21 22  1  0
 21 56  1  1
 22 23  1  0
 22 24  1  0
 22 25  1  0
 23 57  1  0
 23 58  1  0
 23 59  1  0
 24 60  1  0
 24 61  1  0
 24 62  1  0
 25 26  1  0
 25 30  1  0
 25 63  1  1
 26 27  1  0
 26 64  1  0
 26 65  1  0
 27 28  1  0
 27 66  1  0
 27 67  1  0
 28 29  1  1
 29 68  1  0
 29 69  1  0
 29 70  1  0
 30 31  1  0
 30 71  1  0
 30 72  1  0
 31 32  1  0
 31 73  1  6
 32 74  1  0
M  END
>  <i_m_ct_stereo_status>  (402) 
1

>  <s_m_source_file>  (402) 
/var/tmp/pbs.5083856.sched01/tmp3ll7l_dp/1709t30sv2n.sdf

>  <i_m_source_file_index>  (402) 
2

>  <i_lp_mmshare_version>  (402) 
48012

>  <i_f3d_flags>  (402) 
0

>  <s_epik_input>  (402) 
Tz1DMVtDSDJdT0MoPVtDSF1bQ0gyXTIpW0NASF0oW0NAQF0xKFtDSDNdKVtDQF0yM1tDSDNdKU9bQ0BAXShbQ0gzXSkoW09IXSlbQ0BIXShbT0hdKVtDSDJdW0NAQEhdNEMoW0NIM10pKFtDSDNdKVtDQEBIXTVbQ0BdKFtDSDNdKShbQ0gyXVtDSDJdNClbQ0BAXTMoW0NIM10pW0NIMl1bQ0gyXTU=

>  <s_epik_cmdline>  (402) 
J2VwaWtfcHl0aG9uJywgJy1waHQnLCAnMi4wJywgJy1waCcsICc3LjAnLCAnLXRuJywgJzgnLCAnLW1hJywgJzIwMCcsICctaW1hZScsICc8aW5maWxlLm1hZT4nLCAnLW9tYWUnLCAnPG91dGZpbGUubWFlPic=

>  <r_lp_tautomer_probability>  (402) 
1

>  <r_epik_Ionization_Penalty>  (402) 
1.94543e-07

>  <r_epik_Ionization_Penalty_Charging>  (402) 
0

>  <r_epik_Ionization_Penalty_Neutral>  (402) 
1.94543e-07

>  <r_epik_State_Penalty>  (402) 
0

>  <r_epik_Charging_Adjusted_Penalty>  (402) 
0

>  <i_epik_Tot_Q>  (402) 
0

>  <i_epik_Tot_abs_Q>  (402) 
0

>  <s_lp_Force_Field>  (402) 
OPLS3e

>  <r_lp_Energy>  (402) 
193.807

>  <b_lp_Chiralities_Consistent>  (402) 
1

>  <s_lp_Variant>  (402) 
121:0-1

>  <s_i_glide_gridfile>  (402) 
pfpi4k_grid

>  <i_i_glide_lignum>  (402) 
2

>  <i_i_glide_rotatable_bonds>  (402) 
2

>  <r_i_docking_score>  (402) 
-2.26361

>  <r_i_glide_ligand_efficiency>  (402) 
-0.0707379

>  <r_i_glide_ligand_efficiency_sa>  (402) 
-0.224579

>  <r_i_glide_ligand_efficiency_ln>  (402) 
-0.506885

>  <r_i_glide_gscore>  (402) 
-2.26361

>  <r_i_glide_lipo>  (402) 
-0.0677174

>  <r_i_glide_hbond>  (402) 
0

>  <r_i_glide_metal>  (402) 
-0

>  <r_i_glide_rewards>  (402) 
-0.363959

>  <r_i_glide_evdw>  (402) 
-23.7054

>  <r_i_glide_ecoul>  (402) 
-3.84148

>  <r_i_glide_erotb>  (402) 
0

>  <r_i_glide_esite>  (402) 
-0.070446

>  <r_i_glide_emodel>  (402) 
-31.4574

>  <r_i_glide_energy>  (402) 
-27.5469

>  <r_i_glide_einternal>  (402) 
0.463944

>  <r_i_glide_intrahb_reward>  (402) 
-0

>  <i_i_glide_confnum>  (402) 
2

>  <i_i_glide_posenum>  (402) 
10

>  <r_i_glide_eff_state_penalty>  (402) 
0

>  <ligand_id>  (402) 
121

>  <original_smiles>  (402) 
CC1(O)OC2C3=CCC(C)(C2(C)C(=O)CO3)C2(C)CCC3C(C)(C)C(CCC32C)CC1O

>  <smiles>  (402) 
[H]OC1([H])C([H])([H])C2([H])C([H])([H])C([H])([H])C3(C([H])([H])[H])C([H])(C([H])([H])C([H])([H])C3(C([H])([H])[H])C3(C([H])([H])[H])C([H])([H])C([H])=C4OC([H])([H])C(=O)C3(C([H])([H])[H])C4([H])OC1(O[H])C([H])([H])[H])C2(C([H])([H])[H])C([H])([H])[H]

$$$$
121:1:0
     RDKit          3D

 74 78  0  0  1  0  0  0  0  0999 V2000
    3.2985    4.7898    4.5161 C   0  0  0  0  0  0  0  0  0  0  0  0
    2.0537    4.1585    3.8691 C   0  0  1  0  0  0  0  0  0  0  0  0
    2.1265    4.3820    2.4796 O   0  0  0  0  0  0  0  0  0  0  0  0
    2.0509    2.7930    4.1865 O   0  0  0  0  0  0  0  0  0  0  0  0
    2.7965    1.8039    3.4989 C   0  0  2  0  0  0  0  0  0  0  0  0
    2.1623    1.4561    2.1862 C   0  0  0  0  0  0  0  0  0  0  0  0
    0.9109    0.9873    2.1612 C   0  0  0  0  0  0  0  0  0  0  0  0
    0.2945    0.6021    3.4912 C   0  0  0  0  0  0  0  0  0  0  0  0
    1.3200   -0.2277    4.3882 C   0  0  1  0  0  0  0  0  0  0  0  0
    1.3465   -1.5717    3.5251 C   0  0  0  0  0  0  0  0  0  0  0  0
    2.8377    0.4445    4.2590 C   0  0  2  0  0  0  0  0  0  0  0  0
    3.6227    0.6915    5.5650 C   0  0  0  0  0  0  0  0  0  0  0  0
    3.8472   -0.3729    3.3649 C   0  0  0  0  0  0  0  0  0  0  0  0
    4.5254   -1.2796    3.8392 O   0  0  0  0  0  0  0  0  0  0  0  0
    4.0015   -0.0105    1.8499 C   0  0  0  0  0  0  0  0  0  0  0  0
    3.0609    0.9439    1.2962 O   0  0  0  0  0  0  0  0  0  0  0  0
    0.6955   -0.6662    5.8803 C   0  0  2  0  0  0  0  0  0  0  0  0
    1.4679   -1.9733    6.2923 C   0  0  0  0  0  0  0  0  0  0  0  0
   -0.8006   -1.0899    5.6640 C   0  0  0  0  0  0  0  0  0  0  0  0
   -1.7061    0.1260    5.8935 C   0  0  0  0  0  0  0  0  0  0  0  0
   -1.0211    0.9870    6.9703 C   0  0  2  0  0  0  0  0  0  0  0  0
   -1.0932    2.5718    6.8439 C   0  0  0  0  0  0  0  0  0  0  0  0
   -2.1489    3.0256    5.8058 C   0  0  0  0  0  0  0  0  0  0  0  0
   -1.5259    3.1814    8.1989 C   0  0  0  0  0  0  0  0  0  0  0  0
    0.3060    3.0920    6.4385 C   0  0  2  0  0  0  0  0  0  0  0  0
    1.3793    2.7595    7.4639 C   0  0  0  0  0  0  0  0  0  0  0  0
    1.4341    1.2701    7.8299 C   0  0  0  0  0  0  0  0  0  0  0  0
    0.3797    0.2912    7.1963 C   0  0  2  0  0  0  0  0  0  0  0  0
    0.1632   -0.6092    8.4701 C   0  0  0  0  0  0  0  0  0  0  0  0
    0.4728    4.5557    5.9340 C   0  0  0  0  0  0  0  0  0  0  0  0
    0.6772    4.7239    4.3975 C   0  0  1  0  0  0  0  0  0  0  0  0
    0.5193    6.1069    4.1312 O   0  0  0  0  0  0  0  0  0  0  0  0
    4.1882    4.3968    4.0339 H   0  0  0  0  0  0  0  0  0  0  0  0
    3.3697    4.5571    5.5743 H   0  0  0  0  0  0  0  0  0  0  0  0
    3.2777    5.8716    4.3777 H   0  0  0  0  0  0  0  0  0  0  0  0
    1.2817    4.1977    2.0623 H   0  0  0  0  0  0  0  0  0  0  0  0
    3.8068    2.1923    3.3664 H   0  0  0  0  0  0  0  0  0  0  0  0
    0.5301    0.4957    1.2774 H   0  0  0  0  0  0  0  0  0  0  0  0
   -0.0595    1.5089    3.9576 H   0  0  0  0  0  0  0  0  0  0  0  0
   -0.6011    0.0350    3.2365 H   0  0  0  0  0  0  0  0  0  0  0  0
    2.0778   -2.3071    3.8606 H   0  0  0  0  0  0  0  0  0  0  0  0
    1.5973   -1.4076    2.4760 H   0  0  0  0  0  0  0  0  0  0  0  0
    0.4029   -2.1019    3.4572 H   0  0  0  0  0  0  0  0  0  0  0  0
    3.3236    1.6196    6.0293 H   0  0  0  0  0  0  0  0  0  0  0  0
    4.6861    0.8390    5.3791 H   0  0  0  0  0  0  0  0  0  0  0  0
    3.5630   -0.1215    6.2842 H   0  0  0  0  0  0  0  0  0  0  0  0
    5.0079    0.3931    1.7065 H   0  0  0  0  0  0  0  0  0  0  0  0
    3.9700   -0.9272    1.2581 H   0  0  0  0  0  0  0  0  0  0  0  0
    1.3730   -2.3252    7.3107 H   0  0  0  0  0  0  0  0  0  0  0  0
    2.5360   -1.9172    6.1007 H   0  0  0  0  0  0  0  0  0  0  0  0
    1.1077   -2.8353    5.7281 H   0  0  0  0  0  0  0  0  0  0  0  0
   -1.0551   -1.5402    4.7126 H   0  0  0  0  0  0  0  0  0  0  0  0
   -1.0796   -1.8759    6.3613 H   0  0  0  0  0  0  0  0  0  0  0  0
   -1.8647    0.6426    4.9541 H   0  0  0  0  0  0  0  0  0  0  0  0
   -2.6969   -0.1950    6.2071 H   0  0  0  0  0  0  0  0  0  0  0  0
   -1.6360    0.8041    7.8502 H   0  0  0  0  0  0  0  0  0  0  0  0
   -2.3308    4.0981    5.8647 H   0  0  0  0  0  0  0  0  0  0  0  0
   -3.1099    2.5394    5.9718 H   0  0  0  0  0  0  0  0  0  0  0  0
   -1.8355    2.8220    4.7808 H   0  0  0  0  0  0  0  0  0  0  0  0
   -1.4288    4.2662    8.1964 H   0  0  0  0  0  0  0  0  0  0  0  0
   -0.9310    2.8001    9.0278 H   0  0  0  0  0  0  0  0  0  0  0  0
   -2.5682    2.9520    8.4226 H   0  0  0  0  0  0  0  0  0  0  0  0
    0.5045    2.4286    5.6316 H   0  0  0  0  0  0  0  0  0  0  0  0
    2.3548    3.1009    7.1291 H   0  0  0  0  0  0  0  0  0  0  0  0
    1.1984    3.3356    8.3721 H   0  0  0  0  0  0  0  0  0  0  0  0
    2.4355    0.8594    7.7930 H   0  0  0  0  0  0  0  0  0  0  0  0
    1.2968    1.3231    8.9188 H   0  0  0  0  0  0  0  0  0  0  0  0
   -0.3036   -0.0573    9.2895 H   0  0  0  0  0  0  0  0  0  0  0  0
    1.0996   -0.9817    8.8876 H   0  0  0  0  0  0  0  0  0  0  0  0
   -0.4759   -1.4723    8.3049 H   0  0  0  0  0  0  0  0  0  0  0  0
   -0.3941    5.1352    6.2385 H   0  0  0  0  0  0  0  0  0  0  0  0
    1.2885    5.0487    6.4582 H   0  0  0  0  0  0  0  0  0  0  0  0
   -0.1234    4.2010    3.8724 H   0  0  0  0  0  0  0  0  0  0  0  0
    0.6463    6.2696    3.2011 H   0  0  0  0  0  0  0  0  0  0  0  0
  1  2  1  0
  1 33  1  0
  1 34  1  0
  1 35  1  0
  2 31  1  0
  2  3  1  6
  2  4  1  0
  3 36  1  0
  4  5  1  0
  5 11  1  0
  5  6  1  0
  5 37  1  6
  6 16  1  0
  6  7  2  0
  7  8  1  0
  7 38  1  0
  8  9  1  0
  8 39  1  0
  8 40  1  0
  9 10  1  6
  9 11  1  0
  9 17  1  0
 10 41  1  0
 10 42  1  0
 10 43  1  0
 11 12  1  1
 11 13  1  0
 12 44  1  0
 12 45  1  0
 12 46  1  0
 13 14  2  0
 13 15  1  0
 15 16  1  0
 15 47  1  0
 15 48  1  0
 17 28  1  0
 17 18  1  1
 17 19  1  0
 18 49  1  0
 18 50  1  0
 18 51  1  0
 19 20  1  0
 19 52  1  0
 19 53  1  0
 20 21  1  0
 20 54  1  0
 20 55  1  0
 21 28  1  0
 21 22  1  0
 21 56  1  1
 22 23  1  0
 22 24  1  0
 22 25  1  0
 23 57  1  0
 23 58  1  0
 23 59  1  0
 24 60  1  0
 24 61  1  0
 24 62  1  0
 25 26  1  0
 25 30  1  0
 25 63  1  6
 26 27  1  0
 26 64  1  0
 26 65  1  0
 27 28  1  0
 27 66  1  0
 27 67  1  0
 28 29  1  1
 29 68  1  0
 29 69  1  0
 29 70  1  0
 30 31  1  0
 30 71  1  0
 30 72  1  0
 31 32  1  0
 31 73  1  6
 32 74  1  0
M  END
>  <i_m_ct_stereo_status>  (403) 
1

>  <s_m_source_file>  (403) 
/var/tmp/pbs.5083856.sched01/tmp3ll7l_dp/1709t30sv2n.sdf

>  <i_m_source_file_index>  (403) 
3

>  <i_lp_mmshare_version>  (403) 
48012

>  <i_f3d_flags>  (403) 
0

>  <s_epik_input>  (403) 
Tz1DMVtDSDJdT0MoPVtDSF1bQ0gyXTIpW0NASF0oW0NAQF0xKFtDSDNdKVtDQF0yM1tDSDNdKU9bQ0BAXShbQ0gzXSkoW09IXSlbQ0BIXShbT0hdKVtDSDJdW0NAQEhdNEMoW0NIM10pKFtDSDNdKVtDQEBIXTVbQ0BdKFtDSDNdKShbQ0gyXVtDSDJdNClbQ0BAXTMoW0NIM10pW0NIMl1bQ0gyXTU=

>  <s_epik_cmdline>  (403) 
J2VwaWtfcHl0aG9uJywgJy1waHQnLCAnMi4wJywgJy1waCcsICc3LjAnLCAnLXRuJywgJzgnLCAnLW1hJywgJzIwMCcsICctaW1hZScsICc8aW5maWxlLm1hZT4nLCAnLW9tYWUnLCAnPG91dGZpbGUubWFlPic=

>  <r_lp_tautomer_probability>  (403) 
1

>  <r_epik_Ionization_Penalty>  (403) 
1.94543e-07

>  <r_epik_Ionization_Penalty_Charging>  (403) 
0

>  <r_epik_Ionization_Penalty_Neutral>  (403) 
1.94543e-07

>  <r_epik_State_Penalty>  (403) 
0

>  <r_epik_Charging_Adjusted_Penalty>  (403) 
0

>  <i_epik_Tot_Q>  (403) 
0

>  <i_epik_Tot_abs_Q>  (403) 
0

>  <s_lp_Force_Field>  (403) 
OPLS3e

>  <r_lp_Energy>  (403) 
180.291

>  <b_lp_Chiralities_Consistent>  (403) 
1

>  <s_lp_Variant>  (403) 
121:0-2

>  <s_i_glide_gridfile>  (403) 
pfpi4k_grid

>  <i_i_glide_lignum>  (403) 
3

>  <i_i_glide_rotatable_bonds>  (403) 
2

>  <r_i_docking_score>  (403) 
-2.67643

>  <r_i_glide_ligand_efficiency>  (403) 
-0.0836385

>  <r_i_glide_ligand_efficiency_sa>  (403) 
-0.265536

>  <r_i_glide_ligand_efficiency_ln>  (403) 
-0.599326

>  <r_i_glide_gscore>  (403) 
-2.67643

>  <r_i_glide_lipo>  (403) 
-0.120945

>  <r_i_glide_hbond>  (403) 
0

>  <r_i_glide_metal>  (403) 
-0

>  <r_i_glide_rewards>  (403) 
-0.392981

>  <r_i_glide_evdw>  (403) 
-25.3991

>  <r_i_glide_ecoul>  (403) 
-5.73653

>  <r_i_glide_erotb>  (403) 
0

>  <r_i_glide_esite>  (403) 
-0.0320743

>  <r_i_glide_emodel>  (403) 
-35.9554

>  <r_i_glide_energy>  (403) 
-31.1356

>  <r_i_glide_einternal>  (403) 
0.438718

>  <r_i_glide_intrahb_reward>  (403) 
-0

>  <i_i_glide_confnum>  (403) 
2

>  <i_i_glide_posenum>  (403) 
25

>  <r_i_glide_eff_state_penalty>  (403) 
0

>  <ligand_id>  (403) 
121

>  <original_smiles>  (403) 
CC1(O)OC2C3=CCC(C)(C2(C)C(=O)CO3)C2(C)CCC3C(C)(C)C(CCC32C)CC1O

>  <smiles>  (403) 
[H]OC1([H])C([H])([H])C2([H])C([H])([H])C([H])([H])C3(C([H])([H])[H])C([H])(C([H])([H])C([H])([H])C3(C([H])([H])[H])C3(C([H])([H])[H])C([H])([H])C([H])=C4OC([H])([H])C(=O)C3(C([H])([H])[H])C4([H])OC1(O[H])C([H])([H])[H])C2(C([H])([H])[H])C([H])([H])[H]

$$$$
121:1:1
     RDKit          3D

 74 78  0  0  1  0  0  0  0  0999 V2000
    2.6109   -0.5403    3.9370 C   0  0  0  0  0  0  0  0  0  0  0  0
    1.9610   -1.5774    3.0090 C   0  0  1  0  0  0  0  0  0  0  0  0
    1.1496   -0.8941    2.0720 O   0  0  0  0  0  0  0  0  0  0  0  0
    2.9701   -2.3378    2.4186 O   0  0  0  0  0  0  0  0  0  0  0  0
    3.7595   -1.9237    1.3162 C   0  0  2  0  0  0  0  0  0  0  0  0
    3.0209   -2.0807    0.0409 C   0  0  0  0  0  0  0  0  0  0  0  0
    2.5574   -3.2800   -0.3294 C   0  0  0  0  0  0  0  0  0  0  0  0
    3.0103   -4.4775    0.4753 C   0  0  0  0  0  0  0  0  0  0  0  0
    4.5716   -4.4036    0.7319 C   0  0  1  0  0  0  0  0  0  0  0  0
    5.0617   -4.6533   -0.7596 C   0  0  0  0  0  0  0  0  0  0  0  0
    4.9932   -2.8306    1.0848 C   0  0  2  0  0  0  0  0  0  0  0  0
    5.8380   -2.6082    2.3133 C   0  0  0  0  0  0  0  0  0  0  0  0
    5.7457   -2.0509   -0.0668 C   0  0  0  0  0  0  0  0  0  0  0  0
    6.9659   -2.1187   -0.2088 O   0  0  0  0  0  0  0  0  0  0  0  0
    4.9128   -1.1529   -1.0338 C   0  0  0  0  0  0  0  0  0  0  0  0
    3.4687   -1.2221   -0.9184 O   0  0  0  0  0  0  0  0  0  0  0  0
    5.1656   -5.6971    1.6193 C   0  0  2  0  0  0  0  0  0  0  0  0
    6.6743   -5.8473    1.1953 C   0  0  0  0  0  0  0  0  0  0  0  0
    4.4317   -6.9943    1.1187 C   0  0  0  0  0  0  0  0  0  0  0  0
    3.1974   -7.2464    1.9961 C   0  0  0  0  0  0  0  0  0  0  0  0
    3.5436   -6.7319    3.4037 C   0  0  2  0  0  0  0  0  0  0  0  0
    2.4210   -5.9948    4.2588 C   0  0  0  0  0  0  0  0  0  0  0  0
    1.0038   -6.2016    3.6630 C   0  0  0  0  0  0  0  0  0  0  0  0
    2.3836   -6.5912    5.6864 C   0  0  0  0  0  0  0  0  0  0  0  0
    2.7593   -4.4875    4.3192 C   0  0  2  0  0  0  0  0  0  0  0  0
    4.0989   -4.2040    4.9806 C   0  0  0  0  0  0  0  0  0  0  0  0
    5.2559   -5.0022    4.3696 C   0  0  0  0  0  0  0  0  0  0  0  0
    4.9534   -6.0405    3.2278 C   0  0  2  0  0  0  0  0  0  0  0  0
    5.9649   -7.1641    3.6792 C   0  0  0  0  0  0  0  0  0  0  0  0
    1.6954   -3.4705    4.8266 C   0  0  0  0  0  0  0  0  0  0  0  0
    1.0217   -2.6007    3.7296 C   0  0  1  0  0  0  0  0  0  0  0  0
   -0.0668   -1.9323    4.3376 O   0  0  0  0  0  0  0  0  0  0  0  0
    3.1620    0.1899    3.3470 H   0  0  0  0  0  0  0  0  0  0  0  0
    3.2954   -1.0130    4.6375 H   0  0  0  0  0  0  0  0  0  0  0  0
    1.8358   -0.0115    4.4936 H   0  0  0  0  0  0  0  0  0  0  0  0
    1.4517   -1.0627    1.1890 H   0  0  0  0  0  0  0  0  0  0  0  0
    4.0574   -0.8879    1.4806 H   0  0  0  0  0  0  0  0  0  0  0  0
    2.2439   -3.4599   -1.3466 H   0  0  0  0  0  0  0  0  0  0  0  0
    2.4190   -4.5168    1.3753 H   0  0  0  0  0  0  0  0  0  0  0  0
    2.7192   -5.3510   -0.1112 H   0  0  0  0  0  0  0  0  0  0  0  0
    6.1346   -4.5339   -0.8947 H   0  0  0  0  0  0  0  0  0  0  0  0
    4.6326   -3.9717   -1.4948 H   0  0  0  0  0  0  0  0  0  0  0  0
    4.8107   -5.6241   -1.1702 H   0  0  0  0  0  0  0  0  0  0  0  0
    5.2827   -2.6058    3.2356 H   0  0  0  0  0  0  0  0  0  0  0  0
    6.3604   -1.6500    2.3003 H   0  0  0  0  0  0  0  0  0  0  0  0
    6.5952   -3.3790    2.3505 H   0  0  0  0  0  0  0  0  0  0  0  0
    5.2032   -0.1269   -0.8304 H   0  0  0  0  0  0  0  0  0  0  0  0
    5.2107   -1.3625   -2.0602 H   0  0  0  0  0  0  0  0  0  0  0  0
    7.3045   -6.5072    1.7772 H   0  0  0  0  0  0  0  0  0  0  0  0
    7.2073   -4.9030    1.1310 H   0  0  0  0  0  0  0  0  0  0  0  0
    6.7545   -6.2768    0.1985 H   0  0  0  0  0  0  0  0  0  0  0  0
    4.1339   -7.0269    0.0785 H   0  0  0  0  0  0  0  0  0  0  0  0
    5.0842   -7.8613    1.1849 H   0  0  0  0  0  0  0  0  0  0  0  0
    2.3314   -6.7655    1.5585 H   0  0  0  0  0  0  0  0  0  0  0  0
    2.9625   -8.3114    2.0153 H   0  0  0  0  0  0  0  0  0  0  0  0
    3.6860   -7.6647    3.9490 H   0  0  0  0  0  0  0  0  0  0  0  0
    0.2257   -5.8764    4.3555 H   0  0  0  0  0  0  0  0  0  0  0  0
    0.8035   -7.2520    3.4460 H   0  0  0  0  0  0  0  0  0  0  0  0
    0.8602   -5.6313    2.7453 H   0  0  0  0  0  0  0  0  0  0  0  0
    1.7416   -6.0091    6.3474 H   0  0  0  0  0  0  0  0  0  0  0  0
    3.3730   -6.6299    6.1396 H   0  0  0  0  0  0  0  0  0  0  0  0
    1.9973   -7.6102    5.6798 H   0  0  0  0  0  0  0  0  0  0  0  0
    2.9402   -4.3060    3.2870 H   0  0  0  0  0  0  0  0  0  0  0  0
    4.3141   -3.1390    4.9749 H   0  0  0  0  0  0  0  0  0  0  0  0
    4.0271   -4.4418    6.0419 H   0  0  0  0  0  0  0  0  0  0  0  0
    6.1127   -4.3818    4.1344 H   0  0  0  0  0  0  0  0  0  0  0  0
    5.6391   -5.5236    5.2542 H   0  0  0  0  0  0  0  0  0  0  0  0
    5.7050   -7.5867    4.6507 H   0  0  0  0  0  0  0  0  0  0  0  0
    6.9745   -6.7718    3.8157 H   0  0  0  0  0  0  0  0  0  0  0  0
    6.0338   -8.0220    3.0125 H   0  0  0  0  0  0  0  0  0  0  0  0
    0.9122   -4.0066    5.3615 H   0  0  0  0  0  0  0  0  0  0  0  0
    2.1107   -2.8074    5.5828 H   0  0  0  0  0  0  0  0  0  0  0  0
    0.6198   -3.2603    2.9608 H   0  0  0  0  0  0  0  0  0  0  0  0
   -0.4000   -1.3274    3.6880 H   0  0  0  0  0  0  0  0  0  0  0  0
  1  2  1  0
  1 33  1  0
  1 34  1  0
  1 35  1  0
  2 31  1  0
  2  3  1  6
  2  4  1  0
  3 36  1  0
  4  5  1  0
  5 11  1  0
  5  6  1  0
  5 37  1  1
  6 16  1  0
  6  7  2  0
  7  8  1  0
  7 38  1  0
  8  9  1  0
  8 39  1  0
  8 40  1  0
  9 10  1  6
  9 11  1  0
  9 17  1  0
 10 41  1  0
 10 42  1  0
 10 43  1  0
 11 12  1  1
 11 13  1  0
 12 44  1  0
 12 45  1  0
 12 46  1  0
 13 14  2  0
 13 15  1  0
 15 16  1  0
 15 47  1  0
 15 48  1  0
 17 28  1  0
 17 18  1  1
 17 19  1  0
 18 49  1  0
 18 50  1  0
 18 51  1  0
 19 20  1  0
 19 52  1  0
 19 53  1  0
 20 21  1  0
 20 54  1  0
 20 55  1  0
 21 28  1  0
 21 22  1  0
 21 56  1  1
 22 23  1  0
 22 24  1  0
 22 25  1  0
 23 57  1  0
 23 58  1  0
 23 59  1  0
 24 60  1  0
 24 61  1  0
 24 62  1  0
 25 26  1  0
 25 30  1  0
 25 63  1  6
 26 27  1  0
 26 64  1  0
 26 65  1  0
 27 28  1  0
 27 66  1  0
 27 67  1  0
 28 29  1  1
 29 68  1  0
 29 69  1  0
 29 70  1  0
 30 31  1  0
 30 71  1  0
 30 72  1  0
 31 32  1  0
 31 73  1  6
 32 74  1  0
M  END
>  <i_m_ct_stereo_status>  (404) 
1

>  <s_m_source_file>  (404) 
/var/tmp/pbs.5083856.sched01/tmp3ll7l_dp/1709t30sv2n.sdf

>  <i_m_source_file_index>  (404) 
3

>  <i_lp_mmshare_version>  (404) 
48012

>  <i_f3d_flags>  (404) 
0

>  <s_epik_input>  (404) 
Tz1DMVtDSDJdT0MoPVtDSF1bQ0gyXTIpW0NASF0oW0NAQF0xKFtDSDNdKVtDQF0yM1tDSDNdKU9bQ0BAXShbQ0gzXSkoW09IXSlbQ0BIXShbT0hdKVtDSDJdW0NAQEhdNEMoW0NIM10pKFtDSDNdKVtDQEBIXTVbQ0BdKFtDSDNdKShbQ0gyXVtDSDJdNClbQ0BAXTMoW0NIM10pW0NIMl1bQ0gyXTU=

>  <s_epik_cmdline>  (404) 
J2VwaWtfcHl0aG9uJywgJy1waHQnLCAnMi4wJywgJy1waCcsICc3LjAnLCAnLXRuJywgJzgnLCAnLW1hJywgJzIwMCcsICctaW1hZScsICc8aW5maWxlLm1hZT4nLCAnLW9tYWUnLCAnPG91dGZpbGUubWFlPic=

>  <r_lp_tautomer_probability>  (404) 
1

>  <r_epik_Ionization_Penalty>  (404) 
1.94543e-07

>  <r_epik_Ionization_Penalty_Charging>  (404) 
0

>  <r_epik_Ionization_Penalty_Neutral>  (404) 
1.94543e-07

>  <r_epik_State_Penalty>  (404) 
0

>  <r_epik_Charging_Adjusted_Penalty>  (404) 
0

>  <i_epik_Tot_Q>  (404) 
0

>  <i_epik_Tot_abs_Q>  (404) 
0

>  <s_lp_Force_Field>  (404) 
OPLS3e

>  <r_lp_Energy>  (404) 
180.291

>  <b_lp_Chiralities_Consistent>  (404) 
1

>  <s_lp_Variant>  (404) 
121:0-2

>  <s_i_glide_gridfile>  (404) 
pfpi4k_grid

>  <i_i_glide_lignum>  (404) 
3

>  <i_i_glide_rotatable_bonds>  (404) 
2

>  <r_i_docking_score>  (404) 
-2.56188

>  <r_i_glide_ligand_efficiency>  (404) 
-0.0800587

>  <r_i_glide_ligand_efficiency_sa>  (404) 
-0.25417

>  <r_i_glide_ligand_efficiency_ln>  (404) 
-0.573674

>  <r_i_glide_gscore>  (404) 
-2.56188

>  <r_i_glide_lipo>  (404) 
-0.399866

>  <r_i_glide_hbond>  (404) 
-0.0727465

>  <r_i_glide_metal>  (404) 
-0

>  <r_i_glide_rewards>  (404) 
-0.363959

>  <r_i_glide_evdw>  (404) 
-22.7789

>  <r_i_glide_ecoul>  (404) 
-3.82432

>  <r_i_glide_erotb>  (404) 
0

>  <r_i_glide_esite>  (404) 
-0.0127143

>  <r_i_glide_emodel>  (404) 
-30.0618

>  <r_i_glide_energy>  (404) 
-26.6032

>  <r_i_glide_einternal>  (404) 
2.40001

>  <r_i_glide_intrahb_reward>  (404) 
-0

>  <i_i_glide_confnum>  (404) 
2

>  <i_i_glide_posenum>  (404) 
2

>  <r_i_glide_eff_state_penalty>  (404) 
0

>  <ligand_id>  (404) 
121

>  <original_smiles>  (404) 
CC1(O)OC2C3=CCC(C)(C2(C)C(=O)CO3)C2(C)CCC3C(C)(C)C(CCC32C)CC1O

>  <smiles>  (404) 
[H]OC1([H])C([H])([H])C2([H])C([H])([H])C([H])([H])C3(C([H])([H])[H])C([H])(C([H])([H])C([H])([H])C3(C([H])([H])[H])C3(C([H])([H])[H])C([H])([H])C([H])=C4OC([H])([H])C(=O)C3(C([H])([H])[H])C4([H])OC1(O[H])C([H])([H])[H])C2(C([H])([H])[H])C([H])([H])[H]

$$$$
121:1:2
     RDKit          3D

 74 78  0  0  1  0  0  0  0  0999 V2000
    3.6897    4.3322    4.9444 C   0  0  0  0  0  0  0  0  0  0  0  0
    2.4676    3.7666    4.1958 C   0  0  1  0  0  0  0  0  0  0  0  0
    2.5656    4.0885    2.8243 O   0  0  0  0  0  0  0  0  0  0  0  0
    2.4235    2.3878    4.4249 O   0  0  0  0  0  0  0  0  0  0  0  0
    3.1811    1.4216    3.7144 C   0  0  2  0  0  0  0  0  0  0  0  0
    2.6068    1.1787    2.3433 C   0  0  0  0  0  0  0  0  0  0  0  0
    1.3499    0.7478    2.2247 C   0  0  0  0  0  0  0  0  0  0  0  0
    0.6590    0.2851    3.4939 C   0  0  0  0  0  0  0  0  0  0  0  0
    1.6183   -0.6297    4.3785 C   0  0  1  0  0  0  0  0  0  0  0  0
    1.6664   -1.9104    3.4245 C   0  0  0  0  0  0  0  0  0  0  0  0
    3.1557    0.0135    4.3773 C   0  0  2  0  0  0  0  0  0  0  0  0
    3.8784    0.1600    5.7340 C   0  0  0  0  0  0  0  0  0  0  0  0
    4.1982   -0.7537    3.4765 C   0  0  0  0  0  0  0  0  0  0  0  0
    4.8365   -1.7083    3.9200 O   0  0  0  0  0  0  0  0  0  0  0  0
    4.4426   -0.2899    2.0018 C   0  0  0  0  0  0  0  0  0  0  0  0
    3.5304    0.7023    1.4604 O   0  0  0  0  0  0  0  0  0  0  0  0
    0.9122   -1.1520    5.8046 C   0  0  2  0  0  0  0  0  0  0  0  0
    1.6390   -2.5015    6.1665 C   0  0  0  0  0  0  0  0  0  0  0  0
   -0.5807   -1.5267    5.4854 C   0  0  0  0  0  0  0  0  0  0  0  0
   -1.4715   -0.3055    5.7458 C   0  0  0  0  0  0  0  0  0  0  0  0
   -0.8060    0.4801    6.8908 C   0  0  2  0  0  0  0  0  0  0  0  0
   -0.8535    2.0657    6.8872 C   0  0  0  0  0  0  0  0  0  0  0  0
   -1.8484    2.6165    5.8359 C   0  0  0  0  0  0  0  0  0  0  0  0
   -1.3469    2.5863    8.2637 C   0  0  0  0  0  0  0  0  0  0  0  0
    0.5732    2.5757    6.5997 C   0  0  2  0  0  0  0  0  0  0  0  0
    1.5836    2.1465    7.6544 C   0  0  0  0  0  0  0  0  0  0  0  0
    1.5897    0.6337    7.9141 C   0  0  0  0  0  0  0  0  0  0  0  0
    0.5527   -0.2747    7.1616 C   0  0  2  0  0  0  0  0  0  0  0  0
    0.2200   -1.2541    8.3577 C   0  0  0  0  0  0  0  0  0  0  0  0
    0.7943    4.0647    6.2050 C   0  0  0  0  0  0  0  0  0  0  0  0
    1.0863    4.3265    4.6981 C   0  0  1  0  0  0  0  0  0  0  0  0
    0.9813    5.7257    4.5012 O   0  0  0  0  0  0  0  0  0  0  0  0
    4.6125    3.9505    4.5087 H   0  0  0  0  0  0  0  0  0  0  0  0
    3.6770    4.0331    5.9938 H   0  0  0  0  0  0  0  0  0  0  0  0
    3.6985    5.4234    4.8792 H   0  0  0  0  0  0  0  0  0  0  0  0
    3.3724    3.7336    2.4861 H   0  0  0  0  0  0  0  0  0  0  0  0
    4.2036    1.7915    3.6769 H   0  0  0  0  0  0  0  0  0  0  0  0
    1.0013    0.3257    1.2883 H   0  0  0  0  0  0  0  0  0  0  0  0
    0.3028    1.1677    4.0034 H   0  0  0  0  0  0  0  0  0  0  0  0
   -0.2338   -0.2401    3.1592 H   0  0  0  0  0  0  0  0  0  0  0  0
    2.3647   -2.6839    3.7458 H   0  0  0  0  0  0  0  0  0  0  0  0
    1.9740   -1.6815    2.4039 H   0  0  0  0  0  0  0  0  0  0  0  0
    0.7169   -2.4115    3.2734 H   0  0  0  0  0  0  0  0  0  0  0  0
    3.5716    1.0620    6.2422 H   0  0  0  0  0  0  0  0  0  0  0  0
    4.9533    0.2973    5.6149 H   0  0  0  0  0  0  0  0  0  0  0  0
    3.7681   -0.6958    6.3922 H   0  0  0  0  0  0  0  0  0  0  0  0
    5.4550    0.1143    1.9403 H   0  0  0  0  0  0  0  0  0  0  0  0
    4.4324   -1.1651    1.3538 H   0  0  0  0  0  0  0  0  0  0  0  0
    1.4833   -2.9141    7.1538 H   0  0  0  0  0  0  0  0  0  0  0  0
    2.7168   -2.4545    6.0345 H   0  0  0  0  0  0  0  0  0  0  0  0
    1.2945   -3.3163    5.5285 H   0  0  0  0  0  0  0  0  0  0  0  0
   -0.7914   -1.9132    4.4945 H   0  0  0  0  0  0  0  0  0  0  0  0
   -0.9133   -2.3473    6.1171 H   0  0  0  0  0  0  0  0  0  0  0  0
   -1.5888    0.2703    4.8353 H   0  0  0  0  0  0  0  0  0  0  0  0
   -2.4785   -0.6254    6.0127 H   0  0  0  0  0  0  0  0  0  0  0  0
   -1.4359    0.2674    7.7384 H   0  0  0  0  0  0  0  0  0  0  0  0
   -2.0196    3.6855    5.9613 H   0  0  0  0  0  0  0  0  0  0  0  0
   -2.8233    2.1433    5.9238 H   0  0  0  0  0  0  0  0  0  0  0  0
   -1.4892    2.4743    4.8169 H   0  0  0  0  0  0  0  0  0  0  0  0
   -1.2303    3.6670    8.3459 H   0  0  0  0  0  0  0  0  0  0  0  0
   -0.8042    2.1389    9.0967 H   0  0  0  0  0  0  0  0  0  0  0  0
   -2.4033    2.3677    8.4237 H   0  0  0  0  0  0  0  0  0  0  0  0
    0.8058    1.9654    5.7596 H   0  0  0  0  0  0  0  0  0  0  0  0
    2.5802    2.4945    7.3940 H   0  0  0  0  0  0  0  0  0  0  0  0
    1.3630    2.6657    8.5890 H   0  0  0  0  0  0  0  0  0  0  0  0
    2.5833    0.2058    7.9091 H   0  0  0  0  0  0  0  0  0  0  0  0
    1.3905    0.6135    8.9925 H   0  0  0  0  0  0  0  0  0  0  0  0
   -0.2534   -0.7392    9.1974 H   0  0  0  0  0  0  0  0  0  0  0  0
    1.1219   -1.6852    8.7945 H   0  0  0  0  0  0  0  0  0  0  0  0
   -0.4380   -2.0850    8.1137 H   0  0  0  0  0  0  0  0  0  0  0  0
   -0.0836    4.6404    6.4928 H   0  0  0  0  0  0  0  0  0  0  0  0
    1.5880    4.5077    6.8047 H   0  0  0  0  0  0  0  0  0  0  0  0
    0.3022    3.8704    4.0900 H   0  0  0  0  0  0  0  0  0  0  0  0
    1.0913    5.8945    3.5722 H   0  0  0  0  0  0  0  0  0  0  0  0
  1  2  1  0
  1 33  1  0
  1 34  1  0
  1 35  1  0
  2 31  1  0
  2  3  1  6
  2  4  1  0
  3 36  1  0
  4  5  1  0
  5 11  1  0
  5  6  1  0
  5 37  1  6
  6 16  1  0
  6  7  2  0
  7  8  1  0
  7 38  1  0
  8  9  1  0
  8 39  1  0
  8 40  1  0
  9 10  1  6
  9 11  1  0
  9 17  1  0
 10 41  1  0
 10 42  1  0
 10 43  1  0
 11 12  1  1
 11 13  1  0
 12 44  1  0
 12 45  1  0
 12 46  1  0
 13 14  2  0
 13 15  1  0
 15 16  1  0
 15 47  1  0
 15 48  1  0
 17 28  1  0
 17 18  1  1
 17 19  1  0
 18 49  1  0
 18 50  1  0
 18 51  1  0
 19 20  1  0
 19 52  1  0
 19 53  1  0
 20 21  1  0
 20 54  1  0
 20 55  1  0
 21 28  1  0
 21 22  1  0
 21 56  1  1
 22 23  1  0
 22 24  1  0
 22 25  1  0
 23 57  1  0
 23 58  1  0
 23 59  1  0
 24 60  1  0
 24 61  1  0
 24 62  1  0
 25 26  1  0
 25 30  1  0
 25 63  1  6
 26 27  1  0
 26 64  1  0
 26 65  1  0
 27 28  1  0
 27 66  1  0
 27 67  1  0
 28 29  1  1
 29 68  1  0
 29 69  1  0
 29 70  1  0
 30 31  1  0
 30 71  1  0
 30 72  1  0
 31 32  1  0
 31 73  1  6
 32 74  1  0
M  END
>  <i_m_ct_stereo_status>  (405) 
1

>  <s_m_source_file>  (405) 
/var/tmp/pbs.5083856.sched01/tmp3ll7l_dp/1709t30sv2n.sdf

>  <i_m_source_file_index>  (405) 
3

>  <i_lp_mmshare_version>  (405) 
48012

>  <i_f3d_flags>  (405) 
0

>  <s_epik_input>  (405) 
Tz1DMVtDSDJdT0MoPVtDSF1bQ0gyXTIpW0NASF0oW0NAQF0xKFtDSDNdKVtDQF0yM1tDSDNdKU9bQ0BAXShbQ0gzXSkoW09IXSlbQ0BIXShbT0hdKVtDSDJdW0NAQEhdNEMoW0NIM10pKFtDSDNdKVtDQEBIXTVbQ0BdKFtDSDNdKShbQ0gyXVtDSDJdNClbQ0BAXTMoW0NIM10pW0NIMl1bQ0gyXTU=

>  <s_epik_cmdline>  (405) 
J2VwaWtfcHl0aG9uJywgJy1waHQnLCAnMi4wJywgJy1waCcsICc3LjAnLCAnLXRuJywgJzgnLCAnLW1hJywgJzIwMCcsICctaW1hZScsICc8aW5maWxlLm1hZT4nLCAnLW9tYWUnLCAnPG91dGZpbGUubWFlPic=

>  <r_lp_tautomer_probability>  (405) 
1

>  <r_epik_Ionization_Penalty>  (405) 
1.94543e-07

>  <r_epik_Ionization_Penalty_Charging>  (405) 
0

>  <r_epik_Ionization_Penalty_Neutral>  (405) 
1.94543e-07

>  <r_epik_State_Penalty>  (405) 
0

>  <r_epik_Charging_Adjusted_Penalty>  (405) 
0

>  <i_epik_Tot_Q>  (405) 
0

>  <i_epik_Tot_abs_Q>  (405) 
0

>  <s_lp_Force_Field>  (405) 
OPLS3e

>  <r_lp_Energy>  (405) 
180.291

>  <b_lp_Chiralities_Consistent>  (405) 
1

>  <s_lp_Variant>  (405) 
121:0-2

>  <s_i_glide_gridfile>  (405) 
pfpi4k_grid

>  <i_i_glide_lignum>  (405) 
3

>  <i_i_glide_rotatable_bonds>  (405) 
2

>  <r_i_docking_score>  (405) 
-2.18772

>  <r_i_glide_ligand_efficiency>  (405) 
-0.0683661

>  <r_i_glide_ligand_efficiency_sa>  (405) 
-0.217049

>  <r_i_glide_ligand_efficiency_ln>  (405) 
-0.489889

>  <r_i_glide_gscore>  (405) 
-2.18772

>  <r_i_glide_lipo>  (405) 
-0.181907

>  <r_i_glide_hbond>  (405) 
0

>  <r_i_glide_metal>  (405) 
-0

>  <r_i_glide_rewards>  (405) 
-0.39815

>  <r_i_glide_evdw>  (405) 
-24.97

>  <r_i_glide_ecoul>  (405) 
-2.28988

>  <r_i_glide_erotb>  (405) 
0

>  <r_i_glide_esite>  (405) 
-0.0156739

>  <r_i_glide_emodel>  (405) 
-31.2448

>  <r_i_glide_energy>  (405) 
-27.2599

>  <r_i_glide_einternal>  (405) 
0.363449

>  <r_i_glide_intrahb_reward>  (405) 
-0

>  <i_i_glide_confnum>  (405) 
1

>  <i_i_glide_posenum>  (405) 
6

>  <r_i_glide_eff_state_penalty>  (405) 
0

>  <ligand_id>  (405) 
121

>  <original_smiles>  (405) 
CC1(O)OC2C3=CCC(C)(C2(C)C(=O)CO3)C2(C)CCC3C(C)(C)C(CCC32C)CC1O

>  <smiles>  (405) 
[H]OC1([H])C([H])([H])C2([H])C([H])([H])C([H])([H])C3(C([H])([H])[H])C([H])(C([H])([H])C([H])([H])C3(C([H])([H])[H])C3(C([H])([H])[H])C([H])([H])C([H])=C4OC([H])([H])C(=O)C3(C([H])([H])[H])C4([H])OC1(O[H])C([H])([H])[H])C2(C([H])([H])[H])C([H])([H])[H]

$$$$
