0:0:0
     RDKit          3D

 37 41  0  0  1  0  0  0  0  0999 V2000
   -6.8856   -4.3834   -4.4009 C   0  0  0  0  0  0  0  0  0  0  0  0
   -6.2279   -5.6079   -4.3532 C   0  0  0  0  0  0  0  0  0  0  0  0
   -6.7169   -6.3534   -5.3677 C   0  0  0  0  0  0  0  0  0  0  0  0
   -6.3128   -7.9557   -5.7601 S   0  0  0  0  0  0  0  0  0  0  0  0
   -7.4736   -7.7349   -7.0956 C   0  0  0  0  0  0  0  0  0  0  0  0
   -7.7225   -8.7545   -8.0096 N   0  0  0  0  0  0  0  0  0  0  0  0
   -7.3965  -10.1738   -8.0172 C   0  0  2  0  0  0  0  0  0  0  0  0
   -7.8818  -10.8722   -9.3270 C   0  0  0  0  0  0  0  0  0  0  0  0
   -7.4766  -12.3686   -9.2982 C   0  0  1  0  0  0  0  0  0  0  0  0
   -5.9412  -12.5054   -9.1809 C   0  0  0  0  0  0  0  0  0  0  0  0
   -5.4769  -11.8426   -7.8831 C   0  0  2  0  0  0  0  0  0  0  0  0
   -6.1545  -12.4807   -6.6532 C   0  0  0  0  0  0  0  0  0  0  0  0
   -7.6843  -12.3560   -6.7912 C   0  0  2  0  0  0  0  0  0  0  0  0
   -8.1439  -13.0549   -8.0865 C   0  0  0  0  0  0  0  0  0  0  0  0
   -8.0936  -10.8781   -6.8282 C   0  0  0  0  0  0  0  0  0  0  0  0
   -5.8557  -10.3744   -7.9171 C   0  0  0  0  0  0  0  0  0  0  0  0
   -8.0928   -6.5295   -7.1493 N   0  0  0  0  0  0  0  0  0  0  0  0
   -7.6507   -5.7338   -6.0850 C   0  0  0  0  0  0  0  0  0  0  0  0
   -8.1596   -4.1814   -5.6368 S   0  0  0  0  0  0  0  0  0  0  0  0
   -6.6778   -3.5845   -3.7204 H   0  0  0  0  0  0  0  0  0  0  0  0
   -5.4651   -5.9650   -3.6713 H   0  0  0  0  0  0  0  0  0  0  0  0
   -8.9633  -10.7878   -9.4471 H   0  0  0  0  0  0  0  0  0  0  0  0
   -7.4404  -10.3895  -10.1955 H   0  0  0  0  0  0  0  0  0  0  0  0
   -7.8025  -12.8531  -10.2187 H   0  0  0  0  0  0  0  0  0  0  0  0
   -5.6224  -13.5491   -9.1951 H   0  0  0  0  0  0  0  0  0  0  0  0
   -5.4572  -12.0006  -10.0138 H   0  0  0  0  0  0  0  0  0  0  0  0
   -4.3948  -11.9045   -7.7754 H   0  0  0  0  0  0  0  0  0  0  0  0
   -5.8603  -13.5255   -6.5533 H   0  0  0  0  0  0  0  0  0  0  0  0
   -5.8251  -11.9801   -5.7390 H   0  0  0  0  0  0  0  0  0  0  0  0
   -8.1527  -12.8083   -5.9275 H   0  0  0  0  0  0  0  0  0  0  0  0
   -9.2290  -12.9994   -8.1756 H   0  0  0  0  0  0  0  0  0  0  0  0
   -7.8834  -14.1156   -8.0548 H   0  0  0  0  0  0  0  0  0  0  0  0
   -7.8205  -10.4062   -5.8851 H   0  0  0  0  0  0  0  0  0  0  0  0
   -9.1805  -10.7856   -6.9006 H   0  0  0  0  0  0  0  0  0  0  0  0
   -5.3818   -9.8211   -8.7173 H   0  0  0  0  0  0  0  0  0  0  0  0
   -5.3883  -10.0066   -7.0155 H   0  0  0  0  0  0  0  0  0  0  0  0
   -8.3314   -8.4740   -8.7685 H   0  0  0  0  0  0  0  0  0  0  0  0
  1 19  1  0
  1  2  2  0
  1 20  1  0
  2  3  1  0
  2 21  1  0
  3 18  2  0
  3  4  1  0
  4  5  1  0
  5  6  1  0
  5 17  2  0
  7  6  1  6
  6 37  1  0
  7 15  1  0
  7 16  1  0
  7  8  1  0
  8  9  1  0
  8 22  1  0
  8 23  1  0
  9 14  1  0
  9 10  1  0
  9 24  1  6
 10 11  1  0
 10 25  1  0
 10 26  1  0
 11 12  1  0
 11 16  1  0
 11 27  1  1
 12 13  1  0
 12 28  1  0
 12 29  1  0
 13 14  1  0
 13 15  1  0
 13 30  1  1
 14 31  1  0
 14 32  1  0
 15 33  1  0
 15 34  1  0
 16 35  1  0
 16 36  1  0
 17 18  1  0
 18 19  1  0
M  END
>  <i_m_ct_stereo_status>  (1) 
1

>  <s_m_source_file>  (1) 
/var/tmp/pbs.5102264.sched01/tmpu94zaw8c/01d2njlry.sdf

>  <i_m_source_file_index>  (1) 
1

>  <i_lp_mmshare_version>  (1) 
48012

>  <i_f3d_flags>  (1) 
0

>  <s_epik_input>  (1) 
W2NIXTFbY0hdc2MoYzEyKVtuSF1jKFxzMik9TlxDMzRbQ0gyXVtDQEBIXTVbQ0gyXVtDQEhdKFtDSDJdNClbQ0gyXVtDQEBIXShbQ0gyXTUpW0NIMl0z

>  <s_epik_cmdline>  (1) 
J2VwaWtfcHl0aG9uJywgJy1waHQnLCAnMi4wJywgJy1waCcsICc3LjAnLCAnLXRuJywgJzgnLCAnLW1hJywgJzIwMCcsICctaW1hZScsICc8aW5maWxlLm1hZT4nLCAnLW9tYWUnLCAnPG91dGZpbGUubWFlPic=

>  <r_epik_Ionization_Penalty>  (1) 
0.205581

>  <r_epik_Ionization_Penalty_Charging>  (1) 
0

>  <r_epik_Ionization_Penalty_Neutral>  (1) 
0.205581

>  <r_epik_State_Penalty>  (1) 
0.196737

>  <r_epik_Charging_Adjusted_Penalty>  (1) 
0.196737

>  <i_epik_Tot_Q>  (1) 
0

>  <i_epik_Tot_abs_Q>  (1) 
0

>  <s_lp_Force_Field>  (1) 
OPLS3e

>  <r_lp_Energy>  (1) 
5.24073

>  <b_lp_Chiralities_Consistent>  (1) 
1

>  <s_lp_Variant>  (1) 
0:0-1

>  <s_i_glide_gridfile>  (1) 
pfpi4k_grid

>  <i_i_glide_lignum>  (1) 
1

>  <i_i_glide_rotatable_bonds>  (1) 
2

>  <r_i_docking_score>  (1) 
-5.63948

>  <r_i_glide_ligand_efficiency>  (1) 
-0.296815

>  <r_i_glide_ligand_efficiency_sa>  (1) 
-0.792021

>  <r_i_glide_ligand_efficiency_ln>  (1) 
-1.42973

>  <r_i_glide_gscore>  (1) 
-5.63948

>  <r_i_glide_lipo>  (1) 
-2.76139

>  <r_i_glide_hbond>  (1) 
0

>  <r_i_glide_metal>  (1) 
-0

>  <r_i_glide_rewards>  (1) 
-1.77764

>  <r_i_glide_evdw>  (1) 
-29.7263

>  <r_i_glide_ecoul>  (1) 
-0.308058

>  <r_i_glide_erotb>  (1) 
0.432078

>  <r_i_glide_esite>  (1) 
0

>  <r_i_glide_emodel>  (1) 
-38.0378

>  <r_i_glide_energy>  (1) 
-30.0343

>  <r_i_glide_einternal>  (1) 
2.17368

>  <r_i_glide_intrahb_reward>  (1) 
-0

>  <i_i_glide_confnum>  (1) 
5

>  <i_i_glide_posenum>  (1) 
9

>  <r_i_glide_eff_state_penalty>  (1) 
0

>  <ligand_id>  (1) 
0

>  <original_smiles>  (1) 
c1cc2sc(=NC34CC5CC(CC(C5)C3)C4)[nH]c2s1

>  <smiles>  (1) 
[H]c1sc2nc(N([H])C34C([H])([H])C5([H])C([H])([H])C([H])(C([H])([H])C([H])(C5([H])[H])C3([H])[H])C4([H])[H])sc2c1[H]

$$$$
0:0:1
     RDKit          3D

 37 41  0  0  1  0  0  0  0  0999 V2000
   -6.6445   -4.7710   -4.6644 C   0  0  0  0  0  0  0  0  0  0  0  0
   -6.2608   -6.1056   -4.7701 C   0  0  0  0  0  0  0  0  0  0  0  0
   -6.9504   -6.6445   -5.8176 C   0  0  0  0  0  0  0  0  0  0  0  0
   -6.9474   -8.2457   -6.3919 S   0  0  0  0  0  0  0  0  0  0  0  0
   -8.0899   -7.6362   -7.6252 C   0  0  0  0  0  0  0  0  0  0  0  0
   -8.6109   -8.4695   -8.6053 N   0  0  0  0  0  0  0  0  0  0  0  0
   -8.6692   -9.9219   -8.7134 C   0  0  2  0  0  0  0  0  0  0  0  0
   -9.3817  -10.3601  -10.0256 C   0  0  0  0  0  0  0  0  0  0  0  0
   -9.3971  -11.9092  -10.1062 C   0  0  1  0  0  0  0  0  0  0  0  0
   -7.9493  -12.4492  -10.0989 C   0  0  0  0  0  0  0  0  0  0  0  0
   -7.2652  -12.0304   -8.7923 C   0  0  2  0  0  0  0  0  0  0  0  0
   -8.0328  -12.5595   -7.5585 C   0  0  0  0  0  0  0  0  0  0  0  0
   -9.4835  -12.0358   -7.5884 C   0  0  2  0  0  0  0  0  0  0  0  0
  -10.1673  -12.4839   -8.8946 C   0  0  0  0  0  0  0  0  0  0  0  0
   -9.4717  -10.4995   -7.5218 C   0  0  0  0  0  0  0  0  0  0  0  0
   -7.2312  -10.5096   -8.7297 C   0  0  0  0  0  0  0  0  0  0  0  0
   -8.4150   -6.3260   -7.5171 N   0  0  0  0  0  0  0  0  0  0  0  0
   -7.7647   -5.7805   -6.4210 C   0  0  0  0  0  0  0  0  0  0  0  0
   -7.9062   -4.2198   -5.7942 S   0  0  0  0  0  0  0  0  0  0  0  0
   -6.2608   -4.0696   -3.9375 H   0  0  0  0  0  0  0  0  0  0  0  0
   -5.5543   -6.6527   -4.1583 H   0  0  0  0  0  0  0  0  0  0  0  0
  -10.4058   -9.9854  -10.0679 H   0  0  0  0  0  0  0  0  0  0  0  0
   -8.8691   -9.9561  -10.8979 H   0  0  0  0  0  0  0  0  0  0  0  0
   -9.8863  -12.2233  -11.0287 H   0  0  0  0  0  0  0  0  0  0  0  0
   -7.9235  -13.5366  -10.1988 H   0  0  0  0  0  0  0  0  0  0  0  0
   -7.3956  -12.0338  -10.9412 H   0  0  0  0  0  0  0  0  0  0  0  0
   -6.2374  -12.3892   -8.7655 H   0  0  0  0  0  0  0  0  0  0  0  0
   -8.0201  -13.6498   -7.5422 H   0  0  0  0  0  0  0  0  0  0  0  0
   -7.5437  -12.2311   -6.6381 H   0  0  0  0  0  0  0  0  0  0  0  0
  -10.0335  -12.4228   -6.7302 H   0  0  0  0  0  0  0  0  0  0  0  0
  -11.2012  -12.1375   -8.9088 H   0  0  0  0  0  0  0  0  0  0  0  0
  -10.2006  -13.5750   -8.9435 H   0  0  0  0  0  0  0  0  0  0  0  0
   -9.0322  -10.1891   -6.5748 H   0  0  0  0  0  0  0  0  0  0  0  0
  -10.4946  -10.1160   -7.5171 H   0  0  0  0  0  0  0  0  0  0  0  0
   -6.6588  -10.0727   -9.5456 H   0  0  0  0  0  0  0  0  0  0  0  0
   -6.6560  -10.3135   -7.8369 H   0  0  0  0  0  0  0  0  0  0  0  0
   -9.1306   -7.9857   -9.3197 H   0  0  0  0  0  0  0  0  0  0  0  0
  1 19  1  0
  1  2  2  0
  1 20  1  0
  2  3  1  0
  2 21  1  0
  3 18  2  0
  3  4  1  0
  4  5  1  0
  5  6  1  0
  5 17  2  0
  7  6  1  1
  6 37  1  0
  7 15  1  0
  7 16  1  0
  7  8  1  0
  8  9  1  0
  8 22  1  0
  8 23  1  0
  9 14  1  0
  9 10  1  0
  9 24  1  6
 10 11  1  0
 10 25  1  0
 10 26  1  0
 11 12  1  0
 11 16  1  0
 11 27  1  6
 12 13  1  0
 12 28  1  0
 12 29  1  0
 13 14  1  0
 13 15  1  0
 13 30  1  1
 14 31  1  0
 14 32  1  0
 15 33  1  0
 15 34  1  0
 16 35  1  0
 16 36  1  0
 17 18  1  0
 18 19  1  0
M  END
>  <i_m_ct_stereo_status>  (2) 
1

>  <s_m_source_file>  (2) 
/var/tmp/pbs.5102264.sched01/tmpu94zaw8c/01d2njlry.sdf

>  <i_m_source_file_index>  (2) 
1

>  <i_lp_mmshare_version>  (2) 
48012

>  <i_f3d_flags>  (2) 
0

>  <s_epik_input>  (2) 
W2NIXTFbY0hdc2MoYzEyKVtuSF1jKFxzMik9TlxDMzRbQ0gyXVtDQEBIXTVbQ0gyXVtDQEhdKFtDSDJdNClbQ0gyXVtDQEBIXShbQ0gyXTUpW0NIMl0z

>  <s_epik_cmdline>  (2) 
J2VwaWtfcHl0aG9uJywgJy1waHQnLCAnMi4wJywgJy1waCcsICc3LjAnLCAnLXRuJywgJzgnLCAnLW1hJywgJzIwMCcsICctaW1hZScsICc8aW5maWxlLm1hZT4nLCAnLW9tYWUnLCAnPG91dGZpbGUubWFlPic=

>  <r_epik_Ionization_Penalty>  (2) 
0.205581

>  <r_epik_Ionization_Penalty_Charging>  (2) 
0

>  <r_epik_Ionization_Penalty_Neutral>  (2) 
0.205581

>  <r_epik_State_Penalty>  (2) 
0.196737

>  <r_epik_Charging_Adjusted_Penalty>  (2) 
0.196737

>  <i_epik_Tot_Q>  (2) 
0

>  <i_epik_Tot_abs_Q>  (2) 
0

>  <s_lp_Force_Field>  (2) 
OPLS3e

>  <r_lp_Energy>  (2) 
5.24073

>  <b_lp_Chiralities_Consistent>  (2) 
1

>  <s_lp_Variant>  (2) 
0:0-1

>  <s_i_glide_gridfile>  (2) 
pfpi4k_grid

>  <i_i_glide_lignum>  (2) 
1

>  <i_i_glide_rotatable_bonds>  (2) 
2

>  <r_i_docking_score>  (2) 
-5.11698

>  <r_i_glide_ligand_efficiency>  (2) 
-0.269315

>  <r_i_glide_ligand_efficiency_sa>  (2) 
-0.71864

>  <r_i_glide_ligand_efficiency_ln>  (2) 
-1.29726

>  <r_i_glide_gscore>  (2) 
-5.11698

>  <r_i_glide_lipo>  (2) 
-2.22779

>  <r_i_glide_hbond>  (2) 
0

>  <r_i_glide_metal>  (2) 
-0

>  <r_i_glide_rewards>  (2) 
-1.78709

>  <r_i_glide_evdw>  (2) 
-29.4749

>  <r_i_glide_ecoul>  (2) 
-0.402846

>  <r_i_glide_erotb>  (2) 
0.432078

>  <r_i_glide_esite>  (2) 
0

>  <r_i_glide_emodel>  (2) 
-37.0264

>  <r_i_glide_energy>  (2) 
-29.8777

>  <r_i_glide_einternal>  (2) 
2.44871

>  <r_i_glide_intrahb_reward>  (2) 
-0

>  <i_i_glide_confnum>  (2) 
5

>  <i_i_glide_posenum>  (2) 
40

>  <r_i_glide_eff_state_penalty>  (2) 
0

>  <ligand_id>  (2) 
0

>  <original_smiles>  (2) 
c1cc2sc(=NC34CC5CC(CC(C5)C3)C4)[nH]c2s1

>  <smiles>  (2) 
[H]c1sc2nc(N([H])C34C([H])([H])C5([H])C([H])([H])C([H])(C([H])([H])C([H])(C5([H])[H])C3([H])[H])C4([H])[H])sc2c1[H]

$$$$
0:0:2
     RDKit          3D

 37 41  0  0  1  0  0  0  0  0999 V2000
   -3.7871  -10.9086   -5.5868 C   0  0  0  0  0  0  0  0  0  0  0  0
   -4.5883   -9.7707   -5.5036 C   0  0  0  0  0  0  0  0  0  0  0  0
   -5.5070   -9.8595   -6.5253 C   0  0  0  0  0  0  0  0  0  0  0  0
   -6.7729   -8.7825   -6.8799 S   0  0  0  0  0  0  0  0  0  0  0  0
   -7.1020   -9.8987   -8.2386 C   0  0  0  0  0  0  0  0  0  0  0  0
   -8.1285   -9.6460   -9.1535 N   0  0  0  0  0  0  0  0  0  0  0  0
   -9.1696   -8.6279   -9.2043 C   0  0  2  0  0  0  0  0  0  0  0  0
  -10.0774   -8.7723   -7.9634 C   0  0  0  0  0  0  0  0  0  0  0  0
  -11.1428   -7.6651   -7.9465 C   0  0  1  0  0  0  0  0  0  0  0  0
  -10.4473   -6.2829   -7.9620 C   0  0  0  0  0  0  0  0  0  0  0  0
   -9.6022   -6.1363   -9.2424 C   0  0  2  0  0  0  0  0  0  0  0  0
  -10.4816   -6.2969  -10.4884 C   0  0  0  0  0  0  0  0  0  0  0  0
  -11.1531   -7.6902  -10.4599 C   0  0  2  0  0  0  0  0  0  0  0  0
  -12.0294   -7.8158   -9.1915 C   0  0  0  0  0  0  0  0  0  0  0  0
  -10.0698   -8.7977  -10.4568 C   0  0  0  0  0  0  0  0  0  0  0  0
   -8.5233   -7.2158   -9.2634 C   0  0  0  0  0  0  0  0  0  0  0  0
   -6.2906  -10.9823   -8.3131 N   0  0  0  0  0  0  0  0  0  0  0  0
   -5.3662  -10.9277   -7.2712 C   0  0  0  0  0  0  0  0  0  0  0  0
   -4.1373  -12.0633   -6.9026 S   0  0  0  0  0  0  0  0  0  0  0  0
   -2.9832  -11.1402   -4.8929 H   0  0  0  0  0  0  0  0  0  0  0  0
   -4.5424   -8.9802   -4.7878 H   0  0  0  0  0  0  0  0  0  0  0  0
  -10.5461   -9.7582   -7.9165 H   0  0  0  0  0  0  0  0  0  0  0  0
   -9.4696   -8.6968   -7.0735 H   0  0  0  0  0  0  0  0  0  0  0  0
  -11.7677   -7.7626   -7.0572 H   0  0  0  0  0  0  0  0  0  0  0  0
  -11.1854   -5.4827   -7.8811 H   0  0  0  0  0  0  0  0  0  0  0  0
   -9.7836   -6.1785   -7.1070 H   0  0  0  0  0  0  0  0  0  0  0  0
   -9.1117   -5.1651   -9.2346 H   0  0  0  0  0  0  0  0  0  0  0  0
  -11.2293   -5.5005  -10.5247 H   0  0  0  0  0  0  0  0  0  0  0  0
   -9.8591   -6.2010  -11.3790 H   0  0  0  0  0  0  0  0  0  0  0  0
  -11.7896   -7.7929  -11.3385 H   0  0  0  0  0  0  0  0  0  0  0  0
  -12.5355   -8.7815   -9.1680 H   0  0  0  0  0  0  0  0  0  0  0  0
  -12.8136   -7.0555   -9.1781 H   0  0  0  0  0  0  0  0  0  0  0  0
   -9.4779   -8.7325  -11.3684 H   0  0  0  0  0  0  0  0  0  0  0  0
  -10.5528   -9.7750  -10.4639 H   0  0  0  0  0  0  0  0  0  0  0  0
   -7.8847   -6.9957   -8.4137 H   0  0  0  0  0  0  0  0  0  0  0  0
   -7.8893   -7.1277  -10.1496 H   0  0  0  0  0  0  0  0  0  0  0  0
   -8.1889  -10.3288   -9.8943 H   0  0  0  0  0  0  0  0  0  0  0  0
  1 19  1  0
  1  2  2  0
  1 20  1  0
  2  3  1  0
  2 21  1  0
  3 18  2  0
  3  4  1  0
  4  5  1  0
  5  6  1  0
  5 17  2  0
  7  6  1  1
  6 37  1  0
  7 15  1  0
  7 16  1  0
  7  8  1  0
  8  9  1  0
  8 22  1  0
  8 23  1  0
  9 14  1  0
  9 10  1  0
  9 24  1  1
 10 11  1  0
 10 25  1  0
 10 26  1  0
 11 12  1  0
 11 16  1  0
 11 27  1  6
 12 13  1  0
 12 28  1  0
 12 29  1  0
 13 14  1  0
 13 15  1  0
 13 30  1  6
 14 31  1  0
 14 32  1  0
 15 33  1  0
 15 34  1  0
 16 35  1  0
 16 36  1  0
 17 18  1  0
 18 19  1  0
M  END
>  <i_m_ct_stereo_status>  (3) 
1

>  <s_m_source_file>  (3) 
/var/tmp/pbs.5102264.sched01/tmpu94zaw8c/01d2njlry.sdf

>  <i_m_source_file_index>  (3) 
1

>  <i_lp_mmshare_version>  (3) 
48012

>  <i_f3d_flags>  (3) 
0

>  <s_epik_input>  (3) 
W2NIXTFbY0hdc2MoYzEyKVtuSF1jKFxzMik9TlxDMzRbQ0gyXVtDQEBIXTVbQ0gyXVtDQEhdKFtDSDJdNClbQ0gyXVtDQEBIXShbQ0gyXTUpW0NIMl0z

>  <s_epik_cmdline>  (3) 
J2VwaWtfcHl0aG9uJywgJy1waHQnLCAnMi4wJywgJy1waCcsICc3LjAnLCAnLXRuJywgJzgnLCAnLW1hJywgJzIwMCcsICctaW1hZScsICc8aW5maWxlLm1hZT4nLCAnLW9tYWUnLCAnPG91dGZpbGUubWFlPic=

>  <r_epik_Ionization_Penalty>  (3) 
0.205581

>  <r_epik_Ionization_Penalty_Charging>  (3) 
0

>  <r_epik_Ionization_Penalty_Neutral>  (3) 
0.205581

>  <r_epik_State_Penalty>  (3) 
0.196737

>  <r_epik_Charging_Adjusted_Penalty>  (3) 
0.196737

>  <i_epik_Tot_Q>  (3) 
0

>  <i_epik_Tot_abs_Q>  (3) 
0

>  <s_lp_Force_Field>  (3) 
OPLS3e

>  <r_lp_Energy>  (3) 
5.24073

>  <b_lp_Chiralities_Consistent>  (3) 
1

>  <s_lp_Variant>  (3) 
0:0-1

>  <s_i_glide_gridfile>  (3) 
pfpi4k_grid

>  <i_i_glide_lignum>  (3) 
1

>  <i_i_glide_rotatable_bonds>  (3) 
2

>  <r_i_docking_score>  (3) 
-3.6367

>  <r_i_glide_ligand_efficiency>  (3) 
-0.191406

>  <r_i_glide_ligand_efficiency_sa>  (3) 
-0.510747

>  <r_i_glide_ligand_efficiency_ln>  (3) 
-0.921983

>  <r_i_glide_gscore>  (3) 
-3.6367

>  <r_i_glide_lipo>  (3) 
-0.926395

>  <r_i_glide_hbond>  (3) 
0

>  <r_i_glide_metal>  (3) 
-0

>  <r_i_glide_rewards>  (3) 
-1.63709

>  <r_i_glide_evdw>  (3) 
-26.9429

>  <r_i_glide_ecoul>  (3) 
-1.05434

>  <r_i_glide_erotb>  (3) 
0.432078

>  <r_i_glide_esite>  (3) 
0

>  <r_i_glide_emodel>  (3) 
-33.1209

>  <r_i_glide_energy>  (3) 
-27.9973

>  <r_i_glide_einternal>  (3) 
1.62141

>  <r_i_glide_intrahb_reward>  (3) 
-0

>  <i_i_glide_confnum>  (3) 
2

>  <i_i_glide_posenum>  (3) 
3

>  <r_i_glide_eff_state_penalty>  (3) 
0

>  <ligand_id>  (3) 
0

>  <original_smiles>  (3) 
c1cc2sc(=NC34CC5CC(CC(C5)C3)C4)[nH]c2s1

>  <smiles>  (3) 
[H]c1sc2nc(N([H])C34C([H])([H])C5([H])C([H])([H])C([H])(C([H])([H])C([H])(C5([H])[H])C3([H])[H])C4([H])[H])sc2c1[H]

$$$$
0:1:0
     RDKit          3D

 38 42  0  0  1  0  0  0  0  0999 V2000
   -0.6121   -8.6136    3.5121 C   0  0  0  0  0  0  0  0  0  0  0  0
   -0.2535   -8.0487    2.2841 C   0  0  0  0  0  0  0  0  0  0  0  0
    0.8531   -7.2708    2.4716 C   0  0  0  0  0  0  0  0  0  0  0  0
    1.7505   -6.4128    1.3145 S   0  0  0  0  0  0  0  0  0  0  0  0
    2.7951   -5.8650    2.6425 C   0  0  0  0  0  0  0  0  0  0  0  0
    3.8729   -5.0464    2.6386 N   0  0  0  0  0  0  0  0  0  0  0  0
    4.3735   -4.1773    1.5204 C   0  0  1  0  0  0  0  0  0  0  0  0
    3.4985   -4.2278    0.2451 C   0  0  0  0  0  0  0  0  0  0  0  0
    4.0128   -3.3391   -0.8681 C   0  0  2  0  0  0  0  0  0  0  0  0
    5.4189   -3.8257   -1.2473 C   0  0  0  0  0  0  0  0  0  0  0  0
    6.3444   -3.6974   -0.0204 C   0  0  1  0  0  0  0  0  0  0  0  0
    6.3812   -2.2252    0.4423 C   0  0  0  0  0  0  0  0  0  0  0  0
    4.9590   -1.7824    0.8436 C   0  0  1  0  0  0  0  0  0  0  0  0
    4.0255   -1.8860   -0.3788 C   0  0  0  0  0  0  0  0  0  0  0  0
    4.4346   -2.6924    1.9871 C   0  0  0  0  0  0  0  0  0  0  0  0
    5.8170   -4.5966    1.1271 C   0  0  0  0  0  0  0  0  0  0  0  0
    2.4046   -6.4260    3.8231 N   0  0  0  0  0  0  0  0  0  0  0  0
    1.2829   -7.2409    3.7296 C   0  0  0  0  0  0  0  0  0  0  0  0
    0.4181   -8.1680    4.8978 S   0  0  0  0  0  0  0  0  0  0  0  0
    2.8856   -6.2747    4.6956 H   0  0  0  0  0  0  0  0  0  0  0  0
   -1.4237   -9.3086    3.6893 H   0  0  0  0  0  0  0  0  0  0  0  0
   -0.7493   -8.2212    1.3368 H   0  0  0  0  0  0  0  0  0  0  0  0
    3.5134   -5.2312   -0.1720 H   0  0  0  0  0  0  0  0  0  0  0  0
    2.4792   -3.9185    0.4810 H   0  0  0  0  0  0  0  0  0  0  0  0
    3.3427   -3.4461   -1.7198 H   0  0  0  0  0  0  0  0  0  0  0  0
    5.3723   -4.8698   -1.5582 H   0  0  0  0  0  0  0  0  0  0  0  0
    5.8017   -3.2638   -2.0995 H   0  0  0  0  0  0  0  0  0  0  0  0
    7.3497   -4.0132   -0.2953 H   0  0  0  0  0  0  0  0  0  0  0  0
    7.0632   -2.1054    1.2808 H   0  0  0  0  0  0  0  0  0  0  0  0
    6.7604   -1.5877   -0.3582 H   0  0  0  0  0  0  0  0  0  0  0  0
    4.9842   -0.7462    1.1776 H   0  0  0  0  0  0  0  0  0  0  0  0
    4.3384   -1.2185   -1.1841 H   0  0  0  0  0  0  0  0  0  0  0  0
    3.0179   -1.5835   -0.0976 H   0  0  0  0  0  0  0  0  0  0  0  0
    3.4495   -2.3476    2.3056 H   0  0  0  0  0  0  0  0  0  0  0  0
    5.0898   -2.5840    2.8572 H   0  0  0  0  0  0  0  0  0  0  0  0
    6.4920   -4.5181    1.9850 H   0  0  0  0  0  0  0  0  0  0  0  0
    5.8415   -5.6429    0.8176 H   0  0  0  0  0  0  0  0  0  0  0  0
    4.3928   -5.0038    3.5053 H   0  0  0  0  0  0  0  0  0  0  0  0
  1 19  1  0
  1  2  2  0
  1 21  1  0
  2  3  1  0
  2 22  1  0
  3 18  2  0
  3  4  1  0
  4  5  1  0
  5  6  1  0
  5 17  2  0
  7  6  1  1
  6 38  1  0
  7 15  1  0
  7 16  1  0
  7  8  1  0
  8  9  1  0
  8 23  1  0
  8 24  1  0
  9 14  1  0
  9 10  1  0
  9 25  1  6
 10 11  1  0
 10 26  1  0
 10 27  1  0
 11 12  1  0
 11 16  1  0
 11 28  1  6
 12 13  1  0
 12 29  1  0
 12 30  1  0
 13 14  1  0
 13 15  1  0
 13 31  1  1
 14 32  1  0
 14 33  1  0
 15 34  1  0
 15 35  1  0
 16 36  1  0
 16 37  1  0
 17 20  1  0
 17 18  1  0
 18 19  1  0
M  CHG  1  17   1
M  END
>  <i_m_ct_stereo_status>  (4) 
1

>  <s_m_source_file>  (4) 
/var/tmp/pbs.5102264.sched01/tmpu94zaw8c/01d2njlry.sdf

>  <i_m_source_file_index>  (4) 
2

>  <i_lp_mmshare_version>  (4) 
48012

>  <i_f3d_flags>  (4) 
0

>  <s_epik_input>  (4) 
W2NIXTFbY0hdc2MoYzEyKVtuSF1jKFxzMik9TlxDMzRbQ0gyXVtDQEBIXTVbQ0gyXVtDQEhdKFtDSDJdNClbQ0gyXVtDQEBIXShbQ0gyXTUpW0NIMl0z

>  <s_epik_cmdline>  (4) 
J2VwaWtfcHl0aG9uJywgJy1waHQnLCAnMi4wJywgJy1waCcsICc3LjAnLCAnLXRuJywgJzgnLCAnLW1hJywgJzIwMCcsICctaW1hZScsICc8aW5maWxlLm1hZT4nLCAnLW9tYWUnLCAnPG91dGZpbGUubWFlPic=

>  <r_epik_Ionization_Penalty>  (4) 
0.732814

>  <r_epik_Ionization_Penalty_Charging>  (4) 
0.726983

>  <r_epik_Ionization_Penalty_Neutral>  (4) 
0.00583139

>  <r_epik_State_Penalty>  (4) 
0.753124

>  <r_epik_Charging_Adjusted_Penalty>  (4) 
1.48011

>  <i_epik_Tot_Q>  (4) 
1

>  <i_epik_Tot_abs_Q>  (4) 
1

>  <s_lp_Force_Field>  (4) 
OPLS3e

>  <r_lp_Energy>  (4) 
6.28456

>  <b_lp_Chiralities_Consistent>  (4) 
1

>  <s_lp_Variant>  (4) 
0:0-2

>  <s_i_glide_gridfile>  (4) 
pfpi4k_grid

>  <i_i_glide_lignum>  (4) 
2

>  <i_i_glide_rotatable_bonds>  (4) 
2

>  <r_i_docking_score>  (4) 
-2.75148

>  <r_i_glide_ligand_efficiency>  (4) 
-0.144815

>  <r_i_glide_ligand_efficiency_sa>  (4) 
-0.386423

>  <r_i_glide_ligand_efficiency_ln>  (4) 
-0.697558

>  <r_i_glide_gscore>  (4) 
-2.75148

>  <r_i_glide_lipo>  (4) 
-0.373213

>  <r_i_glide_hbond>  (4) 
0

>  <r_i_glide_metal>  (4) 
-0

>  <r_i_glide_rewards>  (4) 
-1.42189

>  <r_i_glide_evdw>  (4) 
-23.4646

>  <r_i_glide_ecoul>  (4) 
-1.41337

>  <r_i_glide_erotb>  (4) 
0.429475

>  <r_i_glide_esite>  (4) 
-0.000619626

>  <r_i_glide_emodel>  (4) 
-22.8142

>  <r_i_glide_energy>  (4) 
-24.8779

>  <r_i_glide_einternal>  (4) 
11.0927

>  <r_i_glide_intrahb_reward>  (4) 
-0

>  <i_i_glide_confnum>  (4) 
1

>  <i_i_glide_posenum>  (4) 
7

>  <r_i_glide_eff_state_penalty>  (4) 
0

>  <ligand_id>  (4) 
0

>  <original_smiles>  (4) 
c1cc2sc(=NC34CC5CC(CC(C5)C3)C4)[nH]c2s1

>  <smiles>  (4) 
[H]c1sc2c(sc(N([H])C34C([H])([H])C5([H])C([H])([H])C([H])(C([H])([H])C([H])(C5([H])[H])C3([H])[H])C4([H])[H])[n+]2[H])c1[H]

$$$$
0:1:1
     RDKit          3D

 38 42  0  0  1  0  0  0  0  0999 V2000
    3.6340   -8.5925    3.5518 C   0  0  0  0  0  0  0  0  0  0  0  0
    4.0230   -8.4135    2.2174 C   0  0  0  0  0  0  0  0  0  0  0  0
    3.9193   -7.0759    1.9262 C   0  0  0  0  0  0  0  0  0  0  0  0
    4.2287   -6.2412    0.4687 S   0  0  0  0  0  0  0  0  0  0  0  0
    3.7812   -4.7532    1.3194 C   0  0  0  0  0  0  0  0  0  0  0  0
    3.7681   -3.4671    0.8974 N   0  0  0  0  0  0  0  0  0  0  0  0
    3.8976   -3.0320   -0.5113 C   0  0  1  0  0  0  0  0  0  0  0  0
    2.7227   -3.5368   -1.3775 C   0  0  0  0  0  0  0  0  0  0  0  0
    2.8751   -3.0902   -2.8591 C   0  0  2  0  0  0  0  0  0  0  0  0
    4.2206   -3.5663   -3.4408 C   0  0  0  0  0  0  0  0  0  0  0  0
    5.3555   -2.9937   -2.5793 C   0  0  1  0  0  0  0  0  0  0  0  0
    5.2351   -1.4818   -2.5723 C   0  0  0  0  0  0  0  0  0  0  0  0
    3.9363   -1.0042   -2.0204 C   0  0  1  0  0  0  0  0  0  0  0  0
    2.8310   -1.5708   -2.9068 C   0  0  0  0  0  0  0  0  0  0  0  0
    3.8265   -1.4796   -0.5610 C   0  0  0  0  0  0  0  0  0  0  0  0
    5.2556   -3.4687   -1.1297 C   0  0  0  0  0  0  0  0  0  0  0  0
    3.4245   -5.0121    2.6010 N   0  0  0  0  0  0  0  0  0  0  0  0
    3.4993   -6.3485    2.9621 C   0  0  0  0  0  0  0  0  0  0  0  0
    3.1476   -7.1370    4.4529 S   0  0  0  0  0  0  0  0  0  0  0  0
    3.1287   -4.2863    3.2467 H   0  0  0  0  0  0  0  0  0  0  0  0
    3.6058   -9.5455    4.0627 H   0  0  0  0  0  0  0  0  0  0  0  0
    4.3411   -9.1936    1.5457 H   0  0  0  0  0  0  0  0  0  0  0  0
    2.6939   -4.6171   -1.3042 H   0  0  0  0  0  0  0  0  0  0  0  0
    1.7582   -3.2107   -0.9871 H   0  0  0  0  0  0  0  0  0  0  0  0
    2.0526   -3.4828   -3.4580 H   0  0  0  0  0  0  0  0  0  0  0  0
    4.2808   -4.6518   -3.4344 H   0  0  0  0  0  0  0  0  0  0  0  0
    4.3180   -3.2667   -4.4880 H   0  0  0  0  0  0  0  0  0  0  0  0
    6.3151   -3.2796   -3.0101 H   0  0  0  0  0  0  0  0  0  0  0  0
    6.0694   -1.0289   -2.0408 H   0  0  0  0  0  0  0  0  0  0  0  0
    5.2097   -1.1387   -3.5975 H   0  0  0  0  0  0  0  0  0  0  0  0
    3.9479    0.0827   -2.1100 H   0  0  0  0  0  0  0  0  0  0  0  0
    2.8513   -1.1655   -3.9240 H   0  0  0  0  0  0  0  0  0  0  0  0
    1.9011   -1.2743   -2.4660 H   0  0  0  0  0  0  0  0  0  0  0  0
    2.8968   -1.1056   -0.1317 H   0  0  0  0  0  0  0  0  0  0  0  0
    4.6326   -1.0280    0.0190 H   0  0  0  0  0  0  0  0  0  0  0  0
    6.0832   -3.0580   -0.5458 H   0  0  0  0  0  0  0  0  0  0  0  0
    5.3924   -4.5432   -1.1704 H   0  0  0  0  0  0  0  0  0  0  0  0
    3.6016   -2.7473    1.5802 H   0  0  0  0  0  0  0  0  0  0  0  0
  1 19  1  0
  1  2  2  0
  1 21  1  0
  2  3  1  0
  2 22  1  0
  3 18  2  0
  3  4  1  0
  4  5  1  0
  5  6  1  0
  5 17  2  0
  7  6  1  1
  6 38  1  0
  7 15  1  0
  7 16  1  0
  7  8  1  0
  8  9  1  0
  8 23  1  0
  8 24  1  0
  9 14  1  0
  9 10  1  0
  9 25  1  6
 10 11  1  0
 10 26  1  0
 10 27  1  0
 11 12  1  0
 11 16  1  0
 11 28  1  6
 12 13  1  0
 12 29  1  0
 12 30  1  0
 13 14  1  0
 13 15  1  0
 13 31  1  1
 14 32  1  0
 14 33  1  0
 15 34  1  0
 15 35  1  0
 16 36  1  0
 16 37  1  0
 17 20  1  0
 17 18  1  0
 18 19  1  0
M  CHG  1  17   1
M  END
>  <i_m_ct_stereo_status>  (5) 
1

>  <s_m_source_file>  (5) 
/var/tmp/pbs.5102264.sched01/tmpu94zaw8c/01d2njlry.sdf

>  <i_m_source_file_index>  (5) 
2

>  <i_lp_mmshare_version>  (5) 
48012

>  <i_f3d_flags>  (5) 
0

>  <s_epik_input>  (5) 
W2NIXTFbY0hdc2MoYzEyKVtuSF1jKFxzMik9TlxDMzRbQ0gyXVtDQEBIXTVbQ0gyXVtDQEhdKFtDSDJdNClbQ0gyXVtDQEBIXShbQ0gyXTUpW0NIMl0z

>  <s_epik_cmdline>  (5) 
J2VwaWtfcHl0aG9uJywgJy1waHQnLCAnMi4wJywgJy1waCcsICc3LjAnLCAnLXRuJywgJzgnLCAnLW1hJywgJzIwMCcsICctaW1hZScsICc8aW5maWxlLm1hZT4nLCAnLW9tYWUnLCAnPG91dGZpbGUubWFlPic=

>  <r_epik_Ionization_Penalty>  (5) 
0.732814

>  <r_epik_Ionization_Penalty_Charging>  (5) 
0.726983

>  <r_epik_Ionization_Penalty_Neutral>  (5) 
0.00583139

>  <r_epik_State_Penalty>  (5) 
0.753124

>  <r_epik_Charging_Adjusted_Penalty>  (5) 
1.48011

>  <i_epik_Tot_Q>  (5) 
1

>  <i_epik_Tot_abs_Q>  (5) 
1

>  <s_lp_Force_Field>  (5) 
OPLS3e

>  <r_lp_Energy>  (5) 
6.28456

>  <b_lp_Chiralities_Consistent>  (5) 
1

>  <s_lp_Variant>  (5) 
0:0-2

>  <s_i_glide_gridfile>  (5) 
pfpi4k_grid

>  <i_i_glide_lignum>  (5) 
2

>  <i_i_glide_rotatable_bonds>  (5) 
2

>  <r_i_docking_score>  (5) 
-2.27461

>  <r_i_glide_ligand_efficiency>  (5) 
-0.119716

>  <r_i_glide_ligand_efficiency_sa>  (5) 
-0.319451

>  <r_i_glide_ligand_efficiency_ln>  (5) 
-0.576662

>  <r_i_glide_gscore>  (5) 
-2.27461

>  <r_i_glide_lipo>  (5) 
-0.588137

>  <r_i_glide_hbond>  (5) 
0

>  <r_i_glide_metal>  (5) 
-0

>  <r_i_glide_rewards>  (5) 
-1.42189

>  <r_i_glide_evdw>  (5) 
-7.06804

>  <r_i_glide_ecoul>  (5) 
-2.27107

>  <r_i_glide_erotb>  (5) 
0.429475

>  <r_i_glide_esite>  (5) 
0

>  <r_i_glide_emodel>  (5) 
-12.0407

>  <r_i_glide_energy>  (5) 
-9.33911

>  <r_i_glide_einternal>  (5) 
0.432747

>  <r_i_glide_intrahb_reward>  (5) 
-0

>  <i_i_glide_confnum>  (5) 
1

>  <i_i_glide_posenum>  (5) 
1

>  <r_i_glide_eff_state_penalty>  (5) 
0

>  <ligand_id>  (5) 
0

>  <original_smiles>  (5) 
c1cc2sc(=NC34CC5CC(CC(C5)C3)C4)[nH]c2s1

>  <smiles>  (5) 
[H]c1sc2c(sc(N([H])C34C([H])([H])C5([H])C([H])([H])C([H])(C([H])([H])C([H])(C5([H])[H])C3([H])[H])C4([H])[H])[n+]2[H])c1[H]

$$$$
1:0:0
     RDKit          3D

 31 33  0  0  1  0  0  0  0  0999 V2000
    1.9800   -3.2397   -2.4977 C   0  0  0  0  0  0  0  0  0  0  0  0
    3.2465   -2.7138   -3.1768 C   0  0  2  0  0  0  0  0  0  0  0  0
    4.5295   -3.5118   -2.8364 C   0  0  0  0  0  0  0  0  0  0  0  0
    4.7587   -3.7145   -1.4126 N   0  0  0  0  0  0  0  0  0  0  0  0
    4.9580   -4.8387   -0.6913 C   0  0  0  0  0  0  0  0  0  0  0  0
    5.1502   -4.6583    0.6311 N   0  0  0  0  0  0  0  0  0  0  0  0
    5.0449   -3.2979    0.6883 C   0  0  0  0  0  0  0  0  0  0  0  0
    5.1447   -2.4658    1.8042 C   0  0  0  0  0  0  0  0  0  0  0  0
    5.0156   -1.0732    1.6896 C   0  0  0  0  0  0  0  0  0  0  0  0
    4.7751   -0.4908    0.4424 C   0  0  0  0  0  0  0  0  0  0  0  0
    4.6709   -1.2999   -0.7027 C   0  0  0  0  0  0  0  0  0  0  0  0
    4.8147   -2.7013   -0.5366 C   0  0  0  0  0  0  0  0  0  0  0  0
    4.5127   -0.7996   -2.1363 C   0  0  0  0  0  0  0  0  0  0  0  0
    3.3280   -1.2558   -2.9047 N   0  0  1  0  0  0  0  0  0  0  0  0
    3.1434   -0.4518   -4.1442 C   0  0  0  0  0  0  0  0  0  0  0  0
    1.8088   -4.2711   -2.7513 H   0  0  0  0  0  0  0  0  0  0  0  0
    1.0959   -2.7247   -2.8679 H   0  0  0  0  0  0  0  0  0  0  0  0
    2.0150   -3.1511   -1.4083 H   0  0  0  0  0  0  0  0  0  0  0  0
    3.1003   -2.8599   -4.2464 H   0  0  0  0  0  0  0  0  0  0  0  0
    4.4226   -4.5032   -3.2699 H   0  0  0  0  0  0  0  0  0  0  0  0
    5.4323   -3.1107   -3.3072 H   0  0  0  0  0  0  0  0  0  0  0  0
    4.9591   -5.8293   -1.1312 H   0  0  0  0  0  0  0  0  0  0  0  0
    5.3123   -2.8985    2.7715 H   0  0  0  0  0  0  0  0  0  0  0  0
    5.1001   -0.4571    2.5745 H   0  0  0  0  0  0  0  0  0  0  0  0
    4.6950    0.5837    0.3848 H   0  0  0  0  0  0  0  0  0  0  0  0
    4.3713    0.2663   -2.0474 H   0  0  0  0  0  0  0  0  0  0  0  0
    5.4243   -0.9099   -2.7118 H   0  0  0  0  0  0  0  0  0  0  0  0
    3.9797   -0.5847   -4.8369 H   0  0  0  0  0  0  0  0  0  0  0  0
    3.0732    0.6105   -3.9150 H   0  0  0  0  0  0  0  0  0  0  0  0
    2.2242   -0.7279   -4.6667 H   0  0  0  0  0  0  0  0  0  0  0  0
    2.5223   -1.0495   -2.3195 H   0  0  0  0  0  0  0  0  0  0  0  0
  1  2  1  0
  1 16  1  0
  1 17  1  0
  1 18  1  0
  2 14  1  0
  2  3  1  0
  2 19  1  6
  3  4  1  0
  3 20  1  0
  3 21  1  0
  4 12  1  0
  4  5  1  0
  5  6  2  0
  5 22  1  0
  6  7  1  0
  7 12  2  0
  7  8  1  0
  8  9  2  0
  8 23  1  0
  9 10  1  0
  9 24  1  0
 10 11  2  0
 10 25  1  0
 11 12  1  0
 11 13  1  0
 13 14  1  0
 13 26  1  0
 13 27  1  0
 14 15  1  0
 14 31  1  1
 15 28  1  0
 15 29  1  0
 15 30  1  0
M  CHG  1  14   1
M  END
>  <i_m_ct_stereo_status>  (6) 
1

>  <s_m_source_file>  (6) 
/var/tmp/pbs.5102264.sched01/tmpu94zaw8c/01d2njlry.sdf

>  <i_m_source_file_index>  (6) 
3

>  <i_lp_mmshare_version>  (6) 
48012

>  <i_f3d_flags>  (6) 
0

>  <s_epik_input>  (6) 
W0NIM11bQ0BIXShbQ0gyXTEpTihbQ0gzXSlbQ0gyXWMyW2NIXVtjSF1bY0hdYyhjMm4xMyluW2NIXTM=

>  <s_epik_cmdline>  (6) 
J2VwaWtfcHl0aG9uJywgJy1waHQnLCAnMi4wJywgJy1waCcsICc3LjAnLCAnLXRuJywgJzgnLCAnLW1hJywgJzIwMCcsICctaW1hZScsICc8aW5maWxlLm1hZT4nLCAnLW9tYWUnLCAnPG91dGZpbGUubWFlPic=

>  <r_epik_Ionization_Penalty>  (6) 
0.0129919

>  <r_epik_Ionization_Penalty_Charging>  (6) 
0.00565074

>  <r_epik_Ionization_Penalty_Neutral>  (6) 
0.00734113

>  <r_epik_State_Penalty>  (6) 
0.010192

>  <r_epik_Charging_Adjusted_Penalty>  (6) 
0.0158428

>  <i_epik_Tot_Q>  (6) 
1

>  <i_epik_Tot_abs_Q>  (6) 
1

>  <s_lp_Force_Field>  (6) 
OPLS3e

>  <r_lp_Energy>  (6) 
26.2115

>  <b_lp_Chiralities_Consistent>  (6) 
1

>  <s_lp_Variant>  (6) 
1:0-1

>  <s_i_glide_gridfile>  (6) 
pfpi4k_grid

>  <i_i_glide_lignum>  (6) 
3

>  <i_i_glide_rotatable_bonds>  (6) 
0

>  <r_i_docking_score>  (6) 
-4.56511

>  <r_i_glide_ligand_efficiency>  (6) 
-0.304341

>  <r_i_glide_ligand_efficiency_sa>  (6) 
-0.750569

>  <r_i_glide_ligand_efficiency_ln>  (6) 
-1.23114

>  <r_i_glide_gscore>  (6) 
-4.56511

>  <r_i_glide_lipo>  (6) 
-0.923616

>  <r_i_glide_hbond>  (6) 
-0.056248

>  <r_i_glide_metal>  (6) 
-0

>  <r_i_glide_rewards>  (6) 
-2.02994

>  <r_i_glide_evdw>  (6) 
-18.0235

>  <r_i_glide_ecoul>  (6) 
-4.08616

>  <r_i_glide_erotb>  (6) 
0

>  <r_i_glide_esite>  (6) 
-0.0412085

>  <r_i_glide_emodel>  (6) 
-28.8627

>  <r_i_glide_energy>  (6) 
-22.1097

>  <r_i_glide_einternal>  (6) 
0

>  <r_i_glide_intrahb_reward>  (6) 
-0

>  <i_i_glide_confnum>  (6) 
2

>  <i_i_glide_posenum>  (6) 
10

>  <r_i_glide_eff_state_penalty>  (6) 
0

>  <ligand_id>  (6) 
1

>  <original_smiles>  (6) 
CC1Cn2cnc3cccc(c32)CN1C

>  <smiles>  (6) 
[H]c1c([H])c2c3c(nc([H])n3C([H])([H])C([H])(C([H])([H])[H])[N+]([H])(C([H])([H])[H])C2([H])[H])c1[H]

$$$$
1:0:1
     RDKit          3D

 31 33  0  0  1  0  0  0  0  0999 V2000
    2.1231   -3.2356   -2.4420 C   0  0  0  0  0  0  0  0  0  0  0  0
    3.5664   -2.7131   -2.4591 C   0  0  2  0  0  0  0  0  0  0  0  0
    4.5767   -3.6513   -1.7569 C   0  0  0  0  0  0  0  0  0  0  0  0
    4.2032   -4.0341   -0.4073 N   0  0  0  0  0  0  0  0  0  0  0  0
    4.0594   -5.2517    0.1671 C   0  0  0  0  0  0  0  0  0  0  0  0
    3.6908   -5.2426    1.4641 N   0  0  0  0  0  0  0  0  0  0  0  0
    3.6224   -3.8919    1.6676 C   0  0  0  0  0  0  0  0  0  0  0  0
    3.2876   -3.2031    2.8326 C   0  0  0  0  0  0  0  0  0  0  0  0
    3.2637   -1.7978    2.8783 C   0  0  0  0  0  0  0  0  0  0  0  0
    3.5803   -1.0461    1.7397 C   0  0  0  0  0  0  0  0  0  0  0  0
    3.9194   -1.7175    0.5464 C   0  0  0  0  0  0  0  0  0  0  0  0
    3.9326   -3.1362    0.5542 C   0  0  0  0  0  0  0  0  0  0  0  0
    4.3735   -1.0420   -0.7410 C   0  0  0  0  0  0  0  0  0  0  0  0
    3.5763   -1.3111   -1.9677 N   0  0  1  0  0  0  0  0  0  0  0  0
    3.9280   -0.3634   -3.0531 C   0  0  0  0  0  0  0  0  0  0  0  0
    2.0458   -4.2385   -2.8626 H   0  0  0  0  0  0  0  0  0  0  0  0
    1.4682   -2.6062   -3.0496 H   0  0  0  0  0  0  0  0  0  0  0  0
    1.7162   -3.2608   -1.4274 H   0  0  0  0  0  0  0  0  0  0  0  0
    3.8711   -2.7208   -3.5048 H   0  0  0  0  0  0  0  0  0  0  0  0
    4.6155   -4.5762   -2.3335 H   0  0  0  0  0  0  0  0  0  0  0  0
    5.6036   -3.2766   -1.7699 H   0  0  0  0  0  0  0  0  0  0  0  0
    4.2155   -6.1782   -0.3736 H   0  0  0  0  0  0  0  0  0  0  0  0
    3.0373   -3.7587    3.7189 H   0  0  0  0  0  0  0  0  0  0  0  0
    3.0018   -1.3033    3.8045 H   0  0  0  0  0  0  0  0  0  0  0  0
    3.5830    0.0369    1.7979 H   0  0  0  0  0  0  0  0  0  0  0  0
    4.2407    0.0143   -0.5281 H   0  0  0  0  0  0  0  0  0  0  0  0
    5.4498   -1.1560   -0.8959 H   0  0  0  0  0  0  0  0  0  0  0  0
    4.9665   -0.5065   -3.3600 H   0  0  0  0  0  0  0  0  0  0  0  0
    3.8260    0.6736   -2.7397 H   0  0  0  0  0  0  0  0  0  0  0  0
    3.2935   -0.4910   -3.9336 H   0  0  0  0  0  0  0  0  0  0  0  0
    2.6133   -1.0980   -1.7175 H   0  0  0  0  0  0  0  0  0  0  0  0
  1  2  1  0
  1 16  1  0
  1 17  1  0
  1 18  1  0
  2 14  1  0
  2  3  1  0
  2 19  1  6
  3  4  1  0
  3 20  1  0
  3 21  1  0
  4 12  1  0
  4  5  1  0
  5  6  2  0
  5 22  1  0
  6  7  1  0
  7 12  2  0
  7  8  1  0
  8  9  2  0
  8 23  1  0
  9 10  1  0
  9 24  1  0
 10 11  2  0
 10 25  1  0
 11 12  1  0
 11 13  1  0
 13 14  1  0
 13 26  1  0
 13 27  1  0
 14 15  1  0
 14 31  1  1
 15 28  1  0
 15 29  1  0
 15 30  1  0
M  CHG  1  14   1
M  END
>  <i_m_ct_stereo_status>  (7) 
1

>  <s_m_source_file>  (7) 
/var/tmp/pbs.5102264.sched01/tmpu94zaw8c/01d2njlry.sdf

>  <i_m_source_file_index>  (7) 
3

>  <i_lp_mmshare_version>  (7) 
48012

>  <i_f3d_flags>  (7) 
0

>  <s_epik_input>  (7) 
W0NIM11bQ0BIXShbQ0gyXTEpTihbQ0gzXSlbQ0gyXWMyW2NIXVtjSF1bY0hdYyhjMm4xMyluW2NIXTM=

>  <s_epik_cmdline>  (7) 
J2VwaWtfcHl0aG9uJywgJy1waHQnLCAnMi4wJywgJy1waCcsICc3LjAnLCAnLXRuJywgJzgnLCAnLW1hJywgJzIwMCcsICctaW1hZScsICc8aW5maWxlLm1hZT4nLCAnLW9tYWUnLCAnPG91dGZpbGUubWFlPic=

>  <r_epik_Ionization_Penalty>  (7) 
0.0129919

>  <r_epik_Ionization_Penalty_Charging>  (7) 
0.00565074

>  <r_epik_Ionization_Penalty_Neutral>  (7) 
0.00734113

>  <r_epik_State_Penalty>  (7) 
0.010192

>  <r_epik_Charging_Adjusted_Penalty>  (7) 
0.0158428

>  <i_epik_Tot_Q>  (7) 
1

>  <i_epik_Tot_abs_Q>  (7) 
1

>  <s_lp_Force_Field>  (7) 
OPLS3e

>  <r_lp_Energy>  (7) 
26.2115

>  <b_lp_Chiralities_Consistent>  (7) 
1

>  <s_lp_Variant>  (7) 
1:0-1

>  <s_i_glide_gridfile>  (7) 
pfpi4k_grid

>  <i_i_glide_lignum>  (7) 
3

>  <i_i_glide_rotatable_bonds>  (7) 
0

>  <r_i_docking_score>  (7) 
-4.09195

>  <r_i_glide_ligand_efficiency>  (7) 
-0.272797

>  <r_i_glide_ligand_efficiency_sa>  (7) 
-0.672774

>  <r_i_glide_ligand_efficiency_ln>  (7) 
-1.10353

>  <r_i_glide_gscore>  (7) 
-4.09195

>  <r_i_glide_lipo>  (7) 
-0.421404

>  <r_i_glide_hbond>  (7) 
-0.17546

>  <r_i_glide_metal>  (7) 
-0

>  <r_i_glide_rewards>  (7) 
-2.02994

>  <r_i_glide_evdw>  (7) 
-15.1212

>  <r_i_glide_ecoul>  (7) 
-4.11904

>  <r_i_glide_erotb>  (7) 
0

>  <r_i_glide_esite>  (7) 
-0.0912305

>  <r_i_glide_emodel>  (7) 
-25.3104

>  <r_i_glide_energy>  (7) 
-19.2402

>  <r_i_glide_einternal>  (7) 
0

>  <r_i_glide_intrahb_reward>  (7) 
-0

>  <i_i_glide_confnum>  (7) 
2

>  <i_i_glide_posenum>  (7) 
33

>  <r_i_glide_eff_state_penalty>  (7) 
0

>  <ligand_id>  (7) 
1

>  <original_smiles>  (7) 
CC1Cn2cnc3cccc(c32)CN1C

>  <smiles>  (7) 
[H]c1c([H])c2c3c(nc([H])n3C([H])([H])C([H])(C([H])([H])[H])[N+]([H])(C([H])([H])[H])C2([H])[H])c1[H]

$$$$
1:0:2
     RDKit          3D

 31 33  0  0  1  0  0  0  0  0999 V2000
    4.8438   -1.7316    2.3734 C   0  0  0  0  0  0  0  0  0  0  0  0
    4.6392   -3.2447    2.2036 C   0  0  2  0  0  0  0  0  0  0  0  0
    5.7063   -3.9098    1.3041 C   0  0  0  0  0  0  0  0  0  0  0  0
    5.8760   -3.2828    0.0061 N   0  0  0  0  0  0  0  0  0  0  0  0
    6.9796   -2.7974   -0.6044 C   0  0  0  0  0  0  0  0  0  0  0  0
    6.7731   -2.2553   -1.8200 N   0  0  0  0  0  0  0  0  0  0  0  0
    5.4278   -2.4736   -1.9457 C   0  0  0  0  0  0  0  0  0  0  0  0
    4.5865   -2.1488   -3.0081 C   0  0  0  0  0  0  0  0  0  0  0  0
    3.2115   -2.4302   -2.9727 C   0  0  0  0  0  0  0  0  0  0  0  0
    2.6503   -3.0559   -1.8531 C   0  0  0  0  0  0  0  0  0  0  0  0
    3.4768   -3.3957   -0.7614 C   0  0  0  0  0  0  0  0  0  0  0  0
    4.8579   -3.0948   -0.8502 C   0  0  0  0  0  0  0  0  0  0  0  0
    3.0286   -4.1644    0.4754 C   0  0  0  0  0  0  0  0  0  0  0  0
    3.2327   -3.5098    1.7964 N   0  0  1  0  0  0  0  0  0  0  0  0
    2.4710   -4.2048    2.8666 C   0  0  0  0  0  0  0  0  0  0  0  0
    5.8502   -1.5021    2.7309 H   0  0  0  0  0  0  0  0  0  0  0  0
    4.1411   -1.3221    3.1061 H   0  0  0  0  0  0  0  0  0  0  0  0
    4.6915   -1.1925    1.4336 H   0  0  0  0  0  0  0  0  0  0  0  0
    4.8011   -3.6795    3.1895 H   0  0  0  0  0  0  0  0  0  0  0  0
    6.6655   -3.8063    1.8105 H   0  0  0  0  0  0  0  0  0  0  0  0
    5.5643   -4.9864    1.1849 H   0  0  0  0  0  0  0  0  0  0  0  0
    7.9638   -2.8183   -0.1542 H   0  0  0  0  0  0  0  0  0  0  0  0
    4.9920   -1.6559   -3.8721 H   0  0  0  0  0  0  0  0  0  0  0  0
    2.5862   -2.1565   -3.8121 H   0  0  0  0  0  0  0  0  0  0  0  0
    1.5887   -3.2791   -1.8571 H   0  0  0  0  0  0  0  0  0  0  0  0
    1.9547   -4.2423    0.3548 H   0  0  0  0  0  0  0  0  0  0  0  0
    3.3814   -5.2005    0.4570 H   0  0  0  0  0  0  0  0  0  0  0  0
    2.8342   -5.2271    3.0201 H   0  0  0  0  0  0  0  0  0  0  0  0
    1.4087   -4.2687    2.6269 H   0  0  0  0  0  0  0  0  0  0  0  0
    2.5473   -3.6784    3.8209 H   0  0  0  0  0  0  0  0  0  0  0  0
    2.8034   -2.5945    1.7184 H   0  0  0  0  0  0  0  0  0  0  0  0
  1  2  1  0
  1 16  1  0
  1 17  1  0
  1 18  1  0
  2 14  1  0
  2  3  1  0
  2 19  1  1
  3  4  1  0
  3 20  1  0
  3 21  1  0
  4 12  1  0
  4  5  1  0
  5  6  2  0
  5 22  1  0
  6  7  1  0
  7 12  2  0
  7  8  1  0
  8  9  2  0
  8 23  1  0
  9 10  1  0
  9 24  1  0
 10 11  2  0
 10 25  1  0
 11 12  1  0
 11 13  1  0
 13 14  1  0
 13 26  1  0
 13 27  1  0
 14 15  1  0
 14 31  1  6
 15 28  1  0
 15 29  1  0
 15 30  1  0
M  CHG  1  14   1
M  END
>  <i_m_ct_stereo_status>  (8) 
1

>  <s_m_source_file>  (8) 
/var/tmp/pbs.5102264.sched01/tmpu94zaw8c/01d2njlry.sdf

>  <i_m_source_file_index>  (8) 
3

>  <i_lp_mmshare_version>  (8) 
48012

>  <i_f3d_flags>  (8) 
0

>  <s_epik_input>  (8) 
W0NIM11bQ0BIXShbQ0gyXTEpTihbQ0gzXSlbQ0gyXWMyW2NIXVtjSF1bY0hdYyhjMm4xMyluW2NIXTM=

>  <s_epik_cmdline>  (8) 
J2VwaWtfcHl0aG9uJywgJy1waHQnLCAnMi4wJywgJy1waCcsICc3LjAnLCAnLXRuJywgJzgnLCAnLW1hJywgJzIwMCcsICctaW1hZScsICc8aW5maWxlLm1hZT4nLCAnLW9tYWUnLCAnPG91dGZpbGUubWFlPic=

>  <r_epik_Ionization_Penalty>  (8) 
0.0129919

>  <r_epik_Ionization_Penalty_Charging>  (8) 
0.00565074

>  <r_epik_Ionization_Penalty_Neutral>  (8) 
0.00734113

>  <r_epik_State_Penalty>  (8) 
0.010192

>  <r_epik_Charging_Adjusted_Penalty>  (8) 
0.0158428

>  <i_epik_Tot_Q>  (8) 
1

>  <i_epik_Tot_abs_Q>  (8) 
1

>  <s_lp_Force_Field>  (8) 
OPLS3e

>  <r_lp_Energy>  (8) 
26.2115

>  <b_lp_Chiralities_Consistent>  (8) 
1

>  <s_lp_Variant>  (8) 
1:0-1

>  <s_i_glide_gridfile>  (8) 
pfpi4k_grid

>  <i_i_glide_lignum>  (8) 
3

>  <i_i_glide_rotatable_bonds>  (8) 
0

>  <r_i_docking_score>  (8) 
-3.96371

>  <r_i_glide_ligand_efficiency>  (8) 
-0.264247

>  <r_i_glide_ligand_efficiency_sa>  (8) 
-0.65169

>  <r_i_glide_ligand_efficiency_ln>  (8) 
-1.06895

>  <r_i_glide_gscore>  (8) 
-3.96371

>  <r_i_glide_lipo>  (8) 
-0.354256

>  <r_i_glide_hbond>  (8) 
-0.16

>  <r_i_glide_metal>  (8) 
-0

>  <r_i_glide_rewards>  (8) 
-2.11805

>  <r_i_glide_evdw>  (8) 
-17.0322

>  <r_i_glide_ecoul>  (8) 
-3.17521

>  <r_i_glide_erotb>  (8) 
0

>  <r_i_glide_esite>  (8) 
-0.00351059

>  <r_i_glide_emodel>  (8) 
-26.0864

>  <r_i_glide_energy>  (8) 
-20.2074

>  <r_i_glide_einternal>  (8) 
0

>  <r_i_glide_intrahb_reward>  (8) 
-0

>  <i_i_glide_confnum>  (8) 
2

>  <i_i_glide_posenum>  (8) 
12

>  <r_i_glide_eff_state_penalty>  (8) 
0

>  <ligand_id>  (8) 
1

>  <original_smiles>  (8) 
CC1Cn2cnc3cccc(c32)CN1C

>  <smiles>  (8) 
[H]c1c([H])c2c3c(nc([H])n3C([H])([H])C([H])(C([H])([H])[H])[N+]([H])(C([H])([H])[H])C2([H])[H])c1[H]

$$$$
2:0:0
     RDKit          3D

 63 66  0  0  1  0  0  0  0  0999 V2000
    1.1902   -7.8215    5.0078 C   0  0  0  0  0  0  0  0  0  0  0  0
    2.1912   -7.5750    4.1446 C   0  0  0  0  0  0  0  0  0  0  0  0
    3.1705   -8.5721    3.7345 C   0  0  0  0  0  0  0  0  0  0  0  0
    3.4085   -9.6455    4.2903 O   0  0  0  0  0  0  0  0  0  0  0  0
    3.8075   -8.0868    2.6685 O   0  0  0  0  0  0  0  0  0  0  0  0
    3.1792   -6.9283    2.1333 C   0  0  2  0  0  0  0  0  0  0  0  0
    4.1821   -6.0772    1.3350 C   0  0  0  0  0  0  0  0  0  0  0  0
    3.6383   -4.8683    0.5179 C   0  0  1  0  0  0  0  0  0  0  0  0
    2.1096   -4.7426    0.3868 C   0  0  0  0  0  0  0  0  0  0  0  0
    1.5032   -5.8030   -0.3148 O   0  0  0  0  0  0  0  0  0  0  0  0
    4.4673   -3.5304    0.6848 C   0  0  1  0  0  0  0  0  0  0  0  0
    4.6463   -2.6866   -0.6467 C   0  0  0  0  0  0  0  0  0  0  0  0
    4.9890   -3.5448   -1.8868 C   0  0  0  0  0  0  0  0  0  0  0  0
    3.4263   -1.8195   -1.0273 C   0  0  0  0  0  0  0  0  0  0  0  0
    5.8831   -1.7891   -0.4496 C   0  0  0  0  0  0  0  0  0  0  0  0
    5.6629   -0.7147    0.5985 C   0  0  0  0  0  0  0  0  0  0  0  0
    4.7841   -1.1376    1.7837 C   0  0  0  0  0  0  0  0  0  0  0  0
    4.4567   -2.6640    2.0562 C   0  0  2  0  0  0  0  0  0  0  0  0
    5.6952   -3.1064    2.8796 C   0  0  0  0  0  0  0  0  0  0  0  0
    3.1170   -2.6555    2.9348 C   0  0  2  0  0  0  0  0  0  0  0  0
    2.0838   -2.3371    2.0288 O   0  0  0  0  0  0  0  0  0  0  0  0
    3.0980   -1.6069    4.1037 C   0  0  0  0  0  0  0  0  0  0  0  0
    3.2949   -2.7741    5.0664 C   0  0  0  0  0  0  0  0  0  0  0  0
    3.8371   -2.8757    6.1656 O   0  0  0  0  0  0  0  0  0  0  0  0
    2.6597   -3.7412    4.0218 C   0  0  1  0  0  0  0  0  0  0  0  0
    1.1424   -3.7787    4.3266 C   0  0  0  0  0  0  0  0  0  0  0  0
    3.2313   -5.1976    4.1347 C   0  0  1  0  0  0  0  0  0  0  0  0
    3.2868   -5.5841    5.5038 O   0  0  0  0  0  0  0  0  0  0  0  0
    2.4471   -6.3138    3.3437 C   0  0  2  0  0  0  0  0  0  0  0  0
    0.4579   -7.0659    5.2493 H   0  0  0  0  0  0  0  0  0  0  0  0
    1.0901   -8.7880    5.4843 H   0  0  0  0  0  0  0  0  0  0  0  0
    2.4307   -7.3205    1.4469 H   0  0  0  0  0  0  0  0  0  0  0  0
    5.0393   -5.8126    1.9435 H   0  0  0  0  0  0  0  0  0  0  0  0
    4.6194   -6.7662    0.6088 H   0  0  0  0  0  0  0  0  0  0  0  0
    3.8978   -5.2137   -0.4756 H   0  0  0  0  0  0  0  0  0  0  0  0
    1.6462   -4.6565    1.3610 H   0  0  0  0  0  0  0  0  0  0  0  0
    1.8503   -3.8580   -0.1803 H   0  0  0  0  0  0  0  0  0  0  0  0
    1.9716   -5.8899   -1.1524 H   0  0  0  0  0  0  0  0  0  0  0  0
    5.4584   -3.9796    0.7136 H   0  0  0  0  0  0  0  0  0  0  0  0
    5.3292   -2.9291   -2.7187 H   0  0  0  0  0  0  0  0  0  0  0  0
    4.1247   -4.0930   -2.2583 H   0  0  0  0  0  0  0  0  0  0  0  0
    5.7828   -4.2553   -1.6658 H   0  0  0  0  0  0  0  0  0  0  0  0
    3.7095   -1.0295   -1.7237 H   0  0  0  0  0  0  0  0  0  0  0  0
    2.9937   -1.3227   -0.1661 H   0  0  0  0  0  0  0  0  0  0  0  0
    2.6339   -2.3894   -1.5114 H   0  0  0  0  0  0  0  0  0  0  0  0
    6.7408   -2.3998   -0.1551 H   0  0  0  0  0  0  0  0  0  0  0  0
    6.1704   -1.3138   -1.3906 H   0  0  0  0  0  0  0  0  0  0  0  0
    6.6208   -0.3288    0.9332 H   0  0  0  0  0  0  0  0  0  0  0  0
    5.1682    0.1269    0.1228 H   0  0  0  0  0  0  0  0  0  0  0  0
    5.2829   -0.7079    2.6515 H   0  0  0  0  0  0  0  0  0  0  0  0
    3.8644   -0.5531    1.7077 H   0  0  0  0  0  0  0  0  0  0  0  0
    5.7548   -2.6404    3.8625 H   0  0  0  0  0  0  0  0  0  0  0  0
    6.5903   -2.8122    2.3329 H   0  0  0  0  0  0  0  0  0  0  0  0
    5.7998   -4.1708    3.0251 H   0  0  0  0  0  0  0  0  0  0  0  0
    2.3154   -1.5207    1.6189 H   0  0  0  0  0  0  0  0  0  0  0  0
    3.8992   -0.8688    4.1433 H   0  0  0  0  0  0  0  0  0  0  0  0
    2.1351   -1.1028    4.2151 H   0  0  0  0  0  0  0  0  0  0  0  0
    0.5739   -4.0309    3.4324 H   0  0  0  0  0  0  0  0  0  0  0  0
    0.7443   -2.8175    4.6598 H   0  0  0  0  0  0  0  0  0  0  0  0
    0.8885   -4.5137    5.0922 H   0  0  0  0  0  0  0  0  0  0  0  0
    4.2701   -5.2229    3.8447 H   0  0  0  0  0  0  0  0  0  0  0  0
    3.7782   -6.3918    5.5585 H   0  0  0  0  0  0  0  0  0  0  0  0
    1.4665   -5.9741    3.0313 H   0  0  0  0  0  0  0  0  0  0  0  0
  1  2  2  0
  1 30  1  0
  1 31  1  0
  2 29  1  0
  2  3  1  0
  3  4  2  0
  3  5  1  0
  5  6  1  0
  6 29  1  0
  6  7  1  0
  6 32  1  6
  7  8  1  0
  7 33  1  0
  7 34  1  0
  8  9  1  0
  8 11  1  0
  8 35  1  6
  9 10  1  0
  9 36  1  0
  9 37  1  0
 10 38  1  0
 11 18  1  0
 11 12  1  0
 11 39  1  1
 12 13  1  0
 12 14  1  0
 12 15  1  0
 13 40  1  0
 13 41  1  0
 13 42  1  0
 14 43  1  0
 14 44  1  0
 14 45  1  0
 15 16  1  0
 15 46  1  0
 15 47  1  0
 16 17  1  0
 16 48  1  0
 16 49  1  0
 17 18  1  0
 17 50  1  0
 17 51  1  0
 18 19  1  1
 18 20  1  0
 19 52  1  0
 19 53  1  0
 19 54  1  0
 20 25  1  0
 20 21  1  6
 20 22  1  0
 21 55  1  0
 22 23  1  0
 22 56  1  0
 22 57  1  0
 23 24  2  0
 23 25  1  0
 25 26  1  1
 25 27  1  0
 26 58  1  0
 26 59  1  0
 26 60  1  0
 27 28  1  0
 27 29  1  0
 27 61  1  6
 28 62  1  0
 29 63  1  6
M  END
>  <i_m_ct_stereo_status>  (9) 
1

>  <s_m_source_file>  (9) 
/var/tmp/pbs.5102264.sched01/tmpu94zaw8c/01d2njlry.sdf

>  <i_m_source_file_index>  (9) 
4

>  <i_lp_mmshare_version>  (9) 
48012

>  <i_f3d_flags>  (9) 
0

>  <s_epik_input>  (9) 
Tz1DMVtDSDJdW0NAXTIoW09IXSlbQ0BAXTEoW0NIM10pW0NAQEhdKFtPSF0pW0NASF0oQyg9W0NIMl0pQyg9TylPMylbQ0BIXTNbQ0gyXVtDQEBIXShbQ0gyXVtPSF0pW0NASF0oW0NAXTI0W0NIM10pQyhbQ0gzXSkoW0NIM10pW0NIMl1bQ0gyXVtDSDJdNA==

>  <s_epik_cmdline>  (9) 
J2VwaWtfcHl0aG9uJywgJy1waHQnLCAnMi4wJywgJy1waCcsICc3LjAnLCAnLXRuJywgJzgnLCAnLW1hJywgJzIwMCcsICctaW1hZScsICc8aW5maWxlLm1hZT4nLCAnLW9tYWUnLCAnPG91dGZpbGUubWFlPic=

>  <r_lp_tautomer_probability>  (9) 
1

>  <r_epik_Ionization_Penalty>  (9) 
1.5969e-06

>  <r_epik_Ionization_Penalty_Charging>  (9) 
0

>  <r_epik_Ionization_Penalty_Neutral>  (9) 
1.5969e-06

>  <r_epik_State_Penalty>  (9) 
-0

>  <r_epik_Charging_Adjusted_Penalty>  (9) 
0

>  <i_epik_Tot_Q>  (9) 
0

>  <i_epik_Tot_abs_Q>  (9) 
0

>  <s_epik_Chemistry_Notes>  (9) 
This compound has an ester and may undergo hydrolysis at high or low pH.

>  <s_lp_Force_Field>  (9) 
OPLS3e

>  <r_lp_Energy>  (9) 
89.975

>  <b_lp_Chiralities_Consistent>  (9) 
1

>  <s_lp_Variant>  (9) 
2:0-1

>  <s_i_glide_gridfile>  (9) 
pfpi4k_grid

>  <i_i_glide_lignum>  (9) 
4

>  <i_i_glide_rotatable_bonds>  (9) 
4

>  <r_i_docking_score>  (9) 
-3.2564

>  <r_i_glide_ligand_efficiency>  (9) 
-0.112289

>  <r_i_glide_ligand_efficiency_sa>  (9) 
-0.344989

>  <r_i_glide_ligand_efficiency_ln>  (9) 
-0.745632

>  <r_i_glide_gscore>  (9) 
-3.2564

>  <r_i_glide_lipo>  (9) 
-0.41419

>  <r_i_glide_hbond>  (9) 
-0.639565

>  <r_i_glide_metal>  (9) 
-0

>  <r_i_glide_rewards>  (9) 
-0.637415

>  <r_i_glide_evdw>  (9) 
-15.7999

>  <r_i_glide_ecoul>  (9) 
-5.94908

>  <r_i_glide_erotb>  (9) 
0.118988

>  <r_i_glide_esite>  (9) 
-0.00185544

>  <r_i_glide_emodel>  (9) 
-24.8689

>  <r_i_glide_energy>  (9) 
-21.749

>  <r_i_glide_einternal>  (9) 
0.872077

>  <r_i_glide_intrahb_reward>  (9) 
-0

>  <i_i_glide_confnum>  (9) 
5

>  <i_i_glide_posenum>  (9) 
28

>  <r_i_glide_eff_state_penalty>  (9) 
0

>  <ligand_id>  (9) 
2

>  <original_smiles>  (9) 
C=C1C(=O)OC2CC(CO)C3C(C)(C)CCCC3(C)C3(O)CC(=O)C3(C)C(O)C12

>  <smiles>  (9) 
[H]OC([H])([H])C1([H])C([H])([H])C2([H])OC(=O)C(=C([H])[H])C2([H])C([H])(O[H])C2(C([H])([H])[H])C(=O)C([H])([H])C2(O[H])C2(C([H])([H])[H])C([H])([H])C([H])([H])C([H])([H])C(C([H])([H])[H])(C([H])([H])[H])C12[H]

$$$$
2:0:1
     RDKit          3D

 63 66  0  0  1  0  0  0  0  0999 V2000
    1.8051   -6.8323    4.7656 C   0  0  0  0  0  0  0  0  0  0  0  0
    1.7114   -6.4866    3.4407 C   0  0  0  0  0  0  0  0  0  0  0  0
    0.6376   -6.9233    2.5779 C   0  0  0  0  0  0  0  0  0  0  0  0
   -0.2070   -7.7927    2.7938 O   0  0  0  0  0  0  0  0  0  0  0  0
    0.7185   -6.1682    1.4703 O   0  0  0  0  0  0  0  0  0  0  0  0
    1.6068   -5.0614    1.6328 C   0  0  2  0  0  0  0  0  0  0  0  0
    2.1184   -4.5562    0.2497 C   0  0  0  0  0  0  0  0  0  0  0  0
    2.8594   -3.1842    0.2167 C   0  0  1  0  0  0  0  0  0  0  0  0
    2.8896   -2.2955    1.4919 C   0  0  0  0  0  0  0  0  0  0  0  0
    1.6475   -1.6535    1.7045 O   0  0  0  0  0  0  0  0  0  0  0  0
    4.1296   -3.2113   -0.6832 C   0  0  1  0  0  0  0  0  0  0  0  0
    4.4045   -1.9101   -1.5337 C   0  0  0  0  0  0  0  0  0  0  0  0
    3.1627   -1.2938   -2.2221 C   0  0  0  0  0  0  0  0  0  0  0  0
    5.0688   -0.7778   -0.7402 C   0  0  0  0  0  0  0  0  0  0  0  0
    5.2858   -2.3419   -2.7170 C   0  0  0  0  0  0  0  0  0  0  0  0
    6.6727   -2.7644   -2.2740 C   0  0  0  0  0  0  0  0  0  0  0  0
    6.7356   -3.4389   -0.8973 C   0  0  0  0  0  0  0  0  0  0  0  0
    5.4297   -4.0428   -0.2344 C   0  0  2  0  0  0  0  0  0  0  0  0
    5.2751   -5.4042   -0.9047 C   0  0  0  0  0  0  0  0  0  0  0  0
    5.7796   -4.1779    1.3173 C   0  0  2  0  0  0  0  0  0  0  0  0
    5.7717   -2.8639    1.8046 O   0  0  0  0  0  0  0  0  0  0  0  0
    7.1891   -4.8010    1.5780 C   0  0  0  0  0  0  0  0  0  0  0  0
    6.4941   -6.0805    2.0071 C   0  0  0  0  0  0  0  0  0  0  0  0
    6.8014   -7.2664    2.0029 O   0  0  0  0  0  0  0  0  0  0  0  0
    5.2100   -5.2683    2.3482 C   0  0  1  0  0  0  0  0  0  0  0  0
    5.2626   -4.8379    3.8357 C   0  0  0  0  0  0  0  0  0  0  0  0
    3.9203   -6.1255    2.1304 C   0  0  1  0  0  0  0  0  0  0  0  0
    4.0829   -7.4197    2.6716 O   0  0  0  0  0  0  0  0  0  0  0  0
    2.5953   -5.5264    2.6933 C   0  0  2  0  0  0  0  0  0  0  0  0
    2.5879   -6.4193    5.3723 H   0  0  0  0  0  0  0  0  0  0  0  0
    1.0821   -7.4862    5.2065 H   0  0  0  0  0  0  0  0  0  0  0  0
    1.0731   -4.2520    2.1265 H   0  0  0  0  0  0  0  0  0  0  0  0
    2.5993   -5.3430   -0.3072 H   0  0  0  0  0  0  0  0  0  0  0  0
    1.2807   -4.4466   -0.4309 H   0  0  0  0  0  0  0  0  0  0  0  0
    2.1830   -2.6300   -0.4211 H   0  0  0  0  0  0  0  0  0  0  0  0
    3.1579   -2.8534    2.3897 H   0  0  0  0  0  0  0  0  0  0  0  0
    3.6207   -1.4937    1.4068 H   0  0  0  0  0  0  0  0  0  0  0  0
    1.4211   -1.1414    0.9282 H   0  0  0  0  0  0  0  0  0  0  0  0
    3.7086   -3.8102   -1.4923 H   0  0  0  0  0  0  0  0  0  0  0  0
    3.4489   -0.6126   -3.0345 H   0  0  0  0  0  0  0  0  0  0  0  0
    2.6160   -0.7524   -1.4712 H   0  0  0  0  0  0  0  0  0  0  0  0
    2.5336   -2.0622   -2.6632 H   0  0  0  0  0  0  0  0  0  0  0  0
    5.5318   -0.1120   -1.4575 H   0  0  0  0  0  0  0  0  0  0  0  0
    5.8441   -1.0989   -0.0500 H   0  0  0  0  0  0  0  0  0  0  0  0
    4.3479   -0.2027   -0.1605 H   0  0  0  0  0  0  0  0  0  0  0  0
    4.8218   -3.1672   -3.2644 H   0  0  0  0  0  0  0  0  0  0  0  0
    5.3599   -1.5314   -3.4345 H   0  0  0  0  0  0  0  0  0  0  0  0
    6.9967   -3.4460   -3.0646 H   0  0  0  0  0  0  0  0  0  0  0  0
    7.3366   -1.8913   -2.2214 H   0  0  0  0  0  0  0  0  0  0  0  0
    7.5063   -4.1944   -1.0188 H   0  0  0  0  0  0  0  0  0  0  0  0
    7.2264   -2.7361   -0.2207 H   0  0  0  0  0  0  0  0  0  0  0  0
    6.0770   -6.0558   -0.5700 H   0  0  0  0  0  0  0  0  0  0  0  0
    5.2997   -5.2456   -1.9858 H   0  0  0  0  0  0  0  0  0  0  0  0
    4.3684   -5.9510   -0.7421 H   0  0  0  0  0  0  0  0  0  0  0  0
    4.8845   -2.5538    1.6871 H   0  0  0  0  0  0  0  0  0  0  0  0
    7.8758   -4.9489    0.7512 H   0  0  0  0  0  0  0  0  0  0  0  0
    7.7093   -4.3511    2.4075 H   0  0  0  0  0  0  0  0  0  0  0  0
    4.6943   -3.9209    4.0192 H   0  0  0  0  0  0  0  0  0  0  0  0
    6.2761   -4.6373    4.1670 H   0  0  0  0  0  0  0  0  0  0  0  0
    4.8696   -5.6150    4.4893 H   0  0  0  0  0  0  0  0  0  0  0  0
    3.7717   -6.3454    1.0872 H   0  0  0  0  0  0  0  0  0  0  0  0
    3.4259   -7.9821    2.2728 H   0  0  0  0  0  0  0  0  0  0  0  0
    2.7752   -4.7018    3.3798 H   0  0  0  0  0  0  0  0  0  0  0  0
  1  2  2  0
  1 30  1  0
  1 31  1  0
  2 29  1  0
  2  3  1  0
  3  4  2  0
  3  5  1  0
  5  6  1  0
  6 29  1  0
  6  7  1  0
  6 32  1  1
  7  8  1  0
  7 33  1  0
  7 34  1  0
  8  9  1  0
  8 11  1  0
  8 35  1  6
  9 10  1  0
  9 36  1  0
  9 37  1  0
 10 38  1  0
 11 18  1  0
 11 12  1  0
 11 39  1  6
 12 13  1  0
 12 14  1  0
 12 15  1  0
 13 40  1  0
 13 41  1  0
 13 42  1  0
 14 43  1  0
 14 44  1  0
 14 45  1  0
 15 16  1  0
 15 46  1  0
 15 47  1  0
 16 17  1  0
 16 48  1  0
 16 49  1  0
 17 18  1  0
 17 50  1  0
 17 51  1  0
 18 19  1  6
 18 20  1  0
 19 52  1  0
 19 53  1  0
 19 54  1  0
 20 25  1  0
 20 21  1  1
 20 22  1  0
 21 55  1  0
 22 23  1  0
 22 56  1  0
 22 57  1  0
 23 24  2  0
 23 25  1  0
 25 26  1  1
 25 27  1  0
 26 58  1  0
 26 59  1  0
 26 60  1  0
 27 28  1  0
 27 29  1  0
 27 61  1  6
 28 62  1  0
 29 63  1  1
M  END
>  <i_m_ct_stereo_status>  (10) 
1

>  <s_m_source_file>  (10) 
/var/tmp/pbs.5102264.sched01/tmpu94zaw8c/01d2njlry.sdf

>  <i_m_source_file_index>  (10) 
4

>  <i_lp_mmshare_version>  (10) 
48012

>  <i_f3d_flags>  (10) 
0

>  <s_epik_input>  (10) 
Tz1DMVtDSDJdW0NAXTIoW09IXSlbQ0BAXTEoW0NIM10pW0NAQEhdKFtPSF0pW0NASF0oQyg9W0NIMl0pQyg9TylPMylbQ0BIXTNbQ0gyXVtDQEBIXShbQ0gyXVtPSF0pW0NASF0oW0NAXTI0W0NIM10pQyhbQ0gzXSkoW0NIM10pW0NIMl1bQ0gyXVtDSDJdNA==

>  <s_epik_cmdline>  (10) 
J2VwaWtfcHl0aG9uJywgJy1waHQnLCAnMi4wJywgJy1waCcsICc3LjAnLCAnLXRuJywgJzgnLCAnLW1hJywgJzIwMCcsICctaW1hZScsICc8aW5maWxlLm1hZT4nLCAnLW9tYWUnLCAnPG91dGZpbGUubWFlPic=

>  <r_lp_tautomer_probability>  (10) 
1

>  <r_epik_Ionization_Penalty>  (10) 
1.5969e-06

>  <r_epik_Ionization_Penalty_Charging>  (10) 
0

>  <r_epik_Ionization_Penalty_Neutral>  (10) 
1.5969e-06

>  <r_epik_State_Penalty>  (10) 
-0

>  <r_epik_Charging_Adjusted_Penalty>  (10) 
0

>  <i_epik_Tot_Q>  (10) 
0

>  <i_epik_Tot_abs_Q>  (10) 
0

>  <s_epik_Chemistry_Notes>  (10) 
This compound has an ester and may undergo hydrolysis at high or low pH.

>  <s_lp_Force_Field>  (10) 
OPLS3e

>  <r_lp_Energy>  (10) 
89.975

>  <b_lp_Chiralities_Consistent>  (10) 
1

>  <s_lp_Variant>  (10) 
2:0-1

>  <s_i_glide_gridfile>  (10) 
pfpi4k_grid

>  <i_i_glide_lignum>  (10) 
4

>  <i_i_glide_rotatable_bonds>  (10) 
4

>  <r_i_docking_score>  (10) 
-2.33324

>  <r_i_glide_ligand_efficiency>  (10) 
-0.0804567

>  <r_i_glide_ligand_efficiency_sa>  (10) 
-0.247189

>  <r_i_glide_ligand_efficiency_ln>  (10) 
-0.534254

>  <r_i_glide_gscore>  (10) 
-2.33324

>  <r_i_glide_lipo>  (10) 
-0.513645

>  <r_i_glide_hbond>  (10) 
-0.32

>  <r_i_glide_metal>  (10) 
-0

>  <r_i_glide_rewards>  (10) 
-0.704814

>  <r_i_glide_evdw>  (10) 
-5.14077

>  <r_i_glide_ecoul>  (10) 
-3.77009

>  <r_i_glide_erotb>  (10) 
0.0832914

>  <r_i_glide_esite>  (10) 
-0.0555253

>  <r_i_glide_emodel>  (10) 
-9.13547

>  <r_i_glide_energy>  (10) 
-8.91086

>  <r_i_glide_einternal>  (10) 
1.78777

>  <r_i_glide_intrahb_reward>  (10) 
-0

>  <i_i_glide_confnum>  (10) 
5

>  <i_i_glide_posenum>  (10) 
17

>  <r_i_glide_eff_state_penalty>  (10) 
0

>  <ligand_id>  (10) 
2

>  <original_smiles>  (10) 
C=C1C(=O)OC2CC(CO)C3C(C)(C)CCCC3(C)C3(O)CC(=O)C3(C)C(O)C12

>  <smiles>  (10) 
[H]OC([H])([H])C1([H])C([H])([H])C2([H])OC(=O)C(=C([H])[H])C2([H])C([H])(O[H])C2(C([H])([H])[H])C(=O)C([H])([H])C2(O[H])C2(C([H])([H])[H])C([H])([H])C([H])([H])C([H])([H])C(C([H])([H])[H])(C([H])([H])[H])C12[H]

$$$$
2:0:2
     RDKit          3D

 63 66  0  0  1  0  0  0  0  0999 V2000
    1.3740   -7.8302    4.0911 C   0  0  0  0  0  0  0  0  0  0  0  0
    1.3873   -7.3093    2.8674 C   0  0  0  0  0  0  0  0  0  0  0  0
    0.3658   -7.6392    1.8848 C   0  0  0  0  0  0  0  0  0  0  0  0
   -0.5027   -8.4901    2.0126 O   0  0  0  0  0  0  0  0  0  0  0  0
    0.5162   -6.7677    0.8753 O   0  0  0  0  0  0  0  0  0  0  0  0
    1.3268   -5.6591    1.2262 C   0  0  2  0  0  0  0  0  0  0  0  0
    1.8786   -4.9181   -0.0146 C   0  0  0  0  0  0  0  0  0  0  0  0
    2.5885   -3.5366    0.2095 C   0  0  1  0  0  0  0  0  0  0  0  0
    2.4018   -2.9239    1.6369 C   0  0  0  0  0  0  0  0  0  0  0  0
    2.4631   -1.5157    1.6272 O   0  0  0  0  0  0  0  0  0  0  0  0
    3.9727   -3.4080   -0.5613 C   0  0  1  0  0  0  0  0  0  0  0  0
    4.3162   -2.0160   -1.2403 C   0  0  0  0  0  0  0  0  0  0  0  0
    3.1324   -1.3637   -1.9956 C   0  0  0  0  0  0  0  0  0  0  0  0
    4.8318   -0.9498   -0.2396 C   0  0  0  0  0  0  0  0  0  0  0  0
    5.3151   -2.2488   -2.3674 C   0  0  0  0  0  0  0  0  0  0  0  0
    6.6575   -2.6602   -1.8342 C   0  0  0  0  0  0  0  0  0  0  0  0
    6.6110   -3.5330   -0.5757 C   0  0  0  0  0  0  0  0  0  0  0  0
    5.2707   -4.2340   -0.1124 C   0  0  2  0  0  0  0  0  0  0  0  0
    5.2588   -5.4893   -0.9677 C   0  0  0  0  0  0  0  0  0  0  0  0
    5.5051   -4.5853    1.4263 C   0  0  2  0  0  0  0  0  0  0  0  0
    5.4124   -3.3462    2.0861 O   0  0  0  0  0  0  0  0  0  0  0  0
    6.9085   -5.1857    1.7724 C   0  0  0  0  0  0  0  0  0  0  0  0
    6.2389   -6.5283    1.9507 C   0  0  0  0  0  0  0  0  0  0  0  0
    6.6213   -7.6871    1.8027 O   0  0  0  0  0  0  0  0  0  0  0  0
    4.8845   -5.8172    2.2521 C   0  0  1  0  0  0  0  0  0  0  0  0
    4.7930   -5.6039    3.7840 C   0  0  0  0  0  0  0  0  0  0  0  0
    3.6622   -6.6887    1.7941 C   0  0  1  0  0  0  0  0  0  0  0  0
    3.8423   -8.0542    2.1483 O   0  0  0  0  0  0  0  0  0  0  0  0
    2.2620   -6.2043    2.2985 C   0  0  2  0  0  0  0  0  0  0  0  0
    2.0722   -7.5050    4.8503 H   0  0  0  0  0  0  0  0  0  0  0  0
    0.6434   -8.5841    4.3662 H   0  0  0  0  0  0  0  0  0  0  0  0
    0.6507   -5.0022    1.7788 H   0  0  0  0  0  0  0  0  0  0  0  0
    2.4578   -5.5993   -0.6193 H   0  0  0  0  0  0  0  0  0  0  0  0
    1.0436   -4.7423   -0.6997 H   0  0  0  0  0  0  0  0  0  0  0  0
    1.9257   -2.9095   -0.3858 H   0  0  0  0  0  0  0  0  0  0  0  0
    1.4082   -3.1299    2.0336 H   0  0  0  0  0  0  0  0  0  0  0  0
    3.0748   -3.3392    2.3829 H   0  0  0  0  0  0  0  0  0  0  0  0
    2.0039   -1.1904    0.8551 H   0  0  0  0  0  0  0  0  0  0  0  0
    3.6522   -3.9193   -1.4741 H   0  0  0  0  0  0  0  0  0  0  0  0
    3.4480   -0.5934   -2.7427 H   0  0  0  0  0  0  0  0  0  0  0  0
    2.6235   -0.8414   -1.1815 H   0  0  0  0  0  0  0  0  0  0  0  0
    2.5035   -2.1013   -2.5354 H   0  0  0  0  0  0  0  0  0  0  0  0
    5.3661   -0.1864   -0.7890 H   0  0  0  0  0  0  0  0  0  0  0  0
    5.5175   -1.3419    0.5037 H   0  0  0  0  0  0  0  0  0  0  0  0
    4.0546   -0.4160    0.3129 H   0  0  0  0  0  0  0  0  0  0  0  0
    4.9284   -2.9998   -3.0552 H   0  0  0  0  0  0  0  0  0  0  0  0
    5.4124   -1.3255   -2.9413 H   0  0  0  0  0  0  0  0  0  0  0  0
    7.2447   -3.0766   -2.6516 H   0  0  0  0  0  0  0  0  0  0  0  0
    7.1554   -1.7550   -1.5256 H   0  0  0  0  0  0  0  0  0  0  0  0
    7.4068   -4.2385   -0.7132 H   0  0  0  0  0  0  0  0  0  0  0  0
    7.0056   -2.9195    0.2307 H   0  0  0  0  0  0  0  0  0  0  0  0
    6.0365   -6.1419   -0.6526 H   0  0  0  0  0  0  0  0  0  0  0  0
    5.4274   -5.1826   -2.0028 H   0  0  0  0  0  0  0  0  0  0  0  0
    4.3746   -6.1146   -0.9648 H   0  0  0  0  0  0  0  0  0  0  0  0
    4.5371   -3.0235    1.9418 H   0  0  0  0  0  0  0  0  0  0  0  0
    7.6802   -5.1773    1.0122 H   0  0  0  0  0  0  0  0  0  0  0  0
    7.3136   -4.8153    2.7071 H   0  0  0  0  0  0  0  0  0  0  0  0
    4.1553   -4.7556    4.0298 H   0  0  0  0  0  0  0  0  0  0  0  0
    5.7561   -5.3819    4.2430 H   0  0  0  0  0  0  0  0  0  0  0  0
    4.3860   -6.4736    4.3001 H   0  0  0  0  0  0  0  0  0  0  0  0
    3.6199   -6.7588    0.7248 H   0  0  0  0  0  0  0  0  0  0  0  0
    3.8644   -8.1282    3.0908 H   0  0  0  0  0  0  0  0  0  0  0  0
    2.3465   -5.4425    3.0691 H   0  0  0  0  0  0  0  0  0  0  0  0
  1  2  2  0
  1 30  1  0
  1 31  1  0
  2 29  1  0
  2  3  1  0
  3  4  2  0
  3  5  1  0
  5  6  1  0
  6 29  1  0
  6  7  1  0
  6 32  1  1
  7  8  1  0
  7 33  1  0
  7 34  1  0
  8  9  1  0
  8 11  1  0
  8 35  1  6
  9 10  1  0
  9 36  1  0
  9 37  1  0
 10 38  1  0
 11 18  1  0
 11 12  1  0
 11 39  1  6
 12 13  1  0
 12 14  1  0
 12 15  1  0
 13 40  1  0
 13 41  1  0
 13 42  1  0
 14 43  1  0
 14 44  1  0
 14 45  1  0
 15 16  1  0
 15 46  1  0
 15 47  1  0
 16 17  1  0
 16 48  1  0
 16 49  1  0
 17 18  1  0
 17 50  1  0
 17 51  1  0
 18 19  1  6
 18 20  1  0
 19 52  1  0
 19 53  1  0
 19 54  1  0
 20 25  1  0
 20 21  1  1
 20 22  1  0
 21 55  1  0
 22 23  1  0
 22 56  1  0
 22 57  1  0
 23 24  2  0
 23 25  1  0
 25 26  1  1
 25 27  1  0
 26 58  1  0
 26 59  1  0
 26 60  1  0
 27 28  1  0
 27 29  1  0
 27 61  1  6
 28 62  1  0
 29 63  1  1
M  END
>  <i_m_ct_stereo_status>  (11) 
1

>  <s_m_source_file>  (11) 
/var/tmp/pbs.5102264.sched01/tmpu94zaw8c/01d2njlry.sdf

>  <i_m_source_file_index>  (11) 
4

>  <i_lp_mmshare_version>  (11) 
48012

>  <i_f3d_flags>  (11) 
0

>  <s_epik_input>  (11) 
Tz1DMVtDSDJdW0NAXTIoW09IXSlbQ0BAXTEoW0NIM10pW0NAQEhdKFtPSF0pW0NASF0oQyg9W0NIMl0pQyg9TylPMylbQ0BIXTNbQ0gyXVtDQEBIXShbQ0gyXVtPSF0pW0NASF0oW0NAXTI0W0NIM10pQyhbQ0gzXSkoW0NIM10pW0NIMl1bQ0gyXVtDSDJdNA==

>  <s_epik_cmdline>  (11) 
J2VwaWtfcHl0aG9uJywgJy1waHQnLCAnMi4wJywgJy1waCcsICc3LjAnLCAnLXRuJywgJzgnLCAnLW1hJywgJzIwMCcsICctaW1hZScsICc8aW5maWxlLm1hZT4nLCAnLW9tYWUnLCAnPG91dGZpbGUubWFlPic=

>  <r_lp_tautomer_probability>  (11) 
1

>  <r_epik_Ionization_Penalty>  (11) 
1.5969e-06

>  <r_epik_Ionization_Penalty_Charging>  (11) 
0

>  <r_epik_Ionization_Penalty_Neutral>  (11) 
1.5969e-06

>  <r_epik_State_Penalty>  (11) 
-0

>  <r_epik_Charging_Adjusted_Penalty>  (11) 
0

>  <i_epik_Tot_Q>  (11) 
0

>  <i_epik_Tot_abs_Q>  (11) 
0

>  <s_epik_Chemistry_Notes>  (11) 
This compound has an ester and may undergo hydrolysis at high or low pH.

>  <s_lp_Force_Field>  (11) 
OPLS3e

>  <r_lp_Energy>  (11) 
89.975

>  <b_lp_Chiralities_Consistent>  (11) 
1

>  <s_lp_Variant>  (11) 
2:0-1

>  <s_i_glide_gridfile>  (11) 
pfpi4k_grid

>  <i_i_glide_lignum>  (11) 
4

>  <i_i_glide_rotatable_bonds>  (11) 
4

>  <r_i_docking_score>  (11) 
-2.01271

>  <r_i_glide_ligand_efficiency>  (11) 
-0.0694036

>  <r_i_glide_ligand_efficiency_sa>  (11) 
-0.21323

>  <r_i_glide_ligand_efficiency_ln>  (11) 
-0.460858

>  <r_i_glide_gscore>  (11) 
-2.01271

>  <r_i_glide_lipo>  (11) 
-0.43448

>  <r_i_glide_hbond>  (11) 
-0.228348

>  <r_i_glide_metal>  (11) 
-0

>  <r_i_glide_rewards>  (11) 
-0.710988

>  <r_i_glide_evdw>  (11) 
-7.16605

>  <r_i_glide_ecoul>  (11) 
-2.22523

>  <r_i_glide_erotb>  (11) 
0.118988

>  <r_i_glide_esite>  (11) 
-0.0657901

>  <r_i_glide_emodel>  (11) 
-9.40146

>  <r_i_glide_energy>  (11) 
-9.39128

>  <r_i_glide_einternal>  (11) 
1.33895

>  <r_i_glide_intrahb_reward>  (11) 
-0

>  <i_i_glide_confnum>  (11) 
4

>  <i_i_glide_posenum>  (11) 
1

>  <r_i_glide_eff_state_penalty>  (11) 
0

>  <ligand_id>  (11) 
2

>  <original_smiles>  (11) 
C=C1C(=O)OC2CC(CO)C3C(C)(C)CCCC3(C)C3(O)CC(=O)C3(C)C(O)C12

>  <smiles>  (11) 
[H]OC([H])([H])C1([H])C([H])([H])C2([H])OC(=O)C(=C([H])[H])C2([H])C([H])(O[H])C2(C([H])([H])[H])C(=O)C([H])([H])C2(O[H])C2(C([H])([H])[H])C([H])([H])C([H])([H])C([H])([H])C(C([H])([H])[H])(C([H])([H])[H])C12[H]

$$$$
3:0:0
     RDKit          3D

 38 41  0  0  1  0  0  0  0  0999 V2000
    7.2200   -9.4060    5.9275 O   0  0  0  0  0  0  0  0  0  0  0  0
    6.4940   -8.8671    5.0608 C   0  0  0  0  0  0  0  0  0  0  0  0
    5.9923   -7.7199    5.1562 O   0  0  0  0  0  0  0  0  0  0  0  0
    6.2850   -9.7190    3.7761 C   0  0  0  0  0  0  0  0  0  0  0  0
    5.6195   -9.0468    2.5170 C   0  0  2  0  0  0  0  0  0  0  0  0
    6.3025   -7.7703    1.9917 C   0  0  0  0  0  0  0  0  0  0  0  0
    5.5580   -6.7953    1.2801 C   0  0  0  0  0  0  0  0  0  0  0  0
    6.1548   -5.6006    0.8665 C   0  0  0  0  0  0  0  0  0  0  0  0
    7.5178   -5.3802    1.1130 C   0  0  0  0  0  0  0  0  0  0  0  0
    8.1582   -4.1870    0.7065 N   0  0  0  0  0  0  0  0  0  0  0  0
    7.6369   -3.2782   -0.1322 C   0  0  0  0  0  0  0  0  0  0  0  0
    8.4672   -2.2598   -0.2963 N   0  0  0  0  0  0  0  0  0  0  0  0
    9.5691   -2.6368    0.4819 N   0  0  0  0  0  0  0  0  0  0  0  0
    9.3906   -3.7888    1.0810 N   0  0  0  0  0  0  0  0  0  0  0  0
    8.2814   -6.3614    1.7834 C   0  0  0  0  0  0  0  0  0  0  0  0
    7.6824   -7.5446    2.2029 C   0  0  0  0  0  0  0  0  0  0  0  0
    4.1407   -8.8705    2.7166 C   0  0  0  0  0  0  0  0  0  0  0  0
    3.6298   -7.8538    3.4085 N   0  0  0  0  0  0  0  0  0  0  0  0
    2.2767   -8.1137    3.4062 C   0  0  0  0  0  0  0  0  0  0  0  0
    1.2100   -7.3878    3.9839 C   0  0  0  0  0  0  0  0  0  0  0  0
   -0.1221   -7.7996    3.7981 C   0  0  0  0  0  0  0  0  0  0  0  0
   -1.3912   -6.8552    4.4788 Cl  0  0  0  0  0  0  0  0  0  0  0  0
   -0.3929   -8.9356    3.0008 C   0  0  0  0  0  0  0  0  0  0  0  0
   -2.0073   -9.2781    2.4952 Cl  0  0  0  0  0  0  0  0  0  0  0  0
    0.6585   -9.7078    2.4826 C   0  0  0  0  0  0  0  0  0  0  0  0
    1.9779   -9.2922    2.6674 C   0  0  0  0  0  0  0  0  0  0  0  0
    3.2254   -9.7452    2.2583 N   0  0  0  0  0  0  0  0  0  0  0  0
    3.4565  -10.5400    1.6536 H   0  0  0  0  0  0  0  0  0  0  0  0
    7.2853  -10.0311    3.4954 H   0  0  0  0  0  0  0  0  0  0  0  0
    5.7945  -10.6758    4.0095 H   0  0  0  0  0  0  0  0  0  0  0  0
    5.7061   -9.7597    1.6935 H   0  0  0  0  0  0  0  0  0  0  0  0
    4.5018   -6.8965    1.0914 H   0  0  0  0  0  0  0  0  0  0  0  0
    5.5308   -4.8570    0.3842 H   0  0  0  0  0  0  0  0  0  0  0  0
    6.6729   -3.3488   -0.6044 H   0  0  0  0  0  0  0  0  0  0  0  0
    9.3299   -6.2156    2.0059 H   0  0  0  0  0  0  0  0  0  0  0  0
    8.3369   -8.2316    2.7144 H   0  0  0  0  0  0  0  0  0  0  0  0
    1.4257   -6.4992    4.5669 H   0  0  0  0  0  0  0  0  0  0  0  0
    0.4328  -10.5838    1.8859 H   0  0  0  0  0  0  0  0  0  0  0  0
  1  2  2  0
  2  3  1  0
  2  4  1  0
  4  5  1  0
  4 29  1  0
  4 30  1  0
  5  6  1  0
  5 17  1  0
  5 31  1  6
  6 16  1  0
  6  7  2  0
  7  8  1  0
  7 32  1  0
  8  9  2  0
  8 33  1  0
  9 10  1  0
  9 15  1  0
 10 14  1  0
 10 11  1  0
 11 12  2  0
 11 34  1  0
 12 13  1  0
 13 14  2  0
 15 16  2  0
 15 35  1  0
 16 36  1  0
 17 27  1  0
 17 18  2  0
 18 19  1  0
 19 26  2  0
 19 20  1  0
 20 21  2  0
 20 37  1  0
 21 22  1  0
 21 23  1  0
 23 24  1  0
 23 25  2  0
 25 26  1  0
 25 38  1  0
 26 27  1  0
 27 28  1  0
M  CHG  1   3  -1
M  END
>  <i_m_ct_stereo_status>  (12) 
1

>  <s_m_source_file>  (12) 
/var/tmp/pbs.5102264.sched01/tmpu94zaw8c/01d2njlry.sdf

>  <i_m_source_file_index>  (12) 
5

>  <i_lp_mmshare_version>  (12) 
48012

>  <i_f3d_flags>  (12) 
0

>  <s_epik_input>  (12) 
W2NIXTFjKENsKWMoQ2wpW2NIXWMoYzEyKVtuSF1jKG4yKVtDQEhdKFtDSDJdQyg9TylbT0hdKWMzW2NIXVtjSF1jKFtjSF1bY0hdMyktbjRbY0hdbm5uNA==

>  <s_epik_cmdline>  (12) 
J2VwaWtfcHl0aG9uJywgJy1waHQnLCAnMi4wJywgJy1waCcsICc3LjAnLCAnLXRuJywgJzgnLCAnLW1hJywgJzIwMCcsICctaW1hZScsICc8aW5maWxlLm1hZT4nLCAnLW9tYWUnLCAnPG91dGZpbGUubWFlPic=

>  <r_lp_tautomer_probability>  (12) 
1

>  <r_epik_Ionization_Penalty>  (12) 
0.00392747

>  <r_epik_Ionization_Penalty_Charging>  (12) 
0.000488246

>  <r_epik_Ionization_Penalty_Neutral>  (12) 
0.00343923

>  <r_epik_State_Penalty>  (12) 
-0

>  <r_epik_Charging_Adjusted_Penalty>  (12) 
0.000488246

>  <i_epik_Tot_Q>  (12) 
-1

>  <i_epik_Tot_abs_Q>  (12) 
1

>  <s_lp_Force_Field>  (12) 
OPLS3e

>  <r_lp_Energy>  (12) 
26.3926

>  <b_lp_Chiralities_Consistent>  (12) 
1

>  <s_lp_Variant>  (12) 
3:0-1

>  <s_i_glide_gridfile>  (12) 
pfpi4k_grid

>  <i_i_glide_lignum>  (12) 
5

>  <i_i_glide_rotatable_bonds>  (12) 
5

>  <r_i_docking_score>  (12) 
-3.485

>  <r_i_glide_ligand_efficiency>  (12) 
-0.129074

>  <r_i_glide_ligand_efficiency_sa>  (12) 
-0.387223

>  <r_i_glide_ligand_efficiency_ln>  (12) 
-0.811252

>  <r_i_glide_gscore>  (12) 
-3.485

>  <r_i_glide_lipo>  (12) 
-0.692957

>  <r_i_glide_hbond>  (12) 
-0.109447

>  <r_i_glide_metal>  (12) 
-0

>  <r_i_glide_rewards>  (12) 
-1.12956

>  <r_i_glide_evdw>  (12) 
-25.7929

>  <r_i_glide_ecoul>  (12) 
-3.42843

>  <r_i_glide_erotb>  (12) 
0.485155

>  <r_i_glide_esite>  (12) 
-0.234286

>  <r_i_glide_emodel>  (12) 
-36.8438

>  <r_i_glide_energy>  (12) 
-29.2213

>  <r_i_glide_einternal>  (12) 
3.02526

>  <r_i_glide_intrahb_reward>  (12) 
-0

>  <i_i_glide_confnum>  (12) 
3

>  <i_i_glide_posenum>  (12) 
4

>  <r_i_glide_eff_state_penalty>  (12) 
0

>  <ligand_id>  (12) 
3

>  <original_smiles>  (12) 
O=C(O)CC(c1ccc(-n2cnnn2)cc1)c1nc2cc(Cl)c(Cl)cc2[nH]1

>  <smiles>  (12) 
[H]c1c([H])c(C([H])(c2nc3c([H])c(Cl)c(Cl)c([H])c3n2[H])C([H])([H])C(=O)[O-])c([H])c([H])c1-n1nnnc1[H]

$$$$
3:0:1
     RDKit          3D

 38 41  0  0  1  0  0  0  0  0999 V2000
    0.4698   -5.4555    4.6707 O   0  0  0  0  0  0  0  0  0  0  0  0
    1.2258   -5.4016    3.6724 C   0  0  0  0  0  0  0  0  0  0  0  0
    0.8897   -5.7829    2.5227 O   0  0  0  0  0  0  0  0  0  0  0  0
    2.6800   -4.9028    3.9327 C   0  0  0  0  0  0  0  0  0  0  0  0
    3.0184   -3.3952    3.6341 C   0  0  2  0  0  0  0  0  0  0  0  0
    2.1395   -2.3979    4.3877 C   0  0  0  0  0  0  0  0  0  0  0  0
    0.7812   -2.2603    4.0442 C   0  0  0  0  0  0  0  0  0  0  0  0
   -0.0746   -1.4117    4.7609 C   0  0  0  0  0  0  0  0  0  0  0  0
    0.4245   -0.6155    5.8142 C   0  0  0  0  0  0  0  0  0  0  0  0
   -0.4698    0.2694    6.4908 N   0  0  0  0  0  0  0  0  0  0  0  0
   -0.1787    0.9846    7.5687 C   0  0  0  0  0  0  0  0  0  0  0  0
   -1.2302    1.6933    7.9581 N   0  0  0  0  0  0  0  0  0  0  0  0
   -2.1861    1.3852    7.0221 N   0  0  0  0  0  0  0  0  0  0  0  0
   -1.7536    0.5215    6.1528 N   0  0  0  0  0  0  0  0  0  0  0  0
    1.8010   -0.7152    6.1467 C   0  0  0  0  0  0  0  0  0  0  0  0
    2.6498   -1.6027    5.4424 C   0  0  0  0  0  0  0  0  0  0  0  0
    3.1588   -3.0490    2.1764 C   0  0  0  0  0  0  0  0  0  0  0  0
    2.6876   -3.8312    1.2120 N   0  0  0  0  0  0  0  0  0  0  0  0
    2.9648   -3.1285    0.0717 C   0  0  0  0  0  0  0  0  0  0  0  0
    2.6437   -3.4347   -1.2577 C   0  0  0  0  0  0  0  0  0  0  0  0
    3.0419   -2.5859   -2.2952 C   0  0  0  0  0  0  0  0  0  0  0  0
    2.6618   -3.0497   -3.9035 Cl  0  0  0  0  0  0  0  0  0  0  0  0
    3.7437   -1.3898   -2.0287 C   0  0  0  0  0  0  0  0  0  0  0  0
    4.2035   -0.3510   -3.3250 Cl  0  0  0  0  0  0  0  0  0  0  0  0
    4.0512   -1.0551   -0.6909 C   0  0  0  0  0  0  0  0  0  0  0  0
    3.6519   -1.9111    0.3465 C   0  0  0  0  0  0  0  0  0  0  0  0
    3.7405   -1.9159    1.7378 N   0  0  0  0  0  0  0  0  0  0  0  0
    4.1374   -1.2012    2.3418 H   0  0  0  0  0  0  0  0  0  0  0  0
    2.8488   -5.0591    4.9985 H   0  0  0  0  0  0  0  0  0  0  0  0
    3.4136   -5.5512    3.4401 H   0  0  0  0  0  0  0  0  0  0  0  0
    4.0254   -3.2474    4.0188 H   0  0  0  0  0  0  0  0  0  0  0  0
    0.3485   -2.8397    3.2433 H   0  0  0  0  0  0  0  0  0  0  0  0
   -1.1249   -1.3853    4.4960 H   0  0  0  0  0  0  0  0  0  0  0  0
    0.7699    0.9797    8.0736 H   0  0  0  0  0  0  0  0  0  0  0  0
    2.2448   -0.1306    6.9441 H   0  0  0  0  0  0  0  0  0  0  0  0
    3.6903   -1.6812    5.7208 H   0  0  0  0  0  0  0  0  0  0  0  0
    2.0910   -4.3314   -1.4910 H   0  0  0  0  0  0  0  0  0  0  0  0
    4.5675   -0.1295   -0.4641 H   0  0  0  0  0  0  0  0  0  0  0  0
  1  2  2  0
  2  3  1  0
  2  4  1  0
  4  5  1  0
  4 29  1  0
  4 30  1  0
  5  6  1  0
  5 17  1  0
  5 31  1  1
  6 16  1  0
  6  7  2  0
  7  8  1  0
  7 32  1  0
  8  9  2  0
  8 33  1  0
  9 10  1  0
  9 15  1  0
 10 14  1  0
 10 11  1  0
 11 12  2  0
 11 34  1  0
 12 13  1  0
 13 14  2  0
 15 16  2  0
 15 35  1  0
 16 36  1  0
 17 27  1  0
 17 18  2  0
 18 19  1  0
 19 26  2  0
 19 20  1  0
 20 21  2  0
 20 37  1  0
 21 22  1  0
 21 23  1  0
 23 24  1  0
 23 25  2  0
 25 26  1  0
 25 38  1  0
 26 27  1  0
 27 28  1  0
M  CHG  1   3  -1
M  END
>  <i_m_ct_stereo_status>  (13) 
1

>  <s_m_source_file>  (13) 
/var/tmp/pbs.5102264.sched01/tmpu94zaw8c/01d2njlry.sdf

>  <i_m_source_file_index>  (13) 
5

>  <i_lp_mmshare_version>  (13) 
48012

>  <i_f3d_flags>  (13) 
0

>  <s_epik_input>  (13) 
W2NIXTFjKENsKWMoQ2wpW2NIXWMoYzEyKVtuSF1jKG4yKVtDQEhdKFtDSDJdQyg9TylbT0hdKWMzW2NIXVtjSF1jKFtjSF1bY0hdMyktbjRbY0hdbm5uNA==

>  <s_epik_cmdline>  (13) 
J2VwaWtfcHl0aG9uJywgJy1waHQnLCAnMi4wJywgJy1waCcsICc3LjAnLCAnLXRuJywgJzgnLCAnLW1hJywgJzIwMCcsICctaW1hZScsICc8aW5maWxlLm1hZT4nLCAnLW9tYWUnLCAnPG91dGZpbGUubWFlPic=

>  <r_lp_tautomer_probability>  (13) 
1

>  <r_epik_Ionization_Penalty>  (13) 
0.00392747

>  <r_epik_Ionization_Penalty_Charging>  (13) 
0.000488246

>  <r_epik_Ionization_Penalty_Neutral>  (13) 
0.00343923

>  <r_epik_State_Penalty>  (13) 
-0

>  <r_epik_Charging_Adjusted_Penalty>  (13) 
0.000488246

>  <i_epik_Tot_Q>  (13) 
-1

>  <i_epik_Tot_abs_Q>  (13) 
1

>  <s_lp_Force_Field>  (13) 
OPLS3e

>  <r_lp_Energy>  (13) 
26.3926

>  <b_lp_Chiralities_Consistent>  (13) 
1

>  <s_lp_Variant>  (13) 
3:0-1

>  <s_i_glide_gridfile>  (13) 
pfpi4k_grid

>  <i_i_glide_lignum>  (13) 
5

>  <i_i_glide_rotatable_bonds>  (13) 
5

>  <r_i_docking_score>  (13) 
-2.90874

>  <r_i_glide_ligand_efficiency>  (13) 
-0.107731

>  <r_i_glide_ligand_efficiency_sa>  (13) 
-0.323194

>  <r_i_glide_ligand_efficiency_ln>  (13) 
-0.677107

>  <r_i_glide_gscore>  (13) 
-2.90874

>  <r_i_glide_lipo>  (13) 
-0.443074

>  <r_i_glide_hbond>  (13) 
-0.034278

>  <r_i_glide_metal>  (13) 
-0

>  <r_i_glide_rewards>  (13) 
-0.666725

>  <r_i_glide_evdw>  (13) 
-27.5683

>  <r_i_glide_ecoul>  (13) 
-4.00799

>  <r_i_glide_erotb>  (13) 
0.485155

>  <r_i_glide_esite>  (13) 
-0.270207

>  <r_i_glide_emodel>  (13) 
-36.7542

>  <r_i_glide_energy>  (13) 
-31.5763

>  <r_i_glide_einternal>  (13) 
3.97654

>  <r_i_glide_intrahb_reward>  (13) 
-0

>  <i_i_glide_confnum>  (13) 
2

>  <i_i_glide_posenum>  (13) 
2

>  <r_i_glide_eff_state_penalty>  (13) 
0

>  <ligand_id>  (13) 
3

>  <original_smiles>  (13) 
O=C(O)CC(c1ccc(-n2cnnn2)cc1)c1nc2cc(Cl)c(Cl)cc2[nH]1

>  <smiles>  (13) 
[H]c1c([H])c(C([H])(c2nc3c([H])c(Cl)c(Cl)c([H])c3n2[H])C([H])([H])C(=O)[O-])c([H])c([H])c1-n1nnnc1[H]

$$$$
3:0:2
     RDKit          3D

 38 41  0  0  1  0  0  0  0  0999 V2000
    5.4126   -2.9195    3.7925 O   0  0  0  0  0  0  0  0  0  0  0  0
    4.9729   -4.0501    3.4927 C   0  0  0  0  0  0  0  0  0  0  0  0
    3.8814   -4.4733    3.9113 O   0  0  0  0  0  0  0  0  0  0  0  0
    5.8751   -4.9593    2.6242 C   0  0  0  0  0  0  0  0  0  0  0  0
    5.2078   -5.6135    1.3750 C   0  0  2  0  0  0  0  0  0  0  0  0
    4.8518   -4.5667    0.2671 C   0  0  0  0  0  0  0  0  0  0  0  0
    3.5114   -4.2557   -0.1352 C   0  0  0  0  0  0  0  0  0  0  0  0
    3.2290   -3.3270   -1.1185 C   0  0  0  0  0  0  0  0  0  0  0  0
    4.2809   -2.6491   -1.7305 C   0  0  0  0  0  0  0  0  0  0  0  0
    3.9444   -1.6752   -2.6798 N   0  0  0  0  0  0  0  0  0  0  0  0
    3.0154   -1.8481   -3.6182 C   0  0  0  0  0  0  0  0  0  0  0  0
    2.9351   -0.7599   -4.3653 N   0  0  0  0  0  0  0  0  0  0  0  0
    3.8162    0.1157   -3.7688 N   0  0  0  0  0  0  0  0  0  0  0  0
    4.4390   -0.4290   -2.7619 N   0  0  0  0  0  0  0  0  0  0  0  0
    5.6236   -2.9129   -1.3871 C   0  0  0  0  0  0  0  0  0  0  0  0
    5.9064   -3.8745   -0.3864 C   0  0  0  0  0  0  0  0  0  0  0  0
    4.1143   -6.5795    1.7716 C   0  0  0  0  0  0  0  0  0  0  0  0
    2.8440   -6.1913    1.8811 N   0  0  0  0  0  0  0  0  0  0  0  0
    2.1653   -7.3639    2.1795 C   0  0  0  0  0  0  0  0  0  0  0  0
    0.7778   -7.5735    2.2948 C   0  0  0  0  0  0  0  0  0  0  0  0
    0.2586   -8.8335    2.6332 C   0  0  0  0  0  0  0  0  0  0  0  0
   -1.4514   -9.0065    2.8067 Cl  0  0  0  0  0  0  0  0  0  0  0  0
    1.1765   -9.9014    2.8557 C   0  0  0  0  0  0  0  0  0  0  0  0
    0.6518  -11.4683    3.3739 Cl  0  0  0  0  0  0  0  0  0  0  0  0
    2.5655   -9.7213    2.6761 C   0  0  0  0  0  0  0  0  0  0  0  0
    3.0692   -8.4510    2.3232 C   0  0  0  0  0  0  0  0  0  0  0  0
    4.3130   -7.8972    2.0488 N   0  0  0  0  0  0  0  0  0  0  0  0
    5.2129   -8.3557    2.0777 H   0  0  0  0  0  0  0  0  0  0  0  0
    6.7200   -4.3677    2.2786 H   0  0  0  0  0  0  0  0  0  0  0  0
    6.3154   -5.7244    3.2747 H   0  0  0  0  0  0  0  0  0  0  0  0
    5.9824   -6.2478    0.9320 H   0  0  0  0  0  0  0  0  0  0  0  0
    2.5747   -4.6416    0.2563 H   0  0  0  0  0  0  0  0  0  0  0  0
    2.1913   -3.1370   -1.3349 H   0  0  0  0  0  0  0  0  0  0  0  0
    2.4203   -2.7495   -3.7809 H   0  0  0  0  0  0  0  0  0  0  0  0
    6.4102   -2.3493   -1.8944 H   0  0  0  0  0  0  0  0  0  0  0  0
    6.9454   -4.0446   -0.1255 H   0  0  0  0  0  0  0  0  0  0  0  0
    0.1245   -6.7461    2.1120 H   0  0  0  0  0  0  0  0  0  0  0  0
    3.2561  -10.5430    2.8302 H   0  0  0  0  0  0  0  0  0  0  0  0
  1  2  2  0
  2  3  1  0
  2  4  1  0
  4  5  1  0
  4 29  1  0
  4 30  1  0
  5  6  1  0
  5 17  1  0
  5 31  1  6
  6 16  1  0
  6  7  2  0
  7  8  1  0
  7 32  1  0
  8  9  2  0
  8 33  1  0
  9 10  1  0
  9 15  1  0
 10 14  1  0
 10 11  1  0
 11 12  2  0
 11 34  1  0
 12 13  1  0
 13 14  2  0
 15 16  2  0
 15 35  1  0
 16 36  1  0
 17 27  1  0
 17 18  2  0
 18 19  1  0
 19 26  2  0
 19 20  1  0
 20 21  2  0
 20 37  1  0
 21 22  1  0
 21 23  1  0
 23 24  1  0
 23 25  2  0
 25 26  1  0
 25 38  1  0
 26 27  1  0
 27 28  1  0
M  CHG  1   3  -1
M  END
>  <i_m_ct_stereo_status>  (14) 
1

>  <s_m_source_file>  (14) 
/var/tmp/pbs.5102264.sched01/tmpu94zaw8c/01d2njlry.sdf

>  <i_m_source_file_index>  (14) 
5

>  <i_lp_mmshare_version>  (14) 
48012

>  <i_f3d_flags>  (14) 
0

>  <s_epik_input>  (14) 
W2NIXTFjKENsKWMoQ2wpW2NIXWMoYzEyKVtuSF1jKG4yKVtDQEhdKFtDSDJdQyg9TylbT0hdKWMzW2NIXVtjSF1jKFtjSF1bY0hdMyktbjRbY0hdbm5uNA==

>  <s_epik_cmdline>  (14) 
J2VwaWtfcHl0aG9uJywgJy1waHQnLCAnMi4wJywgJy1waCcsICc3LjAnLCAnLXRuJywgJzgnLCAnLW1hJywgJzIwMCcsICctaW1hZScsICc8aW5maWxlLm1hZT4nLCAnLW9tYWUnLCAnPG91dGZpbGUubWFlPic=

>  <r_lp_tautomer_probability>  (14) 
1

>  <r_epik_Ionization_Penalty>  (14) 
0.00392747

>  <r_epik_Ionization_Penalty_Charging>  (14) 
0.000488246

>  <r_epik_Ionization_Penalty_Neutral>  (14) 
0.00343923

>  <r_epik_State_Penalty>  (14) 
-0

>  <r_epik_Charging_Adjusted_Penalty>  (14) 
0.000488246

>  <i_epik_Tot_Q>  (14) 
-1

>  <i_epik_Tot_abs_Q>  (14) 
1

>  <s_lp_Force_Field>  (14) 
OPLS3e

>  <r_lp_Energy>  (14) 
26.3926

>  <b_lp_Chiralities_Consistent>  (14) 
1

>  <s_lp_Variant>  (14) 
3:0-1

>  <s_i_glide_gridfile>  (14) 
pfpi4k_grid

>  <i_i_glide_lignum>  (14) 
5

>  <i_i_glide_rotatable_bonds>  (14) 
5

>  <r_i_docking_score>  (14) 
-2.70064

>  <r_i_glide_ligand_efficiency>  (14) 
-0.100024

>  <r_i_glide_ligand_efficiency_sa>  (14) 
-0.300071

>  <r_i_glide_ligand_efficiency_ln>  (14) 
-0.628665

>  <r_i_glide_gscore>  (14) 
-2.70064

>  <r_i_glide_lipo>  (14) 
-0.495838

>  <r_i_glide_hbond>  (14) 
0

>  <r_i_glide_metal>  (14) 
-0

>  <r_i_glide_rewards>  (14) 
-1.07624

>  <r_i_glide_evdw>  (14) 
-36.5794

>  <r_i_glide_ecoul>  (14) 
1.56422

>  <r_i_glide_erotb>  (14) 
0.485155

>  <r_i_glide_esite>  (14) 
-0.0193829

>  <r_i_glide_emodel>  (14) 
-38.0773

>  <r_i_glide_energy>  (14) 
-35.0152

>  <r_i_glide_einternal>  (14) 
4.91812

>  <r_i_glide_intrahb_reward>  (14) 
-0

>  <i_i_glide_confnum>  (14) 
6

>  <i_i_glide_posenum>  (14) 
14

>  <r_i_glide_eff_state_penalty>  (14) 
0

>  <ligand_id>  (14) 
3

>  <original_smiles>  (14) 
O=C(O)CC(c1ccc(-n2cnnn2)cc1)c1nc2cc(Cl)c(Cl)cc2[nH]1

>  <smiles>  (14) 
[H]c1c([H])c(C([H])(c2nc3c([H])c(Cl)c(Cl)c([H])c3n2[H])C([H])([H])C(=O)[O-])c([H])c([H])c1-n1nnnc1[H]

$$$$
4:0:0
     RDKit          3D

 58 62  0  0  1  0  0  0  0  0999 V2000
    1.5583   -6.0096    0.7699 O   0  0  0  0  0  0  0  0  0  0  0  0
    2.2656   -5.8921    1.7683 C   0  0  0  0  0  0  0  0  0  0  0  0
    1.9404   -4.8092    2.7665 C   0  0  0  0  0  0  0  0  0  0  0  0
    1.3555   -5.1939    3.9924 C   0  0  0  0  0  0  0  0  0  0  0  0
    1.0296   -4.2337    4.9618 C   0  0  0  0  0  0  0  0  0  0  0  0
    1.2962   -2.8735    4.7219 C   0  0  0  0  0  0  0  0  0  0  0  0
    1.8925   -2.4762    3.5013 C   0  0  0  0  0  0  0  0  0  0  0  0
    2.1568   -1.1127    3.2948 C   0  0  0  0  0  0  0  0  0  0  0  0
    2.7513   -0.6860    2.0834 C   0  0  0  0  0  0  0  0  0  0  0  0
    3.0812   -1.6279    1.1004 C   0  0  0  0  0  0  0  0  0  0  0  0
    2.8210   -2.9979    1.3085 C   0  0  0  0  0  0  0  0  0  0  0  0
    2.2155   -3.4444    2.5134 C   0  0  0  0  0  0  0  0  0  0  0  0
    3.3202   -6.6813    2.0610 N   0  0  0  0  0  0  0  0  0  0  0  0
    4.2295   -6.5299    3.2261 C   0  0  0  0  0  0  0  0  0  0  0  0
    5.3134   -7.5682    2.9137 C   0  0  1  0  0  0  0  0  0  0  0  0
    6.3299   -8.2358    3.8524 C   0  0  0  0  0  0  0  0  0  0  0  0
    6.7416   -9.4730    2.9951 C   0  0  0  0  0  0  0  0  0  0  0  0
    5.7797   -9.5578    1.7780 C   0  0  0  0  0  0  0  0  0  0  0  0
    4.5841   -8.7002    2.2234 C   0  0  1  0  0  0  0  0  0  0  0  0
    3.7094   -9.5511    3.1732 C   0  0  0  0  0  0  0  0  0  0  0  0
    3.6615   -9.2567    4.3620 O   0  0  0  0  0  0  0  0  0  0  0  0
    3.0571  -10.6061    2.6574 N   0  0  0  0  0  0  0  0  0  0  0  0
    2.1029  -11.3927    3.4457 C   0  0  0  0  0  0  0  0  0  0  0  0
    0.7819  -10.6369    3.7616 C   0  0  2  0  0  0  0  0  0  0  0  0
    0.0604  -10.1248    2.4873 C   0  0  0  0  0  0  0  0  0  0  0  0
   -1.1418   -9.4416    2.8453 O   0  0  0  0  0  0  0  0  0  0  0  0
   -0.8699   -8.3263    3.6844 C   0  0  0  0  0  0  0  0  0  0  0  0
   -0.1456   -8.7981    4.9664 C   0  0  0  0  0  0  0  0  0  0  0  0
    1.0328   -9.5041    4.6031 O   0  0  0  0  0  0  0  0  0  0  0  0
    3.6895   -7.8787    1.2672 C   0  0  0  0  0  0  0  0  0  0  0  0
    1.1722   -6.2349    4.1936 H   0  0  0  0  0  0  0  0  0  0  0  0
    0.5774   -4.5384    5.8974 H   0  0  0  0  0  0  0  0  0  0  0  0
    1.0556   -2.1386    5.4690 H   0  0  0  0  0  0  0  0  0  0  0  0
    1.9013   -0.3830    4.0438 H   0  0  0  0  0  0  0  0  0  0  0  0
    2.9389    0.3627    1.9207 H   0  0  0  0  0  0  0  0  0  0  0  0
    3.5147   -1.3042    0.1628 H   0  0  0  0  0  0  0  0  0  0  0  0
    3.0773   -3.6834    0.5232 H   0  0  0  0  0  0  0  0  0  0  0  0
    4.6244   -5.4997    3.2990 H   0  0  0  0  0  0  0  0  0  0  0  0
    3.6837   -6.7661    4.1436 H   0  0  0  0  0  0  0  0  0  0  0  0
    5.9253   -7.0826    2.1515 H   0  0  0  0  0  0  0  0  0  0  0  0
    7.1871   -7.6014    4.1138 H   0  0  0  0  0  0  0  0  0  0  0  0
    5.8780   -8.5643    4.7899 H   0  0  0  0  0  0  0  0  0  0  0  0
    7.7769   -9.4115    2.6693 H   0  0  0  0  0  0  0  0  0  0  0  0
    6.6495  -10.3828    3.5795 H   0  0  0  0  0  0  0  0  0  0  0  0
    6.2370   -9.1298    0.8850 H   0  0  0  0  0  0  0  0  0  0  0  0
    5.5198  -10.5865    1.5158 H   0  0  0  0  0  0  0  0  0  0  0  0
    3.2946  -10.9755    1.7379 H   0  0  0  0  0  0  0  0  0  0  0  0
    1.8936  -12.2990    2.8947 H   0  0  0  0  0  0  0  0  0  0  0  0
    2.5741  -11.7023    4.3799 H   0  0  0  0  0  0  0  0  0  0  0  0
    0.1260  -11.3212    4.3104 H   0  0  0  0  0  0  0  0  0  0  0  0
    0.7015   -9.4543    1.9027 H   0  0  0  0  0  0  0  0  0  0  0  0
   -0.1926  -10.9690    1.8454 H   0  0  0  0  0  0  0  0  0  0  0  0
   -0.2656   -7.6067    3.1258 H   0  0  0  0  0  0  0  0  0  0  0  0
   -1.8070   -7.8291    3.9425 H   0  0  0  0  0  0  0  0  0  0  0  0
    0.1468   -7.9344    5.5658 H   0  0  0  0  0  0  0  0  0  0  0  0
   -0.7815   -9.4169    5.6057 H   0  0  0  0  0  0  0  0  0  0  0  0
    2.8163   -8.4283    0.9109 H   0  0  0  0  0  0  0  0  0  0  0  0
    4.2444   -7.5646    0.3821 H   0  0  0  0  0  0  0  0  0  0  0  0
  1  2  2  0
  2  3  1  0
  2 13  1  0
  3 12  1  0
  3  4  2  0
  4  5  1  0
  4 31  1  0
  5  6  2  0
  5 32  1  0
  6  7  1  0
  6 33  1  0
  7 12  2  0
  7  8  1  0
  8  9  2  0
  8 34  1  0
  9 10  1  0
  9 35  1  0
 10 11  2  0
 10 36  1  0
 11 12  1  0
 11 37  1  0
 13 30  1  0
 13 14  1  0
 14 15  1  0
 14 38  1  0
 14 39  1  0
 15 19  1  0
 15 16  1  0
 15 40  1  6
 16 17  1  0
 16 41  1  0
 16 42  1  0
 17 18  1  0
 17 43  1  0
 17 44  1  0
 18 19  1  0
 18 45  1  0
 18 46  1  0
 19 20  1  1
 19 30  1  0
 20 21  2  0
 20 22  1  0
 22 23  1  0
 22 47  1  0
 23 24  1  0
 23 48  1  0
 23 49  1  0
 24 29  1  0
 24 25  1  0
 24 50  1  1
 25 26  1  0
 25 51  1  0
 25 52  1  0
 26 27  1  0
 27 28  1  0
 27 53  1  0
 27 54  1  0
 28 29  1  0
 28 55  1  0
 28 56  1  0
 30 57  1  0
 30 58  1  0
M  END
>  <i_m_ct_stereo_status>  (15) 
1

>  <s_m_source_file>  (15) 
/var/tmp/pbs.5102264.sched01/tmpu94zaw8c/01d2njlry.sdf

>  <i_m_source_file_index>  (15) 
6

>  <i_lp_mmshare_version>  (15) 
48012

>  <i_f3d_flags>  (15) 
0

>  <s_epik_input>  (15) 
W2NIXTFbY0hdW2NIXVtjSF1jKGMxMiljKFtjSF1bY0hdW2NIXTIpQyg9TylOKFtDSDJdMylbQ0gyXVtDQEBIXShbQ0gyXVtDSDJdW0NIMl00KVtDQEBdMzRDKD1PKVtOSF1bQ0gyXVtDQEBIXTVbQ0gyXU9bQ0gyXVtDSDJdTzU=

>  <s_epik_cmdline>  (15) 
J2VwaWtfcHl0aG9uJywgJy1waHQnLCAnMi4wJywgJy1waCcsICc3LjAnLCAnLXRuJywgJzgnLCAnLW1hJywgJzIwMCcsICctaW1hZScsICc8aW5maWxlLm1hZT4nLCAnLW9tYWUnLCAnPG91dGZpbGUubWFlPic=

>  <r_lp_tautomer_probability>  (15) 
1

>  <r_epik_Ionization_Penalty>  (15) 
2.72847e-08

>  <r_epik_Ionization_Penalty_Charging>  (15) 
0

>  <r_epik_Ionization_Penalty_Neutral>  (15) 
2.72847e-08

>  <r_epik_State_Penalty>  (15) 
-0

>  <r_epik_Charging_Adjusted_Penalty>  (15) 
0

>  <i_epik_Tot_Q>  (15) 
0

>  <i_epik_Tot_abs_Q>  (15) 
0

>  <s_lp_Force_Field>  (15) 
OPLS3e

>  <r_lp_Energy>  (15) 
66.5545

>  <b_lp_Chiralities_Consistent>  (15) 
1

>  <s_lp_Variant>  (15) 
4:0-1

>  <s_i_glide_gridfile>  (15) 
pfpi4k_grid

>  <i_i_glide_lignum>  (15) 
6

>  <i_i_glide_rotatable_bonds>  (15) 
6

>  <r_i_docking_score>  (15) 
-2.50102

>  <r_i_glide_ligand_efficiency>  (15) 
-0.0833672

>  <r_i_glide_ligand_efficiency_sa>  (15) 
-0.259041

>  <r_i_glide_ligand_efficiency_ln>  (15) 
-0.568258

>  <r_i_glide_gscore>  (15) 
-2.50102

>  <r_i_glide_lipo>  (15) 
-0.313644

>  <r_i_glide_hbond>  (15) 
-0.282208

>  <r_i_glide_metal>  (15) 
-0

>  <r_i_glide_rewards>  (15) 
-0.651187

>  <r_i_glide_evdw>  (15) 
-26.734

>  <r_i_glide_ecoul>  (15) 
-2.76552

>  <r_i_glide_erotb>  (15) 
0.589756

>  <r_i_glide_esite>  (15) 
-0.0922051

>  <r_i_glide_emodel>  (15) 
-32.4357

>  <r_i_glide_energy>  (15) 
-29.4995

>  <r_i_glide_einternal>  (15) 
3.38366

>  <r_i_glide_intrahb_reward>  (15) 
-0

>  <i_i_glide_confnum>  (15) 
2

>  <i_i_glide_posenum>  (15) 
10

>  <r_i_glide_eff_state_penalty>  (15) 
0

>  <ligand_id>  (15) 
4

>  <original_smiles>  (15) 
O=C(c1cccc2ccccc12)N1CC2CCCC2(C(=O)NCC2COCCO2)C1

>  <smiles>  (15) 
[H]c1c([H])c([H])c2c(C(=O)N3C([H])([H])C4([H])C([H])([H])C([H])([H])C([H])([H])C4(C(=O)N([H])C([H])([H])C4([H])OC([H])([H])C([H])([H])OC4([H])[H])C3([H])[H])c([H])c([H])c([H])c2c1[H]

$$$$
4:0:1
     RDKit          3D

 58 62  0  0  1  0  0  0  0  0999 V2000
    1.6584   -6.1760    0.4884 O   0  0  0  0  0  0  0  0  0  0  0  0
    2.6010   -5.8287    1.1948 C   0  0  0  0  0  0  0  0  0  0  0  0
    2.6739   -4.4057    1.6705 C   0  0  0  0  0  0  0  0  0  0  0  0
    2.2081   -4.1172    2.9723 C   0  0  0  0  0  0  0  0  0  0  0  0
    2.2671   -2.8021    3.4733 C   0  0  0  0  0  0  0  0  0  0  0  0
    2.7928   -1.7723    2.6663 C   0  0  0  0  0  0  0  0  0  0  0  0
    3.2622   -2.0510    1.3697 C   0  0  0  0  0  0  0  0  0  0  0  0
    3.7884   -0.9983    0.5945 C   0  0  0  0  0  0  0  0  0  0  0  0
    4.2575   -1.2453   -0.7129 C   0  0  0  0  0  0  0  0  0  0  0  0
    4.2081   -2.5497   -1.2375 C   0  0  0  0  0  0  0  0  0  0  0  0
    3.6872   -3.6068   -0.4583 C   0  0  0  0  0  0  0  0  0  0  0  0
    3.2034   -3.3704    0.8522 C   0  0  0  0  0  0  0  0  0  0  0  0
    3.6146   -6.6271    1.5714 N   0  0  0  0  0  0  0  0  0  0  0  0
    4.6163   -6.3231    2.6304 C   0  0  0  0  0  0  0  0  0  0  0  0
    5.5696   -7.5164    2.4954 C   0  0  1  0  0  0  0  0  0  0  0  0
    6.5690   -8.0794    3.5154 C   0  0  0  0  0  0  0  0  0  0  0  0
    6.8152   -9.4978    2.9123 C   0  0  0  0  0  0  0  0  0  0  0  0
    5.7739   -9.7256    1.7856 C   0  0  0  0  0  0  0  0  0  0  0  0
    4.6823   -8.6864    2.1190 C   0  0  1  0  0  0  0  0  0  0  0  0
    3.7723   -9.2259    3.2555 C   0  0  0  0  0  0  0  0  0  0  0  0
    3.6625   -8.6097    4.3149 O   0  0  0  0  0  0  0  0  0  0  0  0
    3.1219  -10.3730    3.0297 N   0  0  0  0  0  0  0  0  0  0  0  0
    2.2110  -10.9294    4.0179 C   0  0  0  0  0  0  0  0  0  0  0  0
    0.7984  -10.3200    3.9114 C   0  0  2  0  0  0  0  0  0  0  0  0
    0.2254  -10.3659    2.4839 C   0  0  0  0  0  0  0  0  0  0  0  0
   -1.0975   -9.8398    2.4760 O   0  0  0  0  0  0  0  0  0  0  0  0
   -1.1165   -8.4949    2.9261 C   0  0  0  0  0  0  0  0  0  0  0  0
   -0.5380   -8.4296    4.3488 C   0  0  0  0  0  0  0  0  0  0  0  0
    0.7862   -8.9538    4.3355 O   0  0  0  0  0  0  0  0  0  0  0  0
    3.8100   -8.0008    1.0530 C   0  0  0  0  0  0  0  0  0  0  0  0
    1.8175   -4.9078    3.5915 H   0  0  0  0  0  0  0  0  0  0  0  0
    1.9132   -2.5832    4.4664 H   0  0  0  0  0  0  0  0  0  0  0  0
    2.8326   -0.7617    3.0525 H   0  0  0  0  0  0  0  0  0  0  0  0
    3.8151    0.0079    0.9842 H   0  0  0  0  0  0  0  0  0  0  0  0
    4.6371   -0.4270   -1.3054 H   0  0  0  0  0  0  0  0  0  0  0  0
    4.5559   -2.7449   -2.2404 H   0  0  0  0  0  0  0  0  0  0  0  0
    3.6624   -4.5884   -0.9018 H   0  0  0  0  0  0  0  0  0  0  0  0
    5.1090   -5.3535    2.4936 H   0  0  0  0  0  0  0  0  0  0  0  0
    4.1061   -6.3097    3.5946 H   0  0  0  0  0  0  0  0  0  0  0  0
    6.1784   -7.2641    1.6248 H   0  0  0  0  0  0  0  0  0  0  0  0
    7.4913   -7.5004    3.6125 H   0  0  0  0  0  0  0  0  0  0  0  0
    6.1339   -8.1778    4.5095 H   0  0  0  0  0  0  0  0  0  0  0  0
    7.8111   -9.5811    2.5155 H   0  0  0  0  0  0  0  0  0  0  0  0
    6.7107  -10.2679    3.6724 H   0  0  0  0  0  0  0  0  0  0  0  0
    6.2153   -9.5348    0.8063 H   0  0  0  0  0  0  0  0  0  0  0  0
    5.4312  -10.7629    1.7486 H   0  0  0  0  0  0  0  0  0  0  0  0
    3.2595  -10.8795    2.1562 H   0  0  0  0  0  0  0  0  0  0  0  0
    2.1902  -12.0075    3.8729 H   0  0  0  0  0  0  0  0  0  0  0  0
    2.5781  -10.7798    5.0317 H   0  0  0  0  0  0  0  0  0  0  0  0
    0.1687  -10.8885    4.5950 H   0  0  0  0  0  0  0  0  0  0  0  0
    0.8432   -9.8001    1.7786 H   0  0  0  0  0  0  0  0  0  0  0  0
    0.2119  -11.3954    2.1258 H   0  0  0  0  0  0  0  0  0  0  0  0
   -0.5503   -7.8610    2.2422 H   0  0  0  0  0  0  0  0  0  0  0  0
   -2.1476   -8.1393    2.9235 H   0  0  0  0  0  0  0  0  0  0  0  0
   -0.5058   -7.3967    4.6955 H   0  0  0  0  0  0  0  0  0  0  0  0
   -1.1468   -8.9893    5.0602 H   0  0  0  0  0  0  0  0  0  0  0  0
    2.8692   -8.5306    0.8866 H   0  0  0  0  0  0  0  0  0  0  0  0
    4.3199   -7.9523    0.0938 H   0  0  0  0  0  0  0  0  0  0  0  0
  1  2  2  0
  2  3  1  0
  2 13  1  0
  3 12  1  0
  3  4  2  0
  4  5  1  0
  4 31  1  0
  5  6  2  0
  5 32  1  0
  6  7  1  0
  6 33  1  0
  7 12  2  0
  7  8  1  0
  8  9  2  0
  8 34  1  0
  9 10  1  0
  9 35  1  0
 10 11  2  0
 10 36  1  0
 11 12  1  0
 11 37  1  0
 13 30  1  0
 13 14  1  0
 14 15  1  0
 14 38  1  0
 14 39  1  0
 15 19  1  0
 15 16  1  0
 15 40  1  6
 16 17  1  0
 16 41  1  0
 16 42  1  0
 17 18  1  0
 17 43  1  0
 17 44  1  0
 18 19  1  0
 18 45  1  0
 18 46  1  0
 19 20  1  1
 19 30  1  0
 20 21  2  0
 20 22  1  0
 22 23  1  0
 22 47  1  0
 23 24  1  0
 23 48  1  0
 23 49  1  0
 24 29  1  0
 24 25  1  0
 24 50  1  1
 25 26  1  0
 25 51  1  0
 25 52  1  0
 26 27  1  0
 27 28  1  0
 27 53  1  0
 27 54  1  0
 28 29  1  0
 28 55  1  0
 28 56  1  0
 30 57  1  0
 30 58  1  0
M  END
>  <i_m_ct_stereo_status>  (16) 
1

>  <s_m_source_file>  (16) 
/var/tmp/pbs.5102264.sched01/tmpu94zaw8c/01d2njlry.sdf

>  <i_m_source_file_index>  (16) 
6

>  <i_lp_mmshare_version>  (16) 
48012

>  <i_f3d_flags>  (16) 
0

>  <s_epik_input>  (16) 
W2NIXTFbY0hdW2NIXVtjSF1jKGMxMiljKFtjSF1bY0hdW2NIXTIpQyg9TylOKFtDSDJdMylbQ0gyXVtDQEBIXShbQ0gyXVtDSDJdW0NIMl00KVtDQEBdMzRDKD1PKVtOSF1bQ0gyXVtDQEBIXTVbQ0gyXU9bQ0gyXVtDSDJdTzU=

>  <s_epik_cmdline>  (16) 
J2VwaWtfcHl0aG9uJywgJy1waHQnLCAnMi4wJywgJy1waCcsICc3LjAnLCAnLXRuJywgJzgnLCAnLW1hJywgJzIwMCcsICctaW1hZScsICc8aW5maWxlLm1hZT4nLCAnLW9tYWUnLCAnPG91dGZpbGUubWFlPic=

>  <r_lp_tautomer_probability>  (16) 
1

>  <r_epik_Ionization_Penalty>  (16) 
2.72847e-08

>  <r_epik_Ionization_Penalty_Charging>  (16) 
0

>  <r_epik_Ionization_Penalty_Neutral>  (16) 
2.72847e-08

>  <r_epik_State_Penalty>  (16) 
-0

>  <r_epik_Charging_Adjusted_Penalty>  (16) 
0

>  <i_epik_Tot_Q>  (16) 
0

>  <i_epik_Tot_abs_Q>  (16) 
0

>  <s_lp_Force_Field>  (16) 
OPLS3e

>  <r_lp_Energy>  (16) 
66.5545

>  <b_lp_Chiralities_Consistent>  (16) 
1

>  <s_lp_Variant>  (16) 
4:0-1

>  <s_i_glide_gridfile>  (16) 
pfpi4k_grid

>  <i_i_glide_lignum>  (16) 
6

>  <i_i_glide_rotatable_bonds>  (16) 
6

>  <r_i_docking_score>  (16) 
-2.44546

>  <r_i_glide_ligand_efficiency>  (16) 
-0.0815152

>  <r_i_glide_ligand_efficiency_sa>  (16) 
-0.253287

>  <r_i_glide_ligand_efficiency_ln>  (16) 
-0.555634

>  <r_i_glide_gscore>  (16) 
-2.44546

>  <r_i_glide_lipo>  (16) 
-0.295637

>  <r_i_glide_hbond>  (16) 
-0.0716149

>  <r_i_glide_metal>  (16) 
-0

>  <r_i_glide_rewards>  (16) 
-0.695971

>  <r_i_glide_evdw>  (16) 
-30.3505

>  <r_i_glide_ecoul>  (16) 
-2.6265

>  <r_i_glide_erotb>  (16) 
0.589756

>  <r_i_glide_esite>  (16) 
-0.0604884

>  <r_i_glide_emodel>  (16) 
-35.6873

>  <r_i_glide_energy>  (16) 
-32.977

>  <r_i_glide_einternal>  (16) 
4.68446

>  <r_i_glide_intrahb_reward>  (16) 
-0

>  <i_i_glide_confnum>  (16) 
2

>  <i_i_glide_posenum>  (16) 
36

>  <r_i_glide_eff_state_penalty>  (16) 
0

>  <ligand_id>  (16) 
4

>  <original_smiles>  (16) 
O=C(c1cccc2ccccc12)N1CC2CCCC2(C(=O)NCC2COCCO2)C1

>  <smiles>  (16) 
[H]c1c([H])c([H])c2c(C(=O)N3C([H])([H])C4([H])C([H])([H])C([H])([H])C([H])([H])C4(C(=O)N([H])C([H])([H])C4([H])OC([H])([H])C([H])([H])OC4([H])[H])C3([H])[H])c([H])c([H])c([H])c2c1[H]

$$$$
4:0:2
     RDKit          3D

 58 62  0  0  1  0  0  0  0  0999 V2000
    1.6676   -6.2497    0.5458 O   0  0  0  0  0  0  0  0  0  0  0  0
    2.4662   -5.9965    1.4487 C   0  0  0  0  0  0  0  0  0  0  0  0
    2.3136   -4.7146    2.2140 C   0  0  0  0  0  0  0  0  0  0  0  0
    1.7046   -4.7649    3.4886 C   0  0  0  0  0  0  0  0  0  0  0  0
    1.5485   -3.5929    4.2520 C   0  0  0  0  0  0  0  0  0  0  0  0
    2.0027   -2.3632    3.7424 C   0  0  0  0  0  0  0  0  0  0  0  0
    2.6159   -2.2991    2.4755 C   0  0  0  0  0  0  0  0  0  0  0  0
    3.0665   -1.0520    1.9980 C   0  0  0  0  0  0  0  0  0  0  0  0
    3.6848   -0.9611    0.7346 C   0  0  0  0  0  0  0  0  0  0  0  0
    3.8453   -2.1148   -0.0493 C   0  0  0  0  0  0  0  0  0  0  0  0
    3.3980   -3.3638    0.4257 C   0  0  0  0  0  0  0  0  0  0  0  0
    2.7746   -3.4743    1.6968 C   0  0  0  0  0  0  0  0  0  0  0  0
    3.4857   -6.7926    1.8147 N   0  0  0  0  0  0  0  0  0  0  0  0
    4.4089   -6.5561    2.9593 C   0  0  0  0  0  0  0  0  0  0  0  0
    5.4469   -7.6721    2.7543 C   0  0  1  0  0  0  0  0  0  0  0  0
    6.4273   -8.2906    3.7672 C   0  0  0  0  0  0  0  0  0  0  0  0
    6.7858   -9.6255    3.0406 C   0  0  0  0  0  0  0  0  0  0  0  0
    5.8186   -9.7855    1.8336 C   0  0  0  0  0  0  0  0  0  0  0  0
    4.6579   -8.8394    2.1971 C   0  0  1  0  0  0  0  0  0  0  0  0
    3.7471   -9.5484    3.2254 C   0  0  0  0  0  0  0  0  0  0  0  0
    3.6655   -9.1075    4.3705 O   0  0  0  0  0  0  0  0  0  0  0  0
    3.0849  -10.6451    2.8331 N   0  0  0  0  0  0  0  0  0  0  0  0
    2.1355  -11.3192    3.7054 C   0  0  0  0  0  0  0  0  0  0  0  0
    0.8121  -10.5350    3.9090 C   0  0  2  0  0  0  0  0  0  0  0  0
    0.1221  -10.1425    2.5825 C   0  0  0  0  0  0  0  0  0  0  0  0
   -1.0837   -9.4307    2.8507 O   0  0  0  0  0  0  0  0  0  0  0  0
   -0.8291   -8.2465    3.5941 C   0  0  0  0  0  0  0  0  0  0  0  0
   -0.1484   -8.6074    4.9260 C   0  0  0  0  0  0  0  0  0  0  0  0
    1.0388   -9.3353    4.6543 O   0  0  0  0  0  0  0  0  0  0  0  0
    3.7990   -8.0833    1.1598 C   0  0  0  0  0  0  0  0  0  0  0  0
    1.3667   -5.7100    3.8856 H   0  0  0  0  0  0  0  0  0  0  0  0
    1.0840   -3.6373    5.2260 H   0  0  0  0  0  0  0  0  0  0  0  0
    1.8830   -1.4635    4.3316 H   0  0  0  0  0  0  0  0  0  0  0  0
    2.9331   -0.1580    2.5882 H   0  0  0  0  0  0  0  0  0  0  0  0
    4.0191    0.0007    0.3702 H   0  0  0  0  0  0  0  0  0  0  0  0
    4.3026   -2.0449   -1.0279 H   0  0  0  0  0  0  0  0  0  0  0  0
    3.5343   -4.2226   -0.2107 H   0  0  0  0  0  0  0  0  0  0  0  0
    4.8505   -5.5525    2.9465 H   0  0  0  0  0  0  0  0  0  0  0  0
    3.8513   -6.6697    3.8909 H   0  0  0  0  0  0  0  0  0  0  0  0
    6.0824   -7.2946    1.9538 H   0  0  0  0  0  0  0  0  0  0  0  0
    7.3041   -7.6747    3.9765 H   0  0  0  0  0  0  0  0  0  0  0  0
    5.9572   -8.5057    4.7272 H   0  0  0  0  0  0  0  0  0  0  0  0
    7.8161   -9.6312    2.7191 H   0  0  0  0  0  0  0  0  0  0  0  0
    6.6597  -10.4688    3.7138 H   0  0  0  0  0  0  0  0  0  0  0  0
    6.2920   -9.4768    0.9023 H   0  0  0  0  0  0  0  0  0  0  0  0
    5.5109  -10.8248    1.6830 H   0  0  0  0  0  0  0  0  0  0  0  0
    3.2980  -11.0732    1.9300 H   0  0  0  0  0  0  0  0  0  0  0  0
    1.9289  -12.2833    3.2548 H   0  0  0  0  0  0  0  0  0  0  0  0
    2.5958  -11.5196    4.6708 H   0  0  0  0  0  0  0  0  0  0  0  0
    0.1514  -11.1629    4.5092 H   0  0  0  0  0  0  0  0  0  0  0  0
    0.7710   -9.5247    1.9548 H   0  0  0  0  0  0  0  0  0  0  0  0
   -0.1159  -11.0408    2.0126 H   0  0  0  0  0  0  0  0  0  0  0  0
   -0.2082   -7.5678    3.0036 H   0  0  0  0  0  0  0  0  0  0  0  0
   -1.7745   -7.7370    3.7876 H   0  0  0  0  0  0  0  0  0  0  0  0
    0.1244   -7.6976    5.4638 H   0  0  0  0  0  0  0  0  0  0  0  0
   -0.7938   -9.1943    5.5814 H   0  0  0  0  0  0  0  0  0  0  0  0
    2.8976   -8.6378    0.8877 H   0  0  0  0  0  0  0  0  0  0  0  0
    4.3541   -7.9007    0.2411 H   0  0  0  0  0  0  0  0  0  0  0  0
  1  2  2  0
  2  3  1  0
  2 13  1  0
  3 12  1  0
  3  4  2  0
  4  5  1  0
  4 31  1  0
  5  6  2  0
  5 32  1  0
  6  7  1  0
  6 33  1  0
  7 12  2  0
  7  8  1  0
  8  9  2  0
  8 34  1  0
  9 10  1  0
  9 35  1  0
 10 11  2  0
 10 36  1  0
 11 12  1  0
 11 37  1  0
 13 30  1  0
 13 14  1  0
 14 15  1  0
 14 38  1  0
 14 39  1  0
 15 19  1  0
 15 16  1  0
 15 40  1  6
 16 17  1  0
 16 41  1  0
 16 42  1  0
 17 18  1  0
 17 43  1  0
 17 44  1  0
 18 19  1  0
 18 45  1  0
 18 46  1  0
 19 20  1  1
 19 30  1  0
 20 21  2  0
 20 22  1  0
 22 23  1  0
 22 47  1  0
 23 24  1  0
 23 48  1  0
 23 49  1  0
 24 29  1  0
 24 25  1  0
 24 50  1  1
 25 26  1  0
 25 51  1  0
 25 52  1  0
 26 27  1  0
 27 28  1  0
 27 53  1  0
 27 54  1  0
 28 29  1  0
 28 55  1  0
 28 56  1  0
 30 57  1  0
 30 58  1  0
M  END
>  <i_m_ct_stereo_status>  (17) 
1

>  <s_m_source_file>  (17) 
/var/tmp/pbs.5102264.sched01/tmpu94zaw8c/01d2njlry.sdf

>  <i_m_source_file_index>  (17) 
6

>  <i_lp_mmshare_version>  (17) 
48012

>  <i_f3d_flags>  (17) 
0

>  <s_epik_input>  (17) 
W2NIXTFbY0hdW2NIXVtjSF1jKGMxMiljKFtjSF1bY0hdW2NIXTIpQyg9TylOKFtDSDJdMylbQ0gyXVtDQEBIXShbQ0gyXVtDSDJdW0NIMl00KVtDQEBdMzRDKD1PKVtOSF1bQ0gyXVtDQEBIXTVbQ0gyXU9bQ0gyXVtDSDJdTzU=

>  <s_epik_cmdline>  (17) 
J2VwaWtfcHl0aG9uJywgJy1waHQnLCAnMi4wJywgJy1waCcsICc3LjAnLCAnLXRuJywgJzgnLCAnLW1hJywgJzIwMCcsICctaW1hZScsICc8aW5maWxlLm1hZT4nLCAnLW9tYWUnLCAnPG91dGZpbGUubWFlPic=

>  <r_lp_tautomer_probability>  (17) 
1

>  <r_epik_Ionization_Penalty>  (17) 
2.72847e-08

>  <r_epik_Ionization_Penalty_Charging>  (17) 
0

>  <r_epik_Ionization_Penalty_Neutral>  (17) 
2.72847e-08

>  <r_epik_State_Penalty>  (17) 
-0

>  <r_epik_Charging_Adjusted_Penalty>  (17) 
0

>  <i_epik_Tot_Q>  (17) 
0

>  <i_epik_Tot_abs_Q>  (17) 
0

>  <s_lp_Force_Field>  (17) 
OPLS3e

>  <r_lp_Energy>  (17) 
66.5545

>  <b_lp_Chiralities_Consistent>  (17) 
1

>  <s_lp_Variant>  (17) 
4:0-1

>  <s_i_glide_gridfile>  (17) 
pfpi4k_grid

>  <i_i_glide_lignum>  (17) 
6

>  <i_i_glide_rotatable_bonds>  (17) 
6

>  <r_i_docking_score>  (17) 
-2.35311

>  <r_i_glide_ligand_efficiency>  (17) 
-0.078437

>  <r_i_glide_ligand_efficiency_sa>  (17) 
-0.243722

>  <r_i_glide_ligand_efficiency_ln>  (17) 
-0.534653

>  <r_i_glide_gscore>  (17) 
-2.35311

>  <r_i_glide_lipo>  (17) 
-0.224793

>  <r_i_glide_hbond>  (17) 
-0.16698

>  <r_i_glide_metal>  (17) 
-0

>  <r_i_glide_rewards>  (17) 
-0.675578

>  <r_i_glide_evdw>  (17) 
-28.7188

>  <r_i_glide_ecoul>  (17) 
-2.40029

>  <r_i_glide_erotb>  (17) 
0.589756

>  <r_i_glide_esite>  (17) 
-0.079531

>  <r_i_glide_emodel>  (17) 
-33.8674

>  <r_i_glide_energy>  (17) 
-31.1191

>  <r_i_glide_einternal>  (17) 
3.59055

>  <r_i_glide_intrahb_reward>  (17) 
-0

>  <i_i_glide_confnum>  (17) 
2

>  <i_i_glide_posenum>  (17) 
1

>  <r_i_glide_eff_state_penalty>  (17) 
0

>  <ligand_id>  (17) 
4

>  <original_smiles>  (17) 
O=C(c1cccc2ccccc12)N1CC2CCCC2(C(=O)NCC2COCCO2)C1

>  <smiles>  (17) 
[H]c1c([H])c([H])c2c(C(=O)N3C([H])([H])C4([H])C([H])([H])C([H])([H])C([H])([H])C4(C(=O)N([H])C([H])([H])C4([H])OC([H])([H])C([H])([H])OC4([H])[H])C3([H])[H])c([H])c([H])c([H])c2c1[H]

$$$$
5:0:0
     RDKit          3D

 28 28  0  0  1  0  0  0  0  0999 V2000
   -3.1082    2.9576   10.5045 C   0  0  0  0  0  0  0  0  0  0  0  0
   -2.9366    3.3813    9.0466 C   0  0  0  0  0  0  0  0  0  0  0  0
   -1.7053    2.8695    8.5464 O   0  0  0  0  0  0  0  0  0  0  0  0
   -1.3190    3.3854    7.3510 C   0  0  0  0  0  0  0  0  0  0  0  0
   -1.1692    2.7831    6.1323 C   0  0  0  0  0  0  0  0  0  0  0  0
   -1.4212    1.3548    5.8189 C   0  0  0  0  0  0  0  0  0  0  0  0
   -1.9371    0.5583    6.6046 O   0  0  0  0  0  0  0  0  0  0  0  0
   -1.0194    1.0466    4.5805 O   0  0  0  0  0  0  0  0  0  0  0  0
   -1.1598   -0.2589    4.0670 C   0  0  0  0  0  0  0  0  0  0  0  0
   -0.7263    3.8265    5.2539 C   0  0  0  0  0  0  0  0  0  0  0  0
   -0.4158    3.8476    3.7800 C   0  0  0  0  0  0  0  0  0  0  0  0
   -0.5845    4.9595    5.9258 N   0  0  0  0  0  0  0  0  0  0  0  0
   -0.9160    4.6966    7.2088 N   0  0  0  0  0  0  0  0  0  0  0  0
   -0.8324    5.7707    8.1874 C   0  0  0  0  0  0  0  0  0  0  0  0
   -4.0500    3.3267   10.9113 H   0  0  0  0  0  0  0  0  0  0  0  0
   -2.3131    3.3531   11.1410 H   0  0  0  0  0  0  0  0  0  0  0  0
   -3.0906    1.8729   10.6126 H   0  0  0  0  0  0  0  0  0  0  0  0
   -3.7499    2.9979    8.4321 H   0  0  0  0  0  0  0  0  0  0  0  0
   -2.9934    4.4680    9.0051 H   0  0  0  0  0  0  0  0  0  0  0  0
   -0.8208   -0.2354    3.0327 H   0  0  0  0  0  0  0  0  0  0  0  0
   -2.1972   -0.5966    4.0787 H   0  0  0  0  0  0  0  0  0  0  0  0
   -0.5377   -0.9693    4.6125 H   0  0  0  0  0  0  0  0  0  0  0  0
   -0.8956    3.0441    3.2224 H   0  0  0  0  0  0  0  0  0  0  0  0
    0.6598    3.7738    3.6096 H   0  0  0  0  0  0  0  0  0  0  0  0
   -0.7620    4.7730    3.3151 H   0  0  0  0  0  0  0  0  0  0  0  0
   -0.7722    5.3693    9.2022 H   0  0  0  0  0  0  0  0  0  0  0  0
   -1.7152    6.4066    8.1131 H   0  0  0  0  0  0  0  0  0  0  0  0
    0.0505    6.3804    8.0057 H   0  0  0  0  0  0  0  0  0  0  0  0
  1  2  1  0
  1 15  1  0
  1 16  1  0
  1 17  1  0
  2  3  1  0
  2 18  1  0
  2 19  1  0
  3  4  1  0
  4 13  1  0
  4  5  2  0
  5  6  1  0
  5 10  1  0
  6  7  2  0
  6  8  1  0
  8  9  1  0
  9 20  1  0
  9 21  1  0
  9 22  1  0
 10 11  1  0
 10 12  2  0
 11 23  1  0
 11 24  1  0
 11 25  1  0
 12 13  1  0
 13 14  1  0
 14 26  1  0
 14 27  1  0
 14 28  1  0
M  END
>  <i_m_ct_stereo_status>  (18) 
1

>  <s_m_source_file>  (18) 
/var/tmp/pbs.5102264.sched01/tmpu94zaw8c/01d2njlry.sdf

>  <i_m_source_file_index>  (18) 
7

>  <i_lp_mmshare_version>  (18) 
48012

>  <i_f3d_flags>  (18) 
0

>  <s_epik_input>  (18) 
W0NIM11bQ0gyXU9jMWMoQyg9TylPW0NIM10pYyhbQ0gzXSlubjFbQ0gzXQ==

>  <s_epik_cmdline>  (18) 
J2VwaWtfcHl0aG9uJywgJy1waHQnLCAnMi4wJywgJy1waCcsICc3LjAnLCAnLXRuJywgJzgnLCAnLW1hJywgJzIwMCcsICctaW1hZScsICc8aW5maWxlLm1hZT4nLCAnLW9tYWUnLCAnPG91dGZpbGUubWFlPic=

>  <r_lp_tautomer_probability>  (18) 
1

>  <r_epik_Ionization_Penalty>  (18) 
4.17506e-05

>  <r_epik_Ionization_Penalty_Charging>  (18) 
0

>  <r_epik_Ionization_Penalty_Neutral>  (18) 
4.17506e-05

>  <r_epik_State_Penalty>  (18) 
-0

>  <r_epik_Charging_Adjusted_Penalty>  (18) 
0

>  <i_epik_Tot_Q>  (18) 
0

>  <i_epik_Tot_abs_Q>  (18) 
0

>  <s_epik_Chemistry_Notes>  (18) 
This compound has an ester and may undergo hydrolysis at high or low pH.

>  <s_lp_Force_Field>  (18) 
OPLS3e

>  <r_lp_Energy>  (18) 
7.72026

>  <b_lp_Chiralities_Consistent>  (18) 
1

>  <s_lp_Variant>  (18) 
5:0-1

>  <s_i_glide_gridfile>  (18) 
pfpi4k_grid

>  <i_i_glide_lignum>  (18) 
7

>  <i_i_glide_rotatable_bonds>  (18) 
4

>  <r_i_docking_score>  (18) 
-2.89119

>  <r_i_glide_ligand_efficiency>  (18) 
-0.206514

>  <r_i_glide_ligand_efficiency_sa>  (18) 
-0.497728

>  <r_i_glide_ligand_efficiency_ln>  (18) 
-0.79449

>  <r_i_glide_gscore>  (18) 
-2.89119

>  <r_i_glide_lipo>  (18) 
-0.0370971

>  <r_i_glide_hbond>  (18) 
-0.16

>  <r_i_glide_metal>  (18) 
-0

>  <r_i_glide_rewards>  (18) 
-2.0576

>  <r_i_glide_evdw>  (18) 
-13.5225

>  <r_i_glide_ecoul>  (18) 
-5.04895

>  <r_i_glide_erotb>  (18) 
0.828925

>  <r_i_glide_esite>  (18) 
-0.0319573

>  <r_i_glide_emodel>  (18) 
-21.9728

>  <r_i_glide_energy>  (18) 
-18.5714

>  <r_i_glide_einternal>  (18) 
0.886497

>  <r_i_glide_intrahb_reward>  (18) 
-0

>  <i_i_glide_confnum>  (18) 
2

>  <i_i_glide_posenum>  (18) 
32

>  <r_i_glide_eff_state_penalty>  (18) 
0

>  <ligand_id>  (18) 
5

>  <original_smiles>  (18) 
CCOc1c(C(=O)OC)c(C)nn1C

>  <smiles>  (18) 
[H]C([H])([H])OC(=O)c1c(C([H])([H])[H])nn(C([H])([H])[H])c1OC([H])([H])C([H])([H])[H]

$$$$
5:0:1
     RDKit          3D

 28 28  0  0  1  0  0  0  0  0999 V2000
    1.3690    0.7941    2.5340 C   0  0  0  0  0  0  0  0  0  0  0  0
    0.2296    1.7238    2.1078 C   0  0  0  0  0  0  0  0  0  0  0  0
   -1.0224    1.2557    2.5996 O   0  0  0  0  0  0  0  0  0  0  0  0
   -1.3448    1.7017    3.8373 C   0  0  0  0  0  0  0  0  0  0  0  0
   -1.3292    1.0698    5.0484 C   0  0  0  0  0  0  0  0  0  0  0  0
   -0.9121   -0.3268    5.3408 C   0  0  0  0  0  0  0  0  0  0  0  0
   -0.9786   -0.8404    6.4571 O   0  0  0  0  0  0  0  0  0  0  0  0
   -0.4427   -0.9632    4.2591 O   0  0  0  0  0  0  0  0  0  0  0  0
    0.1300   -2.2553    4.3749 C   0  0  0  0  0  0  0  0  0  0  0  0
   -1.7791    2.0665    5.9696 C   0  0  0  0  0  0  0  0  0  0  0  0
   -1.9360    2.0178    7.4590 C   0  0  0  0  0  0  0  0  0  0  0  0
   -2.0841    3.2030    5.3507 N   0  0  0  0  0  0  0  0  0  0  0  0
   -1.8278    2.9797    4.0399 N   0  0  0  0  0  0  0  0  0  0  0  0
   -2.0592    4.0309    3.0718 C   0  0  0  0  0  0  0  0  0  0  0  0
    2.3300    1.1413    2.1539 H   0  0  0  0  0  0  0  0  0  0  0  0
    1.2048   -0.2144    2.1530 H   0  0  0  0  0  0  0  0  0  0  0  0
    1.4511    0.7455    3.6193 H   0  0  0  0  0  0  0  0  0  0  0  0
    0.4493    2.7384    2.4468 H   0  0  0  0  0  0  0  0  0  0  0  0
    0.1661    1.7430    1.0224 H   0  0  0  0  0  0  0  0  0  0  0  0
    0.4675   -2.5822    3.3925 H   0  0  0  0  0  0  0  0  0  0  0  0
   -0.5934   -2.9813    4.7458 H   0  0  0  0  0  0  0  0  0  0  0  0
    0.9943   -2.2509    5.0408 H   0  0  0  0  0  0  0  0  0  0  0  0
   -1.3500    1.2200    7.9114 H   0  0  0  0  0  0  0  0  0  0  0  0
   -2.9795    1.8711    7.7302 H   0  0  0  0  0  0  0  0  0  0  0  0
   -1.6047    2.9479    7.9205 H   0  0  0  0  0  0  0  0  0  0  0  0
   -2.1421    3.5965    2.0787 H   0  0  0  0  0  0  0  0  0  0  0  0
   -1.2205    4.7345    3.0798 H   0  0  0  0  0  0  0  0  0  0  0  0
   -2.9860    4.5490    3.2959 H   0  0  0  0  0  0  0  0  0  0  0  0
  1  2  1  0
  1 15  1  0
  1 16  1  0
  1 17  1  0
  2  3  1  0
  2 18  1  0
  2 19  1  0
  3  4  1  0
  4 13  1  0
  4  5  2  0
  5  6  1  0
  5 10  1  0
  6  7  2  0
  6  8  1  0
  8  9  1  0
  9 20  1  0
  9 21  1  0
  9 22  1  0
 10 11  1  0
 10 12  2  0
 11 23  1  0
 11 24  1  0
 11 25  1  0
 12 13  1  0
 13 14  1  0
 14 26  1  0
 14 27  1  0
 14 28  1  0
M  END
>  <i_m_ct_stereo_status>  (19) 
1

>  <s_m_source_file>  (19) 
/var/tmp/pbs.5102264.sched01/tmpu94zaw8c/01d2njlry.sdf

>  <i_m_source_file_index>  (19) 
7

>  <i_lp_mmshare_version>  (19) 
48012

>  <i_f3d_flags>  (19) 
0

>  <s_epik_input>  (19) 
W0NIM11bQ0gyXU9jMWMoQyg9TylPW0NIM10pYyhbQ0gzXSlubjFbQ0gzXQ==

>  <s_epik_cmdline>  (19) 
J2VwaWtfcHl0aG9uJywgJy1waHQnLCAnMi4wJywgJy1waCcsICc3LjAnLCAnLXRuJywgJzgnLCAnLW1hJywgJzIwMCcsICctaW1hZScsICc8aW5maWxlLm1hZT4nLCAnLW9tYWUnLCAnPG91dGZpbGUubWFlPic=

>  <r_lp_tautomer_probability>  (19) 
1

>  <r_epik_Ionization_Penalty>  (19) 
4.17506e-05

>  <r_epik_Ionization_Penalty_Charging>  (19) 
0

>  <r_epik_Ionization_Penalty_Neutral>  (19) 
4.17506e-05

>  <r_epik_State_Penalty>  (19) 
-0

>  <r_epik_Charging_Adjusted_Penalty>  (19) 
0

>  <i_epik_Tot_Q>  (19) 
0

>  <i_epik_Tot_abs_Q>  (19) 
0

>  <s_epik_Chemistry_Notes>  (19) 
This compound has an ester and may undergo hydrolysis at high or low pH.

>  <s_lp_Force_Field>  (19) 
OPLS3e

>  <r_lp_Energy>  (19) 
7.72026

>  <b_lp_Chiralities_Consistent>  (19) 
1

>  <s_lp_Variant>  (19) 
5:0-1

>  <s_i_glide_gridfile>  (19) 
pfpi4k_grid

>  <i_i_glide_lignum>  (19) 
7

>  <i_i_glide_rotatable_bonds>  (19) 
4

>  <r_i_docking_score>  (19) 
-2.70151

>  <r_i_glide_ligand_efficiency>  (19) 
-0.192965

>  <r_i_glide_ligand_efficiency_sa>  (19) 
-0.465074

>  <r_i_glide_ligand_efficiency_ln>  (19) 
-0.742366

>  <r_i_glide_gscore>  (19) 
-2.70151

>  <r_i_glide_lipo>  (19) 
-0.0755555

>  <r_i_glide_hbond>  (19) 
-0.0565812

>  <r_i_glide_metal>  (19) 
-0

>  <r_i_glide_rewards>  (19) 
-2.0576

>  <r_i_glide_evdw>  (19) 
-17.6545

>  <r_i_glide_ecoul>  (19) 
-2.58857

>  <r_i_glide_erotb>  (19) 
0.828925

>  <r_i_glide_esite>  (19) 
-0.06969

>  <r_i_glide_emodel>  (19) 
-23.6493

>  <r_i_glide_energy>  (19) 
-20.2431

>  <r_i_glide_einternal>  (19) 
0.638779

>  <r_i_glide_intrahb_reward>  (19) 
-0

>  <i_i_glide_confnum>  (19) 
4

>  <i_i_glide_posenum>  (19) 
11

>  <r_i_glide_eff_state_penalty>  (19) 
0

>  <ligand_id>  (19) 
5

>  <original_smiles>  (19) 
CCOc1c(C(=O)OC)c(C)nn1C

>  <smiles>  (19) 
[H]C([H])([H])OC(=O)c1c(C([H])([H])[H])nn(C([H])([H])[H])c1OC([H])([H])C([H])([H])[H]

$$$$
5:0:2
     RDKit          3D

 28 28  0  0  1  0  0  0  0  0999 V2000
   -2.8031    2.5590    8.6085 C   0  0  0  0  0  0  0  0  0  0  0  0
   -2.7087    2.1193    7.1458 C   0  0  0  0  0  0  0  0  0  0  0  0
   -1.3819    1.6891    6.8690 O   0  0  0  0  0  0  0  0  0  0  0  0
   -1.0252    1.7207    5.5600 C   0  0  0  0  0  0  0  0  0  0  0  0
   -0.6239    0.7185    4.7183 C   0  0  0  0  0  0  0  0  0  0  0  0
   -0.4886   -0.7213    5.0512 C   0  0  0  0  0  0  0  0  0  0  0  0
   -0.9875   -1.2420    6.0509 O   0  0  0  0  0  0  0  0  0  0  0  0
    0.2447   -1.3758    4.1386 O   0  0  0  0  0  0  0  0  0  0  0  0
    0.5231   -2.7545    4.2737 C   0  0  0  0  0  0  0  0  0  0  0  0
   -0.3508    1.3701    3.4729 C   0  0  0  0  0  0  0  0  0  0  0  0
    0.0826    0.8506    2.1287 C   0  0  0  0  0  0  0  0  0  0  0  0
   -0.5313    2.6757    3.5858 N   0  0  0  0  0  0  0  0  0  0  0  0
   -0.9119    2.9022    4.8554 N   0  0  0  0  0  0  0  0  0  0  0  0
   -1.1571    4.2699    5.2672 C   0  0  0  0  0  0  0  0  0  0  0  0
   -3.8115    2.9067    8.8319 H   0  0  0  0  0  0  0  0  0  0  0  0
   -2.1248    3.3861    8.8328 H   0  0  0  0  0  0  0  0  0  0  0  0
   -2.5687    1.7494    9.2930 H   0  0  0  0  0  0  0  0  0  0  0  0
   -3.3768    1.2839    6.9446 H   0  0  0  0  0  0  0  0  0  0  0  0
   -3.0374    2.9490    6.5211 H   0  0  0  0  0  0  0  0  0  0  0  0
    1.0738   -3.0751    3.3911 H   0  0  0  0  0  0  0  0  0  0  0  0
   -0.3895   -3.3460    4.3342 H   0  0  0  0  0  0  0  0  0  0  0  0
    1.1383   -2.9525    5.1517 H   0  0  0  0  0  0  0  0  0  0  0  0
   -0.1308   -0.2068    2.0076 H   0  0  0  0  0  0  0  0  0  0  0  0
    1.1525    0.9907    1.9762 H   0  0  0  0  0  0  0  0  0  0  0  0
   -0.4333    1.3676    1.3170 H   0  0  0  0  0  0  0  0  0  0  0  0
   -1.0940    4.3719    6.3522 H   0  0  0  0  0  0  0  0  0  0  0  0
   -2.1557    4.5448    4.9326 H   0  0  0  0  0  0  0  0  0  0  0  0
   -0.4297    4.9416    4.8143 H   0  0  0  0  0  0  0  0  0  0  0  0
  1  2  1  0
  1 15  1  0
  1 16  1  0
  1 17  1  0
  2  3  1  0
  2 18  1  0
  2 19  1  0
  3  4  1  0
  4 13  1  0
  4  5  2  0
  5  6  1  0
  5 10  1  0
  6  7  2  0
  6  8  1  0
  8  9  1  0
  9 20  1  0
  9 21  1  0
  9 22  1  0
 10 11  1  0
 10 12  2  0
 11 23  1  0
 11 24  1  0
 11 25  1  0
 12 13  1  0
 13 14  1  0
 14 26  1  0
 14 27  1  0
 14 28  1  0
M  END
>  <i_m_ct_stereo_status>  (20) 
1

>  <s_m_source_file>  (20) 
/var/tmp/pbs.5102264.sched01/tmpu94zaw8c/01d2njlry.sdf

>  <i_m_source_file_index>  (20) 
7

>  <i_lp_mmshare_version>  (20) 
48012

>  <i_f3d_flags>  (20) 
0

>  <s_epik_input>  (20) 
W0NIM11bQ0gyXU9jMWMoQyg9TylPW0NIM10pYyhbQ0gzXSlubjFbQ0gzXQ==

>  <s_epik_cmdline>  (20) 
J2VwaWtfcHl0aG9uJywgJy1waHQnLCAnMi4wJywgJy1waCcsICc3LjAnLCAnLXRuJywgJzgnLCAnLW1hJywgJzIwMCcsICctaW1hZScsICc8aW5maWxlLm1hZT4nLCAnLW9tYWUnLCAnPG91dGZpbGUubWFlPic=

>  <r_lp_tautomer_probability>  (20) 
1

>  <r_epik_Ionization_Penalty>  (20) 
4.17506e-05

>  <r_epik_Ionization_Penalty_Charging>  (20) 
0

>  <r_epik_Ionization_Penalty_Neutral>  (20) 
4.17506e-05

>  <r_epik_State_Penalty>  (20) 
-0

>  <r_epik_Charging_Adjusted_Penalty>  (20) 
0

>  <i_epik_Tot_Q>  (20) 
0

>  <i_epik_Tot_abs_Q>  (20) 
0

>  <s_epik_Chemistry_Notes>  (20) 
This compound has an ester and may undergo hydrolysis at high or low pH.

>  <s_lp_Force_Field>  (20) 
OPLS3e

>  <r_lp_Energy>  (20) 
7.72026

>  <b_lp_Chiralities_Consistent>  (20) 
1

>  <s_lp_Variant>  (20) 
5:0-1

>  <s_i_glide_gridfile>  (20) 
pfpi4k_grid

>  <i_i_glide_lignum>  (20) 
7

>  <i_i_glide_rotatable_bonds>  (20) 
4

>  <r_i_docking_score>  (20) 
-2.29751

>  <r_i_glide_ligand_efficiency>  (20) 
-0.164108

>  <r_i_glide_ligand_efficiency_sa>  (20) 
-0.395524

>  <r_i_glide_ligand_efficiency_ln>  (20) 
-0.631349

>  <r_i_glide_gscore>  (20) 
-2.29751

>  <r_i_glide_lipo>  (20) 
-0.0711939

>  <r_i_glide_hbond>  (20) 
0

>  <r_i_glide_metal>  (20) 
-0

>  <r_i_glide_rewards>  (20) 
-2.0576

>  <r_i_glide_evdw>  (20) 
-15.9576

>  <r_i_glide_ecoul>  (20) 
-1.06101

>  <r_i_glide_erotb>  (20) 
0.828925

>  <r_i_glide_esite>  (20) 
-0.0406184

>  <r_i_glide_emodel>  (20) 
-19.2391

>  <r_i_glide_energy>  (20) 
-17.0186

>  <r_i_glide_einternal>  (20) 
1.53902

>  <r_i_glide_intrahb_reward>  (20) 
-0

>  <i_i_glide_confnum>  (20) 
2

>  <i_i_glide_posenum>  (20) 
29

>  <r_i_glide_eff_state_penalty>  (20) 
0

>  <ligand_id>  (20) 
5

>  <original_smiles>  (20) 
CCOc1c(C(=O)OC)c(C)nn1C

>  <smiles>  (20) 
[H]C([H])([H])OC(=O)c1c(C([H])([H])[H])nn(C([H])([H])[H])c1OC([H])([H])C([H])([H])[H]

$$$$
6:0:0
     RDKit          3D

 48 52  0  0  1  0  0  0  0  0999 V2000
    3.3031    0.2737   -5.4931 C   0  0  0  0  0  0  0  0  0  0  0  0
    3.6532   -0.5780   -4.3651 N   0  0  0  0  0  0  0  0  0  0  0  0
    3.7373   -0.2580   -3.0421 C   0  0  0  0  0  0  0  0  0  0  0  0
    4.1155   -1.3798   -2.3725 C   0  0  0  0  0  0  0  0  0  0  0  0
    4.3151   -1.5400   -0.9414 C   0  0  0  0  0  0  0  0  0  0  0  0
    5.1658   -2.3384   -0.2200 C   0  0  0  0  0  0  0  0  0  0  0  0
    4.8653   -2.0266    1.1276 C   0  0  0  0  0  0  0  0  0  0  0  0
    5.3986   -2.5085    2.2555 N   0  0  0  0  0  0  0  0  0  0  0  0
    4.8687   -1.9932    3.3681 C   0  0  0  0  0  0  0  0  0  0  0  0
    3.8885   -1.0837    3.4954 N   0  0  0  0  0  0  0  0  0  0  0  0
    3.3454   -0.5957    2.3571 C   0  0  0  0  0  0  0  0  0  0  0  0
    2.3041    0.3335    2.3286 N   0  0  0  0  0  0  0  0  0  0  0  0
    1.7022    1.1055    3.3291 C   0  0  0  0  0  0  0  0  0  0  0  0
    2.1327    1.1369    4.6699 C   0  0  0  0  0  0  0  0  0  0  0  0
    1.4850    1.9461    5.6171 C   0  0  0  0  0  0  0  0  0  0  0  0
    0.3936    2.7676    5.2274 C   0  0  0  0  0  0  0  0  0  0  0  0
   -0.2865    3.6068    6.0802 O   0  0  0  0  0  0  0  0  0  0  0  0
    0.1723    3.8626    7.4104 C   0  0  0  0  0  0  0  0  0  0  0  0
   -0.9314    3.6783    8.4370 C   0  0  0  0  0  0  0  0  0  0  0  0
   -0.5916    3.4129    9.7757 C   0  0  0  0  0  0  0  0  0  0  0  0
   -1.6241    3.2210   10.7152 C   0  0  0  0  0  0  0  0  0  0  0  0
   -2.9571    3.3092   10.2667 C   0  0  0  0  0  0  0  0  0  0  0  0
   -3.1981    3.5797    8.9087 C   0  0  0  0  0  0  0  0  0  0  0  0
   -2.2122    3.7641    8.0065 N   0  0  0  0  0  0  0  0  0  0  0  0
   -0.0478    2.7209    3.8900 C   0  0  0  0  0  0  0  0  0  0  0  0
   -1.4277    3.6599    3.3986 Cl  0  0  0  0  0  0  0  0  0  0  0  0
    0.6036    1.9096    2.9417 C   0  0  0  0  0  0  0  0  0  0  0  0
    3.8455   -1.0696    1.1529 C   0  0  0  0  0  0  0  0  0  0  0  0
    3.5166   -0.7571   -0.1395 O   0  0  0  0  0  0  0  0  0  0  0  0
    4.2616   -2.3806   -3.3701 C   0  0  0  0  0  0  0  0  0  0  0  0
    3.9562   -1.8790   -4.5561 N   0  0  0  0  0  0  0  0  0  0  0  0
    2.8165    1.1856   -5.1439 H   0  0  0  0  0  0  0  0  0  0  0  0
    2.6265   -0.2486   -6.1640 H   0  0  0  0  0  0  0  0  0  0  0  0
    4.1947    0.5762   -6.0302 H   0  0  0  0  0  0  0  0  0  0  0  0
    3.5134    0.7319   -2.7245 H   0  0  0  0  0  0  0  0  0  0  0  0
    5.9148   -3.0567   -0.5369 H   0  0  0  0  0  0  0  0  0  0  0  0
    5.2871   -2.3577    4.2936 H   0  0  0  0  0  0  0  0  0  0  0  0
    2.9736    0.5597    5.0191 H   0  0  0  0  0  0  0  0  0  0  0  0
    1.8656    1.8946    6.6186 H   0  0  0  0  0  0  0  0  0  0  0  0
    1.0035    3.2657    7.7490 H   0  0  0  0  0  0  0  0  0  0  0  0
    0.4937    4.9014    7.4350 H   0  0  0  0  0  0  0  0  0  0  0  0
    0.4401    3.3395   10.0838 H   0  0  0  0  0  0  0  0  0  0  0  0
   -1.3983    3.0040   11.7516 H   0  0  0  0  0  0  0  0  0  0  0  0
   -3.7693    3.1613   10.9581 H   0  0  0  0  0  0  0  0  0  0  0  0
   -4.2043    3.6450    8.5215 H   0  0  0  0  0  0  0  0  0  0  0  0
    0.2650    1.9121    1.9104 H   0  0  0  0  0  0  0  0  0  0  0  0
    4.5700   -3.4079   -3.2780 H   0  0  0  0  0  0  0  0  0  0  0  0
    1.9614    0.4762    1.3904 H   0  0  0  0  0  0  0  0  0  0  0  0
  1  2  1  0
  1 32  1  0
  1 33  1  0
  1 34  1  0
  2 31  1  0
  2  3  1  0
  3  4  2  0
  3 35  1  0
  4  5  1  0
  4 30  1  0
  5 29  1  0
  5  6  2  0
  6  7  1  0
  6 36  1  0
  7 28  2  0
  7  8  1  0
  8  9  2  0
  9 10  1  0
  9 37  1  0
 10 11  2  0
 11 12  1  0
 11 28  1  0
 12 13  1  0
 12 48  1  0
 13 27  1  0
 13 14  2  0
 14 15  1  0
 14 38  1  0
 15 16  2  0
 15 39  1  0
 16 17  1  0
 16 25  1  0
 17 18  1  0
 18 19  1  0
 18 40  1  0
 18 41  1  0
 19 24  1  0
 19 20  2  0
 20 21  1  0
 20 42  1  0
 21 22  2  0
 21 43  1  0
 22 23  1  0
 22 44  1  0
 23 24  2  0
 23 45  1  0
 25 26  1  0
 25 27  2  0
 27 46  1  0
 28 29  1  0
 30 31  2  0
 30 47  1  0
M  END
>  <i_m_ct_stereo_status>  (21) 
1

>  <s_m_source_file>  (21) 
/var/tmp/pbs.5102264.sched01/tmpu94zaw8c/01d2njlry.sdf

>  <i_m_source_file_index>  (21) 
8

>  <i_lp_mmshare_version>  (21) 
48012

>  <i_f3d_flags>  (21) 
0

>  <s_epik_input>  (21) 
W0NIM11uMVtjSF1jKFtjSF1uMSktYyhbY0hdMilvYyhjMjMpYyhcbltjSF1bbkhdMyk9TlxjNFtjSF1bY0hdYyhjKENsKVtjSF00KU9bQ0gyXWM1W2NIXVtjSF1bY0hdW2NIXW41

>  <s_epik_cmdline>  (21) 
J2VwaWtfcHl0aG9uJywgJy1waHQnLCAnMi4wJywgJy1waCcsICc3LjAnLCAnLXRuJywgJzgnLCAnLW1hJywgJzIwMCcsICctaW1hZScsICc8aW5maWxlLm1hZT4nLCAnLW9tYWUnLCAnPG91dGZpbGUubWFlPic=

>  <r_lp_tautomer_probability>  (21) 
1

>  <r_epik_Ionization_Penalty>  (21) 
0.00302711

>  <r_epik_Ionization_Penalty_Charging>  (21) 
0

>  <r_epik_Ionization_Penalty_Neutral>  (21) 
0.00302711

>  <r_epik_State_Penalty>  (21) 
0.00203849

>  <r_epik_Charging_Adjusted_Penalty>  (21) 
0.00203849

>  <i_epik_Tot_Q>  (21) 
0

>  <i_epik_Tot_abs_Q>  (21) 
0

>  <s_lp_Force_Field>  (21) 
OPLS3e

>  <r_lp_Energy>  (21) 
37.1684

>  <b_lp_Chiralities_Consistent>  (21) 
1

>  <s_lp_Variant>  (21) 
6:0-1

>  <s_i_glide_gridfile>  (21) 
pfpi4k_grid

>  <i_i_glide_lignum>  (21) 
8

>  <i_i_glide_rotatable_bonds>  (21) 
6

>  <r_i_docking_score>  (21) 
-3.60507

>  <r_i_glide_ligand_efficiency>  (21) 
-0.116293

>  <r_i_glide_ligand_efficiency_sa>  (21) 
-0.365319

>  <r_i_glide_ligand_efficiency_ln>  (21) 
-0.813053

>  <r_i_glide_gscore>  (21) 
-3.60507

>  <r_i_glide_lipo>  (21) 
-0.531696

>  <r_i_glide_hbond>  (21) 
-0.32

>  <r_i_glide_metal>  (21) 
-0

>  <r_i_glide_rewards>  (21) 
-0.850582

>  <r_i_glide_evdw>  (21) 
-29.4664

>  <r_i_glide_ecoul>  (21) 
-7.01752

>  <r_i_glide_erotb>  (21) 
0.637313

>  <r_i_glide_esite>  (21) 
-0.014156

>  <r_i_glide_emodel>  (21) 
-43.9861

>  <r_i_glide_energy>  (21) 
-36.4839

>  <r_i_glide_einternal>  (21) 
3.61702

>  <r_i_glide_intrahb_reward>  (21) 
-0

>  <i_i_glide_confnum>  (21) 
7

>  <i_i_glide_posenum>  (21) 
27

>  <r_i_glide_eff_state_penalty>  (21) 
0

>  <ligand_id>  (21) 
6

>  <original_smiles>  (21) 
Cn1cc(-c2cc3[nH]cnc(=Nc4ccc(OCc5ccccn5)c(Cl)c4)c3o2)cn1

>  <smiles>  (21) 
[H]c1nc(N([H])c2c([H])c([H])c(OC([H])([H])c3nc([H])c([H])c([H])c3[H])c(Cl)c2[H])c2oc(-c3c([H])nn(C([H])([H])[H])c3[H])c([H])c2n1

$$$$
6:0:1
     RDKit          3D

 48 52  0  0  1  0  0  0  0  0999 V2000
    3.7633   -0.6604   -4.7392 C   0  0  0  0  0  0  0  0  0  0  0  0
    3.8361   -1.6421   -3.6790 N   0  0  0  0  0  0  0  0  0  0  0  0
    3.4096   -1.5349   -2.3733 C   0  0  0  0  0  0  0  0  0  0  0  0
    3.7610   -2.6936   -1.7501 C   0  0  0  0  0  0  0  0  0  0  0  0
    3.5182   -3.0632   -0.3679 C   0  0  0  0  0  0  0  0  0  0  0  0
    3.8972   -4.1566    0.3797 C   0  0  0  0  0  0  0  0  0  0  0  0
    3.3374   -3.8983    1.6561 C   0  0  0  0  0  0  0  0  0  0  0  0
    3.3845   -4.6317    2.7759 N   0  0  0  0  0  0  0  0  0  0  0  0
    2.7378   -4.0811    3.8124 C   0  0  0  0  0  0  0  0  0  0  0  0
    2.0442   -2.9335    3.8677 N   0  0  0  0  0  0  0  0  0  0  0  0
    1.9918   -2.1965    2.7412 C   0  0  0  0  0  0  0  0  0  0  0  0
    1.2696   -1.0101    2.6342 N   0  0  0  0  0  0  0  0  0  0  0  0
    0.7085   -0.1617    3.5927 C   0  0  0  0  0  0  0  0  0  0  0  0
    1.0107   -0.2266    4.9692 C   0  0  0  0  0  0  0  0  0  0  0  0
    0.4302    0.6898    5.8645 C   0  0  0  0  0  0  0  0  0  0  0  0
   -0.4337    1.7063    5.3857 C   0  0  0  0  0  0  0  0  0  0  0  0
   -1.0377    2.6478    6.1840 O   0  0  0  0  0  0  0  0  0  0  0  0
   -0.4518    3.0330    7.4249 C   0  0  0  0  0  0  0  0  0  0  0  0
   -1.4799    3.1503    8.5325 C   0  0  0  0  0  0  0  0  0  0  0  0
   -1.0510    3.2685    9.8678 C   0  0  0  0  0  0  0  0  0  0  0  0
   -2.0272    3.3542   10.8756 C   0  0  0  0  0  0  0  0  0  0  0  0
   -3.3791    3.3316   10.4971 C   0  0  0  0  0  0  0  0  0  0  0  0
   -3.7106    3.2273    9.1387 C   0  0  0  0  0  0  0  0  0  0  0  0
   -2.7825    3.1264    8.1648 N   0  0  0  0  0  0  0  0  0  0  0  0
   -0.7471    1.7550    4.0113 C   0  0  0  0  0  0  0  0  0  0  0  0
   -1.8544    2.9434    3.4088 Cl  0  0  0  0  0  0  0  0  0  0  0  0
   -0.1697    0.8369    3.1195 C   0  0  0  0  0  0  0  0  0  0  0  0
    2.6538   -2.6804    1.6160 C   0  0  0  0  0  0  0  0  0  0  0  0
    2.7842   -2.1579    0.3542 O   0  0  0  0  0  0  0  0  0  0  0  0
    4.3905   -3.4738   -2.7552 C   0  0  0  0  0  0  0  0  0  0  0  0
    4.4225   -2.8383   -3.9190 N   0  0  0  0  0  0  0  0  0  0  0  0
    3.0958    0.1601   -4.4705 H   0  0  0  0  0  0  0  0  0  0  0  0
    3.4166   -1.1001   -5.6681 H   0  0  0  0  0  0  0  0  0  0  0  0
    4.7524   -0.2563   -4.9257 H   0  0  0  0  0  0  0  0  0  0  0  0
    2.8842   -0.6713   -2.0074 H   0  0  0  0  0  0  0  0  0  0  0  0
    4.4864   -5.0267    0.1268 H   0  0  0  0  0  0  0  0  0  0  0  0
    2.7789   -4.6521    4.7276 H   0  0  0  0  0  0  0  0  0  0  0  0
    1.7030   -0.9546    5.3617 H   0  0  0  0  0  0  0  0  0  0  0  0
    0.6699    0.5751    6.9086 H   0  0  0  0  0  0  0  0  0  0  0  0
    0.3569    2.4114    7.8021 H   0  0  0  0  0  0  0  0  0  0  0  0
   -0.0230    4.0192    7.2717 H   0  0  0  0  0  0  0  0  0  0  0  0
   -0.0005    3.2648   10.1220 H   0  0  0  0  0  0  0  0  0  0  0  0
   -1.7477    3.4044   11.9195 H   0  0  0  0  0  0  0  0  0  0  0  0
   -4.1428    3.3389   11.2581 H   0  0  0  0  0  0  0  0  0  0  0  0
   -4.7429    3.1663    8.8227 H   0  0  0  0  0  0  0  0  0  0  0  0
   -0.3922    0.9135    2.0645 H   0  0  0  0  0  0  0  0  0  0  0  0
    4.7912   -4.4732   -2.6843 H   0  0  0  0  0  0  0  0  0  0  0  0
    1.2057   -0.7011    1.6760 H   0  0  0  0  0  0  0  0  0  0  0  0
  1  2  1  0
  1 32  1  0
  1 33  1  0
  1 34  1  0
  2 31  1  0
  2  3  1  0
  3  4  2  0
  3 35  1  0
  4  5  1  0
  4 30  1  0
  5 29  1  0
  5  6  2  0
  6  7  1  0
  6 36  1  0
  7 28  2  0
  7  8  1  0
  8  9  2  0
  9 10  1  0
  9 37  1  0
 10 11  2  0
 11 12  1  0
 11 28  1  0
 12 13  1  0
 12 48  1  0
 13 27  1  0
 13 14  2  0
 14 15  1  0
 14 38  1  0
 15 16  2  0
 15 39  1  0
 16 17  1  0
 16 25  1  0
 17 18  1  0
 18 19  1  0
 18 40  1  0
 18 41  1  0
 19 24  1  0
 19 20  2  0
 20 21  1  0
 20 42  1  0
 21 22  2  0
 21 43  1  0
 22 23  1  0
 22 44  1  0
 23 24  2  0
 23 45  1  0
 25 26  1  0
 25 27  2  0
 27 46  1  0
 28 29  1  0
 30 31  2  0
 30 47  1  0
M  END
>  <i_m_ct_stereo_status>  (22) 
1

>  <s_m_source_file>  (22) 
/var/tmp/pbs.5102264.sched01/tmpu94zaw8c/01d2njlry.sdf

>  <i_m_source_file_index>  (22) 
8

>  <i_lp_mmshare_version>  (22) 
48012

>  <i_f3d_flags>  (22) 
0

>  <s_epik_input>  (22) 
W0NIM11uMVtjSF1jKFtjSF1uMSktYyhbY0hdMilvYyhjMjMpYyhcbltjSF1bbkhdMyk9TlxjNFtjSF1bY0hdYyhjKENsKVtjSF00KU9bQ0gyXWM1W2NIXVtjSF1bY0hdW2NIXW41

>  <s_epik_cmdline>  (22) 
J2VwaWtfcHl0aG9uJywgJy1waHQnLCAnMi4wJywgJy1waCcsICc3LjAnLCAnLXRuJywgJzgnLCAnLW1hJywgJzIwMCcsICctaW1hZScsICc8aW5maWxlLm1hZT4nLCAnLW9tYWUnLCAnPG91dGZpbGUubWFlPic=

>  <r_lp_tautomer_probability>  (22) 
1

>  <r_epik_Ionization_Penalty>  (22) 
0.00302711

>  <r_epik_Ionization_Penalty_Charging>  (22) 
0

>  <r_epik_Ionization_Penalty_Neutral>  (22) 
0.00302711

>  <r_epik_State_Penalty>  (22) 
0.00203849

>  <r_epik_Charging_Adjusted_Penalty>  (22) 
0.00203849

>  <i_epik_Tot_Q>  (22) 
0

>  <i_epik_Tot_abs_Q>  (22) 
0

>  <s_lp_Force_Field>  (22) 
OPLS3e

>  <r_lp_Energy>  (22) 
37.1684

>  <b_lp_Chiralities_Consistent>  (22) 
1

>  <s_lp_Variant>  (22) 
6:0-1

>  <s_i_glide_gridfile>  (22) 
pfpi4k_grid

>  <i_i_glide_lignum>  (22) 
8

>  <i_i_glide_rotatable_bonds>  (22) 
6

>  <r_i_docking_score>  (22) 
-2.91395

>  <r_i_glide_ligand_efficiency>  (22) 
-0.0939984

>  <r_i_glide_ligand_efficiency_sa>  (22) 
-0.295285

>  <r_i_glide_ligand_efficiency_ln>  (22) 
-0.657185

>  <r_i_glide_gscore>  (22) 
-2.91395

>  <r_i_glide_lipo>  (22) 
-0.198577

>  <r_i_glide_hbond>  (22) 
-0.109611

>  <r_i_glide_metal>  (22) 
-0

>  <r_i_glide_rewards>  (22) 
-0.735174

>  <r_i_glide_evdw>  (22) 
-34.3267

>  <r_i_glide_ecoul>  (22) 
-5.06397

>  <r_i_glide_erotb>  (22) 
0.637313

>  <r_i_glide_esite>  (22) 
-0.031975

>  <r_i_glide_emodel>  (22) 
-44.9403

>  <r_i_glide_energy>  (22) 
-39.3906

>  <r_i_glide_einternal>  (22) 
4.09023

>  <r_i_glide_intrahb_reward>  (22) 
-0

>  <i_i_glide_confnum>  (22) 
7

>  <i_i_glide_posenum>  (22) 
35

>  <r_i_glide_eff_state_penalty>  (22) 
0

>  <ligand_id>  (22) 
6

>  <original_smiles>  (22) 
Cn1cc(-c2cc3[nH]cnc(=Nc4ccc(OCc5ccccn5)c(Cl)c4)c3o2)cn1

>  <smiles>  (22) 
[H]c1nc(N([H])c2c([H])c([H])c(OC([H])([H])c3nc([H])c([H])c([H])c3[H])c(Cl)c2[H])c2oc(-c3c([H])nn(C([H])([H])[H])c3[H])c([H])c2n1

$$$$
6:0:2
     RDKit          3D

 48 52  0  0  1  0  0  0  0  0999 V2000
    3.2014   -1.9318   -4.3148 C   0  0  0  0  0  0  0  0  0  0  0  0
    3.8868   -1.9138   -3.0431 N   0  0  0  0  0  0  0  0  0  0  0  0
    3.5335   -1.2608   -1.8833 C   0  0  0  0  0  0  0  0  0  0  0  0
    4.5234   -1.5268   -0.9779 C   0  0  0  0  0  0  0  0  0  0  0  0
    4.6189   -1.0646    0.3980 C   0  0  0  0  0  0  0  0  0  0  0  0
    5.6492   -1.1167    1.3178 C   0  0  0  0  0  0  0  0  0  0  0  0
    5.1021   -0.4981    2.4677 C   0  0  0  0  0  0  0  0  0  0  0  0
    5.6737   -0.2567    3.6553 N   0  0  0  0  0  0  0  0  0  0  0  0
    4.8675    0.3522    4.5353 C   0  0  0  0  0  0  0  0  0  0  0  0
    3.5911    0.7410    4.3833 N   0  0  0  0  0  0  0  0  0  0  0  0
    3.0191    0.5082    3.1832 C   0  0  0  0  0  0  0  0  0  0  0  0
    1.7168    0.8858    2.8615 N   0  0  0  0  0  0  0  0  0  0  0  0
    0.6659    1.3973    3.6240 C   0  0  0  0  0  0  0  0  0  0  0  0
    0.6071    1.3175    5.0304 C   0  0  0  0  0  0  0  0  0  0  0  0
   -0.5199    1.8020    5.7165 C   0  0  0  0  0  0  0  0  0  0  0  0
   -1.6005    2.3838    5.0104 C   0  0  0  0  0  0  0  0  0  0  0  0
   -2.7361    2.8972    5.6047 O   0  0  0  0  0  0  0  0  0  0  0  0
   -3.0207    2.5591    6.9581 C   0  0  0  0  0  0  0  0  0  0  0  0
   -2.2646    3.3894    7.9812 C   0  0  0  0  0  0  0  0  0  0  0  0
   -2.5210    3.2322    9.3578 C   0  0  0  0  0  0  0  0  0  0  0  0
   -1.7700    3.9964   10.2717 C   0  0  0  0  0  0  0  0  0  0  0  0
   -0.7816    4.8703    9.7704 C   0  0  0  0  0  0  0  0  0  0  0  0
   -0.6005    4.9526    8.3773 C   0  0  0  0  0  0  0  0  0  0  0  0
   -1.3379    4.2479    7.5011 N   0  0  0  0  0  0  0  0  0  0  0  0
   -1.5326    2.4763    3.6096 C   0  0  0  0  0  0  0  0  0  0  0  0
   -2.8509    3.2090    2.7583 Cl  0  0  0  0  0  0  0  0  0  0  0  0
   -0.4155    1.9700    2.9204 C   0  0  0  0  0  0  0  0  0  0  0  0
    3.7843   -0.1197    2.2035 C   0  0  0  0  0  0  0  0  0  0  0  0
    3.4909   -0.4632    0.9028 O   0  0  0  0  0  0  0  0  0  0  0  0
    5.4288   -2.3803   -1.6613 C   0  0  0  0  0  0  0  0  0  0  0  0
    5.0396   -2.6049   -2.9059 N   0  0  0  0  0  0  0  0  0  0  0  0
    2.2062   -1.5081   -4.2060 H   0  0  0  0  0  0  0  0  0  0  0  0
    3.1037   -2.9555   -4.6774 H   0  0  0  0  0  0  0  0  0  0  0  0
    3.7437   -1.3276   -5.0412 H   0  0  0  0  0  0  0  0  0  0  0  0
    2.6324   -0.6698   -1.8080 H   0  0  0  0  0  0  0  0  0  0  0  0
    6.6548   -1.5056    1.2487 H   0  0  0  0  0  0  0  0  0  0  0  0
    5.3113    0.5591    5.4993 H   0  0  0  0  0  0  0  0  0  0  0  0
    1.4046    0.8802    5.6087 H   0  0  0  0  0  0  0  0  0  0  0  0
   -0.5232    1.7361    6.7939 H   0  0  0  0  0  0  0  0  0  0  0  0
   -4.0850    2.7167    7.1224 H   0  0  0  0  0  0  0  0  0  0  0  0
   -2.8452    1.4929    7.1207 H   0  0  0  0  0  0  0  0  0  0  0  0
   -3.2743    2.5456    9.7124 H   0  0  0  0  0  0  0  0  0  0  0  0
   -1.9471    3.9108   11.3368 H   0  0  0  0  0  0  0  0  0  0  0  0
   -0.1762    5.4726   10.4318 H   0  0  0  0  0  0  0  0  0  0  0  0
    0.1518    5.5890    7.9416 H   0  0  0  0  0  0  0  0  0  0  0  0
   -0.3827    2.0252    1.8418 H   0  0  0  0  0  0  0  0  0  0  0  0
    6.3425   -2.8325   -1.3073 H   0  0  0  0  0  0  0  0  0  0  0  0
    1.5313    0.7723    1.8788 H   0  0  0  0  0  0  0  0  0  0  0  0
  1  2  1  0
  1 32  1  0
  1 33  1  0
  1 34  1  0
  2 31  1  0
  2  3  1  0
  3  4  2  0
  3 35  1  0
  4  5  1  0
  4 30  1  0
  5 29  1  0
  5  6  2  0
  6  7  1  0
  6 36  1  0
  7 28  2  0
  7  8  1  0
  8  9  2  0
  9 10  1  0
  9 37  1  0
 10 11  2  0
 11 12  1  0
 11 28  1  0
 12 13  1  0
 12 48  1  0
 13 27  1  0
 13 14  2  0
 14 15  1  0
 14 38  1  0
 15 16  2  0
 15 39  1  0
 16 17  1  0
 16 25  1  0
 17 18  1  0
 18 19  1  0
 18 40  1  0
 18 41  1  0
 19 24  1  0
 19 20  2  0
 20 21  1  0
 20 42  1  0
 21 22  2  0
 21 43  1  0
 22 23  1  0
 22 44  1  0
 23 24  2  0
 23 45  1  0
 25 26  1  0
 25 27  2  0
 27 46  1  0
 28 29  1  0
 30 31  2  0
 30 47  1  0
M  END
>  <i_m_ct_stereo_status>  (23) 
1

>  <s_m_source_file>  (23) 
/var/tmp/pbs.5102264.sched01/tmpu94zaw8c/01d2njlry.sdf

>  <i_m_source_file_index>  (23) 
8

>  <i_lp_mmshare_version>  (23) 
48012

>  <i_f3d_flags>  (23) 
0

>  <s_epik_input>  (23) 
W0NIM11uMVtjSF1jKFtjSF1uMSktYyhbY0hdMilvYyhjMjMpYyhcbltjSF1bbkhdMyk9TlxjNFtjSF1bY0hdYyhjKENsKVtjSF00KU9bQ0gyXWM1W2NIXVtjSF1bY0hdW2NIXW41

>  <s_epik_cmdline>  (23) 
J2VwaWtfcHl0aG9uJywgJy1waHQnLCAnMi4wJywgJy1waCcsICc3LjAnLCAnLXRuJywgJzgnLCAnLW1hJywgJzIwMCcsICctaW1hZScsICc8aW5maWxlLm1hZT4nLCAnLW9tYWUnLCAnPG91dGZpbGUubWFlPic=

>  <r_lp_tautomer_probability>  (23) 
1

>  <r_epik_Ionization_Penalty>  (23) 
0.00302711

>  <r_epik_Ionization_Penalty_Charging>  (23) 
0

>  <r_epik_Ionization_Penalty_Neutral>  (23) 
0.00302711

>  <r_epik_State_Penalty>  (23) 
0.00203849

>  <r_epik_Charging_Adjusted_Penalty>  (23) 
0.00203849

>  <i_epik_Tot_Q>  (23) 
0

>  <i_epik_Tot_abs_Q>  (23) 
0

>  <s_lp_Force_Field>  (23) 
OPLS3e

>  <r_lp_Energy>  (23) 
37.1684

>  <b_lp_Chiralities_Consistent>  (23) 
1

>  <s_lp_Variant>  (23) 
6:0-1

>  <s_i_glide_gridfile>  (23) 
pfpi4k_grid

>  <i_i_glide_lignum>  (23) 
8

>  <i_i_glide_rotatable_bonds>  (23) 
6

>  <r_i_docking_score>  (23) 
-2.80131

>  <r_i_glide_ligand_efficiency>  (23) 
-0.0903648

>  <r_i_glide_ligand_efficiency_sa>  (23) 
-0.28387

>  <r_i_glide_ligand_efficiency_ln>  (23) 
-0.631781

>  <r_i_glide_gscore>  (23) 
-2.80131

>  <r_i_glide_lipo>  (23) 
-0.571586

>  <r_i_glide_hbond>  (23) 
0

>  <r_i_glide_metal>  (23) 
-0

>  <r_i_glide_rewards>  (23) 
-0.655473

>  <r_i_glide_evdw>  (23) 
-39.4943

>  <r_i_glide_ecoul>  (23) 
-1.48539

>  <r_i_glide_erotb>  (23) 
0.637313

>  <r_i_glide_esite>  (23) 
-0.0140394

>  <r_i_glide_emodel>  (23) 
-47.1796

>  <r_i_glide_energy>  (23) 
-40.9797

>  <r_i_glide_einternal>  (23) 
1.92928

>  <r_i_glide_intrahb_reward>  (23) 
-0

>  <i_i_glide_confnum>  (23) 
7

>  <i_i_glide_posenum>  (23) 
14

>  <r_i_glide_eff_state_penalty>  (23) 
0

>  <ligand_id>  (23) 
6

>  <original_smiles>  (23) 
Cn1cc(-c2cc3[nH]cnc(=Nc4ccc(OCc5ccccn5)c(Cl)c4)c3o2)cn1

>  <smiles>  (23) 
[H]c1nc(N([H])c2c([H])c([H])c(OC([H])([H])c3nc([H])c([H])c([H])c3[H])c(Cl)c2[H])c2oc(-c3c([H])nn(C([H])([H])[H])c3[H])c([H])c2n1

$$$$
7:0:0
     RDKit          3D

 55 57  0  0  1  0  0  0  0  0999 V2000
    7.1434   -6.2678    3.5260 C   0  0  0  0  0  0  0  0  0  0  0  0
    6.0044   -7.2193    3.0794 C   0  0  0  0  0  0  0  0  0  0  0  0
    6.4617   -8.3626    2.1404 C   0  0  0  0  0  0  0  0  0  0  0  0
    4.8317   -6.4761    2.5243 N   0  0  0  0  0  0  0  0  0  0  0  0
    5.0167   -5.7617    1.3671 C   0  0  0  0  0  0  0  0  0  0  0  0
    6.0780   -5.8388    0.7590 O   0  0  0  0  0  0  0  0  0  0  0  0
    4.0100   -4.9777    0.8961 N   0  0  0  0  0  0  0  0  0  0  0  0
    4.1640   -4.3154   -0.4268 C   0  0  2  0  0  0  0  0  0  0  0  0
    5.5065   -3.5071   -0.5763 C   0  0  0  0  0  0  0  0  0  0  0  0
    5.4969   -2.5148   -1.7463 C   0  0  1  0  0  0  0  0  0  0  0  0
    5.2399   -3.3002   -3.0536 C   0  0  0  0  0  0  0  0  0  0  0  0
    3.7161   -3.2469   -3.2392 C   0  0  0  0  0  0  0  0  0  0  0  0
    3.2319   -2.4650   -1.9919 C   0  0  1  0  0  0  0  0  0  0  0  0
    2.9271   -3.4593   -0.8563 C   0  0  0  0  0  0  0  0  0  0  0  0
    4.3651   -1.5619   -1.6256 N   0  0  0  0  0  0  0  0  0  0  0  0
    4.2626   -0.9197   -0.2695 C   0  0  0  0  0  0  0  0  0  0  0  0
    4.5244   -0.4616   -2.6196 C   0  0  0  0  0  0  0  0  0  0  0  0
    2.7876   -4.7286    1.6629 C   0  0  0  0  0  0  0  0  0  0  0  0
    2.3848   -5.9038    2.5564 C   0  0  0  0  0  0  0  0  0  0  0  0
    1.4591   -5.3850    3.6705 C   0  0  0  0  0  0  0  0  0  0  0  0
    1.6112   -6.9509    1.7274 C   0  0  0  0  0  0  0  0  0  0  0  0
    3.6340   -6.5870    3.1620 C   0  0  0  0  0  0  0  0  0  0  0  0
    3.5027   -7.2505    4.1940 O   0  0  0  0  0  0  0  0  0  0  0  0
    7.9858   -6.8370    3.9168 H   0  0  0  0  0  0  0  0  0  0  0  0
    6.7952   -5.6089    4.3191 H   0  0  0  0  0  0  0  0  0  0  0  0
    7.5391   -5.6283    2.7402 H   0  0  0  0  0  0  0  0  0  0  0  0
    5.7223   -7.7324    3.9994 H   0  0  0  0  0  0  0  0  0  0  0  0
    7.3056   -8.8964    2.5659 H   0  0  0  0  0  0  0  0  0  0  0  0
    6.7815   -8.0539    1.1511 H   0  0  0  0  0  0  0  0  0  0  0  0
    5.6536   -9.0730    1.9868 H   0  0  0  0  0  0  0  0  0  0  0  0
    4.2327   -5.1454   -1.1250 H   0  0  0  0  0  0  0  0  0  0  0  0
    5.7618   -3.0150    0.3642 H   0  0  0  0  0  0  0  0  0  0  0  0
    6.3527   -4.1661   -0.7879 H   0  0  0  0  0  0  0  0  0  0  0  0
    6.4630   -2.0146   -1.7701 H   0  0  0  0  0  0  0  0  0  0  0  0
    5.7274   -2.8205   -3.8935 H   0  0  0  0  0  0  0  0  0  0  0  0
    5.6205   -4.3222   -3.0134 H   0  0  0  0  0  0  0  0  0  0  0  0
    3.4543   -2.7189   -4.1594 H   0  0  0  0  0  0  0  0  0  0  0  0
    3.2791   -4.2431   -3.3263 H   0  0  0  0  0  0  0  0  0  0  0  0
    2.3336   -1.8968   -2.2306 H   0  0  0  0  0  0  0  0  0  0  0  0
    2.1024   -4.1160   -1.1576 H   0  0  0  0  0  0  0  0  0  0  0  0
    2.5244   -2.8806   -0.0224 H   0  0  0  0  0  0  0  0  0  0  0  0
    3.3933   -0.2630   -0.2298 H   0  0  0  0  0  0  0  0  0  0  0  0
    5.1519   -0.3127   -0.0705 H   0  0  0  0  0  0  0  0  0  0  0  0
    4.1649   -1.5916    0.5892 H   0  0  0  0  0  0  0  0  0  0  0  0
    3.6345    0.1654   -2.6042 H   0  0  0  0  0  0  0  0  0  0  0  0
    4.6315   -0.7983   -3.6547 H   0  0  0  0  0  0  0  0  0  0  0  0
    5.3936    0.1354   -2.3236 H   0  0  0  0  0  0  0  0  0  0  0  0
    2.9346   -3.8156    2.2392 H   0  0  0  0  0  0  0  0  0  0  0  0
    1.9380   -4.5388    1.0127 H   0  0  0  0  0  0  0  0  0  0  0  0
    0.6100   -4.8372    3.2700 H   0  0  0  0  0  0  0  0  0  0  0  0
    1.9868   -4.7107    4.3420 H   0  0  0  0  0  0  0  0  0  0  0  0
    1.0630   -6.1996    4.2725 H   0  0  0  0  0  0  0  0  0  0  0  0
    0.7131   -6.5369    1.2769 H   0  0  0  0  0  0  0  0  0  0  0  0
    1.2906   -7.7906    2.3402 H   0  0  0  0  0  0  0  0  0  0  0  0
    2.2146   -7.3525    0.9161 H   0  0  0  0  0  0  0  0  0  0  0  0
  1  2  1  0
  1 24  1  0
  1 25  1  0
  1 26  1  0
  2  3  1  0
  2  4  1  0
  2 27  1  0
  3 28  1  0
  3 29  1  0
  3 30  1  0
  4 22  1  0
  4  5  1  0
  5  6  2  0
  5  7  1  0
  7  8  1  0
  7 18  1  0
  8 14  1  0
  8  9  1  0
  8 31  1  6
  9 10  1  0
  9 32  1  0
  9 33  1  0
 10 15  1  0
 10 11  1  0
 10 34  1  6
 11 12  1  0
 11 35  1  0
 11 36  1  0
 12 13  1  0
 12 37  1  0
 12 38  1  0
 13 14  1  0
 13 15  1  0
 13 39  1  6
 14 40  1  0
 14 41  1  0
 15 16  1  0
 15 17  1  0
 16 42  1  0
 16 43  1  0
 16 44  1  0
 17 45  1  0
 17 46  1  0
 17 47  1  0
 18 19  1  0
 18 48  1  0
 18 49  1  0
 19 20  1  0
 19 21  1  0
 19 22  1  0
 20 50  1  0
 20 51  1  0
 20 52  1  0
 21 53  1  0
 21 54  1  0
 21 55  1  0
 22 23  2  0
M  CHG  1  15   1
M  END
>  <i_m_ct_stereo_status>  (24) 
1

>  <s_m_source_file>  (24) 
/var/tmp/pbs.5102264.sched01/tmpu94zaw8c/01d2njlry.sdf

>  <i_m_source_file_index>  (24) 
9

>  <i_lp_mmshare_version>  (24) 
48012

>  <i_f3d_flags>  (24) 
0

>  <s_epik_input>  (24) 
W0NIM11bQ0hdKFtDSDNdKU4oQzE9TylDKD1PKU4oW0NIMl1DMShbQ0gzXSlbQ0gzXSlbQ0BIXShbQ0gyXVtDQEBIXTIzKVtDSDJdW0NASF0oW0NIMl1bQ0gyXTIpW04rXTMoW0NIM10pW0NIM10=

>  <s_epik_cmdline>  (24) 
J2VwaWtfcHl0aG9uJywgJy1waHQnLCAnMi4wJywgJy1waCcsICc3LjAnLCAnLXRuJywgJzgnLCAnLW1hJywgJzIwMCcsICctaW1hZScsICc8aW5maWxlLm1hZT4nLCAnLW9tYWUnLCAnPG91dGZpbGUubWFlPic=

>  <r_lp_tautomer_probability>  (24) 
1

>  <r_epik_Ionization_Penalty>  (24) 
2.36067e-05

>  <r_epik_Ionization_Penalty_Charging>  (24) 
0

>  <r_epik_Ionization_Penalty_Neutral>  (24) 
2.36067e-05

>  <r_epik_State_Penalty>  (24) 
-0

>  <r_epik_Charging_Adjusted_Penalty>  (24) 
0

>  <i_epik_Tot_Q>  (24) 
1

>  <i_epik_Tot_abs_Q>  (24) 
1

>  <s_lp_Force_Field>  (24) 
OPLS3e

>  <r_lp_Energy>  (24) 
73.0452

>  <b_lp_Chiralities_Consistent>  (24) 
1

>  <s_lp_Variant>  (24) 
7:0-1

>  <s_i_glide_gridfile>  (24) 
pfpi4k_grid

>  <i_i_glide_lignum>  (24) 
9

>  <i_i_glide_rotatable_bonds>  (24) 
2

>  <r_i_docking_score>  (24) 
-3.05815

>  <r_i_glide_ligand_efficiency>  (24) 
-0.132963

>  <r_i_glide_ligand_efficiency_sa>  (24) 
-0.378129

>  <r_i_glide_ligand_efficiency_ln>  (24) 
-0.739489

>  <r_i_glide_gscore>  (24) 
-3.05815

>  <r_i_glide_lipo>  (24) 
-0.544838

>  <r_i_glide_hbond>  (24) 
0

>  <r_i_glide_metal>  (24) 
-0

>  <r_i_glide_rewards>  (24) 
-1.32459

>  <r_i_glide_evdw>  (24) 
-18.4689

>  <r_i_glide_ecoul>  (24) 
-2.6795

>  <r_i_glide_erotb>  (24) 
0.179842

>  <r_i_glide_esite>  (24) 
-0.0431991

>  <r_i_glide_emodel>  (24) 
-17.881

>  <r_i_glide_energy>  (24) 
-21.1484

>  <r_i_glide_einternal>  (24) 
12.2865

>  <r_i_glide_intrahb_reward>  (24) 
-0

>  <i_i_glide_confnum>  (24) 
2

>  <i_i_glide_posenum>  (24) 
40

>  <r_i_glide_eff_state_penalty>  (24) 
0

>  <ligand_id>  (24) 
7

>  <original_smiles>  (24) 
CC(C)N1C(=O)N(C2CC3CCC(C2)[N+]3(C)C)CC(C)(C)C1=O

>  <smiles>  (24) 
[H]C([H])([H])C([H])(N1C(=O)N(C2([H])C([H])([H])C3([H])C([H])([H])C([H])([H])C([H])(C2([H])[H])[N+]3(C([H])([H])[H])C([H])([H])[H])C([H])([H])C(C([H])([H])[H])(C([H])([H])[H])C1=O)C([H])([H])[H]

$$$$
7:0:1
     RDKit          3D

 55 57  0  0  1  0  0  0  0  0999 V2000
    2.3122   -3.2356    4.3742 C   0  0  0  0  0  0  0  0  0  0  0  0
    3.7062   -3.9281    4.3628 C   0  0  0  0  0  0  0  0  0  0  0  0
    4.8916   -2.9228    4.4775 C   0  0  0  0  0  0  0  0  0  0  0  0
    3.8619   -4.8489    3.1704 N   0  0  0  0  0  0  0  0  0  0  0  0
    3.8037   -4.3028    1.9561 C   0  0  0  0  0  0  0  0  0  0  0  0
    3.6449   -3.0776    1.8462 O   0  0  0  0  0  0  0  0  0  0  0  0
    3.9708   -5.0133    0.8073 N   0  0  0  0  0  0  0  0  0  0  0  0
    4.1262   -4.3555   -0.5113 C   0  0  2  0  0  0  0  0  0  0  0  0
    5.4501   -3.5354   -0.5918 C   0  0  0  0  0  0  0  0  0  0  0  0
    5.4386   -2.5028   -1.7520 C   0  0  1  0  0  0  0  0  0  0  0  0
    5.2405   -3.2652   -3.0770 C   0  0  0  0  0  0  0  0  0  0  0  0
    3.7190   -3.2528   -3.3131 C   0  0  0  0  0  0  0  0  0  0  0  0
    3.1711   -2.5006   -2.0765 C   0  0  1  0  0  0  0  0  0  0  0  0
    2.8545   -3.5478   -0.9685 C   0  0  0  0  0  0  0  0  0  0  0  0
    4.2743   -1.5619   -1.6823 N   0  0  0  0  0  0  0  0  0  0  0  0
    4.1147   -0.8512   -0.3712 C   0  0  0  0  0  0  0  0  0  0  0  0
    4.4225   -0.4773   -2.7031 C   0  0  0  0  0  0  0  0  0  0  0  0
    3.8065   -6.4783    0.8346 C   0  0  0  0  0  0  0  0  0  0  0  0
    4.3694   -7.0920    2.1332 C   0  0  0  0  0  0  0  0  0  0  0  0
    3.7279   -8.4709    2.3710 C   0  0  0  0  0  0  0  0  0  0  0  0
    5.8985   -7.2611    2.0086 C   0  0  0  0  0  0  0  0  0  0  0  0
    4.0965   -6.1960    3.3785 C   0  0  0  0  0  0  0  0  0  0  0  0
    4.1357   -6.7211    4.4889 O   0  0  0  0  0  0  0  0  0  0  0  0
    2.2197   -2.5692    5.2279 H   0  0  0  0  0  0  0  0  0  0  0  0
    1.5314   -3.9895    4.4217 H   0  0  0  0  0  0  0  0  0  0  0  0
    2.0635   -2.6228    3.5089 H   0  0  0  0  0  0  0  0  0  0  0  0
    3.7332   -4.4674    5.3180 H   0  0  0  0  0  0  0  0  0  0  0  0
    4.7671   -2.2743    5.3405 H   0  0  0  0  0  0  0  0  0  0  0  0
    5.0536   -2.2558    3.6309 H   0  0  0  0  0  0  0  0  0  0  0  0
    5.8221   -3.4656    4.6003 H   0  0  0  0  0  0  0  0  0  0  0  0
    4.2742   -5.1145   -1.2600 H   0  0  0  0  0  0  0  0  0  0  0  0
    5.6888   -2.9988    0.3227 H   0  0  0  0  0  0  0  0  0  0  0  0
    6.2887   -4.2350   -0.7089 H   0  0  0  0  0  0  0  0  0  0  0  0
    6.3886   -1.9685   -1.7371 H   0  0  0  0  0  0  0  0  0  0  0  0
    5.7332   -2.7380   -3.8820 H   0  0  0  0  0  0  0  0  0  0  0  0
    5.6684   -4.2664   -3.0553 H   0  0  0  0  0  0  0  0  0  0  0  0
    3.4737   -2.7071   -4.2268 H   0  0  0  0  0  0  0  0  0  0  0  0
    3.3132   -4.2336   -3.4458 H   0  0  0  0  0  0  0  0  0  0  0  0
    2.2532   -1.9605   -2.3291 H   0  0  0  0  0  0  0  0  0  0  0  0
    2.0795   -4.2452   -1.3100 H   0  0  0  0  0  0  0  0  0  0  0  0
    2.3558   -2.9986   -0.1756 H   0  0  0  0  0  0  0  0  0  0  0  0
    3.2064   -0.2464   -0.3141 H   0  0  0  0  0  0  0  0  0  0  0  0
    4.9767   -0.2125   -0.1430 H   0  0  0  0  0  0  0  0  0  0  0  0
    4.0365   -1.4997    0.4501 H   0  0  0  0  0  0  0  0  0  0  0  0
    3.5130    0.1097   -2.7135 H   0  0  0  0  0  0  0  0  0  0  0  0
    4.5894   -0.7706   -3.7469 H   0  0  0  0  0  0  0  0  0  0  0  0
    5.2648    0.1534   -2.3953 H   0  0  0  0  0  0  0  0  0  0  0  0
    2.7489   -6.6853    0.7077 H   0  0  0  0  0  0  0  0  0  0  0  0
    4.2932   -6.9286   -0.0232 H   0  0  0  0  0  0  0  0  0  0  0  0
    3.8503   -9.1433    1.5188 H   0  0  0  0  0  0  0  0  0  0  0  0
    2.6612   -8.3703    2.5805 H   0  0  0  0  0  0  0  0  0  0  0  0
    4.1740   -8.9566    3.2379 H   0  0  0  0  0  0  0  0  0  0  0  0
    6.1678   -7.9236    1.1839 H   0  0  0  0  0  0  0  0  0  0  0  0
    6.3183   -7.6917    2.9159 H   0  0  0  0  0  0  0  0  0  0  0  0
    6.4016   -6.3080    1.8430 H   0  0  0  0  0  0  0  0  0  0  0  0
  1  2  1  0
  1 24  1  0
  1 25  1  0
  1 26  1  0
  2  3  1  0
  2  4  1  0
  2 27  1  0
  3 28  1  0
  3 29  1  0
  3 30  1  0
  4 22  1  0
  4  5  1  0
  5  6  2  0
  5  7  1  0
  7  8  1  0
  7 18  1  0
  8 14  1  0
  8  9  1  0
  8 31  1  6
  9 10  1  0
  9 32  1  0
  9 33  1  0
 10 15  1  0
 10 11  1  0
 10 34  1  6
 11 12  1  0
 11 35  1  0
 11 36  1  0
 12 13  1  0
 12 37  1  0
 12 38  1  0
 13 14  1  0
 13 15  1  0
 13 39  1  6
 14 40  1  0
 14 41  1  0
 15 16  1  0
 15 17  1  0
 16 42  1  0
 16 43  1  0
 16 44  1  0
 17 45  1  0
 17 46  1  0
 17 47  1  0
 18 19  1  0
 18 48  1  0
 18 49  1  0
 19 20  1  0
 19 21  1  0
 19 22  1  0
 20 50  1  0
 20 51  1  0
 20 52  1  0
 21 53  1  0
 21 54  1  0
 21 55  1  0
 22 23  2  0
M  CHG  1  15   1
M  END
>  <i_m_ct_stereo_status>  (25) 
1

>  <s_m_source_file>  (25) 
/var/tmp/pbs.5102264.sched01/tmpu94zaw8c/01d2njlry.sdf

>  <i_m_source_file_index>  (25) 
9

>  <i_lp_mmshare_version>  (25) 
48012

>  <i_f3d_flags>  (25) 
0

>  <s_epik_input>  (25) 
W0NIM11bQ0hdKFtDSDNdKU4oQzE9TylDKD1PKU4oW0NIMl1DMShbQ0gzXSlbQ0gzXSlbQ0BIXShbQ0gyXVtDQEBIXTIzKVtDSDJdW0NASF0oW0NIMl1bQ0gyXTIpW04rXTMoW0NIM10pW0NIM10=

>  <s_epik_cmdline>  (25) 
J2VwaWtfcHl0aG9uJywgJy1waHQnLCAnMi4wJywgJy1waCcsICc3LjAnLCAnLXRuJywgJzgnLCAnLW1hJywgJzIwMCcsICctaW1hZScsICc8aW5maWxlLm1hZT4nLCAnLW9tYWUnLCAnPG91dGZpbGUubWFlPic=

>  <r_lp_tautomer_probability>  (25) 
1

>  <r_epik_Ionization_Penalty>  (25) 
2.36067e-05

>  <r_epik_Ionization_Penalty_Charging>  (25) 
0

>  <r_epik_Ionization_Penalty_Neutral>  (25) 
2.36067e-05

>  <r_epik_State_Penalty>  (25) 
-0

>  <r_epik_Charging_Adjusted_Penalty>  (25) 
0

>  <i_epik_Tot_Q>  (25) 
1

>  <i_epik_Tot_abs_Q>  (25) 
1

>  <s_lp_Force_Field>  (25) 
OPLS3e

>  <r_lp_Energy>  (25) 
73.0452

>  <b_lp_Chiralities_Consistent>  (25) 
1

>  <s_lp_Variant>  (25) 
7:0-1

>  <s_i_glide_gridfile>  (25) 
pfpi4k_grid

>  <i_i_glide_lignum>  (25) 
9

>  <i_i_glide_rotatable_bonds>  (25) 
2

>  <r_i_docking_score>  (25) 
-2.91494

>  <r_i_glide_ligand_efficiency>  (25) 
-0.126737

>  <r_i_glide_ligand_efficiency_sa>  (25) 
-0.360422

>  <r_i_glide_ligand_efficiency_ln>  (25) 
-0.70486

>  <r_i_glide_gscore>  (25) 
-2.91494

>  <r_i_glide_lipo>  (25) 
-0.681476

>  <r_i_glide_hbond>  (25) 
0

>  <r_i_glide_metal>  (25) 
-0

>  <r_i_glide_rewards>  (25) 
-1.24677

>  <r_i_glide_evdw>  (25) 
-16.2819

>  <r_i_glide_ecoul>  (25) 
-2.06785

>  <r_i_glide_erotb>  (25) 
0.179842

>  <r_i_glide_esite>  (25) 
-0.0422646

>  <r_i_glide_emodel>  (25) 
-19.7356

>  <r_i_glide_energy>  (25) 
-18.3498

>  <r_i_glide_einternal>  (25) 
0.0439137

>  <r_i_glide_intrahb_reward>  (25) 
-0

>  <i_i_glide_confnum>  (25) 
2

>  <i_i_glide_posenum>  (25) 
1

>  <r_i_glide_eff_state_penalty>  (25) 
0

>  <ligand_id>  (25) 
7

>  <original_smiles>  (25) 
CC(C)N1C(=O)N(C2CC3CCC(C2)[N+]3(C)C)CC(C)(C)C1=O

>  <smiles>  (25) 
[H]C([H])([H])C([H])(N1C(=O)N(C2([H])C([H])([H])C3([H])C([H])([H])C([H])([H])C([H])(C2([H])[H])[N+]3(C([H])([H])[H])C([H])([H])[H])C([H])([H])C(C([H])([H])[H])(C([H])([H])[H])C1=O)C([H])([H])[H]

$$$$
7:0:2
     RDKit          3D

 55 57  0  0  1  0  0  0  0  0999 V2000
    2.5667   -2.3894    4.8262 C   0  0  0  0  0  0  0  0  0  0  0  0
    3.7206   -3.4393    4.7748 C   0  0  0  0  0  0  0  0  0  0  0  0
    5.1376   -2.7819    4.7669 C   0  0  0  0  0  0  0  0  0  0  0  0
    3.5448   -4.4178    3.6534 N   0  0  0  0  0  0  0  0  0  0  0  0
    3.5506   -3.9266    2.3838 C   0  0  0  0  0  0  0  0  0  0  0  0
    3.6990   -2.7363    2.2137 O   0  0  0  0  0  0  0  0  0  0  0  0
    3.4422   -4.7246    1.3032 N   0  0  0  0  0  0  0  0  0  0  0  0
    3.6735   -4.2036   -0.0845 C   0  0  2  0  0  0  0  0  0  0  0  0
    5.1547   -3.7654   -0.2873 C   0  0  0  0  0  0  0  0  0  0  0  0
    5.3397   -2.8216   -1.5154 C   0  0  1  0  0  0  0  0  0  0  0  0
    4.8763   -3.5797   -2.7864 C   0  0  0  0  0  0  0  0  0  0  0  0
    3.3918   -3.1667   -2.9355 C   0  0  0  0  0  0  0  0  0  0  0  0
    3.1481   -2.2481   -1.7232 C   0  0  1  0  0  0  0  0  0  0  0  0
    2.6353   -3.1185   -0.5305 C   0  0  0  0  0  0  0  0  0  0  0  0
    4.4682   -1.6019   -1.4427 N   0  0  0  0  0  0  0  0  0  0  0  0
    4.5607   -0.8163   -0.1646 C   0  0  0  0  0  0  0  0  0  0  0  0
    4.8152   -0.6323   -2.5378 C   0  0  0  0  0  0  0  0  0  0  0  0
    2.8959   -6.0960    1.4303 C   0  0  0  0  0  0  0  0  0  0  0  0
    3.3651   -6.7671    2.7371 C   0  0  0  0  0  0  0  0  0  0  0  0
    2.4015   -7.9095    3.0907 C   0  0  0  0  0  0  0  0  0  0  0  0
    4.7811   -7.3466    2.5335 C   0  0  0  0  0  0  0  0  0  0  0  0
    3.4278   -5.7573    3.9264 C   0  0  0  0  0  0  0  0  0  0  0  0
    3.4035   -6.2080    5.0786 O   0  0  0  0  0  0  0  0  0  0  0  0
    2.7046   -1.6766    5.6362 H   0  0  0  0  0  0  0  0  0  0  0  0
    1.6177   -2.8980    4.9591 H   0  0  0  0  0  0  0  0  0  0  0  0
    2.4351   -1.7787    3.9384 H   0  0  0  0  0  0  0  0  0  0  0  0
    3.6664   -3.9400    5.7665 H   0  0  0  0  0  0  0  0  0  0  0  0
    5.2605   -2.0774    5.5855 H   0  0  0  0  0  0  0  0  0  0  0  0
    5.3964   -2.2266    3.8700 H   0  0  0  0  0  0  0  0  0  0  0  0
    5.9060   -3.5400    4.8698 H   0  0  0  0  0  0  0  0  0  0  0  0
    3.5291   -5.0306   -0.7614 H   0  0  0  0  0  0  0  0  0  0  0  0
    5.5790   -3.2537    0.5738 H   0  0  0  0  0  0  0  0  0  0  0  0
    5.7812   -4.6631   -0.3995 H   0  0  0  0  0  0  0  0  0  0  0  0
    6.3968   -2.5506   -1.5792 H   0  0  0  0  0  0  0  0  0  0  0  0
    5.4531   -3.2433   -3.6521 H   0  0  0  0  0  0  0  0  0  0  0  0
    5.0140   -4.6663   -2.7102 H   0  0  0  0  0  0  0  0  0  0  0  0
    3.2307   -2.6227   -3.8708 H   0  0  0  0  0  0  0  0  0  0  0  0
    2.6817   -3.9966   -2.9525 H   0  0  0  0  0  0  0  0  0  0  0  0
    2.4098   -1.5015   -1.9997 H   0  0  0  0  0  0  0  0  0  0  0  0
    1.6911   -3.6102   -0.7990 H   0  0  0  0  0  0  0  0  0  0  0  0
    2.3405   -2.4258    0.2521 H   0  0  0  0  0  0  0  0  0  0  0  0
    3.8664    0.0355   -0.1701 H   0  0  0  0  0  0  0  0  0  0  0  0
    5.5686   -0.3838   -0.0466 H   0  0  0  0  0  0  0  0  0  0  0  0
    4.3579   -1.3511    0.7049 H   0  0  0  0  0  0  0  0  0  0  0  0
    4.1205    0.2121   -2.4997 H   0  0  0  0  0  0  0  0  0  0  0  0
    4.8016   -1.0109   -3.5709 H   0  0  0  0  0  0  0  0  0  0  0  0
    5.8049   -0.2458   -2.3330 H   0  0  0  0  0  0  0  0  0  0  0  0
    1.8173   -6.0192    1.3687 H   0  0  0  0  0  0  0  0  0  0  0  0
    3.1886   -6.6919    0.5817 H   0  0  0  0  0  0  0  0  0  0  0  0
    2.2760   -8.6341    2.2781 H   0  0  0  0  0  0  0  0  0  0  0  0
    1.4142   -7.5158    3.3474 H   0  0  0  0  0  0  0  0  0  0  0  0
    2.7536   -8.4590    3.9629 H   0  0  0  0  0  0  0  0  0  0  0  0
    4.8180   -8.0972    1.7387 H   0  0  0  0  0  0  0  0  0  0  0  0
    5.1440   -7.8295    3.4393 H   0  0  0  0  0  0  0  0  0  0  0  0
    5.5068   -6.5743    2.2764 H   0  0  0  0  0  0  0  0  0  0  0  0
  1  2  1  0
  1 24  1  0
  1 25  1  0
  1 26  1  0
  2  3  1  0
  2  4  1  0
  2 27  1  0
  3 28  1  0
  3 29  1  0
  3 30  1  0
  4 22  1  0
  4  5  1  0
  5  6  2  0
  5  7  1  0
  7  8  1  0
  7 18  1  0
  8 14  1  0
  8  9  1  0
  8 31  1  6
  9 10  1  0
  9 32  1  0
  9 33  1  0
 10 15  1  0
 10 11  1  0
 10 34  1  6
 11 12  1  0
 11 35  1  0
 11 36  1  0
 12 13  1  0
 12 37  1  0
 12 38  1  0
 13 14  1  0
 13 15  1  0
 13 39  1  6
 14 40  1  0
 14 41  1  0
 15 16  1  0
 15 17  1  0
 16 42  1  0
 16 43  1  0
 16 44  1  0
 17 45  1  0
 17 46  1  0
 17 47  1  0
 18 19  1  0
 18 48  1  0
 18 49  1  0
 19 20  1  0
 19 21  1  0
 19 22  1  0
 20 50  1  0
 20 51  1  0
 20 52  1  0
 21 53  1  0
 21 54  1  0
 21 55  1  0
 22 23  2  0
M  CHG  1  15   1
M  END
>  <i_m_ct_stereo_status>  (26) 
1

>  <s_m_source_file>  (26) 
/var/tmp/pbs.5102264.sched01/tmpu94zaw8c/01d2njlry.sdf

>  <i_m_source_file_index>  (26) 
9

>  <i_lp_mmshare_version>  (26) 
48012

>  <i_f3d_flags>  (26) 
0

>  <s_epik_input>  (26) 
W0NIM11bQ0hdKFtDSDNdKU4oQzE9TylDKD1PKU4oW0NIMl1DMShbQ0gzXSlbQ0gzXSlbQ0BIXShbQ0gyXVtDQEBIXTIzKVtDSDJdW0NASF0oW0NIMl1bQ0gyXTIpW04rXTMoW0NIM10pW0NIM10=

>  <s_epik_cmdline>  (26) 
J2VwaWtfcHl0aG9uJywgJy1waHQnLCAnMi4wJywgJy1waCcsICc3LjAnLCAnLXRuJywgJzgnLCAnLW1hJywgJzIwMCcsICctaW1hZScsICc8aW5maWxlLm1hZT4nLCAnLW9tYWUnLCAnPG91dGZpbGUubWFlPic=

>  <r_lp_tautomer_probability>  (26) 
1

>  <r_epik_Ionization_Penalty>  (26) 
2.36067e-05

>  <r_epik_Ionization_Penalty_Charging>  (26) 
0

>  <r_epik_Ionization_Penalty_Neutral>  (26) 
2.36067e-05

>  <r_epik_State_Penalty>  (26) 
-0

>  <r_epik_Charging_Adjusted_Penalty>  (26) 
0

>  <i_epik_Tot_Q>  (26) 
1

>  <i_epik_Tot_abs_Q>  (26) 
1

>  <s_lp_Force_Field>  (26) 
OPLS3e

>  <r_lp_Energy>  (26) 
73.0452

>  <b_lp_Chiralities_Consistent>  (26) 
1

>  <s_lp_Variant>  (26) 
7:0-1

>  <s_i_glide_gridfile>  (26) 
pfpi4k_grid

>  <i_i_glide_lignum>  (26) 
9

>  <i_i_glide_rotatable_bonds>  (26) 
2

>  <r_i_docking_score>  (26) 
-2.40566

>  <r_i_glide_ligand_efficiency>  (26) 
-0.104594

>  <r_i_glide_ligand_efficiency_sa>  (26) 
-0.297451

>  <r_i_glide_ligand_efficiency_ln>  (26) 
-0.58171

>  <r_i_glide_gscore>  (26) 
-2.40566

>  <r_i_glide_lipo>  (26) 
-0.183713

>  <r_i_glide_hbond>  (26) 
0

>  <r_i_glide_metal>  (26) 
-0

>  <r_i_glide_rewards>  (26) 
-1.21761

>  <r_i_glide_evdw>  (26) 
-15.8872

>  <r_i_glide_ecoul>  (26) 
-2.32547

>  <r_i_glide_erotb>  (26) 
0.179842

>  <r_i_glide_esite>  (26) 
-0.0409919

>  <r_i_glide_emodel>  (26) 
-19.1433

>  <r_i_glide_energy>  (26) 
-18.2127

>  <r_i_glide_einternal>  (26) 
0.00510987

>  <r_i_glide_intrahb_reward>  (26) 
-0

>  <i_i_glide_confnum>  (26) 
2

>  <i_i_glide_posenum>  (26) 
33

>  <r_i_glide_eff_state_penalty>  (26) 
0

>  <ligand_id>  (26) 
7

>  <original_smiles>  (26) 
CC(C)N1C(=O)N(C2CC3CCC(C2)[N+]3(C)C)CC(C)(C)C1=O

>  <smiles>  (26) 
[H]C([H])([H])C([H])(N1C(=O)N(C2([H])C([H])([H])C3([H])C([H])([H])C([H])([H])C([H])(C2([H])[H])[N+]3(C([H])([H])[H])C([H])([H])[H])C([H])([H])C(C([H])([H])[H])(C([H])([H])[H])C1=O)C([H])([H])[H]

$$$$
8:0:0
     RDKit          3D

 31 33  0  0  1  0  0  0  0  0999 V2000
    2.5726    0.3096   -4.8699 C   0  0  0  0  0  0  0  0  0  0  0  0
    3.1561   -0.7411   -3.9551 C   0  0  0  0  0  0  0  0  0  0  0  0
    2.6292   -2.0478   -3.9091 C   0  0  0  0  0  0  0  0  0  0  0  0
    3.1775   -3.0069   -3.0447 C   0  0  0  0  0  0  0  0  0  0  0  0
    4.2501   -2.6722   -2.1884 C   0  0  0  0  0  0  0  0  0  0  0  0
    4.7511   -3.6485   -1.3075 N   0  0  0  0  0  0  0  0  0  0  0  0
    6.0109   -3.7245   -0.6937 C   0  0  0  0  0  0  0  0  0  0  0  0
    7.0150   -2.9071   -1.0936 N   0  0  0  0  0  0  0  0  0  0  0  0
    8.2198   -2.9892   -0.5173 C   0  0  0  0  0  0  0  0  0  0  0  0
    8.6146   -3.7902    0.4702 N   0  0  0  0  0  0  0  0  0  0  0  0
    7.6002   -4.6095    0.8668 C   0  0  0  0  0  0  0  0  0  0  0  0
    6.2835   -4.6507    0.3428 C   0  0  0  0  0  0  0  0  0  0  0  0
    5.6197   -5.6862    1.0817 C   0  0  0  0  0  0  0  0  0  0  0  0
    6.4248   -6.2425    1.9585 N   0  0  0  0  0  0  0  0  0  0  0  0
    7.6158   -5.5893    1.8443 N   0  0  0  0  0  0  0  0  0  0  0  0
    8.7208   -5.9621    2.7021 C   0  0  0  0  0  0  0  0  0  0  0  0
    4.7407   -1.3469   -2.2121 C   0  0  0  0  0  0  0  0  0  0  0  0
    4.2115   -0.3968   -3.0994 C   0  0  0  0  0  0  0  0  0  0  0  0
    2.0462   -0.1638   -5.6901 H   0  0  0  0  0  0  0  0  0  0  0  0
    3.3552    0.9508   -5.2770 H   0  0  0  0  0  0  0  0  0  0  0  0
    1.8605    0.9350   -4.3347 H   0  0  0  0  0  0  0  0  0  0  0  0
    1.7675   -2.3263   -4.4946 H   0  0  0  0  0  0  0  0  0  0  0  0
    2.7313   -3.9858   -3.0438 H   0  0  0  0  0  0  0  0  0  0  0  0
    8.9366   -2.2547   -0.8486 H   0  0  0  0  0  0  0  0  0  0  0  0
    4.6114   -6.0496    0.9791 H   0  0  0  0  0  0  0  0  0  0  0  0
    9.5674   -6.2566    2.0827 H   0  0  0  0  0  0  0  0  0  0  0  0
    8.4330   -6.7884    3.3550 H   0  0  0  0  0  0  0  0  0  0  0  0
    9.0166   -5.0983    3.2981 H   0  0  0  0  0  0  0  0  0  0  0  0
    5.5143   -1.0099   -1.5456 H   0  0  0  0  0  0  0  0  0  0  0  0
    4.5916    0.6117   -3.0912 H   0  0  0  0  0  0  0  0  0  0  0  0
    4.1354   -4.4366   -1.1502 H   0  0  0  0  0  0  0  0  0  0  0  0
  1  2  1  0
  1 19  1  0
  1 20  1  0
  1 21  1  0
  2 18  2  0
  2  3  1  0
  3  4  2  0
  3 22  1  0
  4  5  1  0
  4 23  1  0
  5  6  1  0
  5 17  2  0
  6  7  1  0
  6 31  1  0
  7 12  1  0
  7  8  2  0
  8  9  1  0
  9 10  2  0
  9 24  1  0
 10 11  1  0
 11 15  1  0
 11 12  2  0
 12 13  1  0
 13 14  2  0
 13 25  1  0
 14 15  1  0
 15 16  1  0
 16 26  1  0
 16 27  1  0
 16 28  1  0
 17 18  1  0
 17 29  1  0
 18 30  1  0
M  END
>  <i_m_ct_stereo_status>  (27) 
1

>  <s_m_source_file>  (27) 
/var/tmp/pbs.5102264.sched01/tmpu94zaw8c/01d2njlry.sdf

>  <i_m_source_file_index>  (27) 
11

>  <i_lp_mmshare_version>  (27) 
48012

>  <i_f3d_flags>  (27) 
0

>  <s_epik_input>  (27) 
W0NIM11jMVtjSF1bY0hdYyhbY0hdW2NIXTEpL049YyhcW25IXVtjSF1uMiljKGMyMylbY0hdbm4zW0NIM10=

>  <s_epik_cmdline>  (27) 
J2VwaWtfcHl0aG9uJywgJy1waHQnLCAnMi4wJywgJy1waCcsICc3LjAnLCAnLXRuJywgJzgnLCAnLW1hJywgJzIwMCcsICctaW1hZScsICc8aW5maWxlLm1hZT4nLCAnLW9tYWUnLCAnPG91dGZpbGUubWFlPic=

>  <r_lp_tautomer_probability>  (27) 
1

>  <r_epik_Ionization_Penalty>  (27) 
2.30108e-05

>  <r_epik_Ionization_Penalty_Charging>  (27) 
0

>  <r_epik_Ionization_Penalty_Neutral>  (27) 
2.30108e-05

>  <r_epik_State_Penalty>  (27) 
-0

>  <r_epik_Charging_Adjusted_Penalty>  (27) 
0

>  <i_epik_Tot_Q>  (27) 
0

>  <i_epik_Tot_abs_Q>  (27) 
0

>  <s_lp_Force_Field>  (27) 
OPLS3e

>  <r_lp_Energy>  (27) 
22.1176

>  <b_lp_Chiralities_Consistent>  (27) 
1

>  <s_lp_Variant>  (27) 
8:0-1

>  <s_i_glide_gridfile>  (27) 
pfpi4k_grid

>  <i_i_glide_lignum>  (27) 
11

>  <i_i_glide_rotatable_bonds>  (27) 
2

>  <r_i_docking_score>  (27) 
-4.33615

>  <r_i_glide_ligand_efficiency>  (27) 
-0.240897

>  <r_i_glide_ligand_efficiency_sa>  (27) 
-0.631329

>  <r_i_glide_ligand_efficiency_ln>  (27) 
-1.11459

>  <r_i_glide_gscore>  (27) 
-4.33615

>  <r_i_glide_lipo>  (27) 
-0.837868

>  <r_i_glide_hbond>  (27) 
0

>  <r_i_glide_metal>  (27) 
-0

>  <r_i_glide_rewards>  (27) 
-2.09314

>  <r_i_glide_evdw>  (27) 
-25.5088

>  <r_i_glide_ecoul>  (27) 
-4.88048

>  <r_i_glide_erotb>  (27) 
0.603593

>  <r_i_glide_esite>  (27) 
-0.00122258

>  <r_i_glide_emodel>  (27) 
-38.0831

>  <r_i_glide_energy>  (27) 
-30.3893

>  <r_i_glide_einternal>  (27) 
0.490359

>  <r_i_glide_intrahb_reward>  (27) 
-0

>  <i_i_glide_confnum>  (27) 
4

>  <i_i_glide_posenum>  (27) 
39

>  <r_i_glide_eff_state_penalty>  (27) 
0

>  <ligand_id>  (27) 
8

>  <original_smiles>  (27) 
Cc1ccc(N=c2[nH]cnc3c2cnn3C)cc1

>  <smiles>  (27) 
[H]c1nc(N([H])c2c([H])c([H])c(C([H])([H])[H])c([H])c2[H])c2c([H])nn(C([H])([H])[H])c2n1

$$$$
8:0:1
     RDKit          3D

 31 33  0  0  1  0  0  0  0  0999 V2000
    3.1561    0.4722   -4.6350 C   0  0  0  0  0  0  0  0  0  0  0  0
    3.4469   -0.7395   -3.7846 C   0  0  0  0  0  0  0  0  0  0  0  0
    4.4899   -0.6933   -2.8555 C   0  0  0  0  0  0  0  0  0  0  0  0
    4.8432   -1.8303   -2.1193 C   0  0  0  0  0  0  0  0  0  0  0  0
    4.0809   -3.0209   -2.2078 C   0  0  0  0  0  0  0  0  0  0  0  0
    4.3492   -4.1753   -1.4342 N   0  0  0  0  0  0  0  0  0  0  0  0
    4.9292   -4.2633   -0.1552 C   0  0  0  0  0  0  0  0  0  0  0  0
    5.5198   -3.1837    0.3870 N   0  0  0  0  0  0  0  0  0  0  0  0
    6.0875   -3.2390    1.5828 C   0  0  0  0  0  0  0  0  0  0  0  0
    6.1964   -4.2784    2.4011 N   0  0  0  0  0  0  0  0  0  0  0  0
    5.5846   -5.3692    1.8683 C   0  0  0  0  0  0  0  0  0  0  0  0
    4.9341   -5.4570    0.6176 C   0  0  0  0  0  0  0  0  0  0  0  0
    4.4641   -6.8061    0.5385 C   0  0  0  0  0  0  0  0  0  0  0  0
    4.7938   -7.5033    1.6066 N   0  0  0  0  0  0  0  0  0  0  0  0
    5.4801   -6.6368    2.4138 N   0  0  0  0  0  0  0  0  0  0  0  0
    5.9957   -7.0802    3.6877 C   0  0  0  0  0  0  0  0  0  0  0  0
    3.0003   -3.0497   -3.1263 C   0  0  0  0  0  0  0  0  0  0  0  0
    2.7033   -1.9208   -3.9151 C   0  0  0  0  0  0  0  0  0  0  0  0
    3.5991    1.3477   -4.1649 H   0  0  0  0  0  0  0  0  0  0  0  0
    2.0791    0.6194   -4.7353 H   0  0  0  0  0  0  0  0  0  0  0  0
    3.6115    0.3740   -5.6209 H   0  0  0  0  0  0  0  0  0  0  0  0
    5.0659    0.2042   -2.7178 H   0  0  0  0  0  0  0  0  0  0  0  0
    5.7195   -1.7005   -1.5152 H   0  0  0  0  0  0  0  0  0  0  0  0
    6.5676   -2.3324    1.8996 H   0  0  0  0  0  0  0  0  0  0  0  0
    3.8954   -7.2641   -0.2472 H   0  0  0  0  0  0  0  0  0  0  0  0
    7.0782   -6.9340    3.7090 H   0  0  0  0  0  0  0  0  0  0  0  0
    5.7598   -8.1311    3.8432 H   0  0  0  0  0  0  0  0  0  0  0  0
    5.5479   -6.4763    4.4805 H   0  0  0  0  0  0  0  0  0  0  0  0
    2.3798   -3.9250   -3.2436 H   0  0  0  0  0  0  0  0  0  0  0  0
    1.8655   -1.9536   -4.5961 H   0  0  0  0  0  0  0  0  0  0  0  0
    3.8786   -5.0163   -1.7725 H   0  0  0  0  0  0  0  0  0  0  0  0
  1  2  1  0
  1 19  1  0
  1 20  1  0
  1 21  1  0
  2 18  2  0
  2  3  1  0
  3  4  2  0
  3 22  1  0
  4  5  1  0
  4 23  1  0
  5  6  1  0
  5 17  2  0
  6  7  1  0
  6 31  1  0
  7 12  1  0
  7  8  2  0
  8  9  1  0
  9 10  2  0
  9 24  1  0
 10 11  1  0
 11 15  1  0
 11 12  2  0
 12 13  1  0
 13 14  2  0
 13 25  1  0
 14 15  1  0
 15 16  1  0
 16 26  1  0
 16 27  1  0
 16 28  1  0
 17 18  1  0
 17 29  1  0
 18 30  1  0
M  END
>  <i_m_ct_stereo_status>  (28) 
1

>  <s_m_source_file>  (28) 
/var/tmp/pbs.5102264.sched01/tmpu94zaw8c/01d2njlry.sdf

>  <i_m_source_file_index>  (28) 
11

>  <i_lp_mmshare_version>  (28) 
48012

>  <i_f3d_flags>  (28) 
0

>  <s_epik_input>  (28) 
W0NIM11jMVtjSF1bY0hdYyhbY0hdW2NIXTEpL049YyhcW25IXVtjSF1uMiljKGMyMylbY0hdbm4zW0NIM10=

>  <s_epik_cmdline>  (28) 
J2VwaWtfcHl0aG9uJywgJy1waHQnLCAnMi4wJywgJy1waCcsICc3LjAnLCAnLXRuJywgJzgnLCAnLW1hJywgJzIwMCcsICctaW1hZScsICc8aW5maWxlLm1hZT4nLCAnLW9tYWUnLCAnPG91dGZpbGUubWFlPic=

>  <r_lp_tautomer_probability>  (28) 
1

>  <r_epik_Ionization_Penalty>  (28) 
2.30108e-05

>  <r_epik_Ionization_Penalty_Charging>  (28) 
0

>  <r_epik_Ionization_Penalty_Neutral>  (28) 
2.30108e-05

>  <r_epik_State_Penalty>  (28) 
-0

>  <r_epik_Charging_Adjusted_Penalty>  (28) 
0

>  <i_epik_Tot_Q>  (28) 
0

>  <i_epik_Tot_abs_Q>  (28) 
0

>  <s_lp_Force_Field>  (28) 
OPLS3e

>  <r_lp_Energy>  (28) 
22.1176

>  <b_lp_Chiralities_Consistent>  (28) 
1

>  <s_lp_Variant>  (28) 
8:0-1

>  <s_i_glide_gridfile>  (28) 
pfpi4k_grid

>  <i_i_glide_lignum>  (28) 
11

>  <i_i_glide_rotatable_bonds>  (28) 
2

>  <r_i_docking_score>  (28) 
-4.06195

>  <r_i_glide_ligand_efficiency>  (28) 
-0.225664

>  <r_i_glide_ligand_efficiency_sa>  (28) 
-0.591406

>  <r_i_glide_ligand_efficiency_ln>  (28) 
-1.0441

>  <r_i_glide_gscore>  (28) 
-4.06195

>  <r_i_glide_lipo>  (28) 
-0.71908

>  <r_i_glide_hbond>  (28) 
-0.32

>  <r_i_glide_metal>  (28) 
-0

>  <r_i_glide_rewards>  (28) 
-1.94626

>  <r_i_glide_evdw>  (28) 
-15.9565

>  <r_i_glide_ecoul>  (28) 
-5.58505

>  <r_i_glide_erotb>  (28) 
0.603593

>  <r_i_glide_esite>  (28) 
-0.0446197

>  <r_i_glide_emodel>  (28) 
-27.1742

>  <r_i_glide_energy>  (28) 
-21.5415

>  <r_i_glide_einternal>  (28) 
2.70261

>  <r_i_glide_intrahb_reward>  (28) 
-0

>  <i_i_glide_confnum>  (28) 
5

>  <i_i_glide_posenum>  (28) 
33

>  <r_i_glide_eff_state_penalty>  (28) 
0

>  <ligand_id>  (28) 
8

>  <original_smiles>  (28) 
Cc1ccc(N=c2[nH]cnc3c2cnn3C)cc1

>  <smiles>  (28) 
[H]c1nc(N([H])c2c([H])c([H])c(C([H])([H])[H])c([H])c2[H])c2c([H])nn(C([H])([H])[H])c2n1

$$$$
8:0:2
     RDKit          3D

 31 33  0  0  1  0  0  0  0  0999 V2000
   -2.5887    3.5294   10.8969 C   0  0  0  0  0  0  0  0  0  0  0  0
   -2.2939    3.0455    9.4943 C   0  0  0  0  0  0  0  0  0  0  0  0
   -1.0722    2.4105    9.1987 C   0  0  0  0  0  0  0  0  0  0  0  0
   -0.8083    1.9550    7.8905 C   0  0  0  0  0  0  0  0  0  0  0  0
   -1.7662    2.1330    6.8637 C   0  0  0  0  0  0  0  0  0  0  0  0
   -1.5270    1.6986    5.5495 N   0  0  0  0  0  0  0  0  0  0  0  0
   -0.7938    0.5774    5.1443 C   0  0  0  0  0  0  0  0  0  0  0  0
   -0.8420   -0.5367    5.9144 N   0  0  0  0  0  0  0  0  0  0  0  0
   -0.1798   -1.6304    5.5207 C   0  0  0  0  0  0  0  0  0  0  0  0
    0.5647   -1.8141    4.4322 N   0  0  0  0  0  0  0  0  0  0  0  0
    0.6251   -0.6781    3.6819 C   0  0  0  0  0  0  0  0  0  0  0  0
   -0.0279    0.5500    3.9532 C   0  0  0  0  0  0  0  0  0  0  0  0
    0.3420    1.4110    2.8652 C   0  0  0  0  0  0  0  0  0  0  0  0
    1.1498    0.8056    2.0260 N   0  0  0  0  0  0  0  0  0  0  0  0
    1.3146   -0.4591    2.4998 N   0  0  0  0  0  0  0  0  0  0  0  0
    2.1449   -1.3902    1.7537 C   0  0  0  0  0  0  0  0  0  0  0  0
   -2.9768    2.7906    7.1647 C   0  0  0  0  0  0  0  0  0  0  0  0
   -3.2448    3.2361    8.4740 C   0  0  0  0  0  0  0  0  0  0  0  0
   -1.9568    3.0141   11.6179 H   0  0  0  0  0  0  0  0  0  0  0  0
   -3.6294    3.3425   11.1669 H   0  0  0  0  0  0  0  0  0  0  0  0
   -2.3927    4.5963   10.9906 H   0  0  0  0  0  0  0  0  0  0  0  0
   -0.3345    2.2846    9.9772 H   0  0  0  0  0  0  0  0  0  0  0  0
    0.1419    1.4857    7.6886 H   0  0  0  0  0  0  0  0  0  0  0  0
   -0.2978   -2.4965    6.1559 H   0  0  0  0  0  0  0  0  0  0  0  0
    0.0646    2.4371    2.6788 H   0  0  0  0  0  0  0  0  0  0  0  0
    2.9609   -1.7446    2.3847 H   0  0  0  0  0  0  0  0  0  0  0  0
    2.5624   -0.9102    0.8664 H   0  0  0  0  0  0  0  0  0  0  0  0
    1.5434   -2.2447    1.4424 H   0  0  0  0  0  0  0  0  0  0  0  0
   -3.7146    2.9440    6.3918 H   0  0  0  0  0  0  0  0  0  0  0  0
   -4.1822    3.7232    8.6999 H   0  0  0  0  0  0  0  0  0  0  0  0
   -1.8779    2.2823    4.8021 H   0  0  0  0  0  0  0  0  0  0  0  0
  1  2  1  0
  1 19  1  0
  1 20  1  0
  1 21  1  0
  2 18  2  0
  2  3  1  0
  3  4  2  0
  3 22  1  0
  4  5  1  0
  4 23  1  0
  5  6  1  0
  5 17  2  0
  6  7  1  0
  6 31  1  0
  7 12  1  0
  7  8  2  0
  8  9  1  0
  9 10  2  0
  9 24  1  0
 10 11  1  0
 11 15  1  0
 11 12  2  0
 12 13  1  0
 13 14  2  0
 13 25  1  0
 14 15  1  0
 15 16  1  0
 16 26  1  0
 16 27  1  0
 16 28  1  0
 17 18  1  0
 17 29  1  0
 18 30  1  0
M  END
>  <i_m_ct_stereo_status>  (29) 
1

>  <s_m_source_file>  (29) 
/var/tmp/pbs.5102264.sched01/tmpu94zaw8c/01d2njlry.sdf

>  <i_m_source_file_index>  (29) 
11

>  <i_lp_mmshare_version>  (29) 
48012

>  <i_f3d_flags>  (29) 
0

>  <s_epik_input>  (29) 
W0NIM11jMVtjSF1bY0hdYyhbY0hdW2NIXTEpL049YyhcW25IXVtjSF1uMiljKGMyMylbY0hdbm4zW0NIM10=

>  <s_epik_cmdline>  (29) 
J2VwaWtfcHl0aG9uJywgJy1waHQnLCAnMi4wJywgJy1waCcsICc3LjAnLCAnLXRuJywgJzgnLCAnLW1hJywgJzIwMCcsICctaW1hZScsICc8aW5maWxlLm1hZT4nLCAnLW9tYWUnLCAnPG91dGZpbGUubWFlPic=

>  <r_lp_tautomer_probability>  (29) 
1

>  <r_epik_Ionization_Penalty>  (29) 
2.30108e-05

>  <r_epik_Ionization_Penalty_Charging>  (29) 
0

>  <r_epik_Ionization_Penalty_Neutral>  (29) 
2.30108e-05

>  <r_epik_State_Penalty>  (29) 
-0

>  <r_epik_Charging_Adjusted_Penalty>  (29) 
0

>  <i_epik_Tot_Q>  (29) 
0

>  <i_epik_Tot_abs_Q>  (29) 
0

>  <s_lp_Force_Field>  (29) 
OPLS3e

>  <r_lp_Energy>  (29) 
22.1176

>  <b_lp_Chiralities_Consistent>  (29) 
1

>  <s_lp_Variant>  (29) 
8:0-1

>  <s_i_glide_gridfile>  (29) 
pfpi4k_grid

>  <i_i_glide_lignum>  (29) 
11

>  <i_i_glide_rotatable_bonds>  (29) 
2

>  <r_i_docking_score>  (29) 
-3.0192

>  <r_i_glide_ligand_efficiency>  (29) 
-0.167733

>  <r_i_glide_ligand_efficiency_sa>  (29) 
-0.439585

>  <r_i_glide_ligand_efficiency_ln>  (29) 
-0.776069

>  <r_i_glide_gscore>  (29) 
-3.0192

>  <r_i_glide_lipo>  (29) 
-0.232206

>  <r_i_glide_hbond>  (29) 
0

>  <r_i_glide_metal>  (29) 
-0

>  <r_i_glide_rewards>  (29) 
-1.77766

>  <r_i_glide_evdw>  (29) 
-21.479

>  <r_i_glide_ecoul>  (29) 
-3.01113

>  <r_i_glide_erotb>  (29) 
0.603593

>  <r_i_glide_esite>  (29) 
-0.0873008

>  <r_i_glide_emodel>  (29) 
-27.2029

>  <r_i_glide_energy>  (29) 
-24.4901

>  <r_i_glide_einternal>  (29) 
5.66495

>  <r_i_glide_intrahb_reward>  (29) 
-0

>  <i_i_glide_confnum>  (29) 
6

>  <i_i_glide_posenum>  (29) 
16

>  <r_i_glide_eff_state_penalty>  (29) 
0

>  <ligand_id>  (29) 
8

>  <original_smiles>  (29) 
Cc1ccc(N=c2[nH]cnc3c2cnn3C)cc1

>  <smiles>  (29) 
[H]c1nc(N([H])c2c([H])c([H])c(C([H])([H])[H])c([H])c2[H])c2c([H])nn(C([H])([H])[H])c2n1

$$$$
9:0:0
     RDKit          3D

 43 46  0  0  1  0  0  0  0  0999 V2000
    7.2841   -5.8936    2.5671 C   0  0  0  0  0  0  0  0  0  0  0  0
    6.7381   -6.6280    1.3355 C   0  0  0  0  0  0  0  0  0  0  0  0
    5.3334   -6.2975    1.0876 N   0  0  0  0  0  0  0  0  0  0  0  0
    4.1747   -7.0011    1.4845 C   0  0  0  0  0  0  0  0  0  0  0  0
    3.0734   -6.2796    1.0921 C   0  0  0  0  0  0  0  0  0  0  0  0
    3.5389   -5.1204    0.3898 C   0  0  0  0  0  0  0  0  0  0  0  0
    2.9063   -4.0244   -0.2548 C   0  0  0  0  0  0  0  0  0  0  0  0
    3.6453   -2.9965   -0.8782 C   0  0  0  0  0  0  0  0  0  0  0  0
    3.0266   -1.9349   -1.4740 O   0  0  0  0  0  0  0  0  0  0  0  0
    5.0544   -3.0656   -0.8880 C   0  0  0  0  0  0  0  0  0  0  0  0
    5.7097   -4.1362   -0.2436 C   0  0  0  0  0  0  0  0  0  0  0  0
    4.9585   -5.1542    0.3839 C   0  0  0  0  0  0  0  0  0  0  0  0
    1.7149   -6.7002    1.3602 C   0  0  0  0  0  0  0  0  0  0  0  0
    0.7327   -6.0835    0.9486 O   0  0  0  0  0  0  0  0  0  0  0  0
    1.5482   -7.9411    2.1505 C   0  0  0  0  0  0  0  0  0  0  0  0
    0.2334   -8.3436    2.4816 C   0  0  0  0  0  0  0  0  0  0  0  0
    0.0043   -9.5243    3.2057 C   0  0  0  0  0  0  0  0  0  0  0  0
    1.0922  -10.3154    3.6059 C   0  0  0  0  0  0  0  0  0  0  0  0
    0.8790  -11.4462    4.3256 O   0  0  0  0  0  0  0  0  0  0  0  0
    2.4051   -9.9265    3.2718 C   0  0  0  0  0  0  0  0  0  0  0  0
    2.6624   -8.7292    2.5544 C   0  0  0  0  0  0  0  0  0  0  0  0
    4.1182   -8.3369    2.2218 C   0  0  0  0  0  0  0  0  0  0  0  0
    4.6870   -9.4602    1.3240 C   0  0  0  0  0  0  0  0  0  0  0  0
    4.8840   -8.2484    3.5640 C   0  0  0  0  0  0  0  0  0  0  0  0
    8.3208   -6.1840    2.7468 H   0  0  0  0  0  0  0  0  0  0  0  0
    6.7154   -6.1069    3.4705 H   0  0  0  0  0  0  0  0  0  0  0  0
    7.2443   -4.8147    2.4182 H   0  0  0  0  0  0  0  0  0  0  0  0
    7.3190   -6.3278    0.4603 H   0  0  0  0  0  0  0  0  0  0  0  0
    6.8915   -7.6989    1.4223 H   0  0  0  0  0  0  0  0  0  0  0  0
    1.8314   -3.9880   -0.2806 H   0  0  0  0  0  0  0  0  0  0  0  0
    2.1186   -1.7309   -1.1882 H   0  0  0  0  0  0  0  0  0  0  0  0
    5.6302   -2.2913   -1.3688 H   0  0  0  0  0  0  0  0  0  0  0  0
    6.7920   -4.1815   -0.2257 H   0  0  0  0  0  0  0  0  0  0  0  0
   -0.6211   -7.7571    2.1732 H   0  0  0  0  0  0  0  0  0  0  0  0
   -1.0005   -9.8254    3.4482 H   0  0  0  0  0  0  0  0  0  0  0  0
    0.0104  -11.4820    4.6882 H   0  0  0  0  0  0  0  0  0  0  0  0
    3.2253  -10.5579    3.5803 H   0  0  0  0  0  0  0  0  0  0  0  0
    4.0659   -9.5660    0.4313 H   0  0  0  0  0  0  0  0  0  0  0  0
    4.6933  -10.4234    1.8398 H   0  0  0  0  0  0  0  0  0  0  0  0
    5.7016   -9.2962    0.9773 H   0  0  0  0  0  0  0  0  0  0  0  0
    4.5093   -7.4083    4.1562 H   0  0  0  0  0  0  0  0  0  0  0  0
    5.9535   -8.1323    3.4191 H   0  0  0  0  0  0  0  0  0  0  0  0
    4.7747   -9.1450    4.1768 H   0  0  0  0  0  0  0  0  0  0  0  0
  1  2  1  0
  1 25  1  0
  1 26  1  0
  1 27  1  0
  2  3  1  0
  2 28  1  0
  2 29  1  0
  3 12  1  0
  3  4  1  0
  4 22  1  0
  4  5  2  0
  5  6  1  0
  5 13  1  0
  6 12  2  0
  6  7  1  0
  7  8  2  0
  7 30  1  0
  8  9  1  0
  8 10  1  0
  9 31  1  0
 10 11  2  0
 10 32  1  0
 11 12  1  0
 11 33  1  0
 13 14  2  0
 13 15  1  0
 15 21  2  0
 15 16  1  0
 16 17  2  0
 16 34  1  0
 17 18  1  0
 17 35  1  0
 18 19  1  0
 18 20  2  0
 19 36  1  0
 20 21  1  0
 20 37  1  0
 21 22  1  0
 22 23  1  0
 22 24  1  0
 23 38  1  0
 23 39  1  0
 23 40  1  0
 24 41  1  0
 24 42  1  0
 24 43  1  0
M  END
>  <i_m_ct_stereo_status>  (30) 
1

>  <s_m_source_file>  (30) 
/var/tmp/pbs.5102264.sched01/tmpu94zaw8c/01d2njlry.sdf

>  <i_m_source_file_index>  (30) 
12

>  <i_lp_mmshare_version>  (30) 
48012

>  <i_f3d_flags>  (30) 
0

>  <s_epik_input>  (30) 
W2NIXTFjKFtPSF0pW2NIXVtjSF1jKG4yW0NIMl1bQ0gzXSljMWMoYzIzKUMoPU8pYzRjKEMzKFtDSDNdKVtDSDNdKVtjSF1jKFtPSF0pW2NIXVtjSF00

>  <s_epik_cmdline>  (30) 
J2VwaWtfcHl0aG9uJywgJy1waHQnLCAnMi4wJywgJy1waCcsICc3LjAnLCAnLXRuJywgJzgnLCAnLW1hJywgJzIwMCcsICctaW1hZScsICc8aW5maWxlLm1hZT4nLCAnLW9tYWUnLCAnPG91dGZpbGUubWFlPic=

>  <r_epik_Ionization_Penalty>  (30) 
0.0970732

>  <r_epik_Ionization_Penalty_Charging>  (30) 
0

>  <r_epik_Ionization_Penalty_Neutral>  (30) 
0.0970732

>  <r_epik_State_Penalty>  (30) 
0.0856893

>  <r_epik_Charging_Adjusted_Penalty>  (30) 
0.0856893

>  <i_epik_Tot_Q>  (30) 
0

>  <i_epik_Tot_abs_Q>  (30) 
0

>  <s_lp_Force_Field>  (30) 
OPLS3e

>  <r_lp_Energy>  (30) 
27.1428

>  <b_lp_Chiralities_Consistent>  (30) 
1

>  <s_lp_Variant>  (30) 
9:0-1

>  <s_i_glide_gridfile>  (30) 
pfpi4k_grid

>  <i_i_glide_lignum>  (30) 
12

>  <i_i_glide_rotatable_bonds>  (30) 
3

>  <r_i_docking_score>  (30) 
-4.61355

>  <r_i_glide_ligand_efficiency>  (30) 
-0.192231

>  <r_i_glide_ligand_efficiency_sa>  (30) 
-0.55449

>  <r_i_glide_ligand_efficiency_ln>  (30) 
-1.10423

>  <r_i_glide_gscore>  (30) 
-4.61355

>  <r_i_glide_lipo>  (30) 
-0.429705

>  <r_i_glide_hbond>  (30) 
-0.389427

>  <r_i_glide_metal>  (30) 
-0

>  <r_i_glide_rewards>  (30) 
-1.35046

>  <r_i_glide_evdw>  (30) 
-24.2878

>  <r_i_glide_ecoul>  (30) 
-7.91705

>  <r_i_glide_erotb>  (30) 
0

>  <r_i_glide_esite>  (30) 
-0.0420045

>  <r_i_glide_emodel>  (30) 
-41.8161

>  <r_i_glide_energy>  (30) 
-32.2048

>  <r_i_glide_einternal>  (30) 
1.10237

>  <r_i_glide_intrahb_reward>  (30) 
-0

>  <i_i_glide_confnum>  (30) 
2

>  <i_i_glide_posenum>  (30) 
7

>  <r_i_glide_eff_state_penalty>  (30) 
0

>  <ligand_id>  (30) 
9

>  <original_smiles>  (30) 
CCn1c2c(c3cc(O)ccc31)C(=O)c1ccc(O)cc1C2(C)C

>  <smiles>  (30) 
[H]Oc1c([H])c([H])c2c(c1[H])C(C([H])([H])[H])(C([H])([H])[H])c1c(c3c([H])c(O[H])c([H])c([H])c3n1C([H])([H])C([H])([H])[H])C2=O

$$$$
9:0:1
     RDKit          3D

 43 46  0  0  1  0  0  0  0  0999 V2000
    7.7979   -6.9612    0.9825 C   0  0  0  0  0  0  0  0  0  0  0  0
    6.9868   -6.2633    2.0924 C   0  0  0  0  0  0  0  0  0  0  0  0
    5.5937   -5.9817    1.7202 N   0  0  0  0  0  0  0  0  0  0  0  0
    4.4136   -6.7602    1.9356 C   0  0  0  0  0  0  0  0  0  0  0  0
    3.3362   -6.0438    1.4394 C   0  0  0  0  0  0  0  0  0  0  0  0
    3.8311   -4.8111    0.8797 C   0  0  0  0  0  0  0  0  0  0  0  0
    3.2396   -3.6904    0.2320 C   0  0  0  0  0  0  0  0  0  0  0  0
    4.0160   -2.5930   -0.2031 C   0  0  0  0  0  0  0  0  0  0  0  0
    3.4133   -1.5230   -0.8108 O   0  0  0  0  0  0  0  0  0  0  0  0
    5.4005   -2.5984   -0.0143 C   0  0  0  0  0  0  0  0  0  0  0  0
    6.0102   -3.6941    0.6355 C   0  0  0  0  0  0  0  0  0  0  0  0
    5.2356   -4.7901    1.0718 C   0  0  0  0  0  0  0  0  0  0  0  0
    1.9509   -6.5071    1.4948 C   0  0  0  0  0  0  0  0  0  0  0  0
    1.0116   -5.8612    1.0119 O   0  0  0  0  0  0  0  0  0  0  0  0
    1.7447   -7.8167    2.1828 C   0  0  0  0  0  0  0  0  0  0  0  0
    0.4164   -8.2967    2.2947 C   0  0  0  0  0  0  0  0  0  0  0  0
    0.1646   -9.5473    2.8848 C   0  0  0  0  0  0  0  0  0  0  0  0
    1.2274  -10.3258    3.3737 C   0  0  0  0  0  0  0  0  0  0  0  0
    1.0041  -11.5435    3.9356 O   0  0  0  0  0  0  0  0  0  0  0  0
    2.5398   -9.8442    3.2757 C   0  0  0  0  0  0  0  0  0  0  0  0
    2.8334   -8.5897    2.6844 C   0  0  0  0  0  0  0  0  0  0  0  0
    4.3102   -8.1513    2.5933 C   0  0  0  0  0  0  0  0  0  0  0  0
    4.9950   -9.2318    1.7359 C   0  0  0  0  0  0  0  0  0  0  0  0
    4.8474   -8.1264    4.0541 C   0  0  0  0  0  0  0  0  0  0  0  0
    8.7989   -7.0843    1.3727 H   0  0  0  0  0  0  0  0  0  0  0  0
    7.8544   -6.3437    0.0896 H   0  0  0  0  0  0  0  0  0  0  0  0
    7.4525   -7.9647    0.7059 H   0  0  0  0  0  0  0  0  0  0  0  0
    7.0792   -6.7824    3.0495 H   0  0  0  0  0  0  0  0  0  0  0  0
    7.4327   -5.2884    2.2910 H   0  0  0  0  0  0  0  0  0  0  0  0
    2.1836   -3.7039    0.0759 H   0  0  0  0  0  0  0  0  0  0  0  0
    2.4703   -1.4590   -0.7596 H   0  0  0  0  0  0  0  0  0  0  0  0
    5.9906   -1.7619   -0.3432 H   0  0  0  0  0  0  0  0  0  0  0  0
    7.0749   -3.6964    0.7946 H   0  0  0  0  0  0  0  0  0  0  0  0
   -0.4139   -7.7288    1.8981 H   0  0  0  0  0  0  0  0  0  0  0  0
   -0.8308   -9.9193    2.9747 H   0  0  0  0  0  0  0  0  0  0  0  0
    1.7698  -11.9885    4.2573 H   0  0  0  0  0  0  0  0  0  0  0  0
    3.3555  -10.4524    3.6251 H   0  0  0  0  0  0  0  0  0  0  0  0
    4.5595   -9.2448    0.7370 H   0  0  0  0  0  0  0  0  0  0  0  0
    4.8370  -10.2271    2.1321 H   0  0  0  0  0  0  0  0  0  0  0  0
    6.0615   -9.0735    1.6971 H   0  0  0  0  0  0  0  0  0  0  0  0
    4.3353   -7.3414    4.6279 H   0  0  0  0  0  0  0  0  0  0  0  0
    5.9186   -7.9734    4.1427 H   0  0  0  0  0  0  0  0  0  0  0  0
    4.6597   -9.0720    4.5594 H   0  0  0  0  0  0  0  0  0  0  0  0
  1  2  1  0
  1 25  1  0
  1 26  1  0
  1 27  1  0
  2  3  1  0
  2 28  1  0
  2 29  1  0
  3 12  1  0
  3  4  1  0
  4 22  1  0
  4  5  2  0
  5  6  1  0
  5 13  1  0
  6 12  2  0
  6  7  1  0
  7  8  2  0
  7 30  1  0
  8  9  1  0
  8 10  1  0
  9 31  1  0
 10 11  2  0
 10 32  1  0
 11 12  1  0
 11 33  1  0
 13 14  2  0
 13 15  1  0
 15 21  2  0
 15 16  1  0
 16 17  2  0
 16 34  1  0
 17 18  1  0
 17 35  1  0
 18 19  1  0
 18 20  2  0
 19 36  1  0
 20 21  1  0
 20 37  1  0
 21 22  1  0
 22 23  1  0
 22 24  1  0
 23 38  1  0
 23 39  1  0
 23 40  1  0
 24 41  1  0
 24 42  1  0
 24 43  1  0
M  END
>  <i_m_ct_stereo_status>  (31) 
1

>  <s_m_source_file>  (31) 
/var/tmp/pbs.5102264.sched01/tmpu94zaw8c/01d2njlry.sdf

>  <i_m_source_file_index>  (31) 
12

>  <i_lp_mmshare_version>  (31) 
48012

>  <i_f3d_flags>  (31) 
0

>  <s_epik_input>  (31) 
W2NIXTFjKFtPSF0pW2NIXVtjSF1jKG4yW0NIMl1bQ0gzXSljMWMoYzIzKUMoPU8pYzRjKEMzKFtDSDNdKVtDSDNdKVtjSF1jKFtPSF0pW2NIXVtjSF00

>  <s_epik_cmdline>  (31) 
J2VwaWtfcHl0aG9uJywgJy1waHQnLCAnMi4wJywgJy1waCcsICc3LjAnLCAnLXRuJywgJzgnLCAnLW1hJywgJzIwMCcsICctaW1hZScsICc8aW5maWxlLm1hZT4nLCAnLW9tYWUnLCAnPG91dGZpbGUubWFlPic=

>  <r_epik_Ionization_Penalty>  (31) 
0.0970732

>  <r_epik_Ionization_Penalty_Charging>  (31) 
0

>  <r_epik_Ionization_Penalty_Neutral>  (31) 
0.0970732

>  <r_epik_State_Penalty>  (31) 
0.0856893

>  <r_epik_Charging_Adjusted_Penalty>  (31) 
0.0856893

>  <i_epik_Tot_Q>  (31) 
0

>  <i_epik_Tot_abs_Q>  (31) 
0

>  <s_lp_Force_Field>  (31) 
OPLS3e

>  <r_lp_Energy>  (31) 
27.1428

>  <b_lp_Chiralities_Consistent>  (31) 
1

>  <s_lp_Variant>  (31) 
9:0-1

>  <s_i_glide_gridfile>  (31) 
pfpi4k_grid

>  <i_i_glide_lignum>  (31) 
12

>  <i_i_glide_rotatable_bonds>  (31) 
3

>  <r_i_docking_score>  (31) 
-4.36047

>  <r_i_glide_ligand_efficiency>  (31) 
-0.181686

>  <r_i_glide_ligand_efficiency_sa>  (31) 
-0.524073

>  <r_i_glide_ligand_efficiency_ln>  (31) 
-1.04366

>  <r_i_glide_gscore>  (31) 
-4.36047

>  <r_i_glide_lipo>  (31) 
-0.3985

>  <r_i_glide_hbond>  (31) 
-0.32

>  <r_i_glide_metal>  (31) 
-0

>  <r_i_glide_rewards>  (31) 
-1.29528

>  <r_i_glide_evdw>  (31) 
-23.8126

>  <r_i_glide_ecoul>  (31) 
-7.50309

>  <r_i_glide_erotb>  (31) 
0

>  <r_i_glide_esite>  (31) 
-0.0305886

>  <r_i_glide_emodel>  (31) 
-39.8552

>  <r_i_glide_energy>  (31) 
-31.3157

>  <r_i_glide_einternal>  (31) 
0.417134

>  <r_i_glide_intrahb_reward>  (31) 
-0

>  <i_i_glide_confnum>  (31) 
2

>  <i_i_glide_posenum>  (31) 
28

>  <r_i_glide_eff_state_penalty>  (31) 
0

>  <ligand_id>  (31) 
9

>  <original_smiles>  (31) 
CCn1c2c(c3cc(O)ccc31)C(=O)c1ccc(O)cc1C2(C)C

>  <smiles>  (31) 
[H]Oc1c([H])c([H])c2c(c1[H])C(C([H])([H])[H])(C([H])([H])[H])c1c(c3c([H])c(O[H])c([H])c([H])c3n1C([H])([H])C([H])([H])[H])C2=O

$$$$
9:0:2
     RDKit          3D

 43 46  0  0  1  0  0  0  0  0999 V2000
    5.3823  -10.7766    3.0974 C   0  0  0  0  0  0  0  0  0  0  0  0
    5.0432   -9.5078    3.8919 C   0  0  0  0  0  0  0  0  0  0  0  0
    3.9792   -8.7333    3.2519 N   0  0  0  0  0  0  0  0  0  0  0  0
    4.0772   -7.5973    2.4214 C   0  0  0  0  0  0  0  0  0  0  0  0
    2.8197   -7.2512    2.0004 C   0  0  0  0  0  0  0  0  0  0  0  0
    1.8973   -8.1583    2.6111 C   0  0  0  0  0  0  0  0  0  0  0  0
    0.4901   -8.3134    2.5855 C   0  0  0  0  0  0  0  0  0  0  0  0
   -0.1524   -9.3294    3.3208 C   0  0  0  0  0  0  0  0  0  0  0  0
   -1.5091   -9.4524    3.2734 O   0  0  0  0  0  0  0  0  0  0  0  0
    0.6069  -10.2217    4.1017 C   0  0  0  0  0  0  0  0  0  0  0  0
    2.0029  -10.0922    4.1374 C   0  0  0  0  0  0  0  0  0  0  0  0
    2.6415   -9.0718    3.4016 C   0  0  0  0  0  0  0  0  0  0  0  0
    2.5436   -6.1519    1.0992 C   0  0  0  0  0  0  0  0  0  0  0  0
    1.4024   -5.8511    0.7501 O   0  0  0  0  0  0  0  0  0  0  0  0
    3.7327   -5.4033    0.6116 C   0  0  0  0  0  0  0  0  0  0  0  0
    3.5186   -4.3428   -0.3013 C   0  0  0  0  0  0  0  0  0  0  0  0
    4.5954   -3.5920   -0.7993 C   0  0  0  0  0  0  0  0  0  0  0  0
    5.9018   -3.8841   -0.3738 C   0  0  0  0  0  0  0  0  0  0  0  0
    6.9576   -3.1800   -0.8661 O   0  0  0  0  0  0  0  0  0  0  0  0
    6.1257   -4.9331    0.5398 C   0  0  0  0  0  0  0  0  0  0  0  0
    5.0535   -5.7190    1.0385 C   0  0  0  0  0  0  0  0  0  0  0  0
    5.3542   -6.8598    2.0396 C   0  0  0  0  0  0  0  0  0  0  0  0
    5.9805   -6.1952    3.2880 C   0  0  0  0  0  0  0  0  0  0  0  0
    6.3423   -7.8336    1.3584 C   0  0  0  0  0  0  0  0  0  0  0  0
    6.2024  -11.3192    3.5733 H   0  0  0  0  0  0  0  0  0  0  0  0
    5.6814  -10.5480    2.0772 H   0  0  0  0  0  0  0  0  0  0  0  0
    4.5239  -11.4459    3.0280 H   0  0  0  0  0  0  0  0  0  0  0  0
    4.7118   -9.7872    4.8940 H   0  0  0  0  0  0  0  0  0  0  0  0
    5.9369   -8.9155    4.0474 H   0  0  0  0  0  0  0  0  0  0  0  0
   -0.1030   -7.6403    1.9855 H   0  0  0  0  0  0  0  0  0  0  0  0
   -1.8022  -10.0752    3.9486 H   0  0  0  0  0  0  0  0  0  0  0  0
    0.1228  -11.0048    4.6733 H   0  0  0  0  0  0  0  0  0  0  0  0
    2.5769  -10.7819    4.7347 H   0  0  0  0  0  0  0  0  0  0  0  0
    2.5190   -4.1114   -0.6487 H   0  0  0  0  0  0  0  0  0  0  0  0
    4.4028   -2.8015   -1.5086 H   0  0  0  0  0  0  0  0  0  0  0  0
    6.7318   -2.7376   -1.6672 H   0  0  0  0  0  0  0  0  0  0  0  0
    7.1414   -5.1416    0.8519 H   0  0  0  0  0  0  0  0  0  0  0  0
    5.2903   -5.4557    3.6929 H   0  0  0  0  0  0  0  0  0  0  0  0
    6.9152   -5.6773    3.0577 H   0  0  0  0  0  0  0  0  0  0  0  0
    6.2064   -6.8797    4.0981 H   0  0  0  0  0  0  0  0  0  0  0  0
    5.8366   -8.3401    0.5316 H   0  0  0  0  0  0  0  0  0  0  0  0
    6.7247   -8.5982    2.0287 H   0  0  0  0  0  0  0  0  0  0  0  0
    7.2348   -7.3378    0.9683 H   0  0  0  0  0  0  0  0  0  0  0  0
  1  2  1  0
  1 25  1  0
  1 26  1  0
  1 27  1  0
  2  3  1  0
  2 28  1  0
  2 29  1  0
  3 12  1  0
  3  4  1  0
  4 22  1  0
  4  5  2  0
  5  6  1  0
  5 13  1  0
  6 12  2  0
  6  7  1  0
  7  8  2  0
  7 30  1  0
  8  9  1  0
  8 10  1  0
  9 31  1  0
 10 11  2  0
 10 32  1  0
 11 12  1  0
 11 33  1  0
 13 14  2  0
 13 15  1  0
 15 21  2  0
 15 16  1  0
 16 17  2  0
 16 34  1  0
 17 18  1  0
 17 35  1  0
 18 19  1  0
 18 20  2  0
 19 36  1  0
 20 21  1  0
 20 37  1  0
 21 22  1  0
 22 23  1  0
 22 24  1  0
 23 38  1  0
 23 39  1  0
 23 40  1  0
 24 41  1  0
 24 42  1  0
 24 43  1  0
M  END
>  <i_m_ct_stereo_status>  (32) 
1

>  <s_m_source_file>  (32) 
/var/tmp/pbs.5102264.sched01/tmpu94zaw8c/01d2njlry.sdf

>  <i_m_source_file_index>  (32) 
12

>  <i_lp_mmshare_version>  (32) 
48012

>  <i_f3d_flags>  (32) 
0

>  <s_epik_input>  (32) 
W2NIXTFjKFtPSF0pW2NIXVtjSF1jKG4yW0NIMl1bQ0gzXSljMWMoYzIzKUMoPU8pYzRjKEMzKFtDSDNdKVtDSDNdKVtjSF1jKFtPSF0pW2NIXVtjSF00

>  <s_epik_cmdline>  (32) 
J2VwaWtfcHl0aG9uJywgJy1waHQnLCAnMi4wJywgJy1waCcsICc3LjAnLCAnLXRuJywgJzgnLCAnLW1hJywgJzIwMCcsICctaW1hZScsICc8aW5maWxlLm1hZT4nLCAnLW9tYWUnLCAnPG91dGZpbGUubWFlPic=

>  <r_epik_Ionization_Penalty>  (32) 
0.0970732

>  <r_epik_Ionization_Penalty_Charging>  (32) 
0

>  <r_epik_Ionization_Penalty_Neutral>  (32) 
0.0970732

>  <r_epik_State_Penalty>  (32) 
0.0856893

>  <r_epik_Charging_Adjusted_Penalty>  (32) 
0.0856893

>  <i_epik_Tot_Q>  (32) 
0

>  <i_epik_Tot_abs_Q>  (32) 
0

>  <s_lp_Force_Field>  (32) 
OPLS3e

>  <r_lp_Energy>  (32) 
27.1428

>  <b_lp_Chiralities_Consistent>  (32) 
1

>  <s_lp_Variant>  (32) 
9:0-1

>  <s_i_glide_gridfile>  (32) 
pfpi4k_grid

>  <i_i_glide_lignum>  (32) 
12

>  <i_i_glide_rotatable_bonds>  (32) 
3

>  <r_i_docking_score>  (32) 
-4.13893

>  <r_i_glide_ligand_efficiency>  (32) 
-0.172456

>  <r_i_glide_ligand_efficiency_sa>  (32) 
-0.497448

>  <r_i_glide_ligand_efficiency_ln>  (32) 
-0.990636

>  <r_i_glide_gscore>  (32) 
-4.13893

>  <r_i_glide_lipo>  (32) 
-0.439449

>  <r_i_glide_hbond>  (32) 
-0.316609

>  <r_i_glide_metal>  (32) 
-0

>  <r_i_glide_rewards>  (32) 
-1.21793

>  <r_i_glide_evdw>  (32) 
-21.5692

>  <r_i_glide_ecoul>  (32) 
-7.10802

>  <r_i_glide_erotb>  (32) 
0

>  <r_i_glide_esite>  (32) 
-0.0202761

>  <r_i_glide_emodel>  (32) 
-37.6565

>  <r_i_glide_energy>  (32) 
-28.6772

>  <r_i_glide_einternal>  (32) 
0.614435

>  <r_i_glide_intrahb_reward>  (32) 
-0

>  <i_i_glide_confnum>  (32) 
2

>  <i_i_glide_posenum>  (32) 
29

>  <r_i_glide_eff_state_penalty>  (32) 
0

>  <ligand_id>  (32) 
9

>  <original_smiles>  (32) 
CCn1c2c(c3cc(O)ccc31)C(=O)c1ccc(O)cc1C2(C)C

>  <smiles>  (32) 
[H]Oc1c([H])c([H])c2c(c1[H])C(C([H])([H])[H])(C([H])([H])[H])c1c(c3c([H])c(O[H])c([H])c([H])c3n1C([H])([H])C([H])([H])[H])C2=O

$$$$
9:1:0
     RDKit          3D

 42 45  0  0  1  0  0  0  0  0999 V2000
    5.3885   -8.2576    4.5336 C   0  0  0  0  0  0  0  0  0  0  0  0
    4.3787   -7.0946    4.7201 C   0  0  0  0  0  0  0  0  0  0  0  0
    3.5192   -6.8755    3.5501 N   0  0  0  0  0  0  0  0  0  0  0  0
    3.6728   -5.9528    2.4746 C   0  0  0  0  0  0  0  0  0  0  0  0
    2.5868   -6.1068    1.6364 C   0  0  0  0  0  0  0  0  0  0  0  0
    1.7457   -7.1279    2.1675 C   0  0  0  0  0  0  0  0  0  0  0  0
    0.5166   -7.7267    1.7664 C   0  0  0  0  0  0  0  0  0  0  0  0
   -0.0984   -8.7431    2.5251 C   0  0  0  0  0  0  0  0  0  0  0  0
   -1.2510   -9.3065    2.0842 O   0  0  0  0  0  0  0  0  0  0  0  0
    0.5070   -9.1988    3.7141 C   0  0  0  0  0  0  0  0  0  0  0  0
    1.7269   -8.6161    4.1241 C   0  0  0  0  0  0  0  0  0  0  0  0
    2.3347   -7.6009    3.3649 C   0  0  0  0  0  0  0  0  0  0  0  0
    2.3917   -5.3156    0.4331 C   0  0  0  0  0  0  0  0  0  0  0  0
    1.4135   -5.4750   -0.2952 O   0  0  0  0  0  0  0  0  0  0  0  0
    3.4071   -4.2878    0.1510 C   0  0  0  0  0  0  0  0  0  0  0  0
    3.2337   -3.4627   -0.9865 C   0  0  0  0  0  0  0  0  0  0  0  0
    4.1968   -2.4954   -1.3154 C   0  0  0  0  0  0  0  0  0  0  0  0
    5.3418   -2.3607   -0.5177 C   0  0  0  0  0  0  0  0  0  0  0  0
    6.3196   -1.4565   -0.8480 O   0  0  0  0  0  0  0  0  0  0  0  0
    5.5044   -3.1451    0.6273 C   0  0  0  0  0  0  0  0  0  0  0  0
    4.5502   -4.1119    0.9869 C   0  0  0  0  0  0  0  0  0  0  0  0
    4.8070   -4.9607    2.2448 C   0  0  0  0  0  0  0  0  0  0  0  0
    4.9555   -3.9573    3.4319 C   0  0  0  0  0  0  0  0  0  0  0  0
    6.1396   -5.7137    1.9705 C   0  0  0  0  0  0  0  0  0  0  0  0
    5.9941   -8.3305    5.4454 H   0  0  0  0  0  0  0  0  0  0  0  0
    6.0824   -8.1298    3.7152 H   0  0  0  0  0  0  0  0  0  0  0  0
    4.8677   -9.2044    4.3534 H   0  0  0  0  0  0  0  0  0  0  0  0
    3.7020   -7.3336    5.5478 H   0  0  0  0  0  0  0  0  0  0  0  0
    4.8921   -6.2079    5.0607 H   0  0  0  0  0  0  0  0  0  0  0  0
    0.0673   -7.4096    0.8421 H   0  0  0  0  0  0  0  0  0  0  0  0
   -1.2019   -9.4524    1.1442 H   0  0  0  0  0  0  0  0  0  0  0  0
    0.0545   -9.9963    4.2862 H   0  0  0  0  0  0  0  0  0  0  0  0
    2.2033   -8.9670    5.0230 H   0  0  0  0  0  0  0  0  0  0  0  0
    2.3701   -3.5875   -1.6346 H   0  0  0  0  0  0  0  0  0  0  0  0
    4.0706   -1.8807   -2.1878 H   0  0  0  0  0  0  0  0  0  0  0  0
    6.3988   -3.0014    1.2238 H   0  0  0  0  0  0  0  0  0  0  0  0
    3.9939   -3.4574    3.6033 H   0  0  0  0  0  0  0  0  0  0  0  0
    5.6932   -3.1819    3.2168 H   0  0  0  0  0  0  0  0  0  0  0  0
    5.2899   -4.3598    4.3788 H   0  0  0  0  0  0  0  0  0  0  0  0
    6.0266   -6.3667    1.0884 H   0  0  0  0  0  0  0  0  0  0  0  0
    6.4580   -6.2831    2.8163 H   0  0  0  0  0  0  0  0  0  0  0  0
    6.9701   -5.0308    1.7538 H   0  0  0  0  0  0  0  0  0  0  0  0
  1  2  1  0
  1 25  1  0
  1 26  1  0
  1 27  1  0
  2  3  1  0
  2 28  1  0
  2 29  1  0
  3 12  1  0
  3  4  1  0
  4 22  1  0
  4  5  2  0
  5  6  1  0
  5 13  1  0
  6 12  2  0
  6  7  1  0
  7  8  2  0
  7 30  1  0
  8  9  1  0
  8 10  1  0
  9 31  1  0
 10 11  2  0
 10 32  1  0
 11 12  1  0
 11 33  1  0
 13 14  2  0
 13 15  1  0
 15 21  2  0
 15 16  1  0
 16 17  2  0
 16 34  1  0
 17 18  1  0
 17 35  1  0
 18 19  1  0
 18 20  2  0
 20 21  1  0
 20 36  1  0
 21 22  1  0
 22 23  1  0
 22 24  1  0
 23 37  1  0
 23 38  1  0
 23 39  1  0
 24 40  1  0
 24 41  1  0
 24 42  1  0
M  CHG  1  19  -1
M  END
>  <i_m_ct_stereo_status>  (33) 
1

>  <s_m_source_file>  (33) 
/var/tmp/pbs.5102264.sched01/tmpu94zaw8c/01d2njlry.sdf

>  <i_m_source_file_index>  (33) 
13

>  <i_lp_mmshare_version>  (33) 
48012

>  <i_f3d_flags>  (33) 
0

>  <s_epik_input>  (33) 
W2NIXTFjKFtPSF0pW2NIXVtjSF1jKG4yW0NIMl1bQ0gzXSljMWMoYzIzKUMoPU8pYzRjKEMzKFtDSDNdKVtDSDNdKVtjSF1jKFtPSF0pW2NIXVtjSF00

>  <s_epik_cmdline>  (33) 
J2VwaWtfcHl0aG9uJywgJy1waHQnLCAnMi4wJywgJy1waCcsICc3LjAnLCAnLXRuJywgJzgnLCAnLW1hJywgJzIwMCcsICctaW1hZScsICc8aW5maWxlLm1hZT4nLCAnLW9tYWUnLCAnPG91dGZpbGUubWFlPic=

>  <r_epik_Ionization_Penalty>  (33) 
1.13005

>  <r_epik_Ionization_Penalty_Charging>  (33) 
1.12848

>  <r_epik_Ionization_Penalty_Neutral>  (33) 
0.00156756

>  <r_epik_State_Penalty>  (33) 
1.18796

>  <r_epik_Charging_Adjusted_Penalty>  (33) 
2.31644

>  <i_epik_Tot_Q>  (33) 
-1

>  <i_epik_Tot_abs_Q>  (33) 
1

>  <s_lp_Force_Field>  (33) 
OPLS3e

>  <r_lp_Energy>  (33) 
27.5081

>  <b_lp_Chiralities_Consistent>  (33) 
1

>  <s_lp_Variant>  (33) 
9:0-2

>  <s_i_glide_gridfile>  (33) 
pfpi4k_grid

>  <i_i_glide_lignum>  (33) 
13

>  <i_i_glide_rotatable_bonds>  (33) 
2

>  <r_i_docking_score>  (33) 
-3.9794

>  <r_i_glide_ligand_efficiency>  (33) 
-0.165808

>  <r_i_glide_ligand_efficiency_sa>  (33) 
-0.478274

>  <r_i_glide_ligand_efficiency_ln>  (33) 
-0.952453

>  <r_i_glide_gscore>  (33) 
-3.9794

>  <r_i_glide_lipo>  (33) 
-0.228736

>  <r_i_glide_hbond>  (33) 
-0.698838

>  <r_i_glide_metal>  (33) 
-0

>  <r_i_glide_rewards>  (33) 
-1.22481

>  <r_i_glide_evdw>  (33) 
-20.2798

>  <r_i_glide_ecoul>  (33) 
-5.05332

>  <r_i_glide_erotb>  (33) 
0

>  <r_i_glide_esite>  (33) 
-0.0550315

>  <r_i_glide_emodel>  (33) 
-31.5731

>  <r_i_glide_energy>  (33) 
-25.3332

>  <r_i_glide_einternal>  (33) 
1.60062

>  <r_i_glide_intrahb_reward>  (33) 
-0

>  <i_i_glide_confnum>  (33) 
2

>  <i_i_glide_posenum>  (33) 
30

>  <r_i_glide_eff_state_penalty>  (33) 
0

>  <ligand_id>  (33) 
9

>  <original_smiles>  (33) 
CCn1c2c(c3cc(O)ccc31)C(=O)c1ccc(O)cc1C2(C)C

>  <smiles>  (33) 
[H]Oc1c([H])c([H])c2c(c1[H])c1c(n2C([H])([H])C([H])([H])[H])C(C([H])([H])[H])(C([H])([H])[H])c2c([H])c([O-])c([H])c([H])c2C1=O

$$$$
9:1:1
     RDKit          3D

 42 45  0  0  1  0  0  0  0  0999 V2000
    5.8186   -8.3096    4.4406 C   0  0  0  0  0  0  0  0  0  0  0  0
    4.8707   -7.1215    4.7051 C   0  0  0  0  0  0  0  0  0  0  0  0
    3.8890   -6.9143    3.6338 N   0  0  0  0  0  0  0  0  0  0  0  0
    3.9581   -6.0618    2.4982 C   0  0  0  0  0  0  0  0  0  0  0  0
    2.7794   -6.1882    1.7972 C   0  0  0  0  0  0  0  0  0  0  0  0
    1.9501   -7.1466    2.4769 C   0  0  0  0  0  0  0  0  0  0  0  0
    0.6585   -7.6951    2.2491 C   0  0  0  0  0  0  0  0  0  0  0  0
    0.0954   -8.6425    3.1290 C   0  0  0  0  0  0  0  0  0  0  0  0
   -1.1453   -9.1499    2.8899 O   0  0  0  0  0  0  0  0  0  0  0  0
    0.8250   -9.0665    4.2557 C   0  0  0  0  0  0  0  0  0  0  0  0
    2.1016   -8.5338    4.5035 C   0  0  0  0  0  0  0  0  0  0  0  0
    2.6651   -7.5841    3.6243 C   0  0  0  0  0  0  0  0  0  0  0  0
    2.4802   -5.4509    0.5864 C   0  0  0  0  0  0  0  0  0  0  0  0
    1.4155   -5.6083   -0.0206 O   0  0  0  0  0  0  0  0  0  0  0  0
    3.5131   -4.4838    0.1422 C   0  0  0  0  0  0  0  0  0  0  0  0
    3.2583   -3.6985   -1.0045 C   0  0  0  0  0  0  0  0  0  0  0  0
    4.2310   -2.8014   -1.5017 C   0  0  0  0  0  0  0  0  0  0  0  0
    5.4697   -2.6873   -0.8624 C   0  0  0  0  0  0  0  0  0  0  0  0
    6.4442   -1.8622   -1.3459 O   0  0  0  0  0  0  0  0  0  0  0  0
    5.7122   -3.4309    0.2965 C   0  0  0  0  0  0  0  0  0  0  0  0
    4.7494   -4.3366    0.8236 C   0  0  0  0  0  0  0  0  0  0  0  0
    5.1172   -5.1487    2.0913 C   0  0  0  0  0  0  0  0  0  0  0  0
    5.4322   -4.1043    3.1947 C   0  0  0  0  0  0  0  0  0  0  0  0
    6.3577   -5.9904    1.7110 C   0  0  0  0  0  0  0  0  0  0  0  0
    6.5150   -8.3988    5.2810 H   0  0  0  0  0  0  0  0  0  0  0  0
    6.4149   -8.2123    3.5431 H   0  0  0  0  0  0  0  0  0  0  0  0
    5.2638   -9.2477    4.3615 H   0  0  0  0  0  0  0  0  0  0  0  0
    4.3014   -7.3098    5.6162 H   0  0  0  0  0  0  0  0  0  0  0  0
    5.4293   -6.2200    4.9290 H   0  0  0  0  0  0  0  0  0  0  0  0
    0.1035   -7.3954    1.3739 H   0  0  0  0  0  0  0  0  0  0  0  0
   -1.4070   -9.7902    3.5399 H   0  0  0  0  0  0  0  0  0  0  0  0
    0.4073   -9.8048    4.9300 H   0  0  0  0  0  0  0  0  0  0  0  0
    2.6576   -8.8630    5.3631 H   0  0  0  0  0  0  0  0  0  0  0  0
    2.3197   -3.8058   -1.5442 H   0  0  0  0  0  0  0  0  0  0  0  0
    4.0149   -2.2328   -2.3896 H   0  0  0  0  0  0  0  0  0  0  0  0
    6.6702   -3.3239    0.7838 H   0  0  0  0  0  0  0  0  0  0  0  0
    4.5363   -3.5420    3.4572 H   0  0  0  0  0  0  0  0  0  0  0  0
    6.1712   -3.3783    2.8538 H   0  0  0  0  0  0  0  0  0  0  0  0
    5.8469   -4.5109    4.1129 H   0  0  0  0  0  0  0  0  0  0  0  0
    6.1140   -6.6633    0.8818 H   0  0  0  0  0  0  0  0  0  0  0  0
    6.7366   -6.5573    2.5381 H   0  0  0  0  0  0  0  0  0  0  0  0
    7.1879   -5.3673    1.3545 H   0  0  0  0  0  0  0  0  0  0  0  0
  1  2  1  0
  1 25  1  0
  1 26  1  0
  1 27  1  0
  2  3  1  0
  2 28  1  0
  2 29  1  0
  3 12  1  0
  3  4  1  0
  4 22  1  0
  4  5  2  0
  5  6  1  0
  5 13  1  0
  6 12  2  0
  6  7  1  0
  7  8  2  0
  7 30  1  0
  8  9  1  0
  8 10  1  0
  9 31  1  0
 10 11  2  0
 10 32  1  0
 11 12  1  0
 11 33  1  0
 13 14  2  0
 13 15  1  0
 15 21  2  0
 15 16  1  0
 16 17  2  0
 16 34  1  0
 17 18  1  0
 17 35  1  0
 18 19  1  0
 18 20  2  0
 20 21  1  0
 20 36  1  0
 21 22  1  0
 22 23  1  0
 22 24  1  0
 23 37  1  0
 23 38  1  0
 23 39  1  0
 24 40  1  0
 24 41  1  0
 24 42  1  0
M  CHG  1  19  -1
M  END
>  <i_m_ct_stereo_status>  (34) 
1

>  <s_m_source_file>  (34) 
/var/tmp/pbs.5102264.sched01/tmpu94zaw8c/01d2njlry.sdf

>  <i_m_source_file_index>  (34) 
13

>  <i_lp_mmshare_version>  (34) 
48012

>  <i_f3d_flags>  (34) 
0

>  <s_epik_input>  (34) 
W2NIXTFjKFtPSF0pW2NIXVtjSF1jKG4yW0NIMl1bQ0gzXSljMWMoYzIzKUMoPU8pYzRjKEMzKFtDSDNdKVtDSDNdKVtjSF1jKFtPSF0pW2NIXVtjSF00

>  <s_epik_cmdline>  (34) 
J2VwaWtfcHl0aG9uJywgJy1waHQnLCAnMi4wJywgJy1waCcsICc3LjAnLCAnLXRuJywgJzgnLCAnLW1hJywgJzIwMCcsICctaW1hZScsICc8aW5maWxlLm1hZT4nLCAnLW9tYWUnLCAnPG91dGZpbGUubWFlPic=

>  <r_epik_Ionization_Penalty>  (34) 
1.13005

>  <r_epik_Ionization_Penalty_Charging>  (34) 
1.12848

>  <r_epik_Ionization_Penalty_Neutral>  (34) 
0.00156756

>  <r_epik_State_Penalty>  (34) 
1.18796

>  <r_epik_Charging_Adjusted_Penalty>  (34) 
2.31644

>  <i_epik_Tot_Q>  (34) 
-1

>  <i_epik_Tot_abs_Q>  (34) 
1

>  <s_lp_Force_Field>  (34) 
OPLS3e

>  <r_lp_Energy>  (34) 
27.5081

>  <b_lp_Chiralities_Consistent>  (34) 
1

>  <s_lp_Variant>  (34) 
9:0-2

>  <s_i_glide_gridfile>  (34) 
pfpi4k_grid

>  <i_i_glide_lignum>  (34) 
13

>  <i_i_glide_rotatable_bonds>  (34) 
2

>  <r_i_docking_score>  (34) 
-3.57445

>  <r_i_glide_ligand_efficiency>  (34) 
-0.148935

>  <r_i_glide_ligand_efficiency_sa>  (34) 
-0.429604

>  <r_i_glide_ligand_efficiency_ln>  (34) 
-0.855529

>  <r_i_glide_gscore>  (34) 
-3.57445

>  <r_i_glide_lipo>  (34) 
-0.211034

>  <r_i_glide_hbond>  (34) 
-0.49691

>  <r_i_glide_metal>  (34) 
-0

>  <r_i_glide_rewards>  (34) 
-1.22481

>  <r_i_glide_evdw>  (34) 
-20.1583

>  <r_i_glide_ecoul>  (34) 
-3.9228

>  <r_i_glide_erotb>  (34) 
0

>  <r_i_glide_esite>  (34) 
-0.0453622

>  <r_i_glide_emodel>  (34) 
-31.0141

>  <r_i_glide_energy>  (34) 
-24.0811

>  <r_i_glide_einternal>  (34) 
0.181705

>  <r_i_glide_intrahb_reward>  (34) 
-0

>  <i_i_glide_confnum>  (34) 
2

>  <i_i_glide_posenum>  (34) 
26

>  <r_i_glide_eff_state_penalty>  (34) 
0

>  <ligand_id>  (34) 
9

>  <original_smiles>  (34) 
CCn1c2c(c3cc(O)ccc31)C(=O)c1ccc(O)cc1C2(C)C

>  <smiles>  (34) 
[H]Oc1c([H])c([H])c2c(c1[H])c1c(n2C([H])([H])C([H])([H])[H])C(C([H])([H])[H])(C([H])([H])[H])c2c([H])c([O-])c([H])c([H])c2C1=O

$$$$
9:1:2
     RDKit          3D

 42 45  0  0  1  0  0  0  0  0999 V2000
    4.4882   -6.3922    6.0153 C   0  0  0  0  0  0  0  0  0  0  0  0
    4.8454   -7.2076    4.7633 C   0  0  0  0  0  0  0  0  0  0  0  0
    3.8724   -7.0162    3.6915 N   0  0  0  0  0  0  0  0  0  0  0  0
    3.9509   -6.1635    2.5652 C   0  0  0  0  0  0  0  0  0  0  0  0
    2.7796   -6.2692    1.8654 C   0  0  0  0  0  0  0  0  0  0  0  0
    1.9506   -7.2372    2.5230 C   0  0  0  0  0  0  0  0  0  0  0  0
    0.6608   -7.7780    2.2861 C   0  0  0  0  0  0  0  0  0  0  0  0
    0.1009   -8.7456    3.1429 C   0  0  0  0  0  0  0  0  0  0  0  0
   -1.1420   -9.2432    2.8918 O   0  0  0  0  0  0  0  0  0  0  0  0
    0.8262   -9.1989    4.2587 C   0  0  0  0  0  0  0  0  0  0  0  0
    2.1027   -8.6719    4.5193 C   0  0  0  0  0  0  0  0  0  0  0  0
    2.6590   -7.7006    3.6618 C   0  0  0  0  0  0  0  0  0  0  0  0
    2.4845   -5.4991    0.6743 C   0  0  0  0  0  0  0  0  0  0  0  0
    1.4148   -5.6356    0.0759 O   0  0  0  0  0  0  0  0  0  0  0  0
    3.5280   -4.5283    0.2503 C   0  0  0  0  0  0  0  0  0  0  0  0
    3.2703   -3.7129   -0.8741 C   0  0  0  0  0  0  0  0  0  0  0  0
    4.2392   -2.8088   -1.3478 C   0  0  0  0  0  0  0  0  0  0  0  0
    5.4864   -2.7109   -0.7026 C   0  0  0  0  0  0  0  0  0  0  0  0
    6.4630   -1.8706   -1.1654 O   0  0  0  0  0  0  0  0  0  0  0  0
    5.7330   -3.4952    0.4394 C   0  0  0  0  0  0  0  0  0  0  0  0
    4.7680   -4.4108    0.9341 C   0  0  0  0  0  0  0  0  0  0  0  0
    5.1172   -5.2659    2.1770 C   0  0  0  0  0  0  0  0  0  0  0  0
    5.4452   -4.2826    3.3238 C   0  0  0  0  0  0  0  0  0  0  0  0
    6.3449   -6.1316    1.7934 C   0  0  0  0  0  0  0  0  0  0  0  0
    5.2393   -6.5352    6.7927 H   0  0  0  0  0  0  0  0  0  0  0  0
    3.5196   -6.6884    6.4177 H   0  0  0  0  0  0  0  0  0  0  0  0
    4.4310   -5.3255    5.8038 H   0  0  0  0  0  0  0  0  0  0  0  0
    5.8533   -6.9707    4.4411 H   0  0  0  0  0  0  0  0  0  0  0  0
    4.8698   -8.2692    5.0151 H   0  0  0  0  0  0  0  0  0  0  0  0
    0.1064   -7.4518    1.4215 H   0  0  0  0  0  0  0  0  0  0  0  0
   -1.4154   -9.8794    3.5416 H   0  0  0  0  0  0  0  0  0  0  0  0
    0.4100   -9.9483    4.9152 H   0  0  0  0  0  0  0  0  0  0  0  0
    2.6607   -9.0137    5.3720 H   0  0  0  0  0  0  0  0  0  0  0  0
    2.3327   -3.8038   -1.4088 H   0  0  0  0  0  0  0  0  0  0  0  0
    4.0256   -2.2135   -2.2199 H   0  0  0  0  0  0  0  0  0  0  0  0
    6.6905   -3.3949    0.9249 H   0  0  0  0  0  0  0  0  0  0  0  0
    4.5602   -3.7078    3.6061 H   0  0  0  0  0  0  0  0  0  0  0  0
    6.2052   -3.5633    3.0305 H   0  0  0  0  0  0  0  0  0  0  0  0
    5.8322   -4.7709    4.2132 H   0  0  0  0  0  0  0  0  0  0  0  0
    6.1056   -6.7454    0.9235 H   0  0  0  0  0  0  0  0  0  0  0  0
    6.6748   -6.8186    2.5677 H   0  0  0  0  0  0  0  0  0  0  0  0
    7.2133   -5.5256    1.5339 H   0  0  0  0  0  0  0  0  0  0  0  0
  1  2  1  0
  1 25  1  0
  1 26  1  0
  1 27  1  0
  2  3  1  0
  2 28  1  0
  2 29  1  0
  3 12  1  0
  3  4  1  0
  4 22  1  0
  4  5  2  0
  5  6  1  0
  5 13  1  0
  6 12  2  0
  6  7  1  0
  7  8  2  0
  7 30  1  0
  8  9  1  0
  8 10  1  0
  9 31  1  0
 10 11  2  0
 10 32  1  0
 11 12  1  0
 11 33  1  0
 13 14  2  0
 13 15  1  0
 15 21  2  0
 15 16  1  0
 16 17  2  0
 16 34  1  0
 17 18  1  0
 17 35  1  0
 18 19  1  0
 18 20  2  0
 20 21  1  0
 20 36  1  0
 21 22  1  0
 22 23  1  0
 22 24  1  0
 23 37  1  0
 23 38  1  0
 23 39  1  0
 24 40  1  0
 24 41  1  0
 24 42  1  0
M  CHG  1  19  -1
M  END
>  <i_m_ct_stereo_status>  (35) 
1

>  <s_m_source_file>  (35) 
/var/tmp/pbs.5102264.sched01/tmpu94zaw8c/01d2njlry.sdf

>  <i_m_source_file_index>  (35) 
13

>  <i_lp_mmshare_version>  (35) 
48012

>  <i_f3d_flags>  (35) 
0

>  <s_epik_input>  (35) 
W2NIXTFjKFtPSF0pW2NIXVtjSF1jKG4yW0NIMl1bQ0gzXSljMWMoYzIzKUMoPU8pYzRjKEMzKFtDSDNdKVtDSDNdKVtjSF1jKFtPSF0pW2NIXVtjSF00

>  <s_epik_cmdline>  (35) 
J2VwaWtfcHl0aG9uJywgJy1waHQnLCAnMi4wJywgJy1waCcsICc3LjAnLCAnLXRuJywgJzgnLCAnLW1hJywgJzIwMCcsICctaW1hZScsICc8aW5maWxlLm1hZT4nLCAnLW9tYWUnLCAnPG91dGZpbGUubWFlPic=

>  <r_epik_Ionization_Penalty>  (35) 
1.13005

>  <r_epik_Ionization_Penalty_Charging>  (35) 
1.12848

>  <r_epik_Ionization_Penalty_Neutral>  (35) 
0.00156756

>  <r_epik_State_Penalty>  (35) 
1.18796

>  <r_epik_Charging_Adjusted_Penalty>  (35) 
2.31644

>  <i_epik_Tot_Q>  (35) 
-1

>  <i_epik_Tot_abs_Q>  (35) 
1

>  <s_lp_Force_Field>  (35) 
OPLS3e

>  <r_lp_Energy>  (35) 
27.5081

>  <b_lp_Chiralities_Consistent>  (35) 
1

>  <s_lp_Variant>  (35) 
9:0-2

>  <s_i_glide_gridfile>  (35) 
pfpi4k_grid

>  <i_i_glide_lignum>  (35) 
13

>  <i_i_glide_rotatable_bonds>  (35) 
2

>  <r_i_docking_score>  (35) 
-3.53816

>  <r_i_glide_ligand_efficiency>  (35) 
-0.147423

>  <r_i_glide_ligand_efficiency_sa>  (35) 
-0.425242

>  <r_i_glide_ligand_efficiency_ln>  (35) 
-0.846844

>  <r_i_glide_gscore>  (35) 
-3.53816

>  <r_i_glide_lipo>  (35) 
-0.187146

>  <r_i_glide_hbond>  (35) 
-0.479464

>  <r_i_glide_metal>  (35) 
-0

>  <r_i_glide_rewards>  (35) 
-1.22481

>  <r_i_glide_evdw>  (35) 
-19.8856

>  <r_i_glide_ecoul>  (35) 
-4.0716

>  <r_i_glide_erotb>  (35) 
0

>  <r_i_glide_esite>  (35) 
-0.0417213

>  <r_i_glide_emodel>  (35) 
-31.7312

>  <r_i_glide_energy>  (35) 
-23.9572

>  <r_i_glide_einternal>  (35) 
0.00489099

>  <r_i_glide_intrahb_reward>  (35) 
-0

>  <i_i_glide_confnum>  (35) 
1

>  <i_i_glide_posenum>  (35) 
23

>  <r_i_glide_eff_state_penalty>  (35) 
0

>  <ligand_id>  (35) 
9

>  <original_smiles>  (35) 
CCn1c2c(c3cc(O)ccc31)C(=O)c1ccc(O)cc1C2(C)C

>  <smiles>  (35) 
[H]Oc1c([H])c([H])c2c(c1[H])c1c(n2C([H])([H])C([H])([H])[H])C(C([H])([H])[H])(C([H])([H])[H])c2c([H])c([O-])c([H])c([H])c2C1=O

$$$$
10:0:0
     RDKit          3D

 46 49  0  0  1  0  0  0  0  0999 V2000
    0.9308   -7.2143    0.9573 C   0  0  0  0  0  0  0  0  0  0  0  0
    2.0296   -7.1315    1.4778 C   0  0  0  0  0  0  0  0  0  0  0  0
    3.3664   -7.0753    2.1207 C   0  0  1  0  0  0  0  0  0  0  0  0
    3.4266   -8.0871    3.1085 O   0  0  0  0  0  0  0  0  0  0  0  0
    4.4675   -7.4202    1.0964 C   0  0  0  0  0  0  0  0  0  0  0  0
    5.0511   -6.0828    0.6682 C   0  0  0  0  0  0  0  0  0  0  0  0
    5.1102   -5.2878    1.9764 C   0  0  1  0  0  0  0  0  0  0  0  0
    5.3922   -3.7558    1.8798 C   0  0  1  0  0  0  0  0  0  0  0  0
    6.7229   -3.3462    1.2372 C   0  0  0  0  0  0  0  0  0  0  0  0
    6.7373   -3.4522   -0.2904 C   0  0  0  0  0  0  0  0  0  0  0  0
    5.4249   -3.0738   -0.9568 C   0  0  0  0  0  0  0  0  0  0  0  0
    4.2887   -2.8352   -0.2542 C   0  0  0  0  0  0  0  0  0  0  0  0
    3.0277   -2.3880   -0.9766 C   0  0  0  0  0  0  0  0  0  0  0  0
    2.9358   -2.8735   -2.4278 C   0  0  0  0  0  0  0  0  0  0  0  0
    4.2257   -2.5706   -3.1665 C   0  0  0  0  0  0  0  0  0  0  0  0
    4.2191   -2.0363   -4.2736 O   0  0  0  0  0  0  0  0  0  0  0  0
    5.5235   -2.9944   -2.4788 C   0  0  0  0  0  0  0  0  0  0  0  0
    4.2384   -2.9363    1.2790 C   0  0  1  0  0  0  0  0  0  0  0  0
    2.9111   -3.4096    1.8495 C   0  0  0  0  0  0  0  0  0  0  0  0
    2.7296   -4.5731    2.4983 C   0  0  0  0  0  0  0  0  0  0  0  0
    3.7908   -5.6592    2.7198 C   0  0  1  0  0  0  0  0  0  0  0  0
    4.0510   -5.7115    4.2453 C   0  0  0  0  0  0  0  0  0  0  0  0
   -0.0229   -7.3751    0.5056 H   0  0  0  0  0  0  0  0  0  0  0  0
    4.0148   -8.7717    2.8182 H   0  0  0  0  0  0  0  0  0  0  0  0
    5.2686   -8.0026    1.5582 H   0  0  0  0  0  0  0  0  0  0  0  0
    4.1228   -8.0059    0.2421 H   0  0  0  0  0  0  0  0  0  0  0  0
    6.0321   -6.2272    0.2188 H   0  0  0  0  0  0  0  0  0  0  0  0
    4.3918   -5.6096   -0.0622 H   0  0  0  0  0  0  0  0  0  0  0  0
    5.9377   -5.7201    2.5402 H   0  0  0  0  0  0  0  0  0  0  0  0
    5.4716   -3.4320    2.9155 H   0  0  0  0  0  0  0  0  0  0  0  0
    6.9071   -2.3018    1.4925 H   0  0  0  0  0  0  0  0  0  0  0  0
    7.5522   -3.9116    1.6643 H   0  0  0  0  0  0  0  0  0  0  0  0
    7.5444   -2.8366   -0.6919 H   0  0  0  0  0  0  0  0  0  0  0  0
    6.9633   -4.4729   -0.5644 H   0  0  0  0  0  0  0  0  0  0  0  0
    2.1345   -2.7259   -0.4549 H   0  0  0  0  0  0  0  0  0  0  0  0
    3.0183   -1.2956   -0.9641 H   0  0  0  0  0  0  0  0  0  0  0  0
    2.7845   -3.9501   -2.4358 H   0  0  0  0  0  0  0  0  0  0  0  0
    2.0790   -2.4338   -2.9397 H   0  0  0  0  0  0  0  0  0  0  0  0
    6.3017   -2.2760   -2.7250 H   0  0  0  0  0  0  0  0  0  0  0  0
    5.8302   -3.9593   -2.8810 H   0  0  0  0  0  0  0  0  0  0  0  0
    4.3472   -1.9109    1.6313 H   0  0  0  0  0  0  0  0  0  0  0  0
    2.0894   -2.7101    1.7832 H   0  0  0  0  0  0  0  0  0  0  0  0
    1.7594   -4.7818    2.9237 H   0  0  0  0  0  0  0  0  0  0  0  0
    4.8339   -6.4248    4.5053 H   0  0  0  0  0  0  0  0  0  0  0  0
    3.1546   -6.0010    4.7933 H   0  0  0  0  0  0  0  0  0  0  0  0
    4.3648   -4.7407    4.6283 H   0  0  0  0  0  0  0  0  0  0  0  0
  1  2  3  0
  1 23  1  0
  3  2  1  6
  3 21  1  0
  3  4  1  0
  3  5  1  0
  4 24  1  0
  5  6  1  0
  5 25  1  0
  5 26  1  0
  6  7  1  0
  6 27  1  0
  6 28  1  0
  7 21  1  0
  7  8  1  0
  7 29  1  1
  8 18  1  0
  8  9  1  0
  8 30  1  1
  9 10  1  0
  9 31  1  0
  9 32  1  0
 10 11  1  0
 10 33  1  0
 10 34  1  0
 11 17  1  0
 11 12  2  0
 12 13  1  0
 12 18  1  0
 13 14  1  0
 13 35  1  0
 13 36  1  0
 14 15  1  0
 14 37  1  0
 14 38  1  0
 15 16  2  0
 15 17  1  0
 17 39  1  0
 17 40  1  0
 18 19  1  0
 18 41  1  1
 19 20  2  0
 19 42  1  0
 20 21  1  0
 20 43  1  0
 21 22  1  1
 22 44  1  0
 22 45  1  0
 22 46  1  0
M  END
>  <i_m_ct_stereo_status>  (36) 
1

>  <s_m_source_file>  (36) 
/var/tmp/pbs.5102264.sched01/tmpu94zaw8c/01d2njlry.sdf

>  <i_m_source_file_index>  (36) 
14

>  <i_lp_mmshare_version>  (36) 
48012

>  <i_f3d_flags>  (36) 
0

>  <s_epik_input>  (36) 
W0NIXSNDW0NAQF0xKFtPSF0pW0NIMl1bQ0gyXVtDQEhdKFtDQF0xMltDSDNdKVtDQEBIXTNbQ0BIXShbQ0hdPVtDSF0yKUM0PUMoW0NIMl1bQ0gyXTMpW0NIMl1DKD1PKVtDSDJdW0NIMl00

>  <s_epik_cmdline>  (36) 
J2VwaWtfcHl0aG9uJywgJy1waHQnLCAnMi4wJywgJy1waCcsICc3LjAnLCAnLXRuJywgJzgnLCAnLW1hJywgJzIwMCcsICctaW1hZScsICc8aW5maWxlLm1hZT4nLCAnLW9tYWUnLCAnPG91dGZpbGUubWFlPic=

>  <r_lp_tautomer_probability>  (36) 
1

>  <r_epik_Ionization_Penalty>  (36) 
5.02526e-07

>  <r_epik_Ionization_Penalty_Charging>  (36) 
0

>  <r_epik_Ionization_Penalty_Neutral>  (36) 
5.02526e-07

>  <r_epik_State_Penalty>  (36) 
-0

>  <r_epik_Charging_Adjusted_Penalty>  (36) 
0

>  <i_epik_Tot_Q>  (36) 
0

>  <i_epik_Tot_abs_Q>  (36) 
0

>  <s_lp_Force_Field>  (36) 
OPLS3e

>  <r_lp_Energy>  (36) 
36.6585

>  <b_lp_Chiralities_Consistent>  (36) 
1

>  <s_lp_Variant>  (36) 
10:0-1

>  <s_i_glide_gridfile>  (36) 
pfpi4k_grid

>  <i_i_glide_lignum>  (36) 
14

>  <i_i_glide_rotatable_bonds>  (36) 
2

>  <r_i_docking_score>  (36) 
-4.16544

>  <r_i_glide_ligand_efficiency>  (36) 
-0.189338

>  <r_i_glide_ligand_efficiency_sa>  (36) 
-0.530534

>  <r_i_glide_ligand_efficiency_ln>  (36) 
-1.01819

>  <r_i_glide_gscore>  (36) 
-4.16544

>  <r_i_glide_lipo>  (36) 
-0.705072

>  <r_i_glide_hbond>  (36) 
-0.32

>  <r_i_glide_metal>  (36) 
-0

>  <r_i_glide_rewards>  (36) 
-1.57628

>  <r_i_glide_evdw>  (36) 
-23.4271

>  <r_i_glide_ecoul>  (36) 
-4.00839

>  <r_i_glide_erotb>  (36) 
0.208519

>  <r_i_glide_esite>  (36) 
0

>  <r_i_glide_emodel>  (36) 
-32.8382

>  <r_i_glide_energy>  (36) 
-27.4354

>  <r_i_glide_einternal>  (36) 
2.46335

>  <r_i_glide_intrahb_reward>  (36) 
-0

>  <i_i_glide_confnum>  (36) 
1

>  <i_i_glide_posenum>  (36) 
35

>  <r_i_glide_eff_state_penalty>  (36) 
0

>  <ligand_id>  (36) 
10

>  <original_smiles>  (36) 
C#CC1(O)CCC2C3CCC4=C(CCC(=O)C4)C3C=CC21C

>  <smiles>  (36) 
[H]C#CC1(O[H])C([H])([H])C([H])([H])C2([H])C3([H])C([H])(C([H])=C([H])C12C([H])([H])[H])C1=C(C([H])([H])C(=O)C([H])([H])C1([H])[H])C([H])([H])C3([H])[H]

$$$$
10:0:1
     RDKit          3D

 46 49  0  0  1  0  0  0  0  0999 V2000
    1.8429   -7.0219    2.0199 C   0  0  0  0  0  0  0  0  0  0  0  0
    3.0068   -6.8010    2.3126 C   0  0  0  0  0  0  0  0  0  0  0  0
    4.4294   -6.5766    2.6749 C   0  0  1  0  0  0  0  0  0  0  0  0
    4.7547   -7.4516    3.7377 O   0  0  0  0  0  0  0  0  0  0  0  0
    5.3272   -6.9870    1.4918 C   0  0  0  0  0  0  0  0  0  0  0  0
    5.7120   -5.6850    0.8070 C   0  0  0  0  0  0  0  0  0  0  0  0
    5.9565   -4.7267    1.9729 C   0  0  1  0  0  0  0  0  0  0  0  0
    6.0797   -3.2068    1.6405 C   0  0  1  0  0  0  0  0  0  0  0  0
    7.2333   -2.7997    0.7111 C   0  0  0  0  0  0  0  0  0  0  0  0
    6.9609   -3.0943   -0.7652 C   0  0  0  0  0  0  0  0  0  0  0  0
    5.5155   -2.8835   -1.1897 C   0  0  0  0  0  0  0  0  0  0  0  0
    4.5203   -2.6256   -0.3022 C   0  0  0  0  0  0  0  0  0  0  0  0
    3.1071   -2.3455   -0.7951 C   0  0  0  0  0  0  0  0  0  0  0  0
    2.7829   -3.0215   -2.1319 C   0  0  0  0  0  0  0  0  0  0  0  0
    3.8791   -2.7428   -3.1492 C   0  0  0  0  0  0  0  0  0  0  0  0
    3.6338   -2.3442   -4.2866 O   0  0  0  0  0  0  0  0  0  0  0  0
    5.3106   -3.0071   -2.6954 C   0  0  0  0  0  0  0  0  0  0  0  0
    4.7737   -2.5319    1.2080 C   0  0  1  0  0  0  0  0  0  0  0  0
    3.6292   -3.0078    2.0875 C   0  0  0  0  0  0  0  0  0  0  0  0
    3.6743   -4.0906    2.8876 C   0  0  0  0  0  0  0  0  0  0  0  0
    4.8444   -5.0751    3.0077 C   0  0  1  0  0  0  0  0  0  0  0  0
    5.4044   -4.9203    4.4453 C   0  0  0  0  0  0  0  0  0  0  0  0
    0.8314   -7.2661    1.7852 H   0  0  0  0  0  0  0  0  0  0  0  0
    5.5074   -7.9754    3.4905 H   0  0  0  0  0  0  0  0  0  0  0  0
    6.2464   -7.4652    1.8383 H   0  0  0  0  0  0  0  0  0  0  0  0
    4.8561   -7.6873    0.7970 H   0  0  0  0  0  0  0  0  0  0  0  0
    6.5942   -5.8304    0.1842 H   0  0  0  0  0  0  0  0  0  0  0  0
    4.8869   -5.3426    0.1775 H   0  0  0  0  0  0  0  0  0  0  0  0
    6.9105   -5.0347    2.4018 H   0  0  0  0  0  0  0  0  0  0  0  0
    6.2954   -2.7339    2.5914 H   0  0  0  0  0  0  0  0  0  0  0  0
    7.3864   -1.7245    0.8123 H   0  0  0  0  0  0  0  0  0  0  0  0
    8.1721   -3.2660    1.0181 H   0  0  0  0  0  0  0  0  0  0  0  0
    7.6235   -2.4978   -1.3939 H   0  0  0  0  0  0  0  0  0  0  0  0
    7.2099   -4.1298   -0.9570 H   0  0  0  0  0  0  0  0  0  0  0  0
    2.3522   -2.6580   -0.0732 H   0  0  0  0  0  0  0  0  0  0  0  0
    3.0191   -1.2636   -0.9038 H   0  0  0  0  0  0  0  0  0  0  0  0
    2.7198   -4.0981   -1.9733 H   0  0  0  0  0  0  0  0  0  0  0  0
    1.8121   -2.6950   -2.5096 H   0  0  0  0  0  0  0  0  0  0  0  0
    5.9460   -2.2680   -3.1802 H   0  0  0  0  0  0  0  0  0  0  0  0
    5.6087   -3.9992   -3.0371 H   0  0  0  0  0  0  0  0  0  0  0  0
    4.8726   -1.4674    1.4186 H   0  0  0  0  0  0  0  0  0  0  0  0
    2.7571   -2.3707    2.1154 H   0  0  0  0  0  0  0  0  0  0  0  0
    2.8273   -4.3004    3.5225 H   0  0  0  0  0  0  0  0  0  0  0  0
    6.2782   -5.5505    4.6183 H   0  0  0  0  0  0  0  0  0  0  0  0
    4.6564   -5.1899    5.1937 H   0  0  0  0  0  0  0  0  0  0  0  0
    5.7045   -3.8944    4.6471 H   0  0  0  0  0  0  0  0  0  0  0  0
  1  2  3  0
  1 23  1  0
  3  2  1  6
  3 21  1  0
  3  4  1  0
  3  5  1  0
  4 24  1  0
  5  6  1  0
  5 25  1  0
  5 26  1  0
  6  7  1  0
  6 27  1  0
  6 28  1  0
  7 21  1  0
  7  8  1  0
  7 29  1  1
  8 18  1  0
  8  9  1  0
  8 30  1  1
  9 10  1  0
  9 31  1  0
  9 32  1  0
 10 11  1  0
 10 33  1  0
 10 34  1  0
 11 17  1  0
 11 12  2  0
 12 13  1  0
 12 18  1  0
 13 14  1  0
 13 35  1  0
 13 36  1  0
 14 15  1  0
 14 37  1  0
 14 38  1  0
 15 16  2  0
 15 17  1  0
 17 39  1  0
 17 40  1  0
 18 19  1  0
 18 41  1  1
 19 20  2  0
 19 42  1  0
 20 21  1  0
 20 43  1  0
 21 22  1  1
 22 44  1  0
 22 45  1  0
 22 46  1  0
M  END
>  <i_m_ct_stereo_status>  (37) 
1

>  <s_m_source_file>  (37) 
/var/tmp/pbs.5102264.sched01/tmpu94zaw8c/01d2njlry.sdf

>  <i_m_source_file_index>  (37) 
14

>  <i_lp_mmshare_version>  (37) 
48012

>  <i_f3d_flags>  (37) 
0

>  <s_epik_input>  (37) 
W0NIXSNDW0NAQF0xKFtPSF0pW0NIMl1bQ0gyXVtDQEhdKFtDQF0xMltDSDNdKVtDQEBIXTNbQ0BIXShbQ0hdPVtDSF0yKUM0PUMoW0NIMl1bQ0gyXTMpW0NIMl1DKD1PKVtDSDJdW0NIMl00

>  <s_epik_cmdline>  (37) 
J2VwaWtfcHl0aG9uJywgJy1waHQnLCAnMi4wJywgJy1waCcsICc3LjAnLCAnLXRuJywgJzgnLCAnLW1hJywgJzIwMCcsICctaW1hZScsICc8aW5maWxlLm1hZT4nLCAnLW9tYWUnLCAnPG91dGZpbGUubWFlPic=

>  <r_lp_tautomer_probability>  (37) 
1

>  <r_epik_Ionization_Penalty>  (37) 
5.02526e-07

>  <r_epik_Ionization_Penalty_Charging>  (37) 
0

>  <r_epik_Ionization_Penalty_Neutral>  (37) 
5.02526e-07

>  <r_epik_State_Penalty>  (37) 
-0

>  <r_epik_Charging_Adjusted_Penalty>  (37) 
0

>  <i_epik_Tot_Q>  (37) 
0

>  <i_epik_Tot_abs_Q>  (37) 
0

>  <s_lp_Force_Field>  (37) 
OPLS3e

>  <r_lp_Energy>  (37) 
36.6585

>  <b_lp_Chiralities_Consistent>  (37) 
1

>  <s_lp_Variant>  (37) 
10:0-1

>  <s_i_glide_gridfile>  (37) 
pfpi4k_grid

>  <i_i_glide_lignum>  (37) 
14

>  <i_i_glide_rotatable_bonds>  (37) 
2

>  <r_i_docking_score>  (37) 
-3.85818

>  <r_i_glide_ligand_efficiency>  (37) 
-0.175372

>  <r_i_glide_ligand_efficiency_sa>  (37) 
-0.491398

>  <r_i_glide_ligand_efficiency_ln>  (37) 
-0.943079

>  <r_i_glide_gscore>  (37) 
-3.85818

>  <r_i_glide_lipo>  (37) 
-0.703179

>  <r_i_glide_hbond>  (37) 
-0.32

>  <r_i_glide_metal>  (37) 
-0

>  <r_i_glide_rewards>  (37) 
-1.53739

>  <r_i_glide_evdw>  (37) 
-21.5318

>  <r_i_glide_ecoul>  (37) 
-2.86355

>  <r_i_glide_erotb>  (37) 
0.208519

>  <r_i_glide_esite>  (37) 
0

>  <r_i_glide_emodel>  (37) 
-29.4355

>  <r_i_glide_energy>  (37) 
-24.3954

>  <r_i_glide_einternal>  (37) 
2.25366

>  <r_i_glide_intrahb_reward>  (37) 
-0

>  <i_i_glide_confnum>  (37) 
2

>  <i_i_glide_posenum>  (37) 
26

>  <r_i_glide_eff_state_penalty>  (37) 
0

>  <ligand_id>  (37) 
10

>  <original_smiles>  (37) 
C#CC1(O)CCC2C3CCC4=C(CCC(=O)C4)C3C=CC21C

>  <smiles>  (37) 
[H]C#CC1(O[H])C([H])([H])C([H])([H])C2([H])C3([H])C([H])(C([H])=C([H])C12C([H])([H])[H])C1=C(C([H])([H])C(=O)C([H])([H])C1([H])[H])C([H])([H])C3([H])[H]

$$$$
10:0:2
     RDKit          3D

 46 49  0  0  1  0  0  0  0  0999 V2000
    4.4469   -0.5348   -2.2636 C   0  0  0  0  0  0  0  0  0  0  0  0
    5.0353   -1.1871   -1.4164 C   0  0  0  0  0  0  0  0  0  0  0  0
    5.7664   -1.9943   -0.4088 C   0  0  1  0  0  0  0  0  0  0  0  0
    6.7347   -2.7593   -1.0957 O   0  0  0  0  0  0  0  0  0  0  0  0
    6.5948   -1.0771    0.5048 C   0  0  0  0  0  0  0  0  0  0  0  0
    5.8081   -0.9593    1.7988 C   0  0  0  0  0  0  0  0  0  0  0  0
    5.2799   -2.3750    2.0190 C   0  0  1  0  0  0  0  0  0  0  0  0
    4.1749   -2.5615    3.1032 C   0  0  1  0  0  0  0  0  0  0  0  0
    4.5529   -2.1690    4.5355 C   0  0  0  0  0  0  0  0  0  0  0  0
    4.5555   -0.6512    4.7805 C   0  0  0  0  0  0  0  0  0  0  0  0
    3.4473    0.1017    4.0563 C   0  0  0  0  0  0  0  0  0  0  0  0
    2.6492   -0.4780    3.1204 C   0  0  0  0  0  0  0  0  0  0  0  0
    1.5086    0.3143    2.4734 C   0  0  0  0  0  0  0  0  0  0  0  0
    1.7904    1.8239    2.4244 C   0  0  0  0  0  0  0  0  0  0  0  0
    2.2185    2.3348    3.7893 C   0  0  0  0  0  0  0  0  0  0  0  0
    1.7021    3.3224    4.3022 O   0  0  0  0  0  0  0  0  0  0  0  0
    3.3375    1.5642    4.4879 C   0  0  0  0  0  0  0  0  0  0  0  0
    2.8097   -1.9566    2.7279 C   0  0  1  0  0  0  0  0  0  0  0  0
    2.4968   -2.2631    1.2810 C   0  0  0  0  0  0  0  0  0  0  0  0
    3.3866   -2.6898    0.3646 C   0  0  0  0  0  0  0  0  0  0  0  0
    4.8889   -2.8699    0.5900 C   0  0  1  0  0  0  0  0  0  0  0  0
    5.1751   -4.3852    0.4647 C   0  0  0  0  0  0  0  0  0  0  0  0
    3.9300    0.0537   -2.9861 H   0  0  0  0  0  0  0  0  0  0  0  0
    6.3881   -3.6338   -1.1998 H   0  0  0  0  0  0  0  0  0  0  0  0
    7.5616   -1.5340    0.7424 H   0  0  0  0  0  0  0  0  0  0  0  0
    6.8047   -0.0973    0.0809 H   0  0  0  0  0  0  0  0  0  0  0  0
    6.4607   -0.6216    2.6022 H   0  0  0  0  0  0  0  0  0  0  0  0
    5.0006   -0.2385    1.6612 H   0  0  0  0  0  0  0  0  0  0  0  0
    6.1396   -2.9587    2.3452 H   0  0  0  0  0  0  0  0  0  0  0  0
    4.0133   -3.6353    3.1390 H   0  0  0  0  0  0  0  0  0  0  0  0
    3.8114   -2.6083    5.2049 H   0  0  0  0  0  0  0  0  0  0  0  0
    5.5078   -2.6098    4.8238 H   0  0  0  0  0  0  0  0  0  0  0  0
    4.4616   -0.4672    5.8518 H   0  0  0  0  0  0  0  0  0  0  0  0
    5.5085   -0.2191    4.4833 H   0  0  0  0  0  0  0  0  0  0  0  0
    1.3013   -0.0130    1.4542 H   0  0  0  0  0  0  0  0  0  0  0  0
    0.5992    0.1313    3.0480 H   0  0  0  0  0  0  0  0  0  0  0  0
    2.5983    2.0260    1.7197 H   0  0  0  0  0  0  0  0  0  0  0  0
    0.9186    2.3790    2.0704 H   0  0  0  0  0  0  0  0  0  0  0  0
    3.1711    1.6106    5.5645 H   0  0  0  0  0  0  0  0  0  0  0  0
    4.2803    2.0745    4.2923 H   0  0  0  0  0  0  0  0  0  0  0  0
    2.0470   -2.4834    3.3009 H   0  0  0  0  0  0  0  0  0  0  0  0
    1.4585   -2.1911    0.9994 H   0  0  0  0  0  0  0  0  0  0  0  0
    3.0265   -2.9277   -0.6223 H   0  0  0  0  0  0  0  0  0  0  0  0
    6.2209   -4.6229    0.6699 H   0  0  0  0  0  0  0  0  0  0  0  0
    4.9333   -4.7629   -0.5287 H   0  0  0  0  0  0  0  0  0  0  0  0
    4.5782   -4.9545    1.1766 H   0  0  0  0  0  0  0  0  0  0  0  0
  1  2  3  0
  1 23  1  0
  3  2  1  6
  3 21  1  0
  3  4  1  0
  3  5  1  0
  4 24  1  0
  5  6  1  0
  5 25  1  0
  5 26  1  0
  6  7  1  0
  6 27  1  0
  6 28  1  0
  7 21  1  0
  7  8  1  0
  7 29  1  1
  8 18  1  0
  8  9  1  0
  8 30  1  1
  9 10  1  0
  9 31  1  0
  9 32  1  0
 10 11  1  0
 10 33  1  0
 10 34  1  0
 11 17  1  0
 11 12  2  0
 12 13  1  0
 12 18  1  0
 13 14  1  0
 13 35  1  0
 13 36  1  0
 14 15  1  0
 14 37  1  0
 14 38  1  0
 15 16  2  0
 15 17  1  0
 17 39  1  0
 17 40  1  0
 18 19  1  0
 18 41  1  1
 19 20  2  0
 19 42  1  0
 20 21  1  0
 20 43  1  0
 21 22  1  1
 22 44  1  0
 22 45  1  0
 22 46  1  0
M  END
>  <i_m_ct_stereo_status>  (38) 
1

>  <s_m_source_file>  (38) 
/var/tmp/pbs.5102264.sched01/tmpu94zaw8c/01d2njlry.sdf

>  <i_m_source_file_index>  (38) 
14

>  <i_lp_mmshare_version>  (38) 
48012

>  <i_f3d_flags>  (38) 
0

>  <s_epik_input>  (38) 
W0NIXSNDW0NAQF0xKFtPSF0pW0NIMl1bQ0gyXVtDQEhdKFtDQF0xMltDSDNdKVtDQEBIXTNbQ0BIXShbQ0hdPVtDSF0yKUM0PUMoW0NIMl1bQ0gyXTMpW0NIMl1DKD1PKVtDSDJdW0NIMl00

>  <s_epik_cmdline>  (38) 
J2VwaWtfcHl0aG9uJywgJy1waHQnLCAnMi4wJywgJy1waCcsICc3LjAnLCAnLXRuJywgJzgnLCAnLW1hJywgJzIwMCcsICctaW1hZScsICc8aW5maWxlLm1hZT4nLCAnLW9tYWUnLCAnPG91dGZpbGUubWFlPic=

>  <r_lp_tautomer_probability>  (38) 
1

>  <r_epik_Ionization_Penalty>  (38) 
5.02526e-07

>  <r_epik_Ionization_Penalty_Charging>  (38) 
0

>  <r_epik_Ionization_Penalty_Neutral>  (38) 
5.02526e-07

>  <r_epik_State_Penalty>  (38) 
-0

>  <r_epik_Charging_Adjusted_Penalty>  (38) 
0

>  <i_epik_Tot_Q>  (38) 
0

>  <i_epik_Tot_abs_Q>  (38) 
0

>  <s_lp_Force_Field>  (38) 
OPLS3e

>  <r_lp_Energy>  (38) 
36.6585

>  <b_lp_Chiralities_Consistent>  (38) 
1

>  <s_lp_Variant>  (38) 
10:0-1

>  <s_i_glide_gridfile>  (38) 
pfpi4k_grid

>  <i_i_glide_lignum>  (38) 
14

>  <i_i_glide_rotatable_bonds>  (38) 
2

>  <r_i_docking_score>  (38) 
-3.06029

>  <r_i_glide_ligand_efficiency>  (38) 
-0.139104

>  <r_i_glide_ligand_efficiency_sa>  (38) 
-0.389775

>  <r_i_glide_ligand_efficiency_ln>  (38) 
-0.748047

>  <r_i_glide_gscore>  (38) 
-3.06029

>  <r_i_glide_lipo>  (38) 
-0.289646

>  <r_i_glide_hbond>  (38) 
0

>  <r_i_glide_metal>  (38) 
-0

>  <r_i_glide_rewards>  (38) 
-1.38816

>  <r_i_glide_evdw>  (38) 
-23.9502

>  <r_i_glide_ecoul>  (38) 
-2.52853

>  <r_i_glide_erotb>  (38) 
0.208519

>  <r_i_glide_esite>  (38) 
-0.0142147

>  <r_i_glide_emodel>  (38) 
-30.0884

>  <r_i_glide_energy>  (38) 
-26.4788

>  <r_i_glide_einternal>  (38) 
2.49003

>  <r_i_glide_intrahb_reward>  (38) 
-0

>  <i_i_glide_confnum>  (38) 
1

>  <i_i_glide_posenum>  (38) 
18

>  <r_i_glide_eff_state_penalty>  (38) 
0

>  <ligand_id>  (38) 
10

>  <original_smiles>  (38) 
C#CC1(O)CCC2C3CCC4=C(CCC(=O)C4)C3C=CC21C

>  <smiles>  (38) 
[H]C#CC1(O[H])C([H])([H])C([H])([H])C2([H])C3([H])C([H])(C([H])=C([H])C12C([H])([H])[H])C1=C(C([H])([H])C(=O)C([H])([H])C1([H])[H])C([H])([H])C3([H])[H]

$$$$
11:0:0
     RDKit          3D

 23 24  0  0  1  0  0  0  0  0999 V2000
    1.7746   -1.7729    2.6390 C   0  0  0  0  0  0  0  0  0  0  0  0
    0.9323   -0.6202    3.0494 C   0  0  0  0  0  0  0  0  0  0  0  0
    0.8827    0.5637    2.3582 N   0  0  0  0  0  0  0  0  0  0  0  0
    0.0028    1.2210    3.1044 C   0  0  0  0  0  0  0  0  0  0  0  0
   -0.4771    2.5180    2.9182 N   0  0  0  0  0  0  0  0  0  0  0  0
   -1.3879    3.0794    3.8041 C   0  0  0  0  0  0  0  0  0  0  0  0
   -1.7870    4.4956    3.4386 C   0  0  0  0  0  0  0  0  0  0  0  0
   -1.8574    2.4000    4.8838 C   0  0  0  0  0  0  0  0  0  0  0  0
   -2.8560    2.9750    5.8736 C   0  0  0  0  0  0  0  0  0  0  0  0
   -1.3762    1.0353    5.0889 C   0  0  0  0  0  0  0  0  0  0  0  0
   -1.7158    0.2895    6.0145 O   0  0  0  0  0  0  0  0  0  0  0  0
   -0.4286    0.4968    4.1490 N   0  0  0  0  0  0  0  0  0  0  0  0
    0.1627   -0.7171    4.1331 N   0  0  0  0  0  0  0  0  0  0  0  0
   -0.1567    3.0681    2.1213 H   0  0  0  0  0  0  0  0  0  0  0  0
    2.3271   -1.5466    1.7270 H   0  0  0  0  0  0  0  0  0  0  0  0
    1.1421   -2.6462    2.4680 H   0  0  0  0  0  0  0  0  0  0  0  0
    2.4813   -2.0143    3.4355 H   0  0  0  0  0  0  0  0  0  0  0  0
   -2.5057    4.9004    4.1431 H   0  0  0  0  0  0  0  0  0  0  0  0
   -2.2428    4.5117    2.4482 H   0  0  0  0  0  0  0  0  0  0  0  0
   -0.9082    5.1429    3.4225 H   0  0  0  0  0  0  0  0  0  0  0  0
   -3.1088    2.2758    6.6691 H   0  0  0  0  0  0  0  0  0  0  0  0
   -3.7779    3.2375    5.3575 H   0  0  0  0  0  0  0  0  0  0  0  0
   -2.4416    3.8656    6.3406 H   0  0  0  0  0  0  0  0  0  0  0  0
  1  2  1  0
  1 15  1  0
  1 16  1  0
  1 17  1  0
  2 13  2  0
  2  3  1  0
  3  4  2  0
  4 12  1  0
  4  5  1  0
  5 14  1  0
  5  6  1  0
  6  7  1  0
  6  8  2  0
  7 18  1  0
  7 19  1  0
  7 20  1  0
  8  9  1  0
  8 10  1  0
  9 21  1  0
  9 22  1  0
  9 23  1  0
 10 11  2  0
 10 12  1  0
 12 13  1  0
M  END
>  <i_m_ct_stereo_status>  (39) 
1

>  <s_m_source_file>  (39) 
/var/tmp/pbs.5102264.sched01/tmpu94zaw8c/01d2njlry.sdf

>  <i_m_source_file_index>  (39) 
15

>  <i_lp_mmshare_version>  (39) 
48012

>  <i_f3d_flags>  (39) 
0

>  <s_epik_input>  (39) 
W0NIM11jKG4xKW5uKGMxMiljKD1PKWMoW0NIM10pYyhbbkhdMilbQ0gzXQ==

>  <s_epik_cmdline>  (39) 
J2VwaWtfcHl0aG9uJywgJy1waHQnLCAnMi4wJywgJy1waCcsICc3LjAnLCAnLXRuJywgJzgnLCAnLW1hJywgJzIwMCcsICctaW1hZScsICc8aW5maWxlLm1hZT4nLCAnLW9tYWUnLCAnPG91dGZpbGUubWFlPic=

>  <r_epik_Ionization_Penalty>  (39) 
0.830482

>  <r_epik_Ionization_Penalty_Charging>  (39) 
0.830476

>  <r_epik_Ionization_Penalty_Neutral>  (39) 
6.13505e-06

>  <r_epik_State_Penalty>  (39) 
0.299412

>  <r_epik_Charging_Adjusted_Penalty>  (39) 
1.12989

>  <i_epik_Tot_Q>  (39) 
0

>  <i_epik_Tot_abs_Q>  (39) 
0

>  <s_lp_Force_Field>  (39) 
OPLS3e

>  <r_lp_Energy>  (39) 
4.2522

>  <b_lp_Chiralities_Consistent>  (39) 
1

>  <s_lp_Variant>  (39) 
11:0-1

>  <s_i_glide_gridfile>  (39) 
pfpi4k_grid

>  <i_i_glide_lignum>  (39) 
15

>  <i_i_glide_rotatable_bonds>  (39) 
0

>  <r_i_docking_score>  (39) 
-4.21639

>  <r_i_glide_ligand_efficiency>  (39) 
-0.324338

>  <r_i_glide_ligand_efficiency_sa>  (39) 
-0.762627

>  <r_i_glide_ligand_efficiency_ln>  (39) 
-1.18274

>  <r_i_glide_gscore>  (39) 
-4.21639

>  <r_i_glide_lipo>  (39) 
-0.0708264

>  <r_i_glide_hbond>  (39) 
-0.253697

>  <r_i_glide_metal>  (39) 
-0

>  <r_i_glide_rewards>  (39) 
-2.19415

>  <r_i_glide_evdw>  (39) 
-16.3425

>  <r_i_glide_ecoul>  (39) 
-4.74134

>  <r_i_glide_erotb>  (39) 
0

>  <r_i_glide_esite>  (39) 
-0.169394

>  <r_i_glide_emodel>  (39) 
-27.467

>  <r_i_glide_energy>  (39) 
-21.0838

>  <r_i_glide_einternal>  (39) 
0

>  <r_i_glide_intrahb_reward>  (39) 
-0

>  <i_i_glide_confnum>  (39) 
1

>  <i_i_glide_posenum>  (39) 
20

>  <r_i_glide_eff_state_penalty>  (39) 
0

>  <ligand_id>  (39) 
11

>  <original_smiles>  (39) 
Cc1nc2[nH]c(C)c(C)c(=O)n2n1

>  <smiles>  (39) 
[H]n1c(C([H])([H])[H])c(C([H])([H])[H])c(=O)n2nc(C([H])([H])[H])nc12

$$$$
11:0:1
     RDKit          3D

 23 24  0  0  1  0  0  0  0  0999 V2000
    5.3878   -4.7931    3.0980 C   0  0  0  0  0  0  0  0  0  0  0  0
    4.9397   -4.1829    1.8199 C   0  0  0  0  0  0  0  0  0  0  0  0
    3.9742   -4.7296    1.0025 N   0  0  0  0  0  0  0  0  0  0  0  0
    3.9606   -3.8006    0.0491 C   0  0  0  0  0  0  0  0  0  0  0  0
    3.1702   -3.7822   -1.0977 N   0  0  0  0  0  0  0  0  0  0  0  0
    3.2500   -2.7706   -2.0506 C   0  0  0  0  0  0  0  0  0  0  0  0
    2.3240   -2.9500   -3.2327 C   0  0  0  0  0  0  0  0  0  0  0  0
    4.1097   -1.7232   -1.8928 C   0  0  0  0  0  0  0  0  0  0  0  0
    4.2355   -0.5927   -2.8908 C   0  0  0  0  0  0  0  0  0  0  0  0
    4.9331   -1.7384   -0.6908 C   0  0  0  0  0  0  0  0  0  0  0  0
    5.7859   -0.8927   -0.4154 O   0  0  0  0  0  0  0  0  0  0  0  0
    4.8290   -2.8056    0.2721 N   0  0  0  0  0  0  0  0  0  0  0  0
    5.4941   -3.0337    1.4331 N   0  0  0  0  0  0  0  0  0  0  0  0
    2.5882   -4.5875   -1.2948 H   0  0  0  0  0  0  0  0  0  0  0  0
    4.8489   -5.7178    3.2776 H   0  0  0  0  0  0  0  0  0  0  0  0
    5.1912   -4.0956    3.9189 H   0  0  0  0  0  0  0  0  0  0  0  0
    6.4589   -5.0093    3.0384 H   0  0  0  0  0  0  0  0  0  0  0  0
    2.3899   -2.1346   -3.9549 H   0  0  0  0  0  0  0  0  0  0  0  0
    1.2935   -3.0033   -2.8812 H   0  0  0  0  0  0  0  0  0  0  0  0
    2.5425   -3.8804   -3.7590 H   0  0  0  0  0  0  0  0  0  0  0  0
    4.9695    0.1402   -2.5667 H   0  0  0  0  0  0  0  0  0  0  0  0
    3.2808   -0.0868   -2.9898 H   0  0  0  0  0  0  0  0  0  0  0  0
    4.5411   -0.9811   -3.8568 H   0  0  0  0  0  0  0  0  0  0  0  0
  1  2  1  0
  1 15  1  0
  1 16  1  0
  1 17  1  0
  2 13  2  0
  2  3  1  0
  3  4  2  0
  4 12  1  0
  4  5  1  0
  5 14  1  0
  5  6  1  0
  6  7  1  0
  6  8  2  0
  7 18  1  0
  7 19  1  0
  7 20  1  0
  8  9  1  0
  8 10  1  0
  9 21  1  0
  9 22  1  0
  9 23  1  0
 10 11  2  0
 10 12  1  0
 12 13  1  0
M  END
>  <i_m_ct_stereo_status>  (40) 
1

>  <s_m_source_file>  (40) 
/var/tmp/pbs.5102264.sched01/tmpu94zaw8c/01d2njlry.sdf

>  <i_m_source_file_index>  (40) 
15

>  <i_lp_mmshare_version>  (40) 
48012

>  <i_f3d_flags>  (40) 
0

>  <s_epik_input>  (40) 
W0NIM11jKG4xKW5uKGMxMiljKD1PKWMoW0NIM10pYyhbbkhdMilbQ0gzXQ==

>  <s_epik_cmdline>  (40) 
J2VwaWtfcHl0aG9uJywgJy1waHQnLCAnMi4wJywgJy1waCcsICc3LjAnLCAnLXRuJywgJzgnLCAnLW1hJywgJzIwMCcsICctaW1hZScsICc8aW5maWxlLm1hZT4nLCAnLW9tYWUnLCAnPG91dGZpbGUubWFlPic=

>  <r_epik_Ionization_Penalty>  (40) 
0.830482

>  <r_epik_Ionization_Penalty_Charging>  (40) 
0.830476

>  <r_epik_Ionization_Penalty_Neutral>  (40) 
6.13505e-06

>  <r_epik_State_Penalty>  (40) 
0.299412

>  <r_epik_Charging_Adjusted_Penalty>  (40) 
1.12989

>  <i_epik_Tot_Q>  (40) 
0

>  <i_epik_Tot_abs_Q>  (40) 
0

>  <s_lp_Force_Field>  (40) 
OPLS3e

>  <r_lp_Energy>  (40) 
4.2522

>  <b_lp_Chiralities_Consistent>  (40) 
1

>  <s_lp_Variant>  (40) 
11:0-1

>  <s_i_glide_gridfile>  (40) 
pfpi4k_grid

>  <i_i_glide_lignum>  (40) 
15

>  <i_i_glide_rotatable_bonds>  (40) 
0

>  <r_i_docking_score>  (40) 
-3.99127

>  <r_i_glide_ligand_efficiency>  (40) 
-0.307021

>  <r_i_glide_ligand_efficiency_sa>  (40) 
-0.721909

>  <r_i_glide_ligand_efficiency_ln>  (40) 
-1.11959

>  <r_i_glide_gscore>  (40) 
-3.99127

>  <r_i_glide_lipo>  (40) 
-0.320106

>  <r_i_glide_hbond>  (40) 
-0.19218

>  <r_i_glide_metal>  (40) 
-0

>  <r_i_glide_rewards>  (40) 
-2.25845

>  <r_i_glide_evdw>  (40) 
-17.5313

>  <r_i_glide_ecoul>  (40) 
-2.2931

>  <r_i_glide_erotb>  (40) 
0

>  <r_i_glide_esite>  (40) 
0

>  <r_i_glide_emodel>  (40) 
-25.8548

>  <r_i_glide_energy>  (40) 
-19.8244

>  <r_i_glide_einternal>  (40) 
0

>  <r_i_glide_intrahb_reward>  (40) 
-0

>  <i_i_glide_confnum>  (40) 
1

>  <i_i_glide_posenum>  (40) 
2

>  <r_i_glide_eff_state_penalty>  (40) 
0

>  <ligand_id>  (40) 
11

>  <original_smiles>  (40) 
Cc1nc2[nH]c(C)c(C)c(=O)n2n1

>  <smiles>  (40) 
[H]n1c(C([H])([H])[H])c(C([H])([H])[H])c(=O)n2nc(C([H])([H])[H])nc12

$$$$
11:0:2
     RDKit          3D

 23 24  0  0  1  0  0  0  0  0999 V2000
    0.4083   -4.2727    5.9613 C   0  0  0  0  0  0  0  0  0  0  0  0
    0.1338   -2.9124    5.4303 C   0  0  0  0  0  0  0  0  0  0  0  0
    0.7116   -2.4078    4.2874 N   0  0  0  0  0  0  0  0  0  0  0  0
    0.1451   -1.2013    4.2778 C   0  0  0  0  0  0  0  0  0  0  0  0
    0.3322   -0.1919    3.3374 N   0  0  0  0  0  0  0  0  0  0  0  0
   -0.3339    1.0264    3.4302 C   0  0  0  0  0  0  0  0  0  0  0  0
   -0.0001    1.9944    2.3179 C   0  0  0  0  0  0  0  0  0  0  0  0
   -1.1992    1.2895    4.4512 C   0  0  0  0  0  0  0  0  0  0  0  0
   -1.9424    2.6029    4.6001 C   0  0  0  0  0  0  0  0  0  0  0  0
   -1.3918    0.2367    5.4310 C   0  0  0  0  0  0  0  0  0  0  0  0
   -2.1390    0.3115    6.4278 O   0  0  0  0  0  0  0  0  0  0  0  0
   -0.6964   -1.0183    5.3022 N   0  0  0  0  0  0  0  0  0  0  0  0
   -0.7299   -2.1280    6.0752 N   0  0  0  0  0  0  0  0  0  0  0  0
    0.9623   -0.3574    2.5629 H   0  0  0  0  0  0  0  0  0  0  0  0
    1.1189   -4.7904    5.3236 H   0  0  0  0  0  0  0  0  0  0  0  0
   -0.5235   -4.8444    5.9980 H   0  0  0  0  0  0  0  0  0  0  0  0
    0.8252   -4.1927    6.9693 H   0  0  0  0  0  0  0  0  0  0  0  0
   -0.5303    2.9394    2.4343 H   0  0  0  0  0  0  0  0  0  0  0  0
   -0.2647    1.5716    1.3443 H   0  0  0  0  0  0  0  0  0  0  0  0
    1.0699    2.2161    2.3070 H   0  0  0  0  0  0  0  0  0  0  0  0
   -2.5803    2.6092    5.4815 H   0  0  0  0  0  0  0  0  0  0  0  0
   -2.5709    2.7674    3.7279 H   0  0  0  0  0  0  0  0  0  0  0  0
   -1.2289    3.4185    4.6944 H   0  0  0  0  0  0  0  0  0  0  0  0
  1  2  1  0
  1 15  1  0
  1 16  1  0
  1 17  1  0
  2 13  2  0
  2  3  1  0
  3  4  2  0
  4 12  1  0
  4  5  1  0
  5 14  1  0
  5  6  1  0
  6  7  1  0
  6  8  2  0
  7 18  1  0
  7 19  1  0
  7 20  1  0
  8  9  1  0
  8 10  1  0
  9 21  1  0
  9 22  1  0
  9 23  1  0
 10 11  2  0
 10 12  1  0
 12 13  1  0
M  END
>  <i_m_ct_stereo_status>  (41) 
1

>  <s_m_source_file>  (41) 
/var/tmp/pbs.5102264.sched01/tmpu94zaw8c/01d2njlry.sdf

>  <i_m_source_file_index>  (41) 
15

>  <i_lp_mmshare_version>  (41) 
48012

>  <i_f3d_flags>  (41) 
0

>  <s_epik_input>  (41) 
W0NIM11jKG4xKW5uKGMxMiljKD1PKWMoW0NIM10pYyhbbkhdMilbQ0gzXQ==

>  <s_epik_cmdline>  (41) 
J2VwaWtfcHl0aG9uJywgJy1waHQnLCAnMi4wJywgJy1waCcsICc3LjAnLCAnLXRuJywgJzgnLCAnLW1hJywgJzIwMCcsICctaW1hZScsICc8aW5maWxlLm1hZT4nLCAnLW9tYWUnLCAnPG91dGZpbGUubWFlPic=

>  <r_epik_Ionization_Penalty>  (41) 
0.830482

>  <r_epik_Ionization_Penalty_Charging>  (41) 
0.830476

>  <r_epik_Ionization_Penalty_Neutral>  (41) 
6.13505e-06

>  <r_epik_State_Penalty>  (41) 
0.299412

>  <r_epik_Charging_Adjusted_Penalty>  (41) 
1.12989

>  <i_epik_Tot_Q>  (41) 
0

>  <i_epik_Tot_abs_Q>  (41) 
0

>  <s_lp_Force_Field>  (41) 
OPLS3e

>  <r_lp_Energy>  (41) 
4.2522

>  <b_lp_Chiralities_Consistent>  (41) 
1

>  <s_lp_Variant>  (41) 
11:0-1

>  <s_i_glide_gridfile>  (41) 
pfpi4k_grid

>  <i_i_glide_lignum>  (41) 
15

>  <i_i_glide_rotatable_bonds>  (41) 
0

>  <r_i_docking_score>  (41) 
-3.85054

>  <r_i_glide_ligand_efficiency>  (41) 
-0.296196

>  <r_i_glide_ligand_efficiency_sa>  (41) 
-0.696455

>  <r_i_glide_ligand_efficiency_ln>  (41) 
-1.08011

>  <r_i_glide_gscore>  (41) 
-3.85054

>  <r_i_glide_lipo>  (41) 
0

>  <r_i_glide_hbond>  (41) 
-0.16

>  <r_i_glide_metal>  (41) 
-0

>  <r_i_glide_rewards>  (41) 
-2.19415

>  <r_i_glide_evdw>  (41) 
-14.1217

>  <r_i_glide_ecoul>  (41) 
-4.80656

>  <r_i_glide_erotb>  (41) 
0

>  <r_i_glide_esite>  (41) 
-0.069322

>  <r_i_glide_emodel>  (41) 
-24.7542

>  <r_i_glide_energy>  (41) 
-18.9283

>  <r_i_glide_einternal>  (41) 
0

>  <r_i_glide_intrahb_reward>  (41) 
-0

>  <i_i_glide_confnum>  (41) 
1

>  <i_i_glide_posenum>  (41) 
29

>  <r_i_glide_eff_state_penalty>  (41) 
0

>  <ligand_id>  (41) 
11

>  <original_smiles>  (41) 
Cc1nc2[nH]c(C)c(C)c(=O)n2n1

>  <smiles>  (41) 
[H]n1c(C([H])([H])[H])c(C([H])([H])[H])c(=O)n2nc(C([H])([H])[H])nc12

$$$$
11:1:0
     RDKit          3D

 22 23  0  0  1  0  0  0  0  0999 V2000
    3.5898   -4.8065   -0.0135 C   0  0  0  0  0  0  0  0  0  0  0  0
    2.7074   -5.7034    0.7824 C   0  0  0  0  0  0  0  0  0  0  0  0
    1.3766   -5.8558    0.5206 N   0  0  0  0  0  0  0  0  0  0  0  0
    0.9877   -6.7343    1.4452 C   0  0  0  0  0  0  0  0  0  0  0  0
   -0.2350   -7.2312    1.6853 N   0  0  0  0  0  0  0  0  0  0  0  0
   -0.3493   -8.1047    2.6834 C   0  0  0  0  0  0  0  0  0  0  0  0
   -1.7584   -8.6580    2.8434 C   0  0  0  0  0  0  0  0  0  0  0  0
    0.7207   -8.4939    3.5445 C   0  0  0  0  0  0  0  0  0  0  0  0
    0.5022   -9.4788    4.6895 C   0  0  0  0  0  0  0  0  0  0  0  0
    1.9665   -7.9380    3.2926 C   0  0  0  0  0  0  0  0  0  0  0  0
    3.0838   -8.1932    4.0418 O   0  0  0  0  0  0  0  0  0  0  0  0
    2.0890   -7.0678    2.2450 N   0  0  0  0  0  0  0  0  0  0  0  0
    3.1908   -6.3952    1.8072 N   0  0  0  0  0  0  0  0  0  0  0  0
    3.0291   -4.3247   -0.8125 H   0  0  0  0  0  0  0  0  0  0  0  0
    4.4004   -5.3745   -0.4732 H   0  0  0  0  0  0  0  0  0  0  0  0
    4.0117   -4.0228    0.6164 H   0  0  0  0  0  0  0  0  0  0  0  0
   -1.8582   -9.3559    3.6705 H   0  0  0  0  0  0  0  0  0  0  0  0
   -2.0616   -9.1820    1.9363 H   0  0  0  0  0  0  0  0  0  0  0  0
   -2.4610   -7.8436    3.0164 H   0  0  0  0  0  0  0  0  0  0  0  0
    1.4039   -9.6792    5.2672 H   0  0  0  0  0  0  0  0  0  0  0  0
    0.1520  -10.4387    4.3079 H   0  0  0  0  0  0  0  0  0  0  0  0
   -0.2471   -9.0991    5.3850 H   0  0  0  0  0  0  0  0  0  0  0  0
  1  2  1  0
  1 14  1  0
  1 15  1  0
  1 16  1  0
  2 13  2  0
  2  3  1  0
  3  4  2  0
  4 12  1  0
  4  5  1  0
  5  6  2  0
  6  7  1  0
  6  8  1  0
  7 17  1  0
  7 18  1  0
  7 19  1  0
  8  9  1  0
  8 10  2  0
  9 20  1  0
  9 21  1  0
  9 22  1  0
 10 11  1  0
 10 12  1  0
 12 13  1  0
M  CHG  1  11  -1
M  END
>  <i_m_ct_stereo_status>  (42) 
1

>  <s_m_source_file>  (42) 
/var/tmp/pbs.5102264.sched01/tmpu94zaw8c/01d2njlry.sdf

>  <i_m_source_file_index>  (42) 
16

>  <i_lp_mmshare_version>  (42) 
48012

>  <i_f3d_flags>  (42) 
0

>  <s_epik_input>  (42) 
W0NIM11jKG4xKW5uKGMxMiljKD1PKWMoW0NIM10pYyhbbkhdMilbQ0gzXQ==

>  <s_epik_cmdline>  (42) 
J2VwaWtfcHl0aG9uJywgJy1waHQnLCAnMi4wJywgJy1waCcsICc3LjAnLCAnLXRuJywgJzgnLCAnLW1hJywgJzIwMCcsICctaW1hZScsICc8aW5maWxlLm1hZT4nLCAnLW9tYWUnLCAnPG91dGZpbGUubWFlPic=

>  <r_epik_Ionization_Penalty>  (42) 
0.168069

>  <r_epik_Ionization_Penalty_Charging>  (42) 
8.46985e-12

>  <r_epik_Ionization_Penalty_Neutral>  (42) 
0.168069

>  <r_epik_State_Penalty>  (42) 
0.547891

>  <r_epik_Charging_Adjusted_Penalty>  (42) 
0.547891

>  <i_epik_Tot_Q>  (42) 
-1

>  <i_epik_Tot_abs_Q>  (42) 
1

>  <s_lp_Force_Field>  (42) 
OPLS3e

>  <r_lp_Energy>  (42) 
1.39292

>  <b_lp_Chiralities_Consistent>  (42) 
1

>  <s_lp_Variant>  (42) 
11:0-2

>  <s_i_glide_gridfile>  (42) 
pfpi4k_grid

>  <i_i_glide_lignum>  (42) 
16

>  <i_i_glide_rotatable_bonds>  (42) 
0

>  <r_i_docking_score>  (42) 
-3.88828

>  <r_i_glide_ligand_efficiency>  (42) 
-0.299099

>  <r_i_glide_ligand_efficiency_sa>  (42) 
-0.703281

>  <r_i_glide_ligand_efficiency_ln>  (42) 
-1.0907

>  <r_i_glide_gscore>  (42) 
-3.88828

>  <r_i_glide_lipo>  (42) 
0

>  <r_i_glide_hbond>  (42) 
-0.158406

>  <r_i_glide_metal>  (42) 
-0

>  <r_i_glide_rewards>  (42) 
-2.20102

>  <r_i_glide_evdw>  (42) 
-15.9268

>  <r_i_glide_ecoul>  (42) 
-4.11311

>  <r_i_glide_erotb>  (42) 
0

>  <r_i_glide_esite>  (42) 
-0.115547

>  <r_i_glide_emodel>  (42) 
-27.3393

>  <r_i_glide_energy>  (42) 
-20.0399

>  <r_i_glide_einternal>  (42) 
0

>  <r_i_glide_intrahb_reward>  (42) 
-0

>  <i_i_glide_confnum>  (42) 
2

>  <i_i_glide_posenum>  (42) 
12

>  <r_i_glide_eff_state_penalty>  (42) 
0

>  <ligand_id>  (42) 
11

>  <original_smiles>  (42) 
Cc1nc2[nH]c(C)c(C)c(=O)n2n1

>  <smiles>  (42) 
[H]C([H])([H])c1nc2nc(C([H])([H])[H])c(C([H])([H])[H])c([O-])n2n1

$$$$
11:1:1
     RDKit          3D

 22 23  0  0  1  0  0  0  0  0999 V2000
    3.2974   -4.2633    0.3391 C   0  0  0  0  0  0  0  0  0  0  0  0
    2.4007   -5.2133    1.0575 C   0  0  0  0  0  0  0  0  0  0  0  0
    1.3780   -5.8700    0.4392 N   0  0  0  0  0  0  0  0  0  0  0  0
    0.8631   -6.6153    1.4151 C   0  0  0  0  0  0  0  0  0  0  0  0
   -0.1981   -7.4315    1.3933 N   0  0  0  0  0  0  0  0  0  0  0  0
   -0.5380   -8.0289    2.5308 C   0  0  0  0  0  0  0  0  0  0  0  0
   -1.7107   -8.9837    2.3898 C   0  0  0  0  0  0  0  0  0  0  0  0
    0.1148   -7.8013    3.7790 C   0  0  0  0  0  0  0  0  0  0  0  0
   -0.3364   -8.5197    5.0460 C   0  0  0  0  0  0  0  0  0  0  0  0
    1.1822   -6.9206    3.7853 C   0  0  0  0  0  0  0  0  0  0  0  0
    1.8899   -6.5813    4.9076 O   0  0  0  0  0  0  0  0  0  0  0  0
    1.5438   -6.3327    2.6036 N   0  0  0  0  0  0  0  0  0  0  0  0
    2.5334   -5.4276    2.3588 N   0  0  0  0  0  0  0  0  0  0  0  0
    3.0346   -4.2094   -0.7152 H   0  0  0  0  0  0  0  0  0  0  0  0
    4.3362   -4.5896    0.4057 H   0  0  0  0  0  0  0  0  0  0  0  0
    3.2061   -3.2594    0.7558 H   0  0  0  0  0  0  0  0  0  0  0  0
   -2.0000   -9.4547    3.3230 H   0  0  0  0  0  0  0  0  0  0  0  0
   -1.4642   -9.7786    1.6852 H   0  0  0  0  0  0  0  0  0  0  0  0
   -2.5854   -8.4533    2.0181 H   0  0  0  0  0  0  0  0  0  0  0  0
    0.2508   -8.2511    5.9235 H   0  0  0  0  0  0  0  0  0  0  0  0
   -0.2448   -9.5994    4.9221 H   0  0  0  0  0  0  0  0  0  0  0  0
   -1.3782   -8.2874    5.2631 H   0  0  0  0  0  0  0  0  0  0  0  0
  1  2  1  0
  1 14  1  0
  1 15  1  0
  1 16  1  0
  2 13  2  0
  2  3  1  0
  3  4  2  0
  4 12  1  0
  4  5  1  0
  5  6  2  0
  6  7  1  0
  6  8  1  0
  7 17  1  0
  7 18  1  0
  7 19  1  0
  8  9  1  0
  8 10  2  0
  9 20  1  0
  9 21  1  0
  9 22  1  0
 10 11  1  0
 10 12  1  0
 12 13  1  0
M  CHG  1  11  -1
M  END
>  <i_m_ct_stereo_status>  (43) 
1

>  <s_m_source_file>  (43) 
/var/tmp/pbs.5102264.sched01/tmpu94zaw8c/01d2njlry.sdf

>  <i_m_source_file_index>  (43) 
16

>  <i_lp_mmshare_version>  (43) 
48012

>  <i_f3d_flags>  (43) 
0

>  <s_epik_input>  (43) 
W0NIM11jKG4xKW5uKGMxMiljKD1PKWMoW0NIM10pYyhbbkhdMilbQ0gzXQ==

>  <s_epik_cmdline>  (43) 
J2VwaWtfcHl0aG9uJywgJy1waHQnLCAnMi4wJywgJy1waCcsICc3LjAnLCAnLXRuJywgJzgnLCAnLW1hJywgJzIwMCcsICctaW1hZScsICc8aW5maWxlLm1hZT4nLCAnLW9tYWUnLCAnPG91dGZpbGUubWFlPic=

>  <r_epik_Ionization_Penalty>  (43) 
0.168069

>  <r_epik_Ionization_Penalty_Charging>  (43) 
8.46985e-12

>  <r_epik_Ionization_Penalty_Neutral>  (43) 
0.168069

>  <r_epik_State_Penalty>  (43) 
0.547891

>  <r_epik_Charging_Adjusted_Penalty>  (43) 
0.547891

>  <i_epik_Tot_Q>  (43) 
-1

>  <i_epik_Tot_abs_Q>  (43) 
1

>  <s_lp_Force_Field>  (43) 
OPLS3e

>  <r_lp_Energy>  (43) 
1.39292

>  <b_lp_Chiralities_Consistent>  (43) 
1

>  <s_lp_Variant>  (43) 
11:0-2

>  <s_i_glide_gridfile>  (43) 
pfpi4k_grid

>  <i_i_glide_lignum>  (43) 
16

>  <i_i_glide_rotatable_bonds>  (43) 
0

>  <r_i_docking_score>  (43) 
-3.81581

>  <r_i_glide_ligand_efficiency>  (43) 
-0.293524

>  <r_i_glide_ligand_efficiency_sa>  (43) 
-0.690173

>  <r_i_glide_ligand_efficiency_ln>  (43) 
-1.07037

>  <r_i_glide_gscore>  (43) 
-3.81581

>  <r_i_glide_lipo>  (43) 
-0.272395

>  <r_i_glide_hbond>  (43) 
-0.1583

>  <r_i_glide_metal>  (43) 
-0

>  <r_i_glide_rewards>  (43) 
-2.20102

>  <r_i_glide_evdw>  (43) 
-15.3265

>  <r_i_glide_ecoul>  (43) 
-1.75483

>  <r_i_glide_erotb>  (43) 
0

>  <r_i_glide_esite>  (43) 
-0.15454

>  <r_i_glide_emodel>  (43) 
-24.2418

>  <r_i_glide_energy>  (43) 
-17.0814

>  <r_i_glide_einternal>  (43) 
0

>  <r_i_glide_intrahb_reward>  (43) 
-0

>  <i_i_glide_confnum>  (43) 
2

>  <i_i_glide_posenum>  (43) 
19

>  <r_i_glide_eff_state_penalty>  (43) 
0

>  <ligand_id>  (43) 
11

>  <original_smiles>  (43) 
Cc1nc2[nH]c(C)c(C)c(=O)n2n1

>  <smiles>  (43) 
[H]C([H])([H])c1nc2nc(C([H])([H])[H])c(C([H])([H])[H])c([O-])n2n1

$$$$
11:1:2
     RDKit          3D

 22 23  0  0  1  0  0  0  0  0999 V2000
    3.6938   -4.2191   -0.1988 C   0  0  0  0  0  0  0  0  0  0  0  0
    3.1186   -5.4124    0.4930 C   0  0  0  0  0  0  0  0  0  0  0  0
    3.8802   -6.4617    0.9254 N   0  0  0  0  0  0  0  0  0  0  0  0
    2.9849   -7.2780    1.4856 C   0  0  0  0  0  0  0  0  0  0  0  0
    3.1423   -8.4772    2.0672 N   0  0  0  0  0  0  0  0  0  0  0  0
    2.0443   -9.0739    2.5411 C   0  0  0  0  0  0  0  0  0  0  0  0
    2.3129  -10.4241    3.1788 C   0  0  0  0  0  0  0  0  0  0  0  0
    0.7311   -8.5256    2.4794 C   0  0  0  0  0  0  0  0  0  0  0  0
   -0.4864   -9.2635    3.0470 C   0  0  0  0  0  0  0  0  0  0  0  0
    0.6059   -7.2981    1.8590 C   0  0  0  0  0  0  0  0  0  0  0  0
   -0.5795   -6.6561    1.6904 O   0  0  0  0  0  0  0  0  0  0  0  0
    1.7220   -6.6865    1.3707 N   0  0  0  0  0  0  0  0  0  0  0  0
    1.8166   -5.4900    0.7257 N   0  0  0  0  0  0  0  0  0  0  0  0
    4.7677   -4.3477   -0.3089 H   0  0  0  0  0  0  0  0  0  0  0  0
    3.5255   -3.3105    0.3842 H   0  0  0  0  0  0  0  0  0  0  0  0
    3.2693   -4.1126   -1.1985 H   0  0  0  0  0  0  0  0  0  0  0  0
    1.4128  -10.9055    3.5685 H   0  0  0  0  0  0  0  0  0  0  0  0
    3.0100  -10.2942    4.0072 H   0  0  0  0  0  0  0  0  0  0  0  0
    2.7622  -11.0919    2.4422 H   0  0  0  0  0  0  0  0  0  0  0  0
   -1.4260   -8.7274    2.9243 H   0  0  0  0  0  0  0  0  0  0  0  0
   -0.3675   -9.4399    4.1152 H   0  0  0  0  0  0  0  0  0  0  0  0
   -0.6105  -10.2249    2.5513 H   0  0  0  0  0  0  0  0  0  0  0  0
  1  2  1  0
  1 14  1  0
  1 15  1  0
  1 16  1  0
  2 13  2  0
  2  3  1  0
  3  4  2  0
  4 12  1  0
  4  5  1  0
  5  6  2  0
  6  7  1  0
  6  8  1  0
  7 17  1  0
  7 18  1  0
  7 19  1  0
  8  9  1  0
  8 10  2  0
  9 20  1  0
  9 21  1  0
  9 22  1  0
 10 11  1  0
 10 12  1  0
 12 13  1  0
M  CHG  1  11  -1
M  END
>  <i_m_ct_stereo_status>  (44) 
1

>  <s_m_source_file>  (44) 
/var/tmp/pbs.5102264.sched01/tmpu94zaw8c/01d2njlry.sdf

>  <i_m_source_file_index>  (44) 
16

>  <i_lp_mmshare_version>  (44) 
48012

>  <i_f3d_flags>  (44) 
0

>  <s_epik_input>  (44) 
W0NIM11jKG4xKW5uKGMxMiljKD1PKWMoW0NIM10pYyhbbkhdMilbQ0gzXQ==

>  <s_epik_cmdline>  (44) 
J2VwaWtfcHl0aG9uJywgJy1waHQnLCAnMi4wJywgJy1waCcsICc3LjAnLCAnLXRuJywgJzgnLCAnLW1hJywgJzIwMCcsICctaW1hZScsICc8aW5maWxlLm1hZT4nLCAnLW9tYWUnLCAnPG91dGZpbGUubWFlPic=

>  <r_epik_Ionization_Penalty>  (44) 
0.168069

>  <r_epik_Ionization_Penalty_Charging>  (44) 
8.46985e-12

>  <r_epik_Ionization_Penalty_Neutral>  (44) 
0.168069

>  <r_epik_State_Penalty>  (44) 
0.547891

>  <r_epik_Charging_Adjusted_Penalty>  (44) 
0.547891

>  <i_epik_Tot_Q>  (44) 
-1

>  <i_epik_Tot_abs_Q>  (44) 
1

>  <s_lp_Force_Field>  (44) 
OPLS3e

>  <r_lp_Energy>  (44) 
1.39292

>  <b_lp_Chiralities_Consistent>  (44) 
1

>  <s_lp_Variant>  (44) 
11:0-2

>  <s_i_glide_gridfile>  (44) 
pfpi4k_grid

>  <i_i_glide_lignum>  (44) 
16

>  <i_i_glide_rotatable_bonds>  (44) 
0

>  <r_i_docking_score>  (44) 
-3.58881

>  <r_i_glide_ligand_efficiency>  (44) 
-0.276062

>  <r_i_glide_ligand_efficiency_sa>  (44) 
-0.649115

>  <r_i_glide_ligand_efficiency_ln>  (44) 
-1.00669

>  <r_i_glide_gscore>  (44) 
-3.58881

>  <r_i_glide_lipo>  (44) 
-0.0520026

>  <r_i_glide_hbond>  (44) 
-0.368766

>  <r_i_glide_metal>  (44) 
-0

>  <r_i_glide_rewards>  (44) 
-2.26661

>  <r_i_glide_evdw>  (44) 
-15.0618

>  <r_i_glide_ecoul>  (44) 
-0.54995

>  <r_i_glide_erotb>  (44) 
0

>  <r_i_glide_esite>  (44) 
-0.0658519

>  <r_i_glide_emodel>  (44) 
-22.336

>  <r_i_glide_energy>  (44) 
-15.6117

>  <r_i_glide_einternal>  (44) 
0

>  <r_i_glide_intrahb_reward>  (44) 
-0

>  <i_i_glide_confnum>  (44) 
1

>  <i_i_glide_posenum>  (44) 
3

>  <r_i_glide_eff_state_penalty>  (44) 
0

>  <ligand_id>  (44) 
11

>  <original_smiles>  (44) 
Cc1nc2[nH]c(C)c(C)c(=O)n2n1

>  <smiles>  (44) 
[H]C([H])([H])c1nc2nc(C([H])([H])[H])c(C([H])([H])[H])c([O-])n2n1

$$$$
12:0:0
     RDKit          3D

 23 24  0  0  1  0  0  0  0  0999 V2000
    2.2929   -8.5496    2.7173 C   0  0  0  0  0  0  0  0  0  0  0  0
    2.0943   -7.3920    1.7783 C   0  0  0  0  0  0  0  0  0  0  0  0
    3.0018   -6.6137    1.3049 N   0  0  0  0  0  0  0  0  0  0  0  0
    2.3768   -5.6918    0.5237 N   0  0  0  0  0  0  0  0  0  0  0  0
    3.0055   -4.3593    0.5367 C   0  0  0  0  0  0  0  0  0  0  0  0
    3.4529   -3.8317   -0.8183 C   0  0  0  0  0  0  0  0  0  0  0  0
    2.5262   -3.2750   -1.7256 C   0  0  0  0  0  0  0  0  0  0  0  0
    2.9883   -2.7823   -2.9605 C   0  0  0  0  0  0  0  0  0  0  0  0
    4.2860   -2.8154   -3.3324 N   0  0  0  0  0  0  0  0  0  0  0  0
    5.1666   -3.3568   -2.4635 C   0  0  0  0  0  0  0  0  0  0  0  0
    4.8084   -3.8681   -1.2005 C   0  0  0  0  0  0  0  0  0  0  0  0
    1.0102   -5.9000    0.4728 N   0  0  0  0  0  0  0  0  0  0  0  0
    0.8096   -6.9379    1.3003 C   0  0  0  0  0  0  0  0  0  0  0  0
   -0.2555   -7.4223    1.6891 O   0  0  0  0  0  0  0  0  0  0  0  0
    1.8253   -9.4420    2.3004 H   0  0  0  0  0  0  0  0  0  0  0  0
    1.8084   -8.3502    3.6758 H   0  0  0  0  0  0  0  0  0  0  0  0
    3.3450   -8.7712    2.9066 H   0  0  0  0  0  0  0  0  0  0  0  0
    3.8572   -4.3447    1.2282 H   0  0  0  0  0  0  0  0  0  0  0  0
    2.2718   -3.6554    0.9311 H   0  0  0  0  0  0  0  0  0  0  0  0
    1.4742   -3.2253   -1.4897 H   0  0  0  0  0  0  0  0  0  0  0  0
    2.2990   -2.3433   -3.6668 H   0  0  0  0  0  0  0  0  0  0  0  0
    6.1973   -3.3749   -2.7815 H   0  0  0  0  0  0  0  0  0  0  0  0
    5.5489   -4.3010   -0.5459 H   0  0  0  0  0  0  0  0  0  0  0  0
  1 15  1  0
  1 16  1  0
  1 17  1  0
  1  2  1  0
  2 13  1  0
  2  3  2  0
  3  4  1  0
  4 12  1  0
  4  5  1  0
  5  6  1  0
  5 18  1  0
  5 19  1  0
  6 11  1  0
  6  7  2  0
  7  8  1  0
  7 20  1  0
  8  9  2  0
  8 21  1  0
  9 10  1  0
 10 11  2  0
 10 22  1  0
 11 23  1  0
 12 13  1  0
 13 14  2  0
M  CHG  1  12  -1
M  END
>  <i_m_ct_stereo_status>  (45) 
1

>  <s_m_source_file>  (45) 
/var/tmp/pbs.5102264.sched01/tmpu94zaw8c/01d2njlry.sdf

>  <i_m_source_file_index>  (45) 
17

>  <i_lp_mmshare_version>  (45) 
48012

>  <i_f3d_flags>  (45) 
0

>  <s_epik_input>  (45) 
W0NIM11jMW5uKFtuSF1jMT1PKVtDSDJdYzJbY0hdW2NIXW5bY0hdW2NIXTI=

>  <s_epik_cmdline>  (45) 
J2VwaWtfcHl0aG9uJywgJy1waHQnLCAnMi4wJywgJy1waCcsICc3LjAnLCAnLXRuJywgJzgnLCAnLW1hJywgJzIwMCcsICctaW1hZScsICc8aW5maWxlLm1hZT4nLCAnLW9tYWUnLCAnPG91dGZpbGUubWFlPic=

>  <r_lp_tautomer_probability>  (45) 
1

>  <r_epik_Ionization_Penalty>  (45) 
0.0362387

>  <r_epik_Ionization_Penalty_Charging>  (45) 
9.79207e-07

>  <r_epik_Ionization_Penalty_Neutral>  (45) 
0.0362378

>  <r_epik_State_Penalty>  (45) 
0.0279871

>  <r_epik_Charging_Adjusted_Penalty>  (45) 
0.0279881

>  <i_epik_Tot_Q>  (45) 
-1

>  <i_epik_Tot_abs_Q>  (45) 
1

>  <s_lp_Force_Field>  (45) 
OPLS3e

>  <r_lp_Energy>  (45) 
18.8176

>  <b_lp_Chiralities_Consistent>  (45) 
1

>  <s_lp_Variant>  (45) 
12:0-1

>  <s_i_glide_gridfile>  (45) 
pfpi4k_grid

>  <i_i_glide_lignum>  (45) 
17

>  <i_i_glide_rotatable_bonds>  (45) 
2

>  <r_i_docking_score>  (45) 
-3.51519

>  <r_i_glide_ligand_efficiency>  (45) 
-0.251085

>  <r_i_glide_ligand_efficiency_sa>  (45) 
-0.605151

>  <r_i_glide_ligand_efficiency_ln>  (45) 
-0.965962

>  <r_i_glide_gscore>  (45) 
-3.51519

>  <r_i_glide_lipo>  (45) 
-0.321964

>  <r_i_glide_hbond>  (45) 
-0.2

>  <r_i_glide_metal>  (45) 
-0

>  <r_i_glide_rewards>  (45) 
-2.11913

>  <r_i_glide_evdw>  (45) 
-19.1182

>  <r_i_glide_ecoul>  (45) 
-5.13096

>  <r_i_glide_erotb>  (45) 
0.89557

>  <r_i_glide_esite>  (45) 
-0.0441124

>  <r_i_glide_emodel>  (45) 
-32.1515

>  <r_i_glide_energy>  (45) 
-24.2492

>  <r_i_glide_einternal>  (45) 
0.0654862

>  <r_i_glide_intrahb_reward>  (45) 
-0

>  <i_i_glide_confnum>  (45) 
1

>  <i_i_glide_posenum>  (45) 
36

>  <r_i_glide_eff_state_penalty>  (45) 
0

>  <ligand_id>  (45) 
12

>  <original_smiles>  (45) 
Cc1nn(Cc2ccncc2)[nH]c1=O

>  <smiles>  (45) 
[H]c1nc([H])c([H])c(C([H])([H])n2nc(C([H])([H])[H])c(=O)[n-]2)c1[H]

$$$$
12:0:1
     RDKit          3D

 23 24  0  0  1  0  0  0  0  0999 V2000
    0.3385   -9.7906    2.9229 C   0  0  0  0  0  0  0  0  0  0  0  0
    0.4850   -8.3629    2.4780 C   0  0  0  0  0  0  0  0  0  0  0  0
    1.5758   -7.7277    2.2385 N   0  0  0  0  0  0  0  0  0  0  0  0
    1.2334   -6.4626    1.8578 N   0  0  0  0  0  0  0  0  0  0  0  0
    2.1716   -5.4237    2.3061 C   0  0  0  0  0  0  0  0  0  0  0  0
    3.0176   -4.8093    1.2056 C   0  0  0  0  0  0  0  0  0  0  0  0
    2.7421   -3.5140    0.7196 C   0  0  0  0  0  0  0  0  0  0  0  0
    3.5770   -2.9675   -0.2746 C   0  0  0  0  0  0  0  0  0  0  0  0
    4.6499   -3.6162   -0.7758 N   0  0  0  0  0  0  0  0  0  0  0  0
    4.9011   -4.8598   -0.3118 C   0  0  0  0  0  0  0  0  0  0  0  0
    4.1211   -5.4964    0.6718 C   0  0  0  0  0  0  0  0  0  0  0  0
   -0.1461   -6.2861    1.8211 N   0  0  0  0  0  0  0  0  0  0  0  0
   -0.6283   -7.4599    2.2603 C   0  0  0  0  0  0  0  0  0  0  0  0
   -1.7920   -7.7765    2.5030 O   0  0  0  0  0  0  0  0  0  0  0  0
   -0.3304  -10.3257    2.2503 H   0  0  0  0  0  0  0  0  0  0  0  0
   -0.0990   -9.8378    3.9201 H   0  0  0  0  0  0  0  0  0  0  0  0
    1.2910  -10.3203    2.9435 H   0  0  0  0  0  0  0  0  0  0  0  0
    2.8291   -5.8147    3.0841 H   0  0  0  0  0  0  0  0  0  0  0  0
    1.5984   -4.6223    2.7719 H   0  0  0  0  0  0  0  0  0  0  0  0
    1.9120   -2.9359    1.0985 H   0  0  0  0  0  0  0  0  0  0  0  0
    3.3920   -1.9742   -0.6616 H   0  0  0  0  0  0  0  0  0  0  0  0
    5.7675   -5.3560   -0.7200 H   0  0  0  0  0  0  0  0  0  0  0  0
    4.3743   -6.4904    1.0152 H   0  0  0  0  0  0  0  0  0  0  0  0
  1 15  1  0
  1 16  1  0
  1 17  1  0
  1  2  1  0
  2 13  1  0
  2  3  2  0
  3  4  1  0
  4 12  1  0
  4  5  1  0
  5  6  1  0
  5 18  1  0
  5 19  1  0
  6 11  1  0
  6  7  2  0
  7  8  1  0
  7 20  1  0
  8  9  2  0
  8 21  1  0
  9 10  1  0
 10 11  2  0
 10 22  1  0
 11 23  1  0
 12 13  1  0
 13 14  2  0
M  CHG  1  12  -1
M  END
>  <i_m_ct_stereo_status>  (46) 
1

>  <s_m_source_file>  (46) 
/var/tmp/pbs.5102264.sched01/tmpu94zaw8c/01d2njlry.sdf

>  <i_m_source_file_index>  (46) 
17

>  <i_lp_mmshare_version>  (46) 
48012

>  <i_f3d_flags>  (46) 
0

>  <s_epik_input>  (46) 
W0NIM11jMW5uKFtuSF1jMT1PKVtDSDJdYzJbY0hdW2NIXW5bY0hdW2NIXTI=

>  <s_epik_cmdline>  (46) 
J2VwaWtfcHl0aG9uJywgJy1waHQnLCAnMi4wJywgJy1waCcsICc3LjAnLCAnLXRuJywgJzgnLCAnLW1hJywgJzIwMCcsICctaW1hZScsICc8aW5maWxlLm1hZT4nLCAnLW9tYWUnLCAnPG91dGZpbGUubWFlPic=

>  <r_lp_tautomer_probability>  (46) 
1

>  <r_epik_Ionization_Penalty>  (46) 
0.0362387

>  <r_epik_Ionization_Penalty_Charging>  (46) 
9.79207e-07

>  <r_epik_Ionization_Penalty_Neutral>  (46) 
0.0362378

>  <r_epik_State_Penalty>  (46) 
0.0279871

>  <r_epik_Charging_Adjusted_Penalty>  (46) 
0.0279881

>  <i_epik_Tot_Q>  (46) 
-1

>  <i_epik_Tot_abs_Q>  (46) 
1

>  <s_lp_Force_Field>  (46) 
OPLS3e

>  <r_lp_Energy>  (46) 
18.8176

>  <b_lp_Chiralities_Consistent>  (46) 
1

>  <s_lp_Variant>  (46) 
12:0-1

>  <s_i_glide_gridfile>  (46) 
pfpi4k_grid

>  <i_i_glide_lignum>  (46) 
17

>  <i_i_glide_rotatable_bonds>  (46) 
2

>  <r_i_docking_score>  (46) 
-3.43001

>  <r_i_glide_ligand_efficiency>  (46) 
-0.245

>  <r_i_glide_ligand_efficiency_sa>  (46) 
-0.590486

>  <r_i_glide_ligand_efficiency_ln>  (46) 
-0.942554

>  <r_i_glide_gscore>  (46) 
-3.43001

>  <r_i_glide_lipo>  (46) 
-0.0517245

>  <r_i_glide_hbond>  (46) 
-0.35838

>  <r_i_glide_metal>  (46) 
-0

>  <r_i_glide_rewards>  (46) 
-2.11913

>  <r_i_glide_evdw>  (46) 
-16.5493

>  <r_i_glide_ecoul>  (46) 
-6.07704

>  <r_i_glide_erotb>  (46) 
0.89557

>  <r_i_glide_esite>  (46) 
-0.0573203

>  <r_i_glide_emodel>  (46) 
-30.2984

>  <r_i_glide_energy>  (46) 
-22.6263

>  <r_i_glide_einternal>  (46) 
0.135289

>  <r_i_glide_intrahb_reward>  (46) 
-0

>  <i_i_glide_confnum>  (46) 
1

>  <i_i_glide_posenum>  (46) 
35

>  <r_i_glide_eff_state_penalty>  (46) 
0

>  <ligand_id>  (46) 
12

>  <original_smiles>  (46) 
Cc1nn(Cc2ccncc2)[nH]c1=O

>  <smiles>  (46) 
[H]c1nc([H])c([H])c(C([H])([H])n2nc(C([H])([H])[H])c(=O)[n-]2)c1[H]

$$$$
12:0:2
     RDKit          3D

 23 24  0  0  1  0  0  0  0  0999 V2000
    1.1911   -9.5581    2.6803 C   0  0  0  0  0  0  0  0  0  0  0  0
    1.1282   -8.1781    2.0876 C   0  0  0  0  0  0  0  0  0  0  0  0
    2.1114   -7.4217    1.7660 N   0  0  0  0  0  0  0  0  0  0  0  0
    1.5922   -6.2606    1.2700 N   0  0  0  0  0  0  0  0  0  0  0  0
    2.3838   -5.0652    1.5913 C   0  0  0  0  0  0  0  0  0  0  0  0
    3.2132   -4.5107    0.4448 C   0  0  0  0  0  0  0  0  0  0  0  0
    2.6310   -3.7379   -0.5806 C   0  0  0  0  0  0  0  0  0  0  0  0
    3.4604   -3.2043   -1.5878 C   0  0  0  0  0  0  0  0  0  0  0  0
    4.7963   -3.3955   -1.6219 N   0  0  0  0  0  0  0  0  0  0  0  0
    5.3449   -4.1445   -0.6438 C   0  0  0  0  0  0  0  0  0  0  0  0
    4.6046   -4.7194    0.4097 C   0  0  0  0  0  0  0  0  0  0  0  0
    0.2047   -6.2802    1.2617 N   0  0  0  0  0  0  0  0  0  0  0  0
   -0.1069   -7.4606    1.8154 C   0  0  0  0  0  0  0  0  0  0  0  0
   -1.2116   -7.9151    2.1229 O   0  0  0  0  0  0  0  0  0  0  0  0
    0.5939  -10.2454    2.0831 H   0  0  0  0  0  0  0  0  0  0  0  0
    0.7759   -9.5578    3.6879 H   0  0  0  0  0  0  0  0  0  0  0  0
    2.2072   -9.9433    2.7272 H   0  0  0  0  0  0  0  0  0  0  0  0
    3.0270   -5.2573    2.4512 H   0  0  0  0  0  0  0  0  0  0  0  0
    1.7032   -4.2749    1.9067 H   0  0  0  0  0  0  0  0  0  0  0  0
    1.5735   -3.5413   -0.6191 H   0  0  0  0  0  0  0  0  0  0  0  0
    3.0402   -2.6110   -2.3858 H   0  0  0  0  0  0  0  0  0  0  0  0
    6.4145   -4.2777   -0.6923 H   0  0  0  0  0  0  0  0  0  0  0  0
    5.0955   -5.2978    1.1762 H   0  0  0  0  0  0  0  0  0  0  0  0
  1 15  1  0
  1 16  1  0
  1 17  1  0
  1  2  1  0
  2 13  1  0
  2  3  2  0
  3  4  1  0
  4 12  1  0
  4  5  1  0
  5  6  1  0
  5 18  1  0
  5 19  1  0
  6 11  1  0
  6  7  2  0
  7  8  1  0
  7 20  1  0
  8  9  2  0
  8 21  1  0
  9 10  1  0
 10 11  2  0
 10 22  1  0
 11 23  1  0
 12 13  1  0
 13 14  2  0
M  CHG  1  12  -1
M  END
>  <i_m_ct_stereo_status>  (47) 
1

>  <s_m_source_file>  (47) 
/var/tmp/pbs.5102264.sched01/tmpu94zaw8c/01d2njlry.sdf

>  <i_m_source_file_index>  (47) 
17

>  <i_lp_mmshare_version>  (47) 
48012

>  <i_f3d_flags>  (47) 
0

>  <s_epik_input>  (47) 
W0NIM11jMW5uKFtuSF1jMT1PKVtDSDJdYzJbY0hdW2NIXW5bY0hdW2NIXTI=

>  <s_epik_cmdline>  (47) 
J2VwaWtfcHl0aG9uJywgJy1waHQnLCAnMi4wJywgJy1waCcsICc3LjAnLCAnLXRuJywgJzgnLCAnLW1hJywgJzIwMCcsICctaW1hZScsICc8aW5maWxlLm1hZT4nLCAnLW9tYWUnLCAnPG91dGZpbGUubWFlPic=

>  <r_lp_tautomer_probability>  (47) 
1

>  <r_epik_Ionization_Penalty>  (47) 
0.0362387

>  <r_epik_Ionization_Penalty_Charging>  (47) 
9.79207e-07

>  <r_epik_Ionization_Penalty_Neutral>  (47) 
0.0362378

>  <r_epik_State_Penalty>  (47) 
0.0279871

>  <r_epik_Charging_Adjusted_Penalty>  (47) 
0.0279881

>  <i_epik_Tot_Q>  (47) 
-1

>  <i_epik_Tot_abs_Q>  (47) 
1

>  <s_lp_Force_Field>  (47) 
OPLS3e

>  <r_lp_Energy>  (47) 
18.8176

>  <b_lp_Chiralities_Consistent>  (47) 
1

>  <s_lp_Variant>  (47) 
12:0-1

>  <s_i_glide_gridfile>  (47) 
pfpi4k_grid

>  <i_i_glide_lignum>  (47) 
17

>  <i_i_glide_rotatable_bonds>  (47) 
2

>  <r_i_docking_score>  (47) 
-3.38221

>  <r_i_glide_ligand_efficiency>  (47) 
-0.241586

>  <r_i_glide_ligand_efficiency_sa>  (47) 
-0.582257

>  <r_i_glide_ligand_efficiency_ln>  (47) 
-0.929418

>  <r_i_glide_gscore>  (47) 
-3.38221

>  <r_i_glide_lipo>  (47) 
-0.207564

>  <r_i_glide_hbond>  (47) 
-0.258906

>  <r_i_glide_metal>  (47) 
-0

>  <r_i_glide_rewards>  (47) 
-2.11913

>  <r_i_glide_evdw>  (47) 
-17.3495

>  <r_i_glide_ecoul>  (47) 
-5.10204

>  <r_i_glide_erotb>  (47) 
0.89557

>  <r_i_glide_esite>  (47) 
-0.0593936

>  <r_i_glide_emodel>  (47) 
-30.0261

>  <r_i_glide_energy>  (47) 
-22.4515

>  <r_i_glide_einternal>  (47) 
0.0758322

>  <r_i_glide_intrahb_reward>  (47) 
-0

>  <i_i_glide_confnum>  (47) 
1

>  <i_i_glide_posenum>  (47) 
1

>  <r_i_glide_eff_state_penalty>  (47) 
0

>  <ligand_id>  (47) 
12

>  <original_smiles>  (47) 
Cc1nn(Cc2ccncc2)[nH]c1=O

>  <smiles>  (47) 
[H]c1nc([H])c([H])c(C([H])([H])n2nc(C([H])([H])[H])c(=O)[n-]2)c1[H]

$$$$
12:1:0
     RDKit          3D

 24 25  0  0  1  0  0  0  0  0999 V2000
   -3.8916  -10.5819   -5.4455 C   0  0  0  0  0  0  0  0  0  0  0  0
   -4.9312  -10.0905   -6.3959 C   0  0  0  0  0  0  0  0  0  0  0  0
   -5.5465   -8.9688   -6.3291 N   0  0  0  0  0  0  0  0  0  0  0  0
   -6.3892   -8.8972   -7.3909 N   0  0  0  0  0  0  0  0  0  0  0  0
   -7.6698   -8.2252   -7.1086 C   0  0  0  0  0  0  0  0  0  0  0  0
   -7.6062   -6.8222   -6.5111 C   0  0  0  0  0  0  0  0  0  0  0  0
   -8.2319   -5.7323   -7.1580 C   0  0  0  0  0  0  0  0  0  0  0  0
   -8.2025   -4.4549   -6.5553 C   0  0  0  0  0  0  0  0  0  0  0  0
   -7.5779   -4.2813   -5.3684 N   0  0  0  0  0  0  0  0  0  0  0  0
   -6.9724   -5.2931   -4.7123 C   0  0  0  0  0  0  0  0  0  0  0  0
   -6.9902   -6.5843   -5.2612 C   0  0  0  0  0  0  0  0  0  0  0  0
   -6.2975  -10.0387   -8.1834 N   0  0  0  0  0  0  0  0  0  0  0  0
   -5.3918  -10.8080   -7.5614 C   0  0  0  0  0  0  0  0  0  0  0  0
   -4.9733  -11.9268   -7.8664 O   0  0  0  0  0  0  0  0  0  0  0  0
   -2.9816  -10.8357   -5.9801 H   0  0  0  0  0  0  0  0  0  0  0  0
   -4.2324  -11.4766   -4.9267 H   0  0  0  0  0  0  0  0  0  0  0  0
   -3.6385   -9.8230   -4.7094 H   0  0  0  0  0  0  0  0  0  0  0  0
   -8.2670   -8.8617   -6.4545 H   0  0  0  0  0  0  0  0  0  0  0  0
   -8.2161   -8.1684   -8.0478 H   0  0  0  0  0  0  0  0  0  0  0  0
   -8.7414   -5.8791   -8.1003 H   0  0  0  0  0  0  0  0  0  0  0  0
   -8.6613   -3.5716   -6.9817 H   0  0  0  0  0  0  0  0  0  0  0  0
   -6.5172   -5.0540   -3.7606 H   0  0  0  0  0  0  0  0  0  0  0  0
   -6.5480   -7.3946   -4.7082 H   0  0  0  0  0  0  0  0  0  0  0  0
   -7.5625   -3.3562   -4.9402 H   0  0  0  0  0  0  0  0  0  0  0  0
  1 15  1  0
  1 16  1  0
  1 17  1  0
  1  2  1  0
  2 13  1  0
  2  3  2  0
  3  4  1  0
  4 12  1  0
  4  5  1  0
  5  6  1  0
  5 18  1  0
  5 19  1  0
  6 11  1  0
  6  7  2  0
  7  8  1  0
  7 20  1  0
  8  9  2  0
  8 21  1  0
  9 10  1  0
  9 24  1  0
 10 11  2  0
 10 22  1  0
 11 23  1  0
 12 13  1  0
 13 14  2  0
M  CHG  2   9   1  12  -1
M  END
>  <i_m_ct_stereo_status>  (48) 
1

>  <s_m_source_file>  (48) 
/var/tmp/pbs.5102264.sched01/tmpu94zaw8c/01d2njlry.sdf

>  <i_m_source_file_index>  (48) 
18

>  <i_lp_mmshare_version>  (48) 
48012

>  <i_f3d_flags>  (48) 
0

>  <s_epik_input>  (48) 
W0NIM11jMW5uKFtuSF1jMT1PKVtDSDJdYzJbY0hdW2NIXW5bY0hdW2NIXTI=

>  <s_epik_cmdline>  (48) 
J2VwaWtfcHl0aG9uJywgJy1waHQnLCAnMi4wJywgJy1waCcsICc3LjAnLCAnLXRuJywgJzgnLCAnLW1hJywgJzIwMCcsICctaW1hZScsICc8aW5maWxlLm1hZT4nLCAnLW9tYWUnLCAnPG91dGZpbGUubWFlPic=

>  <r_lp_tautomer_probability>  (48) 
1

>  <r_epik_Ionization_Penalty>  (48) 
1.71564

>  <r_epik_Ionization_Penalty_Charging>  (48) 
1.71544

>  <r_epik_Ionization_Penalty_Neutral>  (48) 
0.000191064

>  <r_epik_State_Penalty>  (48) 
1.82255

>  <r_epik_Charging_Adjusted_Penalty>  (48) 
3.53799

>  <i_epik_Tot_Q>  (48) 
0

>  <i_epik_Tot_abs_Q>  (48) 
2

>  <s_lp_Force_Field>  (48) 
OPLS3e

>  <r_lp_Energy>  (48) 
16.4387

>  <b_lp_Chiralities_Consistent>  (48) 
1

>  <s_lp_Variant>  (48) 
12:0-2

>  <s_i_glide_gridfile>  (48) 
pfpi4k_grid

>  <i_i_glide_lignum>  (48) 
18

>  <i_i_glide_rotatable_bonds>  (48) 
2

>  <r_i_docking_score>  (48) 
-4.91755

>  <r_i_glide_ligand_efficiency>  (48) 
-0.351254

>  <r_i_glide_ligand_efficiency_sa>  (48) 
-0.846571

>  <r_i_glide_ligand_efficiency_ln>  (48) 
-1.35133

>  <r_i_glide_gscore>  (48) 
-4.91755

>  <r_i_glide_lipo>  (48) 
-1.76842

>  <r_i_glide_hbond>  (48) 
0

>  <r_i_glide_metal>  (48) 
-0

>  <r_i_glide_rewards>  (48) 
-2.67935

>  <r_i_glide_evdw>  (48) 
-21.539

>  <r_i_glide_ecoul>  (48) 
-1.87044

>  <r_i_glide_erotb>  (48) 
0.88773

>  <r_i_glide_esite>  (48) 
0

>  <r_i_glide_emodel>  (48) 
-34.9158

>  <r_i_glide_energy>  (48) 
-23.4094

>  <r_i_glide_einternal>  (48) 
2.20575

>  <r_i_glide_intrahb_reward>  (48) 
-0

>  <i_i_glide_confnum>  (48) 
3

>  <i_i_glide_posenum>  (48) 
10

>  <r_i_glide_eff_state_penalty>  (48) 
0

>  <ligand_id>  (48) 
12

>  <original_smiles>  (48) 
Cc1nn(Cc2ccncc2)[nH]c1=O

>  <smiles>  (48) 
[H]c1c(C([H])([H])n2nc(C([H])([H])[H])c(=O)[n-]2)c([H])c([H])[n+]([H])c1[H]

$$$$
12:1:1
     RDKit          3D

 24 25  0  0  1  0  0  0  0  0999 V2000
   -4.8887  -12.6848   -7.7259 C   0  0  0  0  0  0  0  0  0  0  0  0
   -5.5618  -11.4550   -7.2096 C   0  0  0  0  0  0  0  0  0  0  0  0
   -5.0304  -10.2884   -7.0698 N   0  0  0  0  0  0  0  0  0  0  0  0
   -5.9845   -9.4796   -6.5619 N   0  0  0  0  0  0  0  0  0  0  0  0
   -5.4948   -8.3875   -5.7183 C   0  0  0  0  0  0  0  0  0  0  0  0
   -6.3515   -7.1249   -5.7198 C   0  0  0  0  0  0  0  0  0  0  0  0
   -7.3782   -6.9035   -6.6723 C   0  0  0  0  0  0  0  0  0  0  0  0
   -8.1607   -5.7361   -6.6089 C   0  0  0  0  0  0  0  0  0  0  0  0
   -7.9210   -4.8156   -5.6450 N   0  0  0  0  0  0  0  0  0  0  0  0
   -6.9499   -4.9774   -4.7178 C   0  0  0  0  0  0  0  0  0  0  0  0
   -6.1471   -6.1400   -4.7278 C   0  0  0  0  0  0  0  0  0  0  0  0
   -7.1914  -10.1337   -6.3959 N   0  0  0  0  0  0  0  0  0  0  0  0
   -6.9329  -11.4012   -6.7594 C   0  0  0  0  0  0  0  0  0  0  0  0
   -7.6482  -12.4091   -6.7001 O   0  0  0  0  0  0  0  0  0  0  0  0
   -5.4818  -13.1155   -8.5311 H   0  0  0  0  0  0  0  0  0  0  0  0
   -4.8240  -13.4195   -6.9261 H   0  0  0  0  0  0  0  0  0  0  0  0
   -3.8860  -12.4775   -8.0941 H   0  0  0  0  0  0  0  0  0  0  0  0
   -4.4684   -8.1339   -5.9815 H   0  0  0  0  0  0  0  0  0  0  0  0
   -5.4438   -8.7720   -4.7080 H   0  0  0  0  0  0  0  0  0  0  0  0
   -7.6030   -7.6446   -7.4262 H   0  0  0  0  0  0  0  0  0  0  0  0
   -8.9763   -5.5259   -7.2877 H   0  0  0  0  0  0  0  0  0  0  0  0
   -6.8505   -4.1857   -3.9839 H   0  0  0  0  0  0  0  0  0  0  0  0
   -5.3952   -6.2831   -3.9647 H   0  0  0  0  0  0  0  0  0  0  0  0
   -8.5040   -3.9765   -5.6080 H   0  0  0  0  0  0  0  0  0  0  0  0
  1 15  1  0
  1 16  1  0
  1 17  1  0
  1  2  1  0
  2 13  1  0
  2  3  2  0
  3  4  1  0
  4 12  1  0
  4  5  1  0
  5  6  1  0
  5 18  1  0
  5 19  1  0
  6 11  1  0
  6  7  2  0
  7  8  1  0
  7 20  1  0
  8  9  2  0
  8 21  1  0
  9 10  1  0
  9 24  1  0
 10 11  2  0
 10 22  1  0
 11 23  1  0
 12 13  1  0
 13 14  2  0
M  CHG  2   9   1  12  -1
M  END
>  <i_m_ct_stereo_status>  (49) 
1

>  <s_m_source_file>  (49) 
/var/tmp/pbs.5102264.sched01/tmpu94zaw8c/01d2njlry.sdf

>  <i_m_source_file_index>  (49) 
18

>  <i_lp_mmshare_version>  (49) 
48012

>  <i_f3d_flags>  (49) 
0

>  <s_epik_input>  (49) 
W0NIM11jMW5uKFtuSF1jMT1PKVtDSDJdYzJbY0hdW2NIXW5bY0hdW2NIXTI=

>  <s_epik_cmdline>  (49) 
J2VwaWtfcHl0aG9uJywgJy1waHQnLCAnMi4wJywgJy1waCcsICc3LjAnLCAnLXRuJywgJzgnLCAnLW1hJywgJzIwMCcsICctaW1hZScsICc8aW5maWxlLm1hZT4nLCAnLW9tYWUnLCAnPG91dGZpbGUubWFlPic=

>  <r_lp_tautomer_probability>  (49) 
1

>  <r_epik_Ionization_Penalty>  (49) 
1.71564

>  <r_epik_Ionization_Penalty_Charging>  (49) 
1.71544

>  <r_epik_Ionization_Penalty_Neutral>  (49) 
0.000191064

>  <r_epik_State_Penalty>  (49) 
1.82255

>  <r_epik_Charging_Adjusted_Penalty>  (49) 
3.53799

>  <i_epik_Tot_Q>  (49) 
0

>  <i_epik_Tot_abs_Q>  (49) 
2

>  <s_lp_Force_Field>  (49) 
OPLS3e

>  <r_lp_Energy>  (49) 
16.4387

>  <b_lp_Chiralities_Consistent>  (49) 
1

>  <s_lp_Variant>  (49) 
12:0-2

>  <s_i_glide_gridfile>  (49) 
pfpi4k_grid

>  <i_i_glide_lignum>  (49) 
18

>  <i_i_glide_rotatable_bonds>  (49) 
2

>  <r_i_docking_score>  (49) 
-4.69442

>  <r_i_glide_ligand_efficiency>  (49) 
-0.335315

>  <r_i_glide_ligand_efficiency_sa>  (49) 
-0.808158

>  <r_i_glide_ligand_efficiency_ln>  (49) 
-1.29001

>  <r_i_glide_gscore>  (49) 
-4.69442

>  <r_i_glide_lipo>  (49) 
-1.89355

>  <r_i_glide_hbond>  (49) 
0

>  <r_i_glide_metal>  (49) 
-0

>  <r_i_glide_rewards>  (49) 
-2.50004

>  <r_i_glide_evdw>  (49) 
-22.358

>  <r_i_glide_ecoul>  (49) 
-0.471067

>  <r_i_glide_erotb>  (49) 
0.88773

>  <r_i_glide_esite>  (49) 
0

>  <r_i_glide_emodel>  (49) 
-33.1789

>  <r_i_glide_energy>  (49) 
-22.829

>  <r_i_glide_einternal>  (49) 
3.7363

>  <r_i_glide_intrahb_reward>  (49) 
-0

>  <i_i_glide_confnum>  (49) 
3

>  <i_i_glide_posenum>  (49) 
4

>  <r_i_glide_eff_state_penalty>  (49) 
0

>  <ligand_id>  (49) 
12

>  <original_smiles>  (49) 
Cc1nn(Cc2ccncc2)[nH]c1=O

>  <smiles>  (49) 
[H]c1c(C([H])([H])n2nc(C([H])([H])[H])c(=O)[n-]2)c([H])c([H])[n+]([H])c1[H]

$$$$
12:1:2
     RDKit          3D

 24 25  0  0  1  0  0  0  0  0999 V2000
   -3.1879  -12.7880   -6.9681 C   0  0  0  0  0  0  0  0  0  0  0  0
   -4.2062  -11.6866   -6.9961 C   0  0  0  0  0  0  0  0  0  0  0  0
   -4.2911  -10.6843   -6.2002 N   0  0  0  0  0  0  0  0  0  0  0  0
   -5.3424   -9.9304   -6.6193 N   0  0  0  0  0  0  0  0  0  0  0  0
   -6.0544   -9.2768   -5.5232 C   0  0  0  0  0  0  0  0  0  0  0  0
   -6.5041   -7.8571   -5.8187 C   0  0  0  0  0  0  0  0  0  0  0  0
   -7.4133   -7.5922   -6.8655 C   0  0  0  0  0  0  0  0  0  0  0  0
   -7.8493   -6.2708   -7.0900 C   0  0  0  0  0  0  0  0  0  0  0  0
   -7.3977   -5.2691   -6.3003 N   0  0  0  0  0  0  0  0  0  0  0  0
   -6.5269   -5.4761   -5.2851 C   0  0  0  0  0  0  0  0  0  0  0  0
   -6.0647   -6.7817   -5.0202 C   0  0  0  0  0  0  0  0  0  0  0  0
   -5.9629  -10.4705   -7.7377 N   0  0  0  0  0  0  0  0  0  0  0  0
   -5.2734  -11.5960   -7.9675 C   0  0  0  0  0  0  0  0  0  0  0  0
   -5.4433  -12.4538   -8.8383 O   0  0  0  0  0  0  0  0  0  0  0  0
   -2.7016  -12.8594   -7.9382 H   0  0  0  0  0  0  0  0  0  0  0  0
   -3.6738  -13.7406   -6.7730 H   0  0  0  0  0  0  0  0  0  0  0  0
   -2.4241  -12.6286   -6.2113 H   0  0  0  0  0  0  0  0  0  0  0  0
   -5.4106   -9.2982   -4.6424 H   0  0  0  0  0  0  0  0  0  0  0  0
   -6.9533   -9.8482   -5.2919 H   0  0  0  0  0  0  0  0  0  0  0  0
   -7.7727   -8.4066   -7.4791 H   0  0  0  0  0  0  0  0  0  0  0  0
   -8.5433   -5.9915   -7.8711 H   0  0  0  0  0  0  0  0  0  0  0  0
   -6.2257   -4.6019   -4.7226 H   0  0  0  0  0  0  0  0  0  0  0  0
   -5.3859   -6.9670   -4.2047 H   0  0  0  0  0  0  0  0  0  0  0  0
   -7.7155   -4.3180   -6.4803 H   0  0  0  0  0  0  0  0  0  0  0  0
  1 15  1  0
  1 16  1  0
  1 17  1  0
  1  2  1  0
  2 13  1  0
  2  3  2  0
  3  4  1  0
  4 12  1  0
  4  5  1  0
  5  6  1  0
  5 18  1  0
  5 19  1  0
  6 11  1  0
  6  7  2  0
  7  8  1  0
  7 20  1  0
  8  9  2  0
  8 21  1  0
  9 10  1  0
  9 24  1  0
 10 11  2  0
 10 22  1  0
 11 23  1  0
 12 13  1  0
 13 14  2  0
M  CHG  2   9   1  12  -1
M  END
>  <i_m_ct_stereo_status>  (50) 
1

>  <s_m_source_file>  (50) 
/var/tmp/pbs.5102264.sched01/tmpu94zaw8c/01d2njlry.sdf

>  <i_m_source_file_index>  (50) 
18

>  <i_lp_mmshare_version>  (50) 
48012

>  <i_f3d_flags>  (50) 
0

>  <s_epik_input>  (50) 
W0NIM11jMW5uKFtuSF1jMT1PKVtDSDJdYzJbY0hdW2NIXW5bY0hdW2NIXTI=

>  <s_epik_cmdline>  (50) 
J2VwaWtfcHl0aG9uJywgJy1waHQnLCAnMi4wJywgJy1waCcsICc3LjAnLCAnLXRuJywgJzgnLCAnLW1hJywgJzIwMCcsICctaW1hZScsICc8aW5maWxlLm1hZT4nLCAnLW9tYWUnLCAnPG91dGZpbGUubWFlPic=

>  <r_lp_tautomer_probability>  (50) 
1

>  <r_epik_Ionization_Penalty>  (50) 
1.71564

>  <r_epik_Ionization_Penalty_Charging>  (50) 
1.71544

>  <r_epik_Ionization_Penalty_Neutral>  (50) 
0.000191064

>  <r_epik_State_Penalty>  (50) 
1.82255

>  <r_epik_Charging_Adjusted_Penalty>  (50) 
3.53799

>  <i_epik_Tot_Q>  (50) 
0

>  <i_epik_Tot_abs_Q>  (50) 
2

>  <s_lp_Force_Field>  (50) 
OPLS3e

>  <r_lp_Energy>  (50) 
16.4387

>  <b_lp_Chiralities_Consistent>  (50) 
1

>  <s_lp_Variant>  (50) 
12:0-2

>  <s_i_glide_gridfile>  (50) 
pfpi4k_grid

>  <i_i_glide_lignum>  (50) 
18

>  <i_i_glide_rotatable_bonds>  (50) 
2

>  <r_i_docking_score>  (50) 
-4.23311

>  <r_i_glide_ligand_efficiency>  (50) 
-0.302365

>  <r_i_glide_ligand_efficiency_sa>  (50) 
-0.728743

>  <r_i_glide_ligand_efficiency_ln>  (50) 
-1.16324

>  <r_i_glide_gscore>  (50) 
-4.23311

>  <r_i_glide_lipo>  (50) 
-1.53447

>  <r_i_glide_hbond>  (50) 
0

>  <r_i_glide_metal>  (50) 
-0

>  <r_i_glide_rewards>  (50) 
-2.4541

>  <r_i_glide_evdw>  (50) 
-20.6991

>  <r_i_glide_ecoul>  (50) 
-0.648729

>  <r_i_glide_erotb>  (50) 
0.88773

>  <r_i_glide_esite>  (50) 
0

>  <r_i_glide_emodel>  (50) 
-32.0744

>  <r_i_glide_energy>  (50) 
-21.3479

>  <r_i_glide_einternal>  (50) 
0.759422

>  <r_i_glide_intrahb_reward>  (50) 
-0

>  <i_i_glide_confnum>  (50) 
3

>  <i_i_glide_posenum>  (50) 
6

>  <r_i_glide_eff_state_penalty>  (50) 
0

>  <ligand_id>  (50) 
12

>  <original_smiles>  (50) 
Cc1nn(Cc2ccncc2)[nH]c1=O

>  <smiles>  (50) 
[H]c1c(C([H])([H])n2nc(C([H])([H])[H])c(=O)[n-]2)c([H])c([H])[n+]([H])c1[H]

$$$$
13:0:0
     RDKit          3D

 33 35  0  0  1  0  0  0  0  0999 V2000
    4.7580   -6.0650    1.2993 C   0  0  0  0  0  0  0  0  0  0  0  0
    4.3999   -4.6004    1.1275 C   0  0  0  0  0  0  0  0  0  0  0  0
    4.6107   -4.0768   -0.0813 N   0  0  0  0  0  0  0  0  0  0  0  0
    4.3147   -2.7773   -0.3312 C   0  0  0  0  0  0  0  0  0  0  0  0
    4.5537   -2.3017   -1.6443 N   0  0  0  0  0  0  0  0  0  0  0  0
    4.5188   -3.2096   -2.7922 C   0  0  0  0  0  0  0  0  0  0  0  0
    3.4993   -2.7123   -3.8344 C   0  0  0  0  0  0  0  0  0  0  0  0
    3.7559   -1.2441   -4.2231 C   0  0  0  0  0  0  0  0  0  0  0  0
    3.7906   -0.3585   -2.9714 C   0  0  0  0  0  0  0  0  0  0  0  0
    4.8063   -0.8931   -1.9449 C   0  0  0  0  0  0  0  0  0  0  0  0
    3.7992   -1.9954    0.7450 C   0  0  0  0  0  0  0  0  0  0  0  0
    3.4172   -0.6550    0.7808 N   0  0  0  0  0  0  0  0  0  0  0  0
    2.9504   -0.3207    1.9851 C   0  0  0  0  0  0  0  0  0  0  0  0
    2.4735    1.0603    2.2723 C   0  0  0  0  0  0  0  0  0  0  0  0
    2.9376   -1.6067    3.1967 S   0  0  0  0  0  0  0  0  0  0  0  0
    3.6149   -2.6864    1.9765 C   0  0  0  0  0  0  0  0  0  0  0  0
    3.9058   -3.9959    2.2103 N   0  0  0  0  0  0  0  0  0  0  0  0
    5.2076   -6.4833    0.3967 H   0  0  0  0  0  0  0  0  0  0  0  0
    3.8644   -6.6448    1.5308 H   0  0  0  0  0  0  0  0  0  0  0  0
    5.4654   -6.1889    2.1200 H   0  0  0  0  0  0  0  0  0  0  0  0
    5.5172   -3.2489   -3.2312 H   0  0  0  0  0  0  0  0  0  0  0  0
    4.2599   -4.2297   -2.5084 H   0  0  0  0  0  0  0  0  0  0  0  0
    3.5323   -3.3517   -4.7164 H   0  0  0  0  0  0  0  0  0  0  0  0
    2.4896   -2.8081   -3.4329 H   0  0  0  0  0  0  0  0  0  0  0  0
    4.7080   -1.1538   -4.7402 H   0  0  0  0  0  0  0  0  0  0  0  0
    2.9867   -0.8877   -4.9091 H   0  0  0  0  0  0  0  0  0  0  0  0
    4.0435    0.6671   -3.2419 H   0  0  0  0  0  0  0  0  0  0  0  0
    2.7928   -0.3268   -2.5314 H   0  0  0  0  0  0  0  0  0  0  0  0
    4.8318   -0.2563   -1.0708 H   0  0  0  0  0  0  0  0  0  0  0  0
    5.8163   -0.8163   -2.3382 H   0  0  0  0  0  0  0  0  0  0  0  0
    2.5964    1.6835    1.3889 H   0  0  0  0  0  0  0  0  0  0  0  0
    3.0531    1.4967    3.0848 H   0  0  0  0  0  0  0  0  0  0  0  0
    1.4162    1.0504    2.5350 H   0  0  0  0  0  0  0  0  0  0  0  0
  1  2  1  0
  1 18  1  0
  1 19  1  0
  1 20  1  0
  2 17  2  0
  2  3  1  0
  3  4  2  0
  4  5  1  0
  4 11  1  0
  5 10  1  0
  5  6  1  0
  6  7  1  0
  6 21  1  0
  6 22  1  0
  7  8  1  0
  7 23  1  0
  7 24  1  0
  8  9  1  0
  8 25  1  0
  8 26  1  0
  9 10  1  0
  9 27  1  0
  9 28  1  0
 10 29  1  0
 10 30  1  0
 11 16  2  0
 11 12  1  0
 12 13  2  0
 13 14  1  0
 13 15  1  0
 14 31  1  0
 14 32  1  0
 14 33  1  0
 15 16  1  0
 16 17  1  0
M  END
>  <i_m_ct_stereo_status>  (51) 
1

>  <s_m_source_file>  (51) 
/var/tmp/pbs.5102264.sched01/tmpu94zaw8c/01d2njlry.sdf

>  <i_m_source_file_index>  (51) 
19

>  <i_lp_mmshare_version>  (51) 
48012

>  <i_f3d_flags>  (51) 
0

>  <s_epik_input>  (51) 
bjFjKFtDSDNdKXNjKGMxMiluYyhbQ0gzXSluYzJOM1tDSDJdW0NIMl1bQ0gyXVtDSDJdW0NIMl0z

>  <s_epik_cmdline>  (51) 
J2VwaWtfcHl0aG9uJywgJy1waHQnLCAnMi4wJywgJy1waCcsICc3LjAnLCAnLXRuJywgJzgnLCAnLW1hJywgJzIwMCcsICctaW1hZScsICc8aW5maWxlLm1hZT4nLCAnLW9tYWUnLCAnPG91dGZpbGUubWFlPic=

>  <r_epik_Ionization_Penalty>  (51) 
0.0829498

>  <r_epik_Ionization_Penalty_Charging>  (51) 
0

>  <r_epik_Ionization_Penalty_Neutral>  (51) 
0.0829498

>  <r_epik_State_Penalty>  (51) 
0.0734859

>  <r_epik_Charging_Adjusted_Penalty>  (51) 
0.0734859

>  <i_epik_Tot_Q>  (51) 
0

>  <i_epik_Tot_abs_Q>  (51) 
0

>  <s_lp_Force_Field>  (51) 
OPLS3e

>  <r_lp_Energy>  (51) 
29.2999

>  <b_lp_Chiralities_Consistent>  (51) 
1

>  <s_lp_Variant>  (51) 
13:0-1

>  <s_i_glide_gridfile>  (51) 
pfpi4k_grid

>  <i_i_glide_lignum>  (51) 
19

>  <i_i_glide_rotatable_bonds>  (51) 
1

>  <r_i_docking_score>  (51) 
-2.98424

>  <r_i_glide_ligand_efficiency>  (51) 
-0.175543

>  <r_i_glide_ligand_efficiency_sa>  (51) 
-0.451372

>  <r_i_glide_ligand_efficiency_ln>  (51) 
-0.778521

>  <r_i_glide_gscore>  (51) 
-2.98424

>  <r_i_glide_lipo>  (51) 
-0.41653

>  <r_i_glide_hbond>  (51) 
0

>  <r_i_glide_metal>  (51) 
-0

>  <r_i_glide_rewards>  (51) 
-1.7547

>  <r_i_glide_evdw>  (51) 
-22.8969

>  <r_i_glide_ecoul>  (51) 
0.479307

>  <r_i_glide_erotb>  (51) 
0.283199

>  <r_i_glide_esite>  (51) 
-0.0232542

>  <r_i_glide_emodel>  (51) 
-26.2179

>  <r_i_glide_energy>  (51) 
-22.4176

>  <r_i_glide_einternal>  (51) 
0.286958

>  <r_i_glide_intrahb_reward>  (51) 
-0

>  <i_i_glide_confnum>  (51) 
2

>  <i_i_glide_posenum>  (51) 
10

>  <r_i_glide_eff_state_penalty>  (51) 
0

>  <ligand_id>  (51) 
13

>  <original_smiles>  (51) 
Cc1nc(N2CCCCC2)c2nc(C)sc2n1

>  <smiles>  (51) 
[H]C([H])([H])c1nc(N2C([H])([H])C([H])([H])C([H])([H])C([H])([H])C2([H])[H])c2nc(C([H])([H])[H])sc2n1

$$$$
13:0:1
     RDKit          3D

 33 35  0  0  1  0  0  0  0  0999 V2000
    3.0010    0.7851    2.6256 C   0  0  0  0  0  0  0  0  0  0  0  0
    3.0883   -0.6436    2.1252 C   0  0  0  0  0  0  0  0  0  0  0  0
    3.4498   -0.8073    0.8517 N   0  0  0  0  0  0  0  0  0  0  0  0
    3.5144   -2.0497    0.3109 C   0  0  0  0  0  0  0  0  0  0  0  0
    3.8837   -2.1622   -1.0523 N   0  0  0  0  0  0  0  0  0  0  0  0
    3.5152   -3.3198   -1.8708 C   0  0  0  0  0  0  0  0  0  0  0  0
    2.7865   -2.8817   -3.1434 C   0  0  0  0  0  0  0  0  0  0  0  0
    3.6044   -1.8424   -3.9161 C   0  0  0  0  0  0  0  0  0  0  0  0
    3.9648   -0.6573   -3.0047 C   0  0  0  0  0  0  0  0  0  0  0  0
    4.6673   -1.1233   -1.7183 C   0  0  0  0  0  0  0  0  0  0  0  0
    3.2445   -3.1601    1.1643 C   0  0  0  0  0  0  0  0  0  0  0  0
    3.3008   -4.5290    0.8979 N   0  0  0  0  0  0  0  0  0  0  0  0
    2.9728   -5.2394    1.9789 C   0  0  0  0  0  0  0  0  0  0  0  0
    2.9234   -6.7298    1.9388 C   0  0  0  0  0  0  0  0  0  0  0  0
    2.6026   -4.3093    3.4379 S   0  0  0  0  0  0  0  0  0  0  0  0
    2.8938   -2.8382    2.5062 C   0  0  0  0  0  0  0  0  0  0  0  0
    2.7940   -1.5849    3.0271 N   0  0  0  0  0  0  0  0  0  0  0  0
    3.1637    1.5057    1.8236 H   0  0  0  0  0  0  0  0  0  0  0  0
    3.7527    0.9567    3.3957 H   0  0  0  0  0  0  0  0  0  0  0  0
    2.0185    0.9805    3.0566 H   0  0  0  0  0  0  0  0  0  0  0  0
    4.4197   -3.8796   -2.1156 H   0  0  0  0  0  0  0  0  0  0  0  0
    2.8324   -3.9989   -1.3727 H   0  0  0  0  0  0  0  0  0  0  0  0
    2.5753   -3.7538   -3.7639 H   0  0  0  0  0  0  0  0  0  0  0  0
    1.8192   -2.4617   -2.8665 H   0  0  0  0  0  0  0  0  0  0  0  0
    4.5098   -2.3116   -4.3025 H   0  0  0  0  0  0  0  0  0  0  0  0
    3.0254   -1.4858   -4.7660 H   0  0  0  0  0  0  0  0  0  0  0  0
    4.5962    0.0463   -3.5449 H   0  0  0  0  0  0  0  0  0  0  0  0
    3.0525   -0.1225   -2.7435 H   0  0  0  0  0  0  0  0  0  0  0  0
    4.8735   -0.2682   -1.0741 H   0  0  0  0  0  0  0  0  0  0  0  0
    5.6354   -1.5544   -1.9738 H   0  0  0  0  0  0  0  0  0  0  0  0
    3.1314   -7.0832    0.9299 H   0  0  0  0  0  0  0  0  0  0  0  0
    1.9377   -7.0908    2.2296 H   0  0  0  0  0  0  0  0  0  0  0  0
    3.6709   -7.1507    2.6088 H   0  0  0  0  0  0  0  0  0  0  0  0
  1  2  1  0
  1 18  1  0
  1 19  1  0
  1 20  1  0
  2 17  2  0
  2  3  1  0
  3  4  2  0
  4  5  1  0
  4 11  1  0
  5 10  1  0
  5  6  1  0
  6  7  1  0
  6 21  1  0
  6 22  1  0
  7  8  1  0
  7 23  1  0
  7 24  1  0
  8  9  1  0
  8 25  1  0
  8 26  1  0
  9 10  1  0
  9 27  1  0
  9 28  1  0
 10 29  1  0
 10 30  1  0
 11 16  2  0
 11 12  1  0
 12 13  2  0
 13 14  1  0
 13 15  1  0
 14 31  1  0
 14 32  1  0
 14 33  1  0
 15 16  1  0
 16 17  1  0
M  END
>  <i_m_ct_stereo_status>  (52) 
1

>  <s_m_source_file>  (52) 
/var/tmp/pbs.5102264.sched01/tmpu94zaw8c/01d2njlry.sdf

>  <i_m_source_file_index>  (52) 
19

>  <i_lp_mmshare_version>  (52) 
48012

>  <i_f3d_flags>  (52) 
0

>  <s_epik_input>  (52) 
bjFjKFtDSDNdKXNjKGMxMiluYyhbQ0gzXSluYzJOM1tDSDJdW0NIMl1bQ0gyXVtDSDJdW0NIMl0z

>  <s_epik_cmdline>  (52) 
J2VwaWtfcHl0aG9uJywgJy1waHQnLCAnMi4wJywgJy1waCcsICc3LjAnLCAnLXRuJywgJzgnLCAnLW1hJywgJzIwMCcsICctaW1hZScsICc8aW5maWxlLm1hZT4nLCAnLW9tYWUnLCAnPG91dGZpbGUubWFlPic=

>  <r_epik_Ionization_Penalty>  (52) 
0.0829498

>  <r_epik_Ionization_Penalty_Charging>  (52) 
0

>  <r_epik_Ionization_Penalty_Neutral>  (52) 
0.0829498

>  <r_epik_State_Penalty>  (52) 
0.0734859

>  <r_epik_Charging_Adjusted_Penalty>  (52) 
0.0734859

>  <i_epik_Tot_Q>  (52) 
0

>  <i_epik_Tot_abs_Q>  (52) 
0

>  <s_lp_Force_Field>  (52) 
OPLS3e

>  <r_lp_Energy>  (52) 
29.2999

>  <b_lp_Chiralities_Consistent>  (52) 
1

>  <s_lp_Variant>  (52) 
13:0-1

>  <s_i_glide_gridfile>  (52) 
pfpi4k_grid

>  <i_i_glide_lignum>  (52) 
19

>  <i_i_glide_rotatable_bonds>  (52) 
1

>  <r_i_docking_score>  (52) 
-2.95412

>  <r_i_glide_ligand_efficiency>  (52) 
-0.173772

>  <r_i_glide_ligand_efficiency_sa>  (52) 
-0.446816

>  <r_i_glide_ligand_efficiency_ln>  (52) 
-0.770663

>  <r_i_glide_gscore>  (52) 
-2.95412

>  <r_i_glide_lipo>  (52) 
-0.373735

>  <r_i_glide_hbond>  (52) 
0

>  <r_i_glide_metal>  (52) 
-0

>  <r_i_glide_rewards>  (52) 
-1.71581

>  <r_i_glide_evdw>  (52) 
-21.1546

>  <r_i_glide_ecoul>  (52) 
-0.223204

>  <r_i_glide_erotb>  (52) 
0.283199

>  <r_i_glide_esite>  (52) 
-0.0565617

>  <r_i_glide_emodel>  (52) 
-25.0651

>  <r_i_glide_energy>  (52) 
-21.3778

>  <r_i_glide_einternal>  (52) 
0.318942

>  <r_i_glide_intrahb_reward>  (52) 
-0

>  <i_i_glide_confnum>  (52) 
2

>  <i_i_glide_posenum>  (52) 
1

>  <r_i_glide_eff_state_penalty>  (52) 
0

>  <ligand_id>  (52) 
13

>  <original_smiles>  (52) 
Cc1nc(N2CCCCC2)c2nc(C)sc2n1

>  <smiles>  (52) 
[H]C([H])([H])c1nc(N2C([H])([H])C([H])([H])C([H])([H])C([H])([H])C2([H])[H])c2nc(C([H])([H])[H])sc2n1

$$$$
13:0:2
     RDKit          3D

 33 35  0  0  1  0  0  0  0  0999 V2000
    0.9553   -1.2601    7.6604 C   0  0  0  0  0  0  0  0  0  0  0  0
    0.1759   -0.1384    6.9982 C   0  0  0  0  0  0  0  0  0  0  0  0
   -0.3104    0.8012    7.8091 N   0  0  0  0  0  0  0  0  0  0  0  0
   -1.0029    1.8493    7.2986 C   0  0  0  0  0  0  0  0  0  0  0  0
   -1.4648    2.8231    8.2072 N   0  0  0  0  0  0  0  0  0  0  0  0
   -0.6498    3.2109    9.3568 C   0  0  0  0  0  0  0  0  0  0  0  0
   -1.4640    3.0858   10.6548 C   0  0  0  0  0  0  0  0  0  0  0  0
   -2.7922    3.8567   10.5542 C   0  0  0  0  0  0  0  0  0  0  0  0
   -3.5826    3.4173    9.3115 C   0  0  0  0  0  0  0  0  0  0  0  0
   -2.7411    3.5086    8.0280 C   0  0  0  0  0  0  0  0  0  0  0  0
   -1.2284    1.8937    5.8959 C   0  0  0  0  0  0  0  0  0  0  0  0
   -1.8928    2.8481    5.1253 N   0  0  0  0  0  0  0  0  0  0  0  0
   -1.8552    2.5039    3.8303 C   0  0  0  0  0  0  0  0  0  0  0  0
   -2.5146    3.3295    2.7811 C   0  0  0  0  0  0  0  0  0  0  0  0
   -0.9808    1.0170    3.4361 S   0  0  0  0  0  0  0  0  0  0  0  0
   -0.6665    0.8147    5.1560 C   0  0  0  0  0  0  0  0  0  0  0  0
    0.0320   -0.2326    5.6757 N   0  0  0  0  0  0  0  0  0  0  0  0
    0.9649   -1.1631    8.7485 H   0  0  0  0  0  0  0  0  0  0  0  0
    1.9898   -1.2614    7.3148 H   0  0  0  0  0  0  0  0  0  0  0  0
    0.5148   -2.2257    7.4105 H   0  0  0  0  0  0  0  0  0  0  0  0
    0.2657    2.6240    9.4302 H   0  0  0  0  0  0  0  0  0  0  0  0
   -0.3339    4.2473    9.2245 H   0  0  0  0  0  0  0  0  0  0  0  0
   -1.6691    2.0342   10.8601 H   0  0  0  0  0  0  0  0  0  0  0  0
   -0.8858    3.4554   11.5025 H   0  0  0  0  0  0  0  0  0  0  0  0
   -3.3851    3.6826   11.4540 H   0  0  0  0  0  0  0  0  0  0  0  0
   -2.5996    4.9288   10.5102 H   0  0  0  0  0  0  0  0  0  0  0  0
   -3.8948    2.3886    9.4607 H   0  0  0  0  0  0  0  0  0  0  0  0
   -4.4941    4.0053    9.2048 H   0  0  0  0  0  0  0  0  0  0  0  0
   -2.5351    4.5505    7.7866 H   0  0  0  0  0  0  0  0  0  0  0  0
   -3.3221    3.0934    7.2044 H   0  0  0  0  0  0  0  0  0  0  0  0
   -3.0160    4.1761    3.2404 H   0  0  0  0  0  0  0  0  0  0  0  0
   -3.2462    2.7340    2.2338 H   0  0  0  0  0  0  0  0  0  0  0  0
   -1.7731    3.7097    2.0804 H   0  0  0  0  0  0  0  0  0  0  0  0
  1  2  1  0
  1 18  1  0
  1 19  1  0
  1 20  1  0
  2 17  2  0
  2  3  1  0
  3  4  2  0
  4  5  1  0
  4 11  1  0
  5 10  1  0
  5  6  1  0
  6  7  1  0
  6 21  1  0
  6 22  1  0
  7  8  1  0
  7 23  1  0
  7 24  1  0
  8  9  1  0
  8 25  1  0
  8 26  1  0
  9 10  1  0
  9 27  1  0
  9 28  1  0
 10 29  1  0
 10 30  1  0
 11 16  2  0
 11 12  1  0
 12 13  2  0
 13 14  1  0
 13 15  1  0
 14 31  1  0
 14 32  1  0
 14 33  1  0
 15 16  1  0
 16 17  1  0
M  END
>  <i_m_ct_stereo_status>  (53) 
1

>  <s_m_source_file>  (53) 
/var/tmp/pbs.5102264.sched01/tmpu94zaw8c/01d2njlry.sdf

>  <i_m_source_file_index>  (53) 
19

>  <i_lp_mmshare_version>  (53) 
48012

>  <i_f3d_flags>  (53) 
0

>  <s_epik_input>  (53) 
bjFjKFtDSDNdKXNjKGMxMiluYyhbQ0gzXSluYzJOM1tDSDJdW0NIMl1bQ0gyXVtDSDJdW0NIMl0z

>  <s_epik_cmdline>  (53) 
J2VwaWtfcHl0aG9uJywgJy1waHQnLCAnMi4wJywgJy1waCcsICc3LjAnLCAnLXRuJywgJzgnLCAnLW1hJywgJzIwMCcsICctaW1hZScsICc8aW5maWxlLm1hZT4nLCAnLW9tYWUnLCAnPG91dGZpbGUubWFlPic=

>  <r_epik_Ionization_Penalty>  (53) 
0.0829498

>  <r_epik_Ionization_Penalty_Charging>  (53) 
0

>  <r_epik_Ionization_Penalty_Neutral>  (53) 
0.0829498

>  <r_epik_State_Penalty>  (53) 
0.0734859

>  <r_epik_Charging_Adjusted_Penalty>  (53) 
0.0734859

>  <i_epik_Tot_Q>  (53) 
0

>  <i_epik_Tot_abs_Q>  (53) 
0

>  <s_lp_Force_Field>  (53) 
OPLS3e

>  <r_lp_Energy>  (53) 
29.2999

>  <b_lp_Chiralities_Consistent>  (53) 
1

>  <s_lp_Variant>  (53) 
13:0-1

>  <s_i_glide_gridfile>  (53) 
pfpi4k_grid

>  <i_i_glide_lignum>  (53) 
19

>  <i_i_glide_rotatable_bonds>  (53) 
1

>  <r_i_docking_score>  (53) 
-2.74302

>  <r_i_glide_ligand_efficiency>  (53) 
-0.161354

>  <r_i_glide_ligand_efficiency_sa>  (53) 
-0.414886

>  <r_i_glide_ligand_efficiency_ln>  (53) 
-0.715592

>  <r_i_glide_gscore>  (53) 
-2.74302

>  <r_i_glide_lipo>  (53) 
-0.200355

>  <r_i_glide_hbond>  (53) 
0

>  <r_i_glide_metal>  (53) 
-0

>  <r_i_glide_rewards>  (53) 
-1.71581

>  <r_i_glide_evdw>  (53) 
-19.0079

>  <r_i_glide_ecoul>  (53) 
-0.828883

>  <r_i_glide_erotb>  (53) 
0.283199

>  <r_i_glide_esite>  (53) 
-0.0353234

>  <r_i_glide_emodel>  (53) 
-23.432

>  <r_i_glide_energy>  (53) 
-19.8368

>  <r_i_glide_einternal>  (53) 
0.157112

>  <r_i_glide_intrahb_reward>  (53) 
-0

>  <i_i_glide_confnum>  (53) 
5

>  <i_i_glide_posenum>  (53) 
37

>  <r_i_glide_eff_state_penalty>  (53) 
0

>  <ligand_id>  (53) 
13

>  <original_smiles>  (53) 
Cc1nc(N2CCCCC2)c2nc(C)sc2n1

>  <smiles>  (53) 
[H]C([H])([H])c1nc(N2C([H])([H])C([H])([H])C([H])([H])C([H])([H])C2([H])[H])c2nc(C([H])([H])[H])sc2n1

$$$$
13:1:0
     RDKit          3D

 34 36  0  0  1  0  0  0  0  0999 V2000
   -9.4988   -9.4298  -10.3087 C   0  0  0  0  0  0  0  0  0  0  0  0
   -8.7144   -8.8297   -9.1541 C   0  0  0  0  0  0  0  0  0  0  0  0
   -8.9600   -7.5649   -8.7917 N   0  0  0  0  0  0  0  0  0  0  0  0
   -8.3135   -6.9515   -7.7659 C   0  0  0  0  0  0  0  0  0  0  0  0
   -8.6038   -5.5938   -7.4847 N   0  0  0  0  0  0  0  0  0  0  0  0
   -7.6045   -4.6756   -6.9211 C   0  0  0  0  0  0  0  0  0  0  0  0
   -8.0553   -4.1571   -5.5541 C   0  0  0  0  0  0  0  0  0  0  0  0
   -9.4189   -3.4789   -5.7007 C   0  0  0  0  0  0  0  0  0  0  0  0
  -10.4461   -4.4390   -6.3199 C   0  0  0  0  0  0  0  0  0  0  0  0
   -9.9570   -5.0625   -7.6419 C   0  0  0  0  0  0  0  0  0  0  0  0
   -7.3524   -7.7135   -7.0519 C   0  0  0  0  0  0  0  0  0  0  0  0
   -6.6012   -7.3463   -5.9450 N   0  0  0  0  0  0  0  0  0  0  0  0
   -5.7339   -8.3032   -5.6189 C   0  0  0  0  0  0  0  0  0  0  0  0
   -4.7585   -8.0744   -4.5315 C   0  0  0  0  0  0  0  0  0  0  0  0
   -5.8281   -9.7934   -6.5658 S   0  0  0  0  0  0  0  0  0  0  0  0
   -7.1182   -9.0261   -7.5138 C   0  0  0  0  0  0  0  0  0  0  0  0
   -7.7929   -9.5817   -8.5521 N   0  0  0  0  0  0  0  0  0  0  0  0
  -10.2169   -8.7270  -10.7381 H   0  0  0  0  0  0  0  0  0  0  0  0
  -10.0563  -10.3106   -9.9859 H   0  0  0  0  0  0  0  0  0  0  0  0
   -8.8293   -9.7434  -11.1107 H   0  0  0  0  0  0  0  0  0  0  0  0
   -6.6213   -5.1237   -6.7961 H   0  0  0  0  0  0  0  0  0  0  0  0
   -7.4862   -3.8233   -7.6015 H   0  0  0  0  0  0  0  0  0  0  0  0
   -8.1141   -4.9665   -4.8249 H   0  0  0  0  0  0  0  0  0  0  0  0
   -7.3232   -3.4579   -5.1579 H   0  0  0  0  0  0  0  0  0  0  0  0
   -9.7682   -3.1270   -4.7416 H   0  0  0  0  0  0  0  0  0  0  0  0
   -9.3244   -2.5935   -6.3250 H   0  0  0  0  0  0  0  0  0  0  0  0
  -10.6457   -5.2323   -5.6027 H   0  0  0  0  0  0  0  0  0  0  0  0
  -11.3764   -3.8938   -6.4684 H   0  0  0  0  0  0  0  0  0  0  0  0
   -9.9220   -4.2928   -8.4087 H   0  0  0  0  0  0  0  0  0  0  0  0
  -10.6853   -5.8054   -7.9733 H   0  0  0  0  0  0  0  0  0  0  0  0
   -4.9118   -7.0639   -4.1760 H   0  0  0  0  0  0  0  0  0  0  0  0
   -3.7259   -8.1490   -4.8723 H   0  0  0  0  0  0  0  0  0  0  0  0
   -4.9661   -8.7465   -3.7050 H   0  0  0  0  0  0  0  0  0  0  0  0
   -7.6101  -10.5383   -8.8351 H   0  0  0  0  0  0  0  0  0  0  0  0
  1  2  1  0
  1 18  1  0
  1 19  1  0
  1 20  1  0
  2 17  2  0
  2  3  1  0
  3  4  2  0
  4  5  1  0
  4 11  1  0
  5 10  1  0
  5  6  1  0
  6  7  1  0
  6 21  1  0
  6 22  1  0
  7  8  1  0
  7 23  1  0
  7 24  1  0
  8  9  1  0
  8 25  1  0
  8 26  1  0
  9 10  1  0
  9 27  1  0
  9 28  1  0
 10 29  1  0
 10 30  1  0
 11 16  2  0
 11 12  1  0
 12 13  2  0
 13 14  1  0
 13 15  1  0
 14 31  1  0
 14 32  1  0
 14 33  1  0
 15 16  1  0
 16 17  1  0
 17 34  1  0
M  CHG  1  17   1
M  END
>  <i_m_ct_stereo_status>  (54) 
1

>  <s_m_source_file>  (54) 
/var/tmp/pbs.5102264.sched01/tmpu94zaw8c/01d2njlry.sdf

>  <i_m_source_file_index>  (54) 
20

>  <i_lp_mmshare_version>  (54) 
48012

>  <i_f3d_flags>  (54) 
0

>  <s_epik_input>  (54) 
bjFjKFtDSDNdKXNjKGMxMiluYyhbQ0gzXSluYzJOM1tDSDJdW0NIMl1bQ0gyXVtDSDJdW0NIMl0z

>  <s_epik_cmdline>  (54) 
J2VwaWtfcHl0aG9uJywgJy1waHQnLCAnMi4wJywgJy1waCcsICc3LjAnLCAnLXRuJywgJzgnLCAnLW1hJywgJzIwMCcsICctaW1hZScsICc8aW5maWxlLm1hZT4nLCAnLW9tYWUnLCAnPG91dGZpbGUubWFlPic=

>  <r_epik_Ionization_Penalty>  (54) 
1.20692

>  <r_epik_Ionization_Penalty_Charging>  (54) 
1.20692

>  <r_epik_Ionization_Penalty_Neutral>  (54) 
2.29872e-12

>  <r_epik_State_Penalty>  (54) 
1.27302

>  <r_epik_Charging_Adjusted_Penalty>  (54) 
2.47994

>  <i_epik_Tot_Q>  (54) 
1

>  <i_epik_Tot_abs_Q>  (54) 
1

>  <s_lp_Force_Field>  (54) 
OPLS3e

>  <r_lp_Energy>  (54) 
33.0707

>  <b_lp_Chiralities_Consistent>  (54) 
1

>  <s_lp_Variant>  (54) 
13:0-2

>  <s_i_glide_gridfile>  (54) 
pfpi4k_grid

>  <i_i_glide_lignum>  (54) 
20

>  <i_i_glide_rotatable_bonds>  (54) 
1

>  <r_i_docking_score>  (54) 
-5.43091

>  <r_i_glide_ligand_efficiency>  (54) 
-0.319466

>  <r_i_glide_ligand_efficiency_sa>  (54) 
-0.821436

>  <r_i_glide_ligand_efficiency_ln>  (54) 
-1.4168

>  <r_i_glide_gscore>  (54) 
-5.43091

>  <r_i_glide_lipo>  (54) 
-2.18749

>  <r_i_glide_hbond>  (54) 
0

>  <r_i_glide_metal>  (54) 
-0

>  <r_i_glide_rewards>  (54) 
-2.38173

>  <r_i_glide_evdw>  (54) 
-22.31

>  <r_i_glide_ecoul>  (54) 
-0.182873

>  <r_i_glide_erotb>  (54) 
0.28124

>  <r_i_glide_esite>  (54) 
0

>  <r_i_glide_emodel>  (54) 
-32.5344

>  <r_i_glide_energy>  (54) 
-22.4928

>  <r_i_glide_einternal>  (54) 
2.53174

>  <r_i_glide_intrahb_reward>  (54) 
-0

>  <i_i_glide_confnum>  (54) 
5

>  <i_i_glide_posenum>  (54) 
23

>  <r_i_glide_eff_state_penalty>  (54) 
0

>  <ligand_id>  (54) 
13

>  <original_smiles>  (54) 
Cc1nc(N2CCCCC2)c2nc(C)sc2n1

>  <smiles>  (54) 
[H][n+]1c(C([H])([H])[H])nc(N2C([H])([H])C([H])([H])C([H])([H])C([H])([H])C2([H])[H])c2nc(C([H])([H])[H])sc21

$$$$
13:1:1
     RDKit          3D

 34 36  0  0  1  0  0  0  0  0999 V2000
   -9.1379   -6.7730  -10.2254 C   0  0  0  0  0  0  0  0  0  0  0  0
   -8.3019   -7.3611   -9.0949 C   0  0  0  0  0  0  0  0  0  0  0  0
   -8.1322   -6.6385   -7.9770 N   0  0  0  0  0  0  0  0  0  0  0  0
   -7.3790   -7.0820   -6.9350 C   0  0  0  0  0  0  0  0  0  0  0  0
   -7.2024   -6.2288   -5.8364 N   0  0  0  0  0  0  0  0  0  0  0  0
   -8.3054   -5.4239   -5.3273 C   0  0  0  0  0  0  0  0  0  0  0  0
   -7.8646   -3.9707   -5.1747 C   0  0  0  0  0  0  0  0  0  0  0  0
   -6.5622   -3.8730   -4.3396 C   0  0  0  0  0  0  0  0  0  0  0  0
   -5.4618   -4.7516   -4.9403 C   0  0  0  0  0  0  0  0  0  0  0  0
   -5.9425   -6.1964   -5.0959 C   0  0  0  0  0  0  0  0  0  0  0  0
   -6.7808   -8.3633   -7.0202 C   0  0  0  0  0  0  0  0  0  0  0  0
   -6.0152   -9.0410   -6.0778 N   0  0  0  0  0  0  0  0  0  0  0  0
   -5.6265  -10.2200   -6.5608 C   0  0  0  0  0  0  0  0  0  0  0  0
   -4.7543  -11.1130   -5.7492 C   0  0  0  0  0  0  0  0  0  0  0  0
   -6.2296  -10.6324   -8.1750 S   0  0  0  0  0  0  0  0  0  0  0  0
   -7.0123   -9.0609   -8.2247 C   0  0  0  0  0  0  0  0  0  0  0  0
   -7.7556   -8.5716   -9.2569 N   0  0  0  0  0  0  0  0  0  0  0  0
   -9.5130   -5.7770   -9.9793 H   0  0  0  0  0  0  0  0  0  0  0  0
   -9.9966   -7.4111  -10.4328 H   0  0  0  0  0  0  0  0  0  0  0  0
   -8.5478   -6.6934  -11.1393 H   0  0  0  0  0  0  0  0  0  0  0  0
   -9.2017   -5.4850   -5.9486 H   0  0  0  0  0  0  0  0  0  0  0  0
   -8.5818   -5.7958   -4.3446 H   0  0  0  0  0  0  0  0  0  0  0  0
   -7.7236   -3.5679   -6.1762 H   0  0  0  0  0  0  0  0  0  0  0  0
   -8.6753   -3.4007   -4.7245 H   0  0  0  0  0  0  0  0  0  0  0  0
   -6.1753   -2.8582   -4.3129 H   0  0  0  0  0  0  0  0  0  0  0  0
   -6.7457   -4.1792   -3.3047 H   0  0  0  0  0  0  0  0  0  0  0  0
   -5.1763   -4.3460   -5.9107 H   0  0  0  0  0  0  0  0  0  0  0  0
   -4.5668   -4.7283   -4.3310 H   0  0  0  0  0  0  0  0  0  0  0  0
   -6.0969   -6.6798   -4.1263 H   0  0  0  0  0  0  0  0  0  0  0  0
   -5.1405   -6.7267   -5.6058 H   0  0  0  0  0  0  0  0  0  0  0  0
   -4.5377  -10.6179   -4.8010 H   0  0  0  0  0  0  0  0  0  0  0  0
   -3.8047  -11.3074   -6.2541 H   0  0  0  0  0  0  0  0  0  0  0  0
   -5.2728  -12.0487   -5.5332 H   0  0  0  0  0  0  0  0  0  0  0  0
   -7.8968   -9.1147  -10.1086 H   0  0  0  0  0  0  0  0  0  0  0  0
  1  2  1  0
  1 18  1  0
  1 19  1  0
  1 20  1  0
  2 17  2  0
  2  3  1  0
  3  4  2  0
  4  5  1  0
  4 11  1  0
  5 10  1  0
  5  6  1  0
  6  7  1  0
  6 21  1  0
  6 22  1  0
  7  8  1  0
  7 23  1  0
  7 24  1  0
  8  9  1  0
  8 25  1  0
  8 26  1  0
  9 10  1  0
  9 27  1  0
  9 28  1  0
 10 29  1  0
 10 30  1  0
 11 16  2  0
 11 12  1  0
 12 13  2  0
 13 14  1  0
 13 15  1  0
 14 31  1  0
 14 32  1  0
 14 33  1  0
 15 16  1  0
 16 17  1  0
 17 34  1  0
M  CHG  1  17   1
M  END
>  <i_m_ct_stereo_status>  (55) 
1

>  <s_m_source_file>  (55) 
/var/tmp/pbs.5102264.sched01/tmpu94zaw8c/01d2njlry.sdf

>  <i_m_source_file_index>  (55) 
20

>  <i_lp_mmshare_version>  (55) 
48012

>  <i_f3d_flags>  (55) 
0

>  <s_epik_input>  (55) 
bjFjKFtDSDNdKXNjKGMxMiluYyhbQ0gzXSluYzJOM1tDSDJdW0NIMl1bQ0gyXVtDSDJdW0NIMl0z

>  <s_epik_cmdline>  (55) 
J2VwaWtfcHl0aG9uJywgJy1waHQnLCAnMi4wJywgJy1waCcsICc3LjAnLCAnLXRuJywgJzgnLCAnLW1hJywgJzIwMCcsICctaW1hZScsICc8aW5maWxlLm1hZT4nLCAnLW9tYWUnLCAnPG91dGZpbGUubWFlPic=

>  <r_epik_Ionization_Penalty>  (55) 
1.20692

>  <r_epik_Ionization_Penalty_Charging>  (55) 
1.20692

>  <r_epik_Ionization_Penalty_Neutral>  (55) 
2.29872e-12

>  <r_epik_State_Penalty>  (55) 
1.27302

>  <r_epik_Charging_Adjusted_Penalty>  (55) 
2.47994

>  <i_epik_Tot_Q>  (55) 
1

>  <i_epik_Tot_abs_Q>  (55) 
1

>  <s_lp_Force_Field>  (55) 
OPLS3e

>  <r_lp_Energy>  (55) 
33.0707

>  <b_lp_Chiralities_Consistent>  (55) 
1

>  <s_lp_Variant>  (55) 
13:0-2

>  <s_i_glide_gridfile>  (55) 
pfpi4k_grid

>  <i_i_glide_lignum>  (55) 
20

>  <i_i_glide_rotatable_bonds>  (55) 
1

>  <r_i_docking_score>  (55) 
-5.01744

>  <r_i_glide_ligand_efficiency>  (55) 
-0.295143

>  <r_i_glide_ligand_efficiency_sa>  (55) 
-0.758897

>  <r_i_glide_ligand_efficiency_ln>  (55) 
-1.30894

>  <r_i_glide_gscore>  (55) 
-5.01744

>  <r_i_glide_lipo>  (55) 
-2.05649

>  <r_i_glide_hbond>  (55) 
0

>  <r_i_glide_metal>  (55) 
-0

>  <r_i_glide_rewards>  (55) 
-2.02974

>  <r_i_glide_evdw>  (55) 
-23.0026

>  <r_i_glide_ecoul>  (55) 
-0.415459

>  <r_i_glide_erotb>  (55) 
0.28124

>  <r_i_glide_esite>  (55) 
0

>  <r_i_glide_emodel>  (55) 
-34.0628

>  <r_i_glide_energy>  (55) 
-23.418

>  <r_i_glide_einternal>  (55) 
0.0383686

>  <r_i_glide_intrahb_reward>  (55) 
-0

>  <i_i_glide_confnum>  (55) 
5

>  <i_i_glide_posenum>  (55) 
8

>  <r_i_glide_eff_state_penalty>  (55) 
0

>  <ligand_id>  (55) 
13

>  <original_smiles>  (55) 
Cc1nc(N2CCCCC2)c2nc(C)sc2n1

>  <smiles>  (55) 
[H][n+]1c(C([H])([H])[H])nc(N2C([H])([H])C([H])([H])C([H])([H])C([H])([H])C2([H])[H])c2nc(C([H])([H])[H])sc21

$$$$
13:1:2
     RDKit          3D

 34 36  0  0  1  0  0  0  0  0999 V2000
    7.4025   -5.7700    0.9135 C   0  0  0  0  0  0  0  0  0  0  0  0
    5.8833   -5.7186    0.8358 C   0  0  0  0  0  0  0  0  0  0  0  0
    5.3076   -4.6882    0.1981 N   0  0  0  0  0  0  0  0  0  0  0  0
    3.9603   -4.5793    0.0573 C   0  0  0  0  0  0  0  0  0  0  0  0
    3.4454   -3.4735   -0.6467 N   0  0  0  0  0  0  0  0  0  0  0  0
    4.0218   -2.1414   -0.5060 C   0  0  0  0  0  0  0  0  0  0  0  0
    4.3166   -1.5548   -1.8965 C   0  0  0  0  0  0  0  0  0  0  0  0
    3.0684   -1.6137   -2.8021 C   0  0  0  0  0  0  0  0  0  0  0  0
    2.4918   -3.0394   -2.8697 C   0  0  0  0  0  0  0  0  0  0  0  0
    2.2338   -3.5836   -1.4592 C   0  0  0  0  0  0  0  0  0  0  0  0
    3.1411   -5.5813    0.6408 C   0  0  0  0  0  0  0  0  0  0  0  0
    1.7568   -5.6666    0.6851 N   0  0  0  0  0  0  0  0  0  0  0  0
    1.3701   -6.7696    1.3236 C   0  0  0  0  0  0  0  0  0  0  0  0
   -0.0790   -7.0760    1.4622 C   0  0  0  0  0  0  0  0  0  0  0  0
    2.6704   -7.7925    1.9632 S   0  0  0  0  0  0  0  0  0  0  0  0
    3.8212   -6.6338    1.2944 C   0  0  0  0  0  0  0  0  0  0  0  0
    5.1733   -6.7068    1.3895 N   0  0  0  0  0  0  0  0  0  0  0  0
    7.8634   -4.9187    0.4102 H   0  0  0  0  0  0  0  0  0  0  0  0
    7.7858   -6.6773    0.4490 H   0  0  0  0  0  0  0  0  0  0  0  0
    7.7310   -5.7656    1.9509 H   0  0  0  0  0  0  0  0  0  0  0  0
    3.2972   -1.5089    0.0102 H   0  0  0  0  0  0  0  0  0  0  0  0
    4.9190   -2.1491    0.1128 H   0  0  0  0  0  0  0  0  0  0  0  0
    4.6619   -0.5214   -1.8058 H   0  0  0  0  0  0  0  0  0  0  0  0
    5.1213   -2.1293   -2.3557 H   0  0  0  0  0  0  0  0  0  0  0  0
    2.3094   -0.9388   -2.4067 H   0  0  0  0  0  0  0  0  0  0  0  0
    3.3042   -1.2685   -3.8076 H   0  0  0  0  0  0  0  0  0  0  0  0
    1.5622   -3.0490   -3.4447 H   0  0  0  0  0  0  0  0  0  0  0  0
    3.1887   -3.7046   -3.3797 H   0  0  0  0  0  0  0  0  0  0  0  0
    1.8885   -4.6109   -1.5395 H   0  0  0  0  0  0  0  0  0  0  0  0
    1.4205   -3.0563   -0.9760 H   0  0  0  0  0  0  0  0  0  0  0  0
   -0.6490   -6.2963    0.9620 H   0  0  0  0  0  0  0  0  0  0  0  0
   -0.3710   -7.1090    2.5114 H   0  0  0  0  0  0  0  0  0  0  0  0
   -0.3310   -8.0138    0.9743 H   0  0  0  0  0  0  0  0  0  0  0  0
    5.6132   -7.4851    1.8817 H   0  0  0  0  0  0  0  0  0  0  0  0
  1  2  1  0
  1 18  1  0
  1 19  1  0
  1 20  1  0
  2 17  2  0
  2  3  1  0
  3  4  2  0
  4  5  1  0
  4 11  1  0
  5 10  1  0
  5  6  1  0
  6  7  1  0
  6 21  1  0
  6 22  1  0
  7  8  1  0
  7 23  1  0
  7 24  1  0
  8  9  1  0
  8 25  1  0
  8 26  1  0
  9 10  1  0
  9 27  1  0
  9 28  1  0
 10 29  1  0
 10 30  1  0
 11 16  2  0
 11 12  1  0
 12 13  2  0
 13 14  1  0
 13 15  1  0
 14 31  1  0
 14 32  1  0
 14 33  1  0
 15 16  1  0
 16 17  1  0
 17 34  1  0
M  CHG  1  17   1
M  END
>  <i_m_ct_stereo_status>  (56) 
1

>  <s_m_source_file>  (56) 
/var/tmp/pbs.5102264.sched01/tmpu94zaw8c/01d2njlry.sdf

>  <i_m_source_file_index>  (56) 
20

>  <i_lp_mmshare_version>  (56) 
48012

>  <i_f3d_flags>  (56) 
0

>  <s_epik_input>  (56) 
bjFjKFtDSDNdKXNjKGMxMiluYyhbQ0gzXSluYzJOM1tDSDJdW0NIMl1bQ0gyXVtDSDJdW0NIMl0z

>  <s_epik_cmdline>  (56) 
J2VwaWtfcHl0aG9uJywgJy1waHQnLCAnMi4wJywgJy1waCcsICc3LjAnLCAnLXRuJywgJzgnLCAnLW1hJywgJzIwMCcsICctaW1hZScsICc8aW5maWxlLm1hZT4nLCAnLW9tYWUnLCAnPG91dGZpbGUubWFlPic=

>  <r_epik_Ionization_Penalty>  (56) 
1.20692

>  <r_epik_Ionization_Penalty_Charging>  (56) 
1.20692

>  <r_epik_Ionization_Penalty_Neutral>  (56) 
2.29872e-12

>  <r_epik_State_Penalty>  (56) 
1.27302

>  <r_epik_Charging_Adjusted_Penalty>  (56) 
2.47994

>  <i_epik_Tot_Q>  (56) 
1

>  <i_epik_Tot_abs_Q>  (56) 
1

>  <s_lp_Force_Field>  (56) 
OPLS3e

>  <r_lp_Energy>  (56) 
33.0707

>  <b_lp_Chiralities_Consistent>  (56) 
1

>  <s_lp_Variant>  (56) 
13:0-2

>  <s_i_glide_gridfile>  (56) 
pfpi4k_grid

>  <i_i_glide_lignum>  (56) 
20

>  <i_i_glide_rotatable_bonds>  (56) 
1

>  <r_i_docking_score>  (56) 
-3.43888

>  <r_i_glide_ligand_efficiency>  (56) 
-0.202287

>  <r_i_glide_ligand_efficiency_sa>  (56) 
-0.520137

>  <r_i_glide_ligand_efficiency_ln>  (56) 
-0.897127

>  <r_i_glide_gscore>  (56) 
-3.43888

>  <r_i_glide_lipo>  (56) 
-0.264888

>  <r_i_glide_hbond>  (56) 
-0.107945

>  <r_i_glide_metal>  (56) 
-0

>  <r_i_glide_rewards>  (56) 
-1.89431

>  <r_i_glide_evdw>  (56) 
-20.013

>  <r_i_glide_ecoul>  (56) 
-3.01551

>  <r_i_glide_erotb>  (56) 
0.28124

>  <r_i_glide_esite>  (56) 
0

>  <r_i_glide_emodel>  (56) 
-30.2617

>  <r_i_glide_energy>  (56) 
-23.0285

>  <r_i_glide_einternal>  (56) 
0.00692211

>  <r_i_glide_intrahb_reward>  (56) 
-0

>  <i_i_glide_confnum>  (56) 
1

>  <i_i_glide_posenum>  (56) 
5

>  <r_i_glide_eff_state_penalty>  (56) 
0

>  <ligand_id>  (56) 
13

>  <original_smiles>  (56) 
Cc1nc(N2CCCCC2)c2nc(C)sc2n1

>  <smiles>  (56) 
[H][n+]1c(C([H])([H])[H])nc(N2C([H])([H])C([H])([H])C([H])([H])C([H])([H])C2([H])[H])c2nc(C([H])([H])[H])sc21

$$$$
14:0:0
     RDKit          3D

 35 37  0  0  1  0  0  0  0  0999 V2000
    9.4119   -3.4597   -0.3173 O   0  0  0  0  0  0  0  0  0  0  0  0
    8.0423   -3.2520   -0.6001 C   0  0  0  0  0  0  0  0  0  0  0  0
    7.3932   -2.4675    0.5464 C   0  0  0  0  0  0  0  0  0  0  0  0
    5.9446   -2.0479    0.2525 C   0  0  0  0  0  0  0  0  0  0  0  0
    5.0561   -3.1909    0.1127 N   0  0  0  0  0  0  0  0  0  0  0  0
    4.4768   -3.7992    1.2332 C   0  0  0  0  0  0  0  0  0  0  0  0
    4.9984   -3.6031    2.4642 N   0  0  0  0  0  0  0  0  0  0  0  0
    4.4729   -4.2503    3.5011 C   0  0  0  0  0  0  0  0  0  0  0  0
    3.4342   -5.0819    3.5275 N   0  0  0  0  0  0  0  0  0  0  0  0
    2.8763   -5.2327    2.2921 C   0  0  0  0  0  0  0  0  0  0  0  0
    3.3475   -4.6280    1.1018 C   0  0  0  0  0  0  0  0  0  0  0  0
    2.4614   -5.0567    0.0777 C   0  0  0  0  0  0  0  0  0  0  0  0
    1.5373   -5.8550    0.5384 N   0  0  0  0  0  0  0  0  0  0  0  0
    1.7418   -5.9535    1.8884 N   0  0  0  0  0  0  0  0  0  0  0  0
    0.8314   -6.7217    2.6755 C   0  0  0  0  0  0  0  0  0  0  0  0
    0.7326   -6.5379    4.0788 C   0  0  0  0  0  0  0  0  0  0  0  0
   -0.1792   -7.2895    4.8419 C   0  0  0  0  0  0  0  0  0  0  0  0
   -1.0246   -8.2294    4.2215 C   0  0  0  0  0  0  0  0  0  0  0  0
   -0.9408   -8.4239    2.8272 C   0  0  0  0  0  0  0  0  0  0  0  0
   -0.0192   -7.6777    2.0596 C   0  0  0  0  0  0  0  0  0  0  0  0
    9.9285   -3.0145   -1.0049 H   0  0  0  0  0  0  0  0  0  0  0  0
    7.9524   -2.7171   -1.5449 H   0  0  0  0  0  0  0  0  0  0  0  0
    7.5612   -4.2251   -0.6954 H   0  0  0  0  0  0  0  0  0  0  0  0
    7.4279   -3.0721    1.4525 H   0  0  0  0  0  0  0  0  0  0  0  0
    7.9722   -1.5707    0.7605 H   0  0  0  0  0  0  0  0  0  0  0  0
    5.5680   -1.3787    1.0329 H   0  0  0  0  0  0  0  0  0  0  0  0
    5.9109   -1.4960   -0.6874 H   0  0  0  0  0  0  0  0  0  0  0  0
    4.9594   -4.0810    4.4499 H   0  0  0  0  0  0  0  0  0  0  0  0
    2.4616   -4.7693   -0.9660 H   0  0  0  0  0  0  0  0  0  0  0  0
    1.3357   -5.8221    4.6140 H   0  0  0  0  0  0  0  0  0  0  0  0
   -0.2137   -7.1299    5.9090 H   0  0  0  0  0  0  0  0  0  0  0  0
   -1.7237   -8.8039    4.8159 H   0  0  0  0  0  0  0  0  0  0  0  0
   -1.5778   -9.1511    2.3451 H   0  0  0  0  0  0  0  0  0  0  0  0
    0.0259   -7.8552    0.9916 H   0  0  0  0  0  0  0  0  0  0  0  0
    4.6783   -3.4081   -0.7969 H   0  0  0  0  0  0  0  0  0  0  0  0
  1  2  1  0
  1 21  1  0
  2  3  1  0
  2 22  1  0
  2 23  1  0
  3  4  1  0
  3 24  1  0
  3 25  1  0
  4  5  1  0
  4 26  1  0
  4 27  1  0
  5  6  1  0
  5 35  1  0
  6 11  2  0
  6  7  1  0
  7  8  2  0
  8  9  1  0
  8 28  1  0
  9 10  2  0
 10 14  1  0
 10 11  1  0
 11 12  1  0
 12 13  2  0
 12 29  1  0
 13 14  1  0
 14 15  1  0
 15 20  1  0
 15 16  2  0
 16 17  1  0
 16 30  1  0
 17 18  2  0
 17 31  1  0
 18 19  1  0
 18 32  1  0
 19 20  2  0
 19 33  1  0
 20 34  1  0
M  END
>  <i_m_ct_stereo_status>  (57) 
1

>  <s_m_source_file>  (57) 
/var/tmp/pbs.5102264.sched01/tmpu94zaw8c/01d2njlry.sdf

>  <i_m_source_file_index>  (57) 
21

>  <i_lp_mmshare_version>  (57) 
48012

>  <i_f3d_flags>  (57) 
0

>  <s_epik_input>  (57) 
W09IXVtDSDJdW0NIMl1bQ0gyXS9OPWMoL25bY0hdW25IXTEpYyhjMTIpW2NIXW5uMi1jM1tjSF1bY0hdW2NIXVtjSF1bY0hdMw==

>  <s_epik_cmdline>  (57) 
J2VwaWtfcHl0aG9uJywgJy1waHQnLCAnMi4wJywgJy1waCcsICc3LjAnLCAnLXRuJywgJzgnLCAnLW1hJywgJzIwMCcsICctaW1hZScsICc8aW5maWxlLm1hZT4nLCAnLW9tYWUnLCAnPG91dGZpbGUubWFlPic=

>  <r_epik_Ionization_Penalty>  (57) 
0.000560058

>  <r_epik_Ionization_Penalty_Charging>  (57) 
0

>  <r_epik_Ionization_Penalty_Neutral>  (57) 
0.000560058

>  <r_epik_State_Penalty>  (57) 
0.000785269

>  <r_epik_Charging_Adjusted_Penalty>  (57) 
0.000785269

>  <i_epik_Tot_Q>  (57) 
0

>  <i_epik_Tot_abs_Q>  (57) 
0

>  <s_lp_Force_Field>  (57) 
OPLS3e

>  <r_lp_Energy>  (57) 
27.3958

>  <b_lp_Chiralities_Consistent>  (57) 
1

>  <s_lp_Variant>  (57) 
14:0-1

>  <s_i_glide_gridfile>  (57) 
pfpi4k_grid

>  <i_i_glide_lignum>  (57) 
21

>  <i_i_glide_rotatable_bonds>  (57) 
6

>  <r_i_docking_score>  (57) 
-4.01069

>  <r_i_glide_ligand_efficiency>  (57) 
-0.200535

>  <r_i_glide_ligand_efficiency_sa>  (57) 
-0.544335

>  <r_i_glide_ligand_efficiency_ln>  (57) 
-1.00374

>  <r_i_glide_gscore>  (57) 
-4.01069

>  <r_i_glide_lipo>  (57) 
-0.3846

>  <r_i_glide_hbond>  (57) 
-0.469478

>  <r_i_glide_metal>  (57) 
-0

>  <r_i_glide_rewards>  (57) 
-1.58018

>  <r_i_glide_evdw>  (57) 
-18.7275

>  <r_i_glide_ecoul>  (57) 
-9.69171

>  <r_i_glide_erotb>  (57) 
0.862211

>  <r_i_glide_esite>  (57) 
-0.048511

>  <r_i_glide_emodel>  (57) 
-34.0006

>  <r_i_glide_energy>  (57) 
-28.4193

>  <r_i_glide_einternal>  (57) 
4.50043

>  <r_i_glide_intrahb_reward>  (57) 
-0

>  <i_i_glide_confnum>  (57) 
5

>  <i_i_glide_posenum>  (57) 
28

>  <r_i_glide_eff_state_penalty>  (57) 
0

>  <ligand_id>  (57) 
14

>  <original_smiles>  (57) 
OCCCN=c1nc[nH]c2c1cnn2-c1ccccc1

>  <smiles>  (57) 
[H]OC([H])([H])C([H])([H])C([H])([H])N([H])c1nc([H])nc2c1c([H])nn2-c1c([H])c([H])c([H])c([H])c1[H]

$$$$
14:0:1
     RDKit          3D

 35 37  0  0  1  0  0  0  0  0999 V2000
    4.2134   -4.2181   -4.2588 O   0  0  0  0  0  0  0  0  0  0  0  0
    3.5575   -3.1437   -3.6239 C   0  0  0  0  0  0  0  0  0  0  0  0
    4.5979   -2.1571   -3.0948 C   0  0  0  0  0  0  0  0  0  0  0  0
    3.9743   -0.9082   -2.4698 C   0  0  0  0  0  0  0  0  0  0  0  0
    3.4301   -1.2147   -1.1619 N   0  0  0  0  0  0  0  0  0  0  0  0
    4.2098   -1.1388   -0.0085 C   0  0  0  0  0  0  0  0  0  0  0  0
    5.5638   -1.0625   -0.0915 N   0  0  0  0  0  0  0  0  0  0  0  0
    6.2770   -1.0557    1.0341 C   0  0  0  0  0  0  0  0  0  0  0  0
    5.8624   -1.0881    2.2938 N   0  0  0  0  0  0  0  0  0  0  0  0
    4.5000   -1.1409    2.3725 C   0  0  0  0  0  0  0  0  0  0  0  0
    3.6151   -1.1749    1.2707 C   0  0  0  0  0  0  0  0  0  0  0  0
    2.3075   -1.2413    1.8371 C   0  0  0  0  0  0  0  0  0  0  0  0
    2.3514   -1.2686    3.1492 N   0  0  0  0  0  0  0  0  0  0  0  0
    3.6722   -1.1861    3.4923 N   0  0  0  0  0  0  0  0  0  0  0  0
    4.0291   -1.1574    4.8710 C   0  0  0  0  0  0  0  0  0  0  0  0
    5.1515   -0.4158    5.3106 C   0  0  0  0  0  0  0  0  0  0  0  0
    5.4759   -0.3551    6.6809 C   0  0  0  0  0  0  0  0  0  0  0  0
    4.6823   -1.0324    7.6283 C   0  0  0  0  0  0  0  0  0  0  0  0
    3.5663   -1.7783    7.2002 C   0  0  0  0  0  0  0  0  0  0  0  0
    3.2417   -1.8433    5.8294 C   0  0  0  0  0  0  0  0  0  0  0  0
    4.1613   -4.9532   -3.6609 H   0  0  0  0  0  0  0  0  0  0  0  0
    2.8965   -2.6637   -4.3459 H   0  0  0  0  0  0  0  0  0  0  0  0
    2.9451   -3.5312   -2.8093 H   0  0  0  0  0  0  0  0  0  0  0  0
    5.2760   -2.6364   -2.3915 H   0  0  0  0  0  0  0  0  0  0  0  0
    5.2153   -1.8601   -3.9286 H   0  0  0  0  0  0  0  0  0  0  0  0
    4.7000   -0.0953   -2.3937 H   0  0  0  0  0  0  0  0  0  0  0  0
    3.1687   -0.5295   -3.0990 H   0  0  0  0  0  0  0  0  0  0  0  0
    7.3499   -1.0203    0.8971 H   0  0  0  0  0  0  0  0  0  0  0  0
    1.3586   -1.2638    1.3283 H   0  0  0  0  0  0  0  0  0  0  0  0
    5.7615    0.1248    4.6032 H   0  0  0  0  0  0  0  0  0  0  0  0
    6.3266    0.2237    7.0016 H   0  0  0  0  0  0  0  0  0  0  0  0
    4.9226   -0.9724    8.6763 H   0  0  0  0  0  0  0  0  0  0  0  0
    2.9523   -2.2928    7.9226 H   0  0  0  0  0  0  0  0  0  0  0  0
    2.3822   -2.4169    5.5151 H   0  0  0  0  0  0  0  0  0  0  0  0
    2.4020   -1.1791   -1.0655 H   0  0  0  0  0  0  0  0  0  0  0  0
  1  2  1  0
  1 21  1  0
  2  3  1  0
  2 22  1  0
  2 23  1  0
  3  4  1  0
  3 24  1  0
  3 25  1  0
  4  5  1  0
  4 26  1  0
  4 27  1  0
  5  6  1  0
  5 35  1  0
  6 11  2  0
  6  7  1  0
  7  8  2  0
  8  9  1  0
  8 28  1  0
  9 10  2  0
 10 14  1  0
 10 11  1  0
 11 12  1  0
 12 13  2  0
 12 29  1  0
 13 14  1  0
 14 15  1  0
 15 20  1  0
 15 16  2  0
 16 17  1  0
 16 30  1  0
 17 18  2  0
 17 31  1  0
 18 19  1  0
 18 32  1  0
 19 20  2  0
 19 33  1  0
 20 34  1  0
M  END
>  <i_m_ct_stereo_status>  (58) 
1

>  <s_m_source_file>  (58) 
/var/tmp/pbs.5102264.sched01/tmpu94zaw8c/01d2njlry.sdf

>  <i_m_source_file_index>  (58) 
21

>  <i_lp_mmshare_version>  (58) 
48012

>  <i_f3d_flags>  (58) 
0

>  <s_epik_input>  (58) 
W09IXVtDSDJdW0NIMl1bQ0gyXS9OPWMoL25bY0hdW25IXTEpYyhjMTIpW2NIXW5uMi1jM1tjSF1bY0hdW2NIXVtjSF1bY0hdMw==

>  <s_epik_cmdline>  (58) 
J2VwaWtfcHl0aG9uJywgJy1waHQnLCAnMi4wJywgJy1waCcsICc3LjAnLCAnLXRuJywgJzgnLCAnLW1hJywgJzIwMCcsICctaW1hZScsICc8aW5maWxlLm1hZT4nLCAnLW9tYWUnLCAnPG91dGZpbGUubWFlPic=

>  <r_epik_Ionization_Penalty>  (58) 
0.000560058

>  <r_epik_Ionization_Penalty_Charging>  (58) 
0

>  <r_epik_Ionization_Penalty_Neutral>  (58) 
0.000560058

>  <r_epik_State_Penalty>  (58) 
0.000785269

>  <r_epik_Charging_Adjusted_Penalty>  (58) 
0.000785269

>  <i_epik_Tot_Q>  (58) 
0

>  <i_epik_Tot_abs_Q>  (58) 
0

>  <s_lp_Force_Field>  (58) 
OPLS3e

>  <r_lp_Energy>  (58) 
27.3958

>  <b_lp_Chiralities_Consistent>  (58) 
1

>  <s_lp_Variant>  (58) 
14:0-1

>  <s_i_glide_gridfile>  (58) 
pfpi4k_grid

>  <i_i_glide_lignum>  (58) 
21

>  <i_i_glide_rotatable_bonds>  (58) 
6

>  <r_i_docking_score>  (58) 
-3.88212

>  <r_i_glide_ligand_efficiency>  (58) 
-0.194106

>  <r_i_glide_ligand_efficiency_sa>  (58) 
-0.526885

>  <r_i_glide_ligand_efficiency_ln>  (58) 
-0.971567

>  <r_i_glide_gscore>  (58) 
-3.88212

>  <r_i_glide_lipo>  (58) 
-0.363071

>  <r_i_glide_hbond>  (58) 
-0.43101

>  <r_i_glide_metal>  (58) 
-0

>  <r_i_glide_rewards>  (58) 
-1.78185

>  <r_i_glide_evdw>  (58) 
-18.4074

>  <r_i_glide_ecoul>  (58) 
-10.1224

>  <r_i_glide_erotb>  (58) 
1.23173

>  <r_i_glide_esite>  (58) 
-0.0992028

>  <r_i_glide_emodel>  (58) 
-34.1068

>  <r_i_glide_energy>  (58) 
-28.5297

>  <r_i_glide_einternal>  (58) 
3.56951

>  <r_i_glide_intrahb_reward>  (58) 
-0

>  <i_i_glide_confnum>  (58) 
5

>  <i_i_glide_posenum>  (58) 
20

>  <r_i_glide_eff_state_penalty>  (58) 
0

>  <ligand_id>  (58) 
14

>  <original_smiles>  (58) 
OCCCN=c1nc[nH]c2c1cnn2-c1ccccc1

>  <smiles>  (58) 
[H]OC([H])([H])C([H])([H])C([H])([H])N([H])c1nc([H])nc2c1c([H])nn2-c1c([H])c([H])c([H])c([H])c1[H]

$$$$
14:0:2
     RDKit          3D

 35 37  0  0  1  0  0  0  0  0999 V2000
    1.1074   -9.8518    8.4710 O   0  0  0  0  0  0  0  0  0  0  0  0
    0.9527   -9.0656    7.3162 C   0  0  0  0  0  0  0  0  0  0  0  0
    0.4138   -9.9044    6.1492 C   0  0  0  0  0  0  0  0  0  0  0  0
    0.0293   -9.0777    4.9113 C   0  0  0  0  0  0  0  0  0  0  0  0
    1.1812   -8.3818    4.3611 N   0  0  0  0  0  0  0  0  0  0  0  0
    1.1216   -7.6887    3.1478 C   0  0  0  0  0  0  0  0  0  0  0  0
   -0.0069   -7.6968    2.4114 N   0  0  0  0  0  0  0  0  0  0  0  0
   -0.0231   -7.0579    1.2470 C   0  0  0  0  0  0  0  0  0  0  0  0
    0.8979   -6.2587    0.7080 N   0  0  0  0  0  0  0  0  0  0  0  0
    2.0454   -6.2622    1.4556 C   0  0  0  0  0  0  0  0  0  0  0  0
    2.2271   -6.9476    2.6857 C   0  0  0  0  0  0  0  0  0  0  0  0
    3.5585   -6.6453    3.1046 C   0  0  0  0  0  0  0  0  0  0  0  0
    4.1663   -5.8652    2.2471 N   0  0  0  0  0  0  0  0  0  0  0  0
    3.2694   -5.6102    1.2479 N   0  0  0  0  0  0  0  0  0  0  0  0
    3.6603   -4.7546    0.1793 C   0  0  0  0  0  0  0  0  0  0  0  0
    2.7188   -3.9118   -0.4512 C   0  0  0  0  0  0  0  0  0  0  0  0
    3.0994   -3.0409   -1.4875 C   0  0  0  0  0  0  0  0  0  0  0  0
    4.4411   -2.9965   -1.9085 C   0  0  0  0  0  0  0  0  0  0  0  0
    5.3938   -3.8292   -1.2872 C   0  0  0  0  0  0  0  0  0  0  0  0
    5.0096   -4.7081   -0.2508 C   0  0  0  0  0  0  0  0  0  0  0  0
    1.3395  -10.7601    8.2001 H   0  0  0  0  0  0  0  0  0  0  0  0
    0.2726   -8.2439    7.5444 H   0  0  0  0  0  0  0  0  0  0  0  0
    1.9243   -8.6425    7.0622 H   0  0  0  0  0  0  0  0  0  0  0  0
    1.1481  -10.6625    5.8747 H   0  0  0  0  0  0  0  0  0  0  0  0
   -0.4646  -10.4513    6.4862 H   0  0  0  0  0  0  0  0  0  0  0  0
   -0.3919   -9.7426    4.1530 H   0  0  0  0  0  0  0  0  0  0  0  0
   -0.7372   -8.3488    5.1774 H   0  0  0  0  0  0  0  0  0  0  0  0
   -0.9435   -7.1467    0.7006 H   0  0  0  0  0  0  0  0  0  0  0  0
    4.0692   -6.9505    4.0049 H   0  0  0  0  0  0  0  0  0  0  0  0
    1.6929   -3.9350   -0.1502 H   0  0  0  0  0  0  0  0  0  0  0  0
    2.3515   -2.4116   -1.9444 H   0  0  0  0  0  0  0  0  0  0  0  0
    4.7320   -2.3240   -2.6983 H   0  0  0  0  0  0  0  0  0  0  0  0
    6.4224   -3.7983   -1.6046 H   0  0  0  0  0  0  0  0  0  0  0  0
    5.7468   -5.3499    0.2103 H   0  0  0  0  0  0  0  0  0  0  0  0
    2.0400   -8.3788    4.8890 H   0  0  0  0  0  0  0  0  0  0  0  0
  1  2  1  0
  1 21  1  0
  2  3  1  0
  2 22  1  0
  2 23  1  0
  3  4  1  0
  3 24  1  0
  3 25  1  0
  4  5  1  0
  4 26  1  0
  4 27  1  0
  5  6  1  0
  5 35  1  0
  6 11  2  0
  6  7  1  0
  7  8  2  0
  8  9  1  0
  8 28  1  0
  9 10  2  0
 10 14  1  0
 10 11  1  0
 11 12  1  0
 12 13  2  0
 12 29  1  0
 13 14  1  0
 14 15  1  0
 15 20  1  0
 15 16  2  0
 16 17  1  0
 16 30  1  0
 17 18  2  0
 17 31  1  0
 18 19  1  0
 18 32  1  0
 19 20  2  0
 19 33  1  0
 20 34  1  0
M  END
>  <i_m_ct_stereo_status>  (59) 
1

>  <s_m_source_file>  (59) 
/var/tmp/pbs.5102264.sched01/tmpu94zaw8c/01d2njlry.sdf

>  <i_m_source_file_index>  (59) 
21

>  <i_lp_mmshare_version>  (59) 
48012

>  <i_f3d_flags>  (59) 
0

>  <s_epik_input>  (59) 
W09IXVtDSDJdW0NIMl1bQ0gyXS9OPWMoL25bY0hdW25IXTEpYyhjMTIpW2NIXW5uMi1jM1tjSF1bY0hdW2NIXVtjSF1bY0hdMw==

>  <s_epik_cmdline>  (59) 
J2VwaWtfcHl0aG9uJywgJy1waHQnLCAnMi4wJywgJy1waCcsICc3LjAnLCAnLXRuJywgJzgnLCAnLW1hJywgJzIwMCcsICctaW1hZScsICc8aW5maWxlLm1hZT4nLCAnLW9tYWUnLCAnPG91dGZpbGUubWFlPic=

>  <r_epik_Ionization_Penalty>  (59) 
0.000560058

>  <r_epik_Ionization_Penalty_Charging>  (59) 
0

>  <r_epik_Ionization_Penalty_Neutral>  (59) 
0.000560058

>  <r_epik_State_Penalty>  (59) 
0.000785269

>  <r_epik_Charging_Adjusted_Penalty>  (59) 
0.000785269

>  <i_epik_Tot_Q>  (59) 
0

>  <i_epik_Tot_abs_Q>  (59) 
0

>  <s_lp_Force_Field>  (59) 
OPLS3e

>  <r_lp_Energy>  (59) 
27.3958

>  <b_lp_Chiralities_Consistent>  (59) 
1

>  <s_lp_Variant>  (59) 
14:0-1

>  <s_i_glide_gridfile>  (59) 
pfpi4k_grid

>  <i_i_glide_lignum>  (59) 
21

>  <i_i_glide_rotatable_bonds>  (59) 
6

>  <r_i_docking_score>  (59) 
-3.16818

>  <r_i_glide_ligand_efficiency>  (59) 
-0.158409

>  <r_i_glide_ligand_efficiency_sa>  (59) 
-0.429988

>  <r_i_glide_ligand_efficiency_ln>  (59) 
-0.792891

>  <r_i_glide_gscore>  (59) 
-3.16818

>  <r_i_glide_lipo>  (59) 
-0.0655977

>  <r_i_glide_hbond>  (59) 
-0.32

>  <r_i_glide_metal>  (59) 
-0

>  <r_i_glide_rewards>  (59) 
-1.58455

>  <r_i_glide_evdw>  (59) 
-19.9396

>  <r_i_glide_ecoul>  (59) 
-8.59431

>  <r_i_glide_erotb>  (59) 
1.23173

>  <r_i_glide_esite>  (59) 
-0.143639

>  <r_i_glide_emodel>  (59) 
-33.2539

>  <r_i_glide_energy>  (59) 
-28.5339

>  <r_i_glide_einternal>  (59) 
2.96765

>  <r_i_glide_intrahb_reward>  (59) 
-0

>  <i_i_glide_confnum>  (59) 
5

>  <i_i_glide_posenum>  (59) 
2

>  <r_i_glide_eff_state_penalty>  (59) 
0

>  <ligand_id>  (59) 
14

>  <original_smiles>  (59) 
OCCCN=c1nc[nH]c2c1cnn2-c1ccccc1

>  <smiles>  (59) 
[H]OC([H])([H])C([H])([H])C([H])([H])N([H])c1nc([H])nc2c1c([H])nn2-c1c([H])c([H])c([H])c([H])c1[H]

$$$$
15:0:0
     RDKit          3D

 19 20  0  0  1  0  0  0  0  0999 V2000
   -6.8742   -8.2713   -7.3796 C   0  0  0  0  0  0  0  0  0  0  0  0
   -7.0728   -7.0021   -6.5711 C   0  0  0  0  0  0  0  0  0  0  0  0
   -6.1983   -6.7271   -5.4999 C   0  0  0  0  0  0  0  0  0  0  0  0
   -6.3552   -5.5577   -4.7364 C   0  0  0  0  0  0  0  0  0  0  0  0
   -7.3942   -4.6575   -5.0296 C   0  0  0  0  0  0  0  0  0  0  0  0
   -8.2692   -4.9322   -6.0981 C   0  0  0  0  0  0  0  0  0  0  0  0
   -9.3236   -4.0579   -6.4323 C   0  0  0  0  0  0  0  0  0  0  0  0
  -10.1539   -4.3164   -7.4606 N   0  0  0  0  0  0  0  0  0  0  0  0
   -9.9494   -5.4567   -8.1215 C   0  0  0  0  0  0  0  0  0  0  0  0
   -8.9769   -6.3400   -7.9092 N   0  0  0  0  0  0  0  0  0  0  0  0
   -8.1223   -6.1039   -6.8883 C   0  0  0  0  0  0  0  0  0  0  0  0
   -6.0277   -8.8542   -7.0158 H   0  0  0  0  0  0  0  0  0  0  0  0
   -6.6914   -8.0273   -8.4263 H   0  0  0  0  0  0  0  0  0  0  0  0
   -7.7647   -8.8978   -7.3214 H   0  0  0  0  0  0  0  0  0  0  0  0
   -5.3957   -7.4094   -5.2576 H   0  0  0  0  0  0  0  0  0  0  0  0
   -5.6798   -5.3522   -3.9227 H   0  0  0  0  0  0  0  0  0  0  0  0
   -7.5066   -3.7635   -4.4315 H   0  0  0  0  0  0  0  0  0  0  0  0
   -9.5031   -3.1427   -5.8848 H   0  0  0  0  0  0  0  0  0  0  0  0
  -10.6137   -5.6619   -8.9471 H   0  0  0  0  0  0  0  0  0  0  0  0
  1  2  1  0
  1 12  1  0
  1 13  1  0
  1 14  1  0
  2 11  2  0
  2  3  1  0
  3  4  2  0
  3 15  1  0
  4  5  1  0
  4 16  1  0
  5  6  2  0
  5 17  1  0
  6 11  1  0
  6  7  1  0
  7  8  2  0
  7 18  1  0
  8  9  1  0
  9 10  2  0
  9 19  1  0
 10 11  1  0
M  END
>  <i_m_ct_stereo_status>  (60) 
1

>  <s_m_source_file>  (60) 
/var/tmp/pbs.5102264.sched01/tmpu94zaw8c/01d2njlry.sdf

>  <i_m_source_file_index>  (60) 
22

>  <i_lp_mmshare_version>  (60) 
48012

>  <i_f3d_flags>  (60) 
0

>  <s_epik_input>  (60) 
W2NIXTFbY0hdW2NIXWMoW0NIM10pYyhjMTIpbltjSF1uW2NIXTI=

>  <s_epik_cmdline>  (60) 
J2VwaWtfcHl0aG9uJywgJy1waHQnLCAnMi4wJywgJy1waCcsICc3LjAnLCAnLXRuJywgJzgnLCAnLW1hJywgJzIwMCcsICctaW1hZScsICc8aW5maWxlLm1hZT4nLCAnLW9tYWUnLCAnPG91dGZpbGUubWFlPic=

>  <r_lp_tautomer_probability>  (60) 
1

>  <r_epik_Ionization_Penalty>  (60) 
0.000110517

>  <r_epik_Ionization_Penalty_Charging>  (60) 
0

>  <r_epik_Ionization_Penalty_Neutral>  (60) 
0.000110517

>  <r_epik_State_Penalty>  (60) 
-0

>  <r_epik_Charging_Adjusted_Penalty>  (60) 
0

>  <i_epik_Tot_Q>  (60) 
0

>  <i_epik_Tot_abs_Q>  (60) 
0

>  <s_epik_Chemistry_Notes>  (60) 
This compound contains an electron-poor aromatic ring that is susceptible to covalent hydrolysis at low pH, typically resulting in measured values for nitrogen ring protonation that are around two units higher than predicted values.

>  <s_lp_Force_Field>  (60) 
OPLS3e

>  <r_lp_Energy>  (60) 
22.3111

>  <b_lp_Chiralities_Consistent>  (60) 
1

>  <s_lp_Variant>  (60) 
15:0-1

>  <s_i_glide_gridfile>  (60) 
pfpi4k_grid

>  <i_i_glide_lignum>  (60) 
22

>  <i_i_glide_rotatable_bonds>  (60) 
0

>  <r_i_docking_score>  (60) 
-6.30752

>  <r_i_glide_ligand_efficiency>  (60) 
-0.573411

>  <r_i_glide_ligand_efficiency_sa>  (60) 
-1.27525

>  <r_i_glide_ligand_efficiency_ln>  (60) 
-1.8563

>  <r_i_glide_gscore>  (60) 
-6.30752

>  <r_i_glide_lipo>  (60) 
-2.20621

>  <r_i_glide_hbond>  (60) 
0

>  <r_i_glide_metal>  (60) 
-0

>  <r_i_glide_rewards>  (60) 
-2.91811

>  <r_i_glide_evdw>  (60) 
-20.3234

>  <r_i_glide_ecoul>  (60) 
-1.11353

>  <r_i_glide_erotb>  (60) 
0

>  <r_i_glide_esite>  (60) 
0

>  <r_i_glide_emodel>  (60) 
-30.0119

>  <r_i_glide_energy>  (60) 
-21.4369

>  <r_i_glide_einternal>  (60) 
0

>  <r_i_glide_intrahb_reward>  (60) 
-0

>  <i_i_glide_confnum>  (60) 
1

>  <i_i_glide_posenum>  (60) 
1

>  <r_i_glide_eff_state_penalty>  (60) 
0

>  <ligand_id>  (60) 
15

>  <original_smiles>  (60) 
Cc1cccc2cncnc12

>  <smiles>  (60) 
[H]c1nc([H])c2c([H])c([H])c([H])c(C([H])([H])[H])c2n1

$$$$
15:0:1
     RDKit          3D

 19 20  0  0  1  0  0  0  0  0999 V2000
   -9.3055   -5.0512   -7.3481 C   0  0  0  0  0  0  0  0  0  0  0  0
   -8.1985   -5.4185   -6.3738 C   0  0  0  0  0  0  0  0  0  0  0  0
   -7.9884   -4.6089   -5.2381 C   0  0  0  0  0  0  0  0  0  0  0  0
   -6.9715   -4.9202   -4.3191 C   0  0  0  0  0  0  0  0  0  0  0  0
   -6.1625   -6.0505   -4.5241 C   0  0  0  0  0  0  0  0  0  0  0  0
   -6.3731   -6.8625   -5.6561 C   0  0  0  0  0  0  0  0  0  0  0  0
   -5.5826   -8.0021   -5.9072 C   0  0  0  0  0  0  0  0  0  0  0  0
   -5.7772   -8.7718   -6.9962 N   0  0  0  0  0  0  0  0  0  0  0  0
   -6.7621   -8.4082   -7.8156 C   0  0  0  0  0  0  0  0  0  0  0  0
   -7.5682   -7.3573   -7.6782 N   0  0  0  0  0  0  0  0  0  0  0  0
   -7.3919   -6.5615   -6.5985 C   0  0  0  0  0  0  0  0  0  0  0  0
   -9.8387   -4.1529   -7.0353 H   0  0  0  0  0  0  0  0  0  0  0  0
  -10.0310   -5.8619   -7.4217 H   0  0  0  0  0  0  0  0  0  0  0  0
   -8.8888   -4.8710   -8.3392 H   0  0  0  0  0  0  0  0  0  0  0  0
   -8.6083   -3.7420   -5.0605 H   0  0  0  0  0  0  0  0  0  0  0  0
   -6.8253   -4.2952   -3.4496 H   0  0  0  0  0  0  0  0  0  0  0  0
   -5.3874   -6.2882   -3.8098 H   0  0  0  0  0  0  0  0  0  0  0  0
   -4.7857   -8.3019   -5.2415 H   0  0  0  0  0  0  0  0  0  0  0  0
   -6.9219   -9.0261   -8.6858 H   0  0  0  0  0  0  0  0  0  0  0  0
  1  2  1  0
  1 12  1  0
  1 13  1  0
  1 14  1  0
  2 11  2  0
  2  3  1  0
  3  4  2  0
  3 15  1  0
  4  5  1  0
  4 16  1  0
  5  6  2  0
  5 17  1  0
  6 11  1  0
  6  7  1  0
  7  8  2  0
  7 18  1  0
  8  9  1  0
  9 10  2  0
  9 19  1  0
 10 11  1  0
M  END
>  <i_m_ct_stereo_status>  (61) 
1

>  <s_m_source_file>  (61) 
/var/tmp/pbs.5102264.sched01/tmpu94zaw8c/01d2njlry.sdf

>  <i_m_source_file_index>  (61) 
22

>  <i_lp_mmshare_version>  (61) 
48012

>  <i_f3d_flags>  (61) 
0

>  <s_epik_input>  (61) 
W2NIXTFbY0hdW2NIXWMoW0NIM10pYyhjMTIpbltjSF1uW2NIXTI=

>  <s_epik_cmdline>  (61) 
J2VwaWtfcHl0aG9uJywgJy1waHQnLCAnMi4wJywgJy1waCcsICc3LjAnLCAnLXRuJywgJzgnLCAnLW1hJywgJzIwMCcsICctaW1hZScsICc8aW5maWxlLm1hZT4nLCAnLW9tYWUnLCAnPG91dGZpbGUubWFlPic=

>  <r_lp_tautomer_probability>  (61) 
1

>  <r_epik_Ionization_Penalty>  (61) 
0.000110517

>  <r_epik_Ionization_Penalty_Charging>  (61) 
0

>  <r_epik_Ionization_Penalty_Neutral>  (61) 
0.000110517

>  <r_epik_State_Penalty>  (61) 
-0

>  <r_epik_Charging_Adjusted_Penalty>  (61) 
0

>  <i_epik_Tot_Q>  (61) 
0

>  <i_epik_Tot_abs_Q>  (61) 
0

>  <s_epik_Chemistry_Notes>  (61) 
This compound contains an electron-poor aromatic ring that is susceptible to covalent hydrolysis at low pH, typically resulting in measured values for nitrogen ring protonation that are around two units higher than predicted values.

>  <s_lp_Force_Field>  (61) 
OPLS3e

>  <r_lp_Energy>  (61) 
22.3111

>  <b_lp_Chiralities_Consistent>  (61) 
1

>  <s_lp_Variant>  (61) 
15:0-1

>  <s_i_glide_gridfile>  (61) 
pfpi4k_grid

>  <i_i_glide_lignum>  (61) 
22

>  <i_i_glide_rotatable_bonds>  (61) 
0

>  <r_i_docking_score>  (61) 
-6.29327

>  <r_i_glide_ligand_efficiency>  (61) 
-0.572115

>  <r_i_glide_ligand_efficiency_sa>  (61) 
-1.27237

>  <r_i_glide_ligand_efficiency_ln>  (61) 
-1.85211

>  <r_i_glide_gscore>  (61) 
-6.29327

>  <r_i_glide_lipo>  (61) 
-2.23201

>  <r_i_glide_hbond>  (61) 
0

>  <r_i_glide_metal>  (61) 
-0

>  <r_i_glide_rewards>  (61) 
-2.99133

>  <r_i_glide_evdw>  (61) 
-20.8221

>  <r_i_glide_ecoul>  (61) 
-0.192149

>  <r_i_glide_erotb>  (61) 
0

>  <r_i_glide_esite>  (61) 
0

>  <r_i_glide_emodel>  (61) 
-29.5713

>  <r_i_glide_energy>  (61) 
-21.0143

>  <r_i_glide_einternal>  (61) 
0

>  <r_i_glide_intrahb_reward>  (61) 
-0

>  <i_i_glide_confnum>  (61) 
1

>  <i_i_glide_posenum>  (61) 
2

>  <r_i_glide_eff_state_penalty>  (61) 
0

>  <ligand_id>  (61) 
15

>  <original_smiles>  (61) 
Cc1cccc2cncnc12

>  <smiles>  (61) 
[H]c1nc([H])c2c([H])c([H])c([H])c(C([H])([H])[H])c2n1

$$$$
15:0:2
     RDKit          3D

 19 20  0  0  1  0  0  0  0  0999 V2000
   -9.4737   -3.5080   -5.9628 C   0  0  0  0  0  0  0  0  0  0  0  0
   -8.4399   -4.6196   -5.8958 C   0  0  0  0  0  0  0  0  0  0  0  0
   -7.5302   -4.6546   -4.8174 C   0  0  0  0  0  0  0  0  0  0  0  0
   -6.5678   -5.6761   -4.7225 C   0  0  0  0  0  0  0  0  0  0  0  0
   -6.5097   -6.6780   -5.7053 C   0  0  0  0  0  0  0  0  0  0  0  0
   -7.4142   -6.6423   -6.7835 C   0  0  0  0  0  0  0  0  0  0  0  0
   -7.3920   -7.6211   -7.7969 C   0  0  0  0  0  0  0  0  0  0  0  0
   -8.2543   -7.5900   -8.8301 N   0  0  0  0  0  0  0  0  0  0  0  0
   -9.1345   -6.5905   -8.8442 C   0  0  0  0  0  0  0  0  0  0  0  0
   -9.2386   -5.6060   -7.9534 N   0  0  0  0  0  0  0  0  0  0  0  0
   -8.3887   -5.6146   -6.9006 C   0  0  0  0  0  0  0  0  0  0  0  0
   -9.3842   -2.8211   -5.1223 H   0  0  0  0  0  0  0  0  0  0  0  0
  -10.4822   -3.9221   -5.9524 H   0  0  0  0  0  0  0  0  0  0  0  0
   -9.3515   -2.9369   -6.8817 H   0  0  0  0  0  0  0  0  0  0  0  0
   -7.5685   -3.8946   -4.0524 H   0  0  0  0  0  0  0  0  0  0  0  0
   -5.8781   -5.6909   -3.8913 H   0  0  0  0  0  0  0  0  0  0  0  0
   -5.7695   -7.4613   -5.6325 H   0  0  0  0  0  0  0  0  0  0  0  0
   -6.6768   -8.4314   -7.7894 H   0  0  0  0  0  0  0  0  0  0  0  0
   -9.8290   -6.5727   -9.6708 H   0  0  0  0  0  0  0  0  0  0  0  0
  1  2  1  0
  1 12  1  0
  1 13  1  0
  1 14  1  0
  2 11  2  0
  2  3  1  0
  3  4  2  0
  3 15  1  0
  4  5  1  0
  4 16  1  0
  5  6  2  0
  5 17  1  0
  6 11  1  0
  6  7  1  0
  7  8  2  0
  7 18  1  0
  8  9  1  0
  9 10  2  0
  9 19  1  0
 10 11  1  0
M  END
>  <i_m_ct_stereo_status>  (62) 
1

>  <s_m_source_file>  (62) 
/var/tmp/pbs.5102264.sched01/tmpu94zaw8c/01d2njlry.sdf

>  <i_m_source_file_index>  (62) 
22

>  <i_lp_mmshare_version>  (62) 
48012

>  <i_f3d_flags>  (62) 
0

>  <s_epik_input>  (62) 
W2NIXTFbY0hdW2NIXWMoW0NIM10pYyhjMTIpbltjSF1uW2NIXTI=

>  <s_epik_cmdline>  (62) 
J2VwaWtfcHl0aG9uJywgJy1waHQnLCAnMi4wJywgJy1waCcsICc3LjAnLCAnLXRuJywgJzgnLCAnLW1hJywgJzIwMCcsICctaW1hZScsICc8aW5maWxlLm1hZT4nLCAnLW9tYWUnLCAnPG91dGZpbGUubWFlPic=

>  <r_lp_tautomer_probability>  (62) 
1

>  <r_epik_Ionization_Penalty>  (62) 
0.000110517

>  <r_epik_Ionization_Penalty_Charging>  (62) 
0

>  <r_epik_Ionization_Penalty_Neutral>  (62) 
0.000110517

>  <r_epik_State_Penalty>  (62) 
-0

>  <r_epik_Charging_Adjusted_Penalty>  (62) 
0

>  <i_epik_Tot_Q>  (62) 
0

>  <i_epik_Tot_abs_Q>  (62) 
0

>  <s_epik_Chemistry_Notes>  (62) 
This compound contains an electron-poor aromatic ring that is susceptible to covalent hydrolysis at low pH, typically resulting in measured values for nitrogen ring protonation that are around two units higher than predicted values.

>  <s_lp_Force_Field>  (62) 
OPLS3e

>  <r_lp_Energy>  (62) 
22.3111

>  <b_lp_Chiralities_Consistent>  (62) 
1

>  <s_lp_Variant>  (62) 
15:0-1

>  <s_i_glide_gridfile>  (62) 
pfpi4k_grid

>  <i_i_glide_lignum>  (62) 
22

>  <i_i_glide_rotatable_bonds>  (62) 
0

>  <r_i_docking_score>  (62) 
-6.26559

>  <r_i_glide_ligand_efficiency>  (62) 
-0.569599

>  <r_i_glide_ligand_efficiency_sa>  (62) 
-1.26678

>  <r_i_glide_ligand_efficiency_ln>  (62) 
-1.84396

>  <r_i_glide_gscore>  (62) 
-6.26559

>  <r_i_glide_lipo>  (62) 
-2.18162

>  <r_i_glide_hbond>  (62) 
0

>  <r_i_glide_metal>  (62) 
-0

>  <r_i_glide_rewards>  (62) 
-3.03367

>  <r_i_glide_evdw>  (62) 
-19.9764

>  <r_i_glide_ecoul>  (62) 
-0.343231

>  <r_i_glide_erotb>  (62) 
0

>  <r_i_glide_esite>  (62) 
0

>  <r_i_glide_emodel>  (62) 
-28.8375

>  <r_i_glide_energy>  (62) 
-20.3197

>  <r_i_glide_einternal>  (62) 
0

>  <r_i_glide_intrahb_reward>  (62) 
-0

>  <i_i_glide_confnum>  (62) 
2

>  <i_i_glide_posenum>  (62) 
9

>  <r_i_glide_eff_state_penalty>  (62) 
0

>  <ligand_id>  (62) 
15

>  <original_smiles>  (62) 
Cc1cccc2cncnc12

>  <smiles>  (62) 
[H]c1nc([H])c2c([H])c([H])c([H])c(C([H])([H])[H])c2n1

$$$$
16:0:0
     RDKit          3D

 38 40  0  0  1  0  0  0  0  0999 V2000
    5.3482   -6.3166    1.0261 C   0  0  0  0  0  0  0  0  0  0  0  0
    3.8586   -6.2387    1.1243 C   0  0  0  0  0  0  0  0  0  0  0  0
    3.2253   -7.3078    1.6972 O   0  0  0  0  0  0  0  0  0  0  0  0
    1.9037   -6.9968    1.6246 C   0  0  0  0  0  0  0  0  0  0  0  0
    0.9377   -7.9374    2.1673 C   0  0  0  0  0  0  0  0  0  0  0  0
   -0.4262   -7.8579    2.1201 C   0  0  0  0  0  0  0  0  0  0  0  0
   -1.0740   -8.9622    2.7558 C   0  0  0  0  0  0  0  0  0  0  0  0
   -0.1880   -9.8624    3.2801 C   0  0  0  0  0  0  0  0  0  0  0  0
    1.4659   -9.3847    2.9844 S   0  0  0  0  0  0  0  0  0  0  0  0
    1.6539   -5.8256    1.0450 N   0  0  0  0  0  0  0  0  0  0  0  0
    2.9128   -5.3183    0.7300 C   0  0  0  0  0  0  0  0  0  0  0  0
    3.0314   -3.9913    0.0330 C   0  0  0  0  0  0  0  0  0  0  0  0
    4.0854   -2.7764    0.9688 S   0  0  0  0  0  0  0  0  0  0  0  0
    3.5398   -2.6353    2.3279 O   0  0  0  0  0  0  0  0  0  0  0  0
    5.4973   -3.1358    0.7874 O   0  0  0  0  0  0  0  0  0  0  0  0
    3.8164   -1.1605    0.1045 C   0  0  0  0  0  0  0  0  0  0  0  0
    4.1114   -1.2849   -1.3936 C   0  0  0  0  0  0  0  0  0  0  0  0
    5.2728   -1.1979   -1.7834 O   0  0  0  0  0  0  0  0  0  0  0  0
    3.0572   -1.5005   -2.2069 N   0  0  0  0  0  0  0  0  0  0  0  0
    3.0714   -1.8185   -3.6033 C   0  0  0  0  0  0  0  0  0  0  0  0
    4.1297   -2.7615   -4.1180 C   0  0  0  0  0  0  0  0  0  0  0  0
    4.1538   -1.3032   -4.5348 C   0  0  0  0  0  0  0  0  0  0  0  0
    5.7606   -5.4755    0.4735 H   0  0  0  0  0  0  0  0  0  0  0  0
    5.6463   -7.2243    0.5033 H   0  0  0  0  0  0  0  0  0  0  0  0
    5.7877   -6.3334    2.0223 H   0  0  0  0  0  0  0  0  0  0  0  0
   -0.9825   -7.0664    1.6525 H   0  0  0  0  0  0  0  0  0  0  0  0
   -2.1539   -9.0628    2.8084 H   0  0  0  0  0  0  0  0  0  0  0  0
   -0.3969  -10.7725    3.8221 H   0  0  0  0  0  0  0  0  0  0  0  0
    3.4257   -4.1211   -0.9750 H   0  0  0  0  0  0  0  0  0  0  0  0
    2.0547   -3.5281   -0.0698 H   0  0  0  0  0  0  0  0  0  0  0  0
    2.8056   -0.7868    0.2925 H   0  0  0  0  0  0  0  0  0  0  0  0
    4.5379   -0.4520    0.5195 H   0  0  0  0  0  0  0  0  0  0  0  0
    2.1330   -1.4590   -1.7729 H   0  0  0  0  0  0  0  0  0  0  0  0
    2.0885   -1.9098   -4.0591 H   0  0  0  0  0  0  0  0  0  0  0  0
    4.8655   -3.1129   -3.3913 H   0  0  0  0  0  0  0  0  0  0  0  0
    3.8058   -3.5118   -4.8348 H   0  0  0  0  0  0  0  0  0  0  0  0
    3.8522   -1.0520   -5.5563 H   0  0  0  0  0  0  0  0  0  0  0  0
    4.9238   -0.6592   -4.1050 H   0  0  0  0  0  0  0  0  0  0  0  0
  1  2  1  0
  1 23  1  0
  1 24  1  0
  1 25  1  0
  2 11  2  0
  2  3  1  0
  3  4  1  0
  4  5  1  0
  4 10  2  0
  5  9  1  0
  5  6  2  0
  6  7  1  0
  6 26  1  0
  7  8  2  0
  7 27  1  0
  8  9  1  0
  8 28  1  0
 10 11  1  0
 11 12  1  0
 12 13  1  0
 12 29  1  0
 12 30  1  0
 13 14  2  0
 13 15  2  0
 13 16  1  0
 16 17  1  0
 16 31  1  0
 16 32  1  0
 17 18  2  0
 17 19  1  0
 19 20  1  0
 19 33  1  0
 20 22  1  0
 20 21  1  0
 20 34  1  0
 21 22  1  0
 21 35  1  0
 21 36  1  0
 22 37  1  0
 22 38  1  0
M  END
>  <i_m_ct_stereo_status>  (63) 
1

>  <s_m_source_file>  (63) 
/var/tmp/pbs.5102264.sched01/tmpu94zaw8c/01d2njlry.sdf

>  <i_m_source_file_index>  (63) 
23

>  <i_lp_mmshare_version>  (63) 
48012

>  <i_f3d_flags>  (63) 
0

>  <s_epik_input>  (63) 
czFbY0hdW2NIXVtjSF1jMS1jKG9jMltDSDNdKW5jMltDSDJdUyg9TykoPU8pW0NIMl1DKD1PKVtOSF1bQ0hdM1tDSDJdW0NIMl0z

>  <s_epik_cmdline>  (63) 
J2VwaWtfcHl0aG9uJywgJy1waHQnLCAnMi4wJywgJy1waCcsICc3LjAnLCAnLXRuJywgJzgnLCAnLW1hJywgJzIwMCcsICctaW1hZScsICc8aW5maWxlLm1hZT4nLCAnLW9tYWUnLCAnPG91dGZpbGUubWFlPic=

>  <r_lp_tautomer_probability>  (63) 
1

>  <r_epik_Ionization_Penalty>  (63) 
6.20208e-06

>  <r_epik_Ionization_Penalty_Charging>  (63) 
0

>  <r_epik_Ionization_Penalty_Neutral>  (63) 
6.20208e-06

>  <r_epik_State_Penalty>  (63) 
-0

>  <r_epik_Charging_Adjusted_Penalty>  (63) 
0

>  <i_epik_Tot_Q>  (63) 
0

>  <i_epik_Tot_abs_Q>  (63) 
0

>  <s_lp_Force_Field>  (63) 
OPLS3e

>  <r_lp_Energy>  (63) 
-17.6291

>  <b_lp_Chiralities_Consistent>  (63) 
1

>  <s_lp_Variant>  (63) 
16:0-1

>  <s_i_glide_gridfile>  (63) 
pfpi4k_grid

>  <i_i_glide_lignum>  (63) 
23

>  <i_i_glide_rotatable_bonds>  (63) 
7

>  <r_i_docking_score>  (63) 
-3.59968

>  <r_i_glide_ligand_efficiency>  (63) 
-0.163622

>  <r_i_glide_ligand_efficiency_sa>  (63) 
-0.458475

>  <r_i_glide_ligand_efficiency_ln>  (63) 
-0.879893

>  <r_i_glide_gscore>  (63) 
-3.59968

>  <r_i_glide_lipo>  (63) 
-0.412486

>  <r_i_glide_hbond>  (63) 
-0.269903

>  <r_i_glide_metal>  (63) 
-0

>  <r_i_glide_rewards>  (63) 
-1.08805

>  <r_i_glide_evdw>  (63) 
-29.4932

>  <r_i_glide_ecoul>  (63) 
-7.99197

>  <r_i_glide_erotb>  (63) 
0.980473

>  <r_i_glide_esite>  (63) 
-0.136265

>  <r_i_glide_emodel>  (63) 
-40.0019

>  <r_i_glide_energy>  (63) 
-37.4851

>  <r_i_glide_einternal>  (63) 
13.6049

>  <r_i_glide_intrahb_reward>  (63) 
-0

>  <i_i_glide_confnum>  (63) 
5

>  <i_i_glide_posenum>  (63) 
7

>  <r_i_glide_eff_state_penalty>  (63) 
0

>  <ligand_id>  (63) 
16

>  <original_smiles>  (63) 
Cc1oc(-c2cccs2)nc1CS(=O)(=O)CC(=O)NC1CC1

>  <smiles>  (63) 
[H]c1sc(-c2nc(C([H])([H])S(=O)(=O)C([H])([H])C(=O)N([H])C3([H])C([H])([H])C3([H])[H])c(C([H])([H])[H])o2)c([H])c1[H]

$$$$
16:0:1
     RDKit          3D

 38 40  0  0  1  0  0  0  0  0999 V2000
    4.6357   -9.0686    0.8413 C   0  0  0  0  0  0  0  0  0  0  0  0
    3.6625   -8.0984    1.4151 C   0  0  0  0  0  0  0  0  0  0  0  0
    2.4640   -8.6101    1.8250 O   0  0  0  0  0  0  0  0  0  0  0  0
    1.8035   -7.5390    2.3345 C   0  0  0  0  0  0  0  0  0  0  0  0
    0.4754   -7.7555    2.8646 C   0  0  0  0  0  0  0  0  0  0  0  0
   -0.3897   -8.7935    2.6414 C   0  0  0  0  0  0  0  0  0  0  0  0
   -1.6334   -8.6336    3.3282 C   0  0  0  0  0  0  0  0  0  0  0  0
   -1.6842   -7.4790    4.0603 C   0  0  0  0  0  0  0  0  0  0  0  0
   -0.1800   -6.6033    3.9935 S   0  0  0  0  0  0  0  0  0  0  0  0
    2.4958   -6.4040    2.2901 N   0  0  0  0  0  0  0  0  0  0  0  0
    3.6771   -6.7458    1.6447 C   0  0  0  0  0  0  0  0  0  0  0  0
    4.7242   -5.7176    1.3670 C   0  0  0  0  0  0  0  0  0  0  0  0
    4.0725   -4.1977    0.5113 S   0  0  0  0  0  0  0  0  0  0  0  0
    2.6407   -4.3402    0.2221 O   0  0  0  0  0  0  0  0  0  0  0  0
    4.5475   -3.0218    1.2608 O   0  0  0  0  0  0  0  0  0  0  0  0
    4.9836   -4.2636   -1.0919 C   0  0  0  0  0  0  0  0  0  0  0  0
    4.6742   -3.0587   -1.9833 C   0  0  0  0  0  0  0  0  0  0  0  0
    5.5021   -2.1508   -2.0292 O   0  0  0  0  0  0  0  0  0  0  0  0
    3.5159   -3.0687   -2.6741 N   0  0  0  0  0  0  0  0  0  0  0  0
    3.0061   -2.0558   -3.5586 C   0  0  0  0  0  0  0  0  0  0  0  0
    3.9408   -1.2672   -4.4527 C   0  0  0  0  0  0  0  0  0  0  0  0
    3.2653   -0.5871   -3.2855 C   0  0  0  0  0  0  0  0  0  0  0  0
    5.5457   -8.5795    0.4974 H   0  0  0  0  0  0  0  0  0  0  0  0
    4.1790   -9.5871    0.0036 H   0  0  0  0  0  0  0  0  0  0  0  0
    4.9090   -9.8270    1.5756 H   0  0  0  0  0  0  0  0  0  0  0  0
   -0.1874   -9.6547    2.0225 H   0  0  0  0  0  0  0  0  0  0  0  0
   -2.4262   -9.3714    3.2684 H   0  0  0  0  0  0  0  0  0  0  0  0
   -2.4820   -7.0848    4.6746 H   0  0  0  0  0  0  0  0  0  0  0  0
    5.1826   -5.3923    2.2990 H   0  0  0  0  0  0  0  0  0  0  0  0
    5.5379   -6.1220    0.7610 H   0  0  0  0  0  0  0  0  0  0  0  0
    6.0433   -4.2456   -0.8560 H   0  0  0  0  0  0  0  0  0  0  0  0
    4.7434   -5.2020   -1.5900 H   0  0  0  0  0  0  0  0  0  0  0  0
    2.9393   -3.9042   -2.5928 H   0  0  0  0  0  0  0  0  0  0  0  0
    2.0252   -2.2761   -3.9839 H   0  0  0  0  0  0  0  0  0  0  0  0
    5.0044   -1.4870   -4.3552 H   0  0  0  0  0  0  0  0  0  0  0  0
    3.5857   -0.9920   -5.4465 H   0  0  0  0  0  0  0  0  0  0  0  0
    2.4903    0.1292   -3.5288 H   0  0  0  0  0  0  0  0  0  0  0  0
    3.8541   -0.3474   -2.3993 H   0  0  0  0  0  0  0  0  0  0  0  0
  1  2  1  0
  1 23  1  0
  1 24  1  0
  1 25  1  0
  2 11  2  0
  2  3  1  0
  3  4  1  0
  4  5  1  0
  4 10  2  0
  5  9  1  0
  5  6  2  0
  6  7  1  0
  6 26  1  0
  7  8  2  0
  7 27  1  0
  8  9  1  0
  8 28  1  0
 10 11  1  0
 11 12  1  0
 12 13  1  0
 12 29  1  0
 12 30  1  0
 13 14  2  0
 13 15  2  0
 13 16  1  0
 16 17  1  0
 16 31  1  0
 16 32  1  0
 17 18  2  0
 17 19  1  0
 19 20  1  0
 19 33  1  0
 20 22  1  0
 20 21  1  0
 20 34  1  0
 21 22  1  0
 21 35  1  0
 21 36  1  0
 22 37  1  0
 22 38  1  0
M  END
>  <i_m_ct_stereo_status>  (64) 
1

>  <s_m_source_file>  (64) 
/var/tmp/pbs.5102264.sched01/tmpu94zaw8c/01d2njlry.sdf

>  <i_m_source_file_index>  (64) 
23

>  <i_lp_mmshare_version>  (64) 
48012

>  <i_f3d_flags>  (64) 
0

>  <s_epik_input>  (64) 
czFbY0hdW2NIXVtjSF1jMS1jKG9jMltDSDNdKW5jMltDSDJdUyg9TykoPU8pW0NIMl1DKD1PKVtOSF1bQ0hdM1tDSDJdW0NIMl0z

>  <s_epik_cmdline>  (64) 
J2VwaWtfcHl0aG9uJywgJy1waHQnLCAnMi4wJywgJy1waCcsICc3LjAnLCAnLXRuJywgJzgnLCAnLW1hJywgJzIwMCcsICctaW1hZScsICc8aW5maWxlLm1hZT4nLCAnLW9tYWUnLCAnPG91dGZpbGUubWFlPic=

>  <r_lp_tautomer_probability>  (64) 
1

>  <r_epik_Ionization_Penalty>  (64) 
6.20208e-06

>  <r_epik_Ionization_Penalty_Charging>  (64) 
0

>  <r_epik_Ionization_Penalty_Neutral>  (64) 
6.20208e-06

>  <r_epik_State_Penalty>  (64) 
-0

>  <r_epik_Charging_Adjusted_Penalty>  (64) 
0

>  <i_epik_Tot_Q>  (64) 
0

>  <i_epik_Tot_abs_Q>  (64) 
0

>  <s_lp_Force_Field>  (64) 
OPLS3e

>  <r_lp_Energy>  (64) 
-17.6291

>  <b_lp_Chiralities_Consistent>  (64) 
1

>  <s_lp_Variant>  (64) 
16:0-1

>  <s_i_glide_gridfile>  (64) 
pfpi4k_grid

>  <i_i_glide_lignum>  (64) 
23

>  <i_i_glide_rotatable_bonds>  (64) 
7

>  <r_i_docking_score>  (64) 
-2.9917

>  <r_i_glide_ligand_efficiency>  (64) 
-0.135986

>  <r_i_glide_ligand_efficiency_sa>  (64) 
-0.381039

>  <r_i_glide_ligand_efficiency_ln>  (64) 
-0.73128

>  <r_i_glide_gscore>  (64) 
-2.9917

>  <r_i_glide_lipo>  (64) 
-0.441751

>  <r_i_glide_hbond>  (64) 
-0.171213

>  <r_i_glide_metal>  (64) 
-0

>  <r_i_glide_rewards>  (64) 
-1.15673

>  <r_i_glide_evdw>  (64) 
-31.7494

>  <r_i_glide_ecoul>  (64) 
-3.66102

>  <r_i_glide_erotb>  (64) 
0.980473

>  <r_i_glide_esite>  (64) 
-0.0658491

>  <r_i_glide_emodel>  (64) 
-36.2534

>  <r_i_glide_energy>  (64) 
-35.4105

>  <r_i_glide_einternal>  (64) 
13.8709

>  <r_i_glide_intrahb_reward>  (64) 
-0

>  <i_i_glide_confnum>  (64) 
4

>  <i_i_glide_posenum>  (64) 
27

>  <r_i_glide_eff_state_penalty>  (64) 
0

>  <ligand_id>  (64) 
16

>  <original_smiles>  (64) 
Cc1oc(-c2cccs2)nc1CS(=O)(=O)CC(=O)NC1CC1

>  <smiles>  (64) 
[H]c1sc(-c2nc(C([H])([H])S(=O)(=O)C([H])([H])C(=O)N([H])C3([H])C([H])([H])C3([H])[H])c(C([H])([H])[H])o2)c([H])c1[H]

$$$$
16:0:2
     RDKit          3D

 38 40  0  0  1  0  0  0  0  0999 V2000
    6.5999   -9.2443    1.0680 C   0  0  0  0  0  0  0  0  0  0  0  0
    5.6549   -8.1626    1.4753 C   0  0  0  0  0  0  0  0  0  0  0  0
    4.3506   -8.5316    1.6939 O   0  0  0  0  0  0  0  0  0  0  0  0
    3.7409   -7.3765    2.0748 C   0  0  0  0  0  0  0  0  0  0  0  0
    2.3222   -7.4244    2.3856 C   0  0  0  0  0  0  0  0  0  0  0  0
    1.4100   -8.3995    2.0904 C   0  0  0  0  0  0  0  0  0  0  0  0
    0.0988   -8.0860    2.5623 C   0  0  0  0  0  0  0  0  0  0  0  0
    0.0410   -6.8915    3.2292 C   0  0  0  0  0  0  0  0  0  0  0  0
    1.5940   -6.1013    3.2558 S   0  0  0  0  0  0  0  0  0  0  0  0
    4.5549   -6.3328    2.1173 N   0  0  0  0  0  0  0  0  0  0  0  0
    5.7818   -6.8121    1.6956 C   0  0  0  0  0  0  0  0  0  0  0  0
    6.9885   -5.9188    1.5816 C   0  0  0  0  0  0  0  0  0  0  0  0
    6.5722   -4.1528    1.1839 S   0  0  0  0  0  0  0  0  0  0  0  0
    5.7524   -3.5918    2.2683 O   0  0  0  0  0  0  0  0  0  0  0  0
    7.8473   -3.5091    0.8546 O   0  0  0  0  0  0  0  0  0  0  0  0
    5.4844   -4.2736   -0.3229 C   0  0  0  0  0  0  0  0  0  0  0  0
    5.4953   -3.0198   -1.2128 C   0  0  0  0  0  0  0  0  0  0  0  0
    6.4114   -2.1967   -1.1594 O   0  0  0  0  0  0  0  0  0  0  0  0
    4.4565   -2.8813   -2.0504 N   0  0  0  0  0  0  0  0  0  0  0  0
    4.2474   -1.7619   -2.9199 C   0  0  0  0  0  0  0  0  0  0  0  0
    2.8252   -1.3317   -3.1907 C   0  0  0  0  0  0  0  0  0  0  0  0
    3.6087   -2.0393   -4.2584 C   0  0  0  0  0  0  0  0  0  0  0  0
    7.5889   -8.8411    0.8641 H   0  0  0  0  0  0  0  0  0  0  0  0
    6.2486   -9.7292    0.1685 H   0  0  0  0  0  0  0  0  0  0  0  0
    6.6670  -10.0124    1.8345 H   0  0  0  0  0  0  0  0  0  0  0  0
    1.6302   -9.3146    1.5585 H   0  0  0  0  0  0  0  0  0  0  0  0
   -0.7384   -8.7592    2.4149 H   0  0  0  0  0  0  0  0  0  0  0  0
   -0.8019   -6.4335    3.7339 H   0  0  0  0  0  0  0  0  0  0  0  0
    7.5422   -5.9178    2.5187 H   0  0  0  0  0  0  0  0  0  0  0  0
    7.6809   -6.2739    0.8165 H   0  0  0  0  0  0  0  0  0  0  0  0
    5.8104   -5.1260   -0.9035 H   0  0  0  0  0  0  0  0  0  0  0  0
    4.4733   -4.4838    0.0346 H   0  0  0  0  0  0  0  0  0  0  0  0
    3.7427   -3.5992   -2.0504 H   0  0  0  0  0  0  0  0  0  0  0  0
    4.9696   -0.9466   -2.8821 H   0  0  0  0  0  0  0  0  0  0  0  0
    2.0148   -1.8822   -2.7186 H   0  0  0  0  0  0  0  0  0  0  0  0
    2.6372   -0.2715   -3.3477 H   0  0  0  0  0  0  0  0  0  0  0  0
    3.9427   -1.4372   -5.0979 H   0  0  0  0  0  0  0  0  0  0  0  0
    3.3166   -3.0634   -4.4869 H   0  0  0  0  0  0  0  0  0  0  0  0
  1  2  1  0
  1 23  1  0
  1 24  1  0
  1 25  1  0
  2 11  2  0
  2  3  1  0
  3  4  1  0
  4  5  1  0
  4 10  2  0
  5  9  1  0
  5  6  2  0
  6  7  1  0
  6 26  1  0
  7  8  2  0
  7 27  1  0
  8  9  1  0
  8 28  1  0
 10 11  1  0
 11 12  1  0
 12 13  1  0
 12 29  1  0
 12 30  1  0
 13 14  2  0
 13 15  2  0
 13 16  1  0
 16 17  1  0
 16 31  1  0
 16 32  1  0
 17 18  2  0
 17 19  1  0
 19 20  1  0
 19 33  1  0
 20 22  1  0
 20 21  1  0
 20 34  1  0
 21 22  1  0
 21 35  1  0
 21 36  1  0
 22 37  1  0
 22 38  1  0
M  END
>  <i_m_ct_stereo_status>  (65) 
1

>  <s_m_source_file>  (65) 
/var/tmp/pbs.5102264.sched01/tmpu94zaw8c/01d2njlry.sdf

>  <i_m_source_file_index>  (65) 
23

>  <i_lp_mmshare_version>  (65) 
48012

>  <i_f3d_flags>  (65) 
0

>  <s_epik_input>  (65) 
czFbY0hdW2NIXVtjSF1jMS1jKG9jMltDSDNdKW5jMltDSDJdUyg9TykoPU8pW0NIMl1DKD1PKVtOSF1bQ0hdM1tDSDJdW0NIMl0z

>  <s_epik_cmdline>  (65) 
J2VwaWtfcHl0aG9uJywgJy1waHQnLCAnMi4wJywgJy1waCcsICc3LjAnLCAnLXRuJywgJzgnLCAnLW1hJywgJzIwMCcsICctaW1hZScsICc8aW5maWxlLm1hZT4nLCAnLW9tYWUnLCAnPG91dGZpbGUubWFlPic=

>  <r_lp_tautomer_probability>  (65) 
1

>  <r_epik_Ionization_Penalty>  (65) 
6.20208e-06

>  <r_epik_Ionization_Penalty_Charging>  (65) 
0

>  <r_epik_Ionization_Penalty_Neutral>  (65) 
6.20208e-06

>  <r_epik_State_Penalty>  (65) 
-0

>  <r_epik_Charging_Adjusted_Penalty>  (65) 
0

>  <i_epik_Tot_Q>  (65) 
0

>  <i_epik_Tot_abs_Q>  (65) 
0

>  <s_lp_Force_Field>  (65) 
OPLS3e

>  <r_lp_Energy>  (65) 
-17.6291

>  <b_lp_Chiralities_Consistent>  (65) 
1

>  <s_lp_Variant>  (65) 
16:0-1

>  <s_i_glide_gridfile>  (65) 
pfpi4k_grid

>  <i_i_glide_lignum>  (65) 
23

>  <i_i_glide_rotatable_bonds>  (65) 
7

>  <r_i_docking_score>  (65) 
-2.61713

>  <r_i_glide_ligand_efficiency>  (65) 
-0.11896

>  <r_i_glide_ligand_efficiency_sa>  (65) 
-0.333331

>  <r_i_glide_ligand_efficiency_ln>  (65) 
-0.639721

>  <r_i_glide_gscore>  (65) 
-2.61713

>  <r_i_glide_lipo>  (65) 
-0.40056

>  <r_i_glide_hbond>  (65) 
-0.114644

>  <r_i_glide_metal>  (65) 
-0

>  <r_i_glide_rewards>  (65) 
-1.27181

>  <r_i_glide_evdw>  (65) 
-27.2039

>  <r_i_glide_ecoul>  (65) 
-3.00119

>  <r_i_glide_erotb>  (65) 
0.980473

>  <r_i_glide_esite>  (65) 
-0.000214265

>  <r_i_glide_emodel>  (65) 
-35.3854

>  <r_i_glide_energy>  (65) 
-30.2051

>  <r_i_glide_einternal>  (65) 
3.04258

>  <r_i_glide_intrahb_reward>  (65) 
-0

>  <i_i_glide_confnum>  (65) 
4

>  <i_i_glide_posenum>  (65) 
17

>  <r_i_glide_eff_state_penalty>  (65) 
0

>  <ligand_id>  (65) 
16

>  <original_smiles>  (65) 
Cc1oc(-c2cccs2)nc1CS(=O)(=O)CC(=O)NC1CC1

>  <smiles>  (65) 
[H]c1sc(-c2nc(C([H])([H])S(=O)(=O)C([H])([H])C(=O)N([H])C3([H])C([H])([H])C3([H])[H])c(C([H])([H])[H])o2)c([H])c1[H]

$$$$
17:0:0
     RDKit          3D

 43 47  0  0  1  0  0  0  0  0999 V2000
    1.3004  -11.4166    3.3058 C   0  0  0  0  0  0  0  0  0  0  0  0
    1.7492  -10.1234    2.7302 N   0  0  2  0  0  0  0  0  0  0  0  0
    3.2262  -10.0528    2.5502 C   0  0  0  0  0  0  0  0  0  0  0  0
    3.6466   -8.8051    1.7351 C   0  0  0  0  0  0  0  0  0  0  0  0
    2.9174   -7.5646    2.2151 C   0  0  0  0  0  0  0  0  0  0  0  0
    1.8052   -7.6825    3.0080 C   0  0  0  0  0  0  0  0  0  0  0  0
    1.1088   -6.1387    3.4257 S   0  0  0  0  0  0  0  0  0  0  0  0
    2.3329   -5.3009    2.5140 C   0  0  0  0  0  0  0  0  0  0  0  0
    2.3478   -3.9266    2.4357 N   0  0  0  0  0  0  0  0  0  0  0  0
    3.3252   -3.4620    1.7071 C   0  0  0  0  0  0  0  0  0  0  0  0
    4.3181   -4.2496    1.0461 N   0  0  0  0  0  0  0  0  0  0  0  0
    5.3604   -3.4838    0.3297 C   0  0  0  0  0  0  0  0  0  0  0  0
    4.9308   -2.9934   -1.0410 C   0  0  0  0  0  0  0  0  0  0  0  0
    4.9316   -3.8836   -2.1433 C   0  0  0  0  0  0  0  0  0  0  0  0
    4.5567   -3.4594   -3.4392 C   0  0  0  0  0  0  0  0  0  0  0  0
    4.2018   -2.1092   -3.5975 C   0  0  0  0  0  0  0  0  0  0  0  0
    4.2152   -1.2320   -2.5338 C   0  0  0  0  0  0  0  0  0  0  0  0
    4.5593   -1.6390   -1.2324 C   0  0  0  0  0  0  0  0  0  0  0  0
    3.8934    0.0087   -2.9813 O   0  0  0  0  0  0  0  0  0  0  0  0
    3.7457   -0.1024   -4.3682 C   0  0  0  0  0  0  0  0  0  0  0  0
    3.8551   -1.4533   -4.7179 O   0  0  0  0  0  0  0  0  0  0  0  0
    4.3043   -5.6048    1.1168 C   0  0  0  0  0  0  0  0  0  0  0  0
    5.1419   -6.3293    0.5709 O   0  0  0  0  0  0  0  0  0  0  0  0
    3.2102   -6.1895    1.9335 C   0  0  0  0  0  0  0  0  0  0  0  0
    1.2410   -8.9676    3.5137 C   0  0  0  0  0  0  0  0  0  0  0  0
    1.7272  -11.5684    4.2981 H   0  0  0  0  0  0  0  0  0  0  0  0
    1.6073  -12.2632    2.6922 H   0  0  0  0  0  0  0  0  0  0  0  0
    0.2128  -11.4529    3.4049 H   0  0  0  0  0  0  0  0  0  0  0  0
    3.6853  -10.0195    3.5396 H   0  0  0  0  0  0  0  0  0  0  0  0
    3.5901  -10.9568    2.0837 H   0  0  0  0  0  0  0  0  0  0  0  0
    4.7312   -8.6849    1.8057 H   0  0  0  0  0  0  0  0  0  0  0  0
    3.4296   -8.9775    0.6800 H   0  0  0  0  0  0  0  0  0  0  0  0
    3.4574   -2.3859    1.5566 H   0  0  0  0  0  0  0  0  0  0  0  0
    5.6751   -2.6331    0.9352 H   0  0  0  0  0  0  0  0  0  0  0  0
    6.2722   -4.0577    0.1906 H   0  0  0  0  0  0  0  0  0  0  0  0
    5.1973   -4.9214   -1.9994 H   0  0  0  0  0  0  0  0  0  0  0  0
    4.5525   -4.1375   -4.2826 H   0  0  0  0  0  0  0  0  0  0  0  0
    4.5542   -0.9261   -0.4209 H   0  0  0  0  0  0  0  0  0  0  0  0
    2.8005    0.3254   -4.7007 H   0  0  0  0  0  0  0  0  0  0  0  0
    4.5642    0.4412   -4.8301 H   0  0  0  0  0  0  0  0  0  0  0  0
    0.1516   -8.9359    3.4942 H   0  0  0  0  0  0  0  0  0  0  0  0
    1.5354   -9.0895    4.5543 H   0  0  0  0  0  0  0  0  0  0  0  0
    1.3343  -10.0439    1.8096 H   0  0  0  0  0  0  0  0  0  0  0  0
  1  2  1  0
  1 26  1  0
  1 27  1  0
  1 28  1  0
  2 25  1  0
  2  3  1  0
  2 43  1  6
  3  4  1  0
  3 29  1  0
  3 30  1  0
  4  5  1  0
  4 31  1  0
  4 32  1  0
  5 24  1  0
  5  6  2  0
  6  7  1  0
  6 25  1  0
  7  8  1  0
  8 24  2  0
  8  9  1  0
  9 10  2  0
 10 11  1  0
 10 33  1  0
 11 12  1  0
 11 22  1  0
 12 13  1  0
 12 34  1  0
 12 35  1  0
 13 18  1  0
 13 14  2  0
 14 15  1  0
 14 36  1  0
 15 16  2  0
 15 37  1  0
 16 21  1  0
 16 17  1  0
 17 18  2  0
 17 19  1  0
 18 38  1  0
 19 20  1  0
 20 21  1  0
 20 39  1  0
 20 40  1  0
 22 23  2  0
 22 24  1  0
 25 41  1  0
 25 42  1  0
M  CHG  1   2   1
M  END
>  <i_m_ct_stereo_status>  (66) 
1

>  <s_m_source_file>  (66) 
/var/tmp/pbs.5102264.sched01/tmpeif0x8wq/23vm_sbjim.sdf

>  <i_m_source_file_index>  (66) 
1

>  <i_lp_mmshare_version>  (66) 
48012

>  <i_f3d_flags>  (66) 
0

>  <s_epik_input>  (66) 
W0NIMl0xW0NIMl1OKFtDSDNdKVtDSDJdYyhjMTIpc2MzYzJjKD1PKW4oW2NIXW4zKVtDSDJdYyhbY0hdW2NIXTQpW2NIXWMoYzQ1KU9bQ0gyXU81

>  <s_epik_cmdline>  (66) 
J2VwaWtfcHl0aG9uJywgJy1waHQnLCAnMi4wJywgJy1waCcsICc3LjAnLCAnLXRuJywgJzgnLCAnLW1hJywgJzIwMCcsICctaW1hZScsICc8aW5maWxlLm1hZT4nLCAnLW9tYWUnLCAnPG91dGZpbGUubWFlPic=

>  <r_lp_tautomer_probability>  (66) 
1

>  <r_epik_Ionization_Penalty>  (66) 
0.17409

>  <r_epik_Ionization_Penalty_Charging>  (66) 
0.17409

>  <r_epik_Ionization_Penalty_Neutral>  (66) 
8.83211e-07

>  <r_epik_State_Penalty>  (66) 
0.163508

>  <r_epik_Charging_Adjusted_Penalty>  (66) 
0.337597

>  <i_epik_Tot_Q>  (66) 
1

>  <i_epik_Tot_abs_Q>  (66) 
1

>  <s_epik_Chemistry_Notes>  (66) 
This compound contains an acetal/aminal-like group ( X-CH(R)-Y where X, Y are N, S, or O) that may be acid/base labile, releasing an aldehyde.

>  <s_lp_Force_Field>  (66) 
OPLS3e

>  <r_lp_Energy>  (66) 
61.7382

>  <b_lp_Chiralities_Consistent>  (66) 
1

>  <s_lp_Variant>  (66) 
17:0-1

>  <s_i_glide_gridfile>  (66) 
pfpi4k_grid

>  <i_i_glide_lignum>  (66) 
1

>  <i_i_glide_rotatable_bonds>  (66) 
2

>  <r_i_docking_score>  (66) 
-4.33176

>  <r_i_glide_ligand_efficiency>  (66) 
-0.173271

>  <r_i_glide_ligand_efficiency_sa>  (66) 
-0.506646

>  <r_i_glide_ligand_efficiency_ln>  (66) 
-1.02676

>  <r_i_glide_gscore>  (66) 
-4.33176

>  <r_i_glide_lipo>  (66) 
-0.699128

>  <r_i_glide_hbond>  (66) 
-0.32

>  <r_i_glide_metal>  (66) 
-0

>  <r_i_glide_rewards>  (66) 
-1.34951

>  <r_i_glide_evdw>  (66) 
-30.4628

>  <r_i_glide_ecoul>  (66) 
-4.9413

>  <r_i_glide_erotb>  (66) 
0.30121

>  <r_i_glide_esite>  (66) 
0

>  <r_i_glide_emodel>  (66) 
-46.606

>  <r_i_glide_energy>  (66) 
-35.4041

>  <r_i_glide_einternal>  (66) 
2.15047

>  <r_i_glide_intrahb_reward>  (66) 
-0

>  <i_i_glide_confnum>  (66) 
2

>  <i_i_glide_posenum>  (66) 
1

>  <r_i_glide_eff_state_penalty>  (66) 
0

>  <ligand_id>  (66) 
17

>  <original_smiles>  (66) 
CN1CCc2c(sc3ncn(Cc4ccc5c(c4)OCO5)c(=O)c23)C1

>  <smiles>  (66) 
[H]c1c([H])c(C([H])([H])n2c([H])nc3sc4c(c3c2=O)C([H])([H])C([H])([H])[N+]([H])(C([H])([H])[H])C4([H])[H])c([H])c2c1OC([H])([H])O2

$$$$
17:0:1
     RDKit          3D

 43 47  0  0  1  0  0  0  0  0999 V2000
    1.2955  -11.8599    3.6171 C   0  0  0  0  0  0  0  0  0  0  0  0
    1.6874  -10.5107    3.1746 N   0  0  2  0  0  0  0  0  0  0  0  0
    3.1607  -10.3739    3.0219 C   0  0  0  0  0  0  0  0  0  0  0  0
    3.5322   -9.0399    2.3315 C   0  0  0  0  0  0  0  0  0  0  0  0
    2.7553   -7.8844    2.9190 C   0  0  0  0  0  0  0  0  0  0  0  0
    1.6428   -8.1190    3.6864 C   0  0  0  0  0  0  0  0  0  0  0  0
    0.8778   -6.6504    4.2335 S   0  0  0  0  0  0  0  0  0  0  0  0
    2.0755   -5.6872    3.4150 C   0  0  0  0  0  0  0  0  0  0  0  0
    2.0261   -4.3102    3.4647 N   0  0  0  0  0  0  0  0  0  0  0  0
    2.9977   -3.7316    2.8192 C   0  0  0  0  0  0  0  0  0  0  0  0
    4.0276   -4.4064    2.1099 N   0  0  0  0  0  0  0  0  0  0  0  0
    5.0313   -3.5553    1.4406 C   0  0  0  0  0  0  0  0  0  0  0  0
    4.8069   -3.3569   -0.0523 C   0  0  0  0  0  0  0  0  0  0  0  0
    5.9247   -3.2519   -0.9216 C   0  0  0  0  0  0  0  0  0  0  0  0
    5.7550   -3.0614   -2.3147 C   0  0  0  0  0  0  0  0  0  0  0  0
    4.4410   -2.9580   -2.8016 C   0  0  0  0  0  0  0  0  0  0  0  0
    3.3534   -3.0536   -1.9613 C   0  0  0  0  0  0  0  0  0  0  0  0
    3.4962   -3.2543   -0.5809 C   0  0  0  0  0  0  0  0  0  0  0  0
    2.2114   -2.9051   -2.6743 O   0  0  0  0  0  0  0  0  0  0  0  0
    2.6175   -2.5816   -3.9735 C   0  0  0  0  0  0  0  0  0  0  0  0
    4.0120   -2.7356   -4.0723 O   0  0  0  0  0  0  0  0  0  0  0  0
    4.0855   -5.7697    2.0361 C   0  0  0  0  0  0  0  0  0  0  0  0
    4.9594   -6.3837    1.4210 O   0  0  0  0  0  0  0  0  0  0  0  0
    2.9971   -6.4774    2.7749 C   0  0  0  0  0  0  0  0  0  0  0  0
    1.1300   -9.4661    4.0643 C   0  0  0  0  0  0  0  0  0  0  0  0
    1.7312  -12.1069    4.5880 H   0  0  0  0  0  0  0  0  0  0  0  0
    1.6255  -12.5881    2.8793 H   0  0  0  0  0  0  0  0  0  0  0  0
    0.2124  -11.9567    3.7103 H   0  0  0  0  0  0  0  0  0  0  0  0
    3.6118  -10.4181    4.0139 H   0  0  0  0  0  0  0  0  0  0  0  0
    3.5686  -11.2170    2.4676 H   0  0  0  0  0  0  0  0  0  0  0  0
    4.6111   -8.8835    2.4187 H   0  0  0  0  0  0  0  0  0  0  0  0
    3.3257   -9.1185    1.2617 H   0  0  0  0  0  0  0  0  0  0  0  0
    3.0707   -2.6417    2.7764 H   0  0  0  0  0  0  0  0  0  0  0  0
    5.0884   -2.5684    1.9058 H   0  0  0  0  0  0  0  0  0  0  0  0
    6.0241   -3.9796    1.5942 H   0  0  0  0  0  0  0  0  0  0  0  0
    6.9243   -3.3214   -0.5259 H   0  0  0  0  0  0  0  0  0  0  0  0
    6.5994   -2.9929   -2.9864 H   0  0  0  0  0  0  0  0  0  0  0  0
    2.6138   -3.3046    0.0335 H   0  0  0  0  0  0  0  0  0  0  0  0
    2.0943   -3.2077   -4.6985 H   0  0  0  0  0  0  0  0  0  0  0  0
    2.3759   -1.5327   -4.1534 H   0  0  0  0  0  0  0  0  0  0  0  0
    0.0410   -9.4811    4.0378 H   0  0  0  0  0  0  0  0  0  0  0  0
    1.4239   -9.6793    5.0926 H   0  0  0  0  0  0  0  0  0  0  0  0
    1.2787  -10.3678    2.2604 H   0  0  0  0  0  0  0  0  0  0  0  0
  1  2  1  0
  1 26  1  0
  1 27  1  0
  1 28  1  0
  2 25  1  0
  2  3  1  0
  2 43  1  6
  3  4  1  0
  3 29  1  0
  3 30  1  0
  4  5  1  0
  4 31  1  0
  4 32  1  0
  5 24  1  0
  5  6  2  0
  6  7  1  0
  6 25  1  0
  7  8  1  0
  8 24  2  0
  8  9  1  0
  9 10  2  0
 10 11  1  0
 10 33  1  0
 11 12  1  0
 11 22  1  0
 12 13  1  0
 12 34  1  0
 12 35  1  0
 13 18  1  0
 13 14  2  0
 14 15  1  0
 14 36  1  0
 15 16  2  0
 15 37  1  0
 16 21  1  0
 16 17  1  0
 17 18  2  0
 17 19  1  0
 18 38  1  0
 19 20  1  0
 20 21  1  0
 20 39  1  0
 20 40  1  0
 22 23  2  0
 22 24  1  0
 25 41  1  0
 25 42  1  0
M  CHG  1   2   1
M  END
>  <i_m_ct_stereo_status>  (67) 
1

>  <s_m_source_file>  (67) 
/var/tmp/pbs.5102264.sched01/tmpeif0x8wq/23vm_sbjim.sdf

>  <i_m_source_file_index>  (67) 
1

>  <i_lp_mmshare_version>  (67) 
48012

>  <i_f3d_flags>  (67) 
0

>  <s_epik_input>  (67) 
W0NIMl0xW0NIMl1OKFtDSDNdKVtDSDJdYyhjMTIpc2MzYzJjKD1PKW4oW2NIXW4zKVtDSDJdYyhbY0hdW2NIXTQpW2NIXWMoYzQ1KU9bQ0gyXU81

>  <s_epik_cmdline>  (67) 
J2VwaWtfcHl0aG9uJywgJy1waHQnLCAnMi4wJywgJy1waCcsICc3LjAnLCAnLXRuJywgJzgnLCAnLW1hJywgJzIwMCcsICctaW1hZScsICc8aW5maWxlLm1hZT4nLCAnLW9tYWUnLCAnPG91dGZpbGUubWFlPic=

>  <r_lp_tautomer_probability>  (67) 
1

>  <r_epik_Ionization_Penalty>  (67) 
0.17409

>  <r_epik_Ionization_Penalty_Charging>  (67) 
0.17409

>  <r_epik_Ionization_Penalty_Neutral>  (67) 
8.83211e-07

>  <r_epik_State_Penalty>  (67) 
0.163508

>  <r_epik_Charging_Adjusted_Penalty>  (67) 
0.337597

>  <i_epik_Tot_Q>  (67) 
1

>  <i_epik_Tot_abs_Q>  (67) 
1

>  <s_epik_Chemistry_Notes>  (67) 
This compound contains an acetal/aminal-like group ( X-CH(R)-Y where X, Y are N, S, or O) that may be acid/base labile, releasing an aldehyde.

>  <s_lp_Force_Field>  (67) 
OPLS3e

>  <r_lp_Energy>  (67) 
61.7382

>  <b_lp_Chiralities_Consistent>  (67) 
1

>  <s_lp_Variant>  (67) 
17:0-1

>  <s_i_glide_gridfile>  (67) 
pfpi4k_grid

>  <i_i_glide_lignum>  (67) 
1

>  <i_i_glide_rotatable_bonds>  (67) 
2

>  <r_i_docking_score>  (67) 
-3.74066

>  <r_i_glide_ligand_efficiency>  (67) 
-0.149626

>  <r_i_glide_ligand_efficiency_sa>  (67) 
-0.43751

>  <r_i_glide_ligand_efficiency_ln>  (67) 
-0.886648

>  <r_i_glide_gscore>  (67) 
-3.74066

>  <r_i_glide_lipo>  (67) 
-0.460145

>  <r_i_glide_hbond>  (67) 
-0.251575

>  <r_i_glide_metal>  (67) 
-0

>  <r_i_glide_rewards>  (67) 
-1.16313

>  <r_i_glide_evdw>  (67) 
-27.5488

>  <r_i_glide_ecoul>  (67) 
-5.26095

>  <r_i_glide_erotb>  (67) 
0.30121

>  <r_i_glide_esite>  (67) 
-0.000432824

>  <r_i_glide_emodel>  (67) 
-43.3128

>  <r_i_glide_energy>  (67) 
-32.8098

>  <r_i_glide_einternal>  (67) 
0.173739

>  <r_i_glide_intrahb_reward>  (67) 
-0

>  <i_i_glide_confnum>  (67) 
2

>  <i_i_glide_posenum>  (67) 
12

>  <r_i_glide_eff_state_penalty>  (67) 
0

>  <ligand_id>  (67) 
17

>  <original_smiles>  (67) 
CN1CCc2c(sc3ncn(Cc4ccc5c(c4)OCO5)c(=O)c23)C1

>  <smiles>  (67) 
[H]c1c([H])c(C([H])([H])n2c([H])nc3sc4c(c3c2=O)C([H])([H])C([H])([H])[N+]([H])(C([H])([H])[H])C4([H])[H])c([H])c2c1OC([H])([H])O2

$$$$
17:0:2
     RDKit          3D

 43 47  0  0  1  0  0  0  0  0999 V2000
    0.7484  -12.0480    4.4637 C   0  0  0  0  0  0  0  0  0  0  0  0
    1.2996  -10.7815    3.9507 N   0  0  2  0  0  0  0  0  0  0  0  0
    0.3630  -10.0909    3.0238 C   0  0  0  0  0  0  0  0  0  0  0  0
    0.8522   -8.6632    2.6920 C   0  0  0  0  0  0  0  0  0  0  0  0
    2.3252   -8.6496    2.3667 C   0  0  0  0  0  0  0  0  0  0  0  0
    3.1172   -9.7181    2.6953 C   0  0  0  0  0  0  0  0  0  0  0  0
    4.7900   -9.4762    2.2600 S   0  0  0  0  0  0  0  0  0  0  0  0
    4.4222   -7.8966    1.6271 C   0  0  0  0  0  0  0  0  0  0  0  0
    5.4131   -7.1099    1.0851 N   0  0  0  0  0  0  0  0  0  0  0  0
    4.9859   -5.9730    0.6269 C   0  0  0  0  0  0  0  0  0  0  0  0
    3.6385   -5.5250    0.6705 N   0  0  0  0  0  0  0  0  0  0  0  0
    3.3899   -4.1772    0.1273 C   0  0  0  0  0  0  0  0  0  0  0  0
    3.5987   -3.0284    1.1093 C   0  0  0  0  0  0  0  0  0  0  0  0
    3.1307   -1.7342    0.7601 C   0  0  0  0  0  0  0  0  0  0  0  0
    3.2950   -0.6242    1.6247 C   0  0  0  0  0  0  0  0  0  0  0  0
    3.9644   -0.8450    2.8380 C   0  0  0  0  0  0  0  0  0  0  0  0
    4.4235   -2.0957    3.1859 C   0  0  0  0  0  0  0  0  0  0  0  0
    4.2557   -3.2104    2.3540 C   0  0  0  0  0  0  0  0  0  0  0  0
    5.0418   -2.0338    4.3904 O   0  0  0  0  0  0  0  0  0  0  0  0
    5.0697   -0.6722    4.7297 C   0  0  0  0  0  0  0  0  0  0  0  0
    4.2814    0.0437    3.8140 O   0  0  0  0  0  0  0  0  0  0  0  0
    2.6388   -6.2742    1.2249 C   0  0  0  0  0  0  0  0  0  0  0  0
    1.4623   -5.9054    1.2875 O   0  0  0  0  0  0  0  0  0  0  0  0
    3.0856   -7.6072    1.7444 C   0  0  0  0  0  0  0  0  0  0  0  0
    2.6320  -10.9807    3.3222 C   0  0  0  0  0  0  0  0  0  0  0  0
    0.5411  -12.6848    3.6072 H   0  0  0  0  0  0  0  0  0  0  0  0
   -0.1797  -11.8992    5.0145 H   0  0  0  0  0  0  0  0  0  0  0  0
    1.4620  -12.5453    5.1238 H   0  0  0  0  0  0  0  0  0  0  0  0
    0.2832  -10.6765    2.1051 H   0  0  0  0  0  0  0  0  0  0  0  0
   -0.6346  -10.0517    3.4567 H   0  0  0  0  0  0  0  0  0  0  0  0
    0.2560   -8.2654    1.8659 H   0  0  0  0  0  0  0  0  0  0  0  0
    0.6595   -8.0125    3.5472 H   0  0  0  0  0  0  0  0  0  0  0  0
    5.6769   -5.2530    0.1813 H   0  0  0  0  0  0  0  0  0  0  0  0
    4.0195   -4.0073   -0.7488 H   0  0  0  0  0  0  0  0  0  0  0  0
    2.3725   -4.1063   -0.2617 H   0  0  0  0  0  0  0  0  0  0  0  0
    2.6291   -1.5805   -0.1844 H   0  0  0  0  0  0  0  0  0  0  0  0
    2.9345    0.3598    1.3573 H   0  0  0  0  0  0  0  0  0  0  0  0
    4.6422   -4.1576    2.6794 H   0  0  0  0  0  0  0  0  0  0  0  0
    4.7235   -0.5286    5.7565 H   0  0  0  0  0  0  0  0  0  0  0  0
    6.0991   -0.3170    4.6400 H   0  0  0  0  0  0  0  0  0  0  0  0
    3.3515  -11.3362    4.0572 H   0  0  0  0  0  0  0  0  0  0  0  0
    2.5692  -11.7493    2.5497 H   0  0  0  0  0  0  0  0  0  0  0  0
    1.4393  -10.1809    4.7521 H   0  0  0  0  0  0  0  0  0  0  0  0
  1  2  1  0
  1 26  1  0
  1 27  1  0
  1 28  1  0
  2 25  1  0
  2  3  1  0
  2 43  1  1
  3  4  1  0
  3 29  1  0
  3 30  1  0
  4  5  1  0
  4 31  1  0
  4 32  1  0
  5 24  1  0
  5  6  2  0
  6  7  1  0
  6 25  1  0
  7  8  1  0
  8 24  2  0
  8  9  1  0
  9 10  2  0
 10 11  1  0
 10 33  1  0
 11 12  1  0
 11 22  1  0
 12 13  1  0
 12 34  1  0
 12 35  1  0
 13 18  1  0
 13 14  2  0
 14 15  1  0
 14 36  1  0
 15 16  2  0
 15 37  1  0
 16 21  1  0
 16 17  1  0
 17 18  2  0
 17 19  1  0
 18 38  1  0
 19 20  1  0
 20 21  1  0
 20 39  1  0
 20 40  1  0
 22 23  2  0
 22 24  1  0
 25 41  1  0
 25 42  1  0
M  CHG  1   2   1
M  END
>  <i_m_ct_stereo_status>  (68) 
1

>  <s_m_source_file>  (68) 
/var/tmp/pbs.5102264.sched01/tmpeif0x8wq/23vm_sbjim.sdf

>  <i_m_source_file_index>  (68) 
1

>  <i_lp_mmshare_version>  (68) 
48012

>  <i_f3d_flags>  (68) 
0

>  <s_epik_input>  (68) 
W0NIMl0xW0NIMl1OKFtDSDNdKVtDSDJdYyhjMTIpc2MzYzJjKD1PKW4oW2NIXW4zKVtDSDJdYyhbY0hdW2NIXTQpW2NIXWMoYzQ1KU9bQ0gyXU81

>  <s_epik_cmdline>  (68) 
J2VwaWtfcHl0aG9uJywgJy1waHQnLCAnMi4wJywgJy1waCcsICc3LjAnLCAnLXRuJywgJzgnLCAnLW1hJywgJzIwMCcsICctaW1hZScsICc8aW5maWxlLm1hZT4nLCAnLW9tYWUnLCAnPG91dGZpbGUubWFlPic=

>  <r_lp_tautomer_probability>  (68) 
1

>  <r_epik_Ionization_Penalty>  (68) 
0.17409

>  <r_epik_Ionization_Penalty_Charging>  (68) 
0.17409

>  <r_epik_Ionization_Penalty_Neutral>  (68) 
8.83211e-07

>  <r_epik_State_Penalty>  (68) 
0.163508

>  <r_epik_Charging_Adjusted_Penalty>  (68) 
0.337597

>  <i_epik_Tot_Q>  (68) 
1

>  <i_epik_Tot_abs_Q>  (68) 
1

>  <s_epik_Chemistry_Notes>  (68) 
This compound contains an acetal/aminal-like group ( X-CH(R)-Y where X, Y are N, S, or O) that may be acid/base labile, releasing an aldehyde.

>  <s_lp_Force_Field>  (68) 
OPLS3e

>  <r_lp_Energy>  (68) 
61.7382

>  <b_lp_Chiralities_Consistent>  (68) 
1

>  <s_lp_Variant>  (68) 
17:0-1

>  <s_i_glide_gridfile>  (68) 
pfpi4k_grid

>  <i_i_glide_lignum>  (68) 
1

>  <i_i_glide_rotatable_bonds>  (68) 
2

>  <r_i_docking_score>  (68) 
-3.43944

>  <r_i_glide_ligand_efficiency>  (68) 
-0.137578

>  <r_i_glide_ligand_efficiency_sa>  (68) 
-0.40228

>  <r_i_glide_ligand_efficiency_ln>  (68) 
-0.815251

>  <r_i_glide_gscore>  (68) 
-3.43944

>  <r_i_glide_lipo>  (68) 
-0.10544

>  <r_i_glide_hbond>  (68) 
-0.133239

>  <r_i_glide_metal>  (68) 
-0

>  <r_i_glide_rewards>  (68) 
-1.22271

>  <r_i_glide_evdw>  (68) 
-25.3354

>  <r_i_glide_ecoul>  (68) 
-6.74996

>  <r_i_glide_erotb>  (68) 
0.30121

>  <r_i_glide_esite>  (68) 
0

>  <r_i_glide_emodel>  (68) 
-41.0952

>  <r_i_glide_energy>  (68) 
-32.0853

>  <r_i_glide_einternal>  (68) 
1.28401

>  <r_i_glide_intrahb_reward>  (68) 
-0

>  <i_i_glide_confnum>  (68) 
2

>  <i_i_glide_posenum>  (68) 
18

>  <r_i_glide_eff_state_penalty>  (68) 
0

>  <ligand_id>  (68) 
17

>  <original_smiles>  (68) 
CN1CCc2c(sc3ncn(Cc4ccc5c(c4)OCO5)c(=O)c23)C1

>  <smiles>  (68) 
[H]c1c([H])c(C([H])([H])n2c([H])nc3sc4c(c3c2=O)C([H])([H])C([H])([H])[N+]([H])(C([H])([H])[H])C4([H])[H])c([H])c2c1OC([H])([H])O2

$$$$
17:1:0
     RDKit          3D

 42 46  0  0  1  0  0  0  0  0999 V2000
    3.0129   -0.4654   -4.9625 C   0  0  0  0  0  0  0  0  0  0  0  0
    3.0489   -1.1995   -3.7044 N   0  0  0  0  0  0  0  0  0  0  0  0
    2.3905   -2.5076   -3.8177 C   0  0  0  0  0  0  0  0  0  0  0  0
    2.2725   -3.1743   -2.4218 C   0  0  0  0  0  0  0  0  0  0  0  0
    3.5689   -3.0963   -1.6486 C   0  0  0  0  0  0  0  0  0  0  0  0
    4.5491   -2.2353   -2.0739 C   0  0  0  0  0  0  0  0  0  0  0  0
    5.9679   -2.2775   -1.0634 S   0  0  0  0  0  0  0  0  0  0  0  0
    5.2357   -3.4816   -0.0354 C   0  0  0  0  0  0  0  0  0  0  0  0
    5.9121   -3.9871    1.0559 N   0  0  0  0  0  0  0  0  0  0  0  0
    5.2451   -4.8933    1.7143 C   0  0  0  0  0  0  0  0  0  0  0  0
    3.9449   -5.3508    1.3804 N   0  0  0  0  0  0  0  0  0  0  0  0
    3.3574   -6.3690    2.2735 C   0  0  0  0  0  0  0  0  0  0  0  0
    2.4881   -5.8308    3.4079 C   0  0  0  0  0  0  0  0  0  0  0  0
    2.5902   -4.4861    3.8628 C   0  0  0  0  0  0  0  0  0  0  0  0
    1.7814   -4.0053    4.9171 C   0  0  0  0  0  0  0  0  0  0  0  0
    0.8659   -4.8931    5.4878 C   0  0  0  0  0  0  0  0  0  0  0  0
    0.7666   -6.2006    5.0634 C   0  0  0  0  0  0  0  0  0  0  0  0
    1.5680   -6.7061    4.0272 C   0  0  0  0  0  0  0  0  0  0  0  0
   -0.1894   -6.8326    5.7822 O   0  0  0  0  0  0  0  0  0  0  0  0
   -0.7927   -5.8372    6.5755 C   0  0  0  0  0  0  0  0  0  0  0  0
   -0.0405   -4.6586    6.4715 O   0  0  0  0  0  0  0  0  0  0  0  0
    3.2330   -4.8277    0.3356 C   0  0  0  0  0  0  0  0  0  0  0  0
    2.0713   -5.1618    0.0864 O   0  0  0  0  0  0  0  0  0  0  0  0
    3.9740   -3.8100   -0.4721 C   0  0  0  0  0  0  0  0  0  0  0  0
    4.4375   -1.3870   -3.2900 C   0  0  0  0  0  0  0  0  0  0  0  0
    1.9818   -0.2663   -5.2522 H   0  0  0  0  0  0  0  0  0  0  0  0
    3.4911   -1.0283   -5.7641 H   0  0  0  0  0  0  0  0  0  0  0  0
    3.5090    0.5034   -4.8853 H   0  0  0  0  0  0  0  0  0  0  0  0
    1.3991   -2.3872   -4.2480 H   0  0  0  0  0  0  0  0  0  0  0  0
    2.9561   -3.1497   -4.4902 H   0  0  0  0  0  0  0  0  0  0  0  0
    1.4807   -2.6676   -1.8703 H   0  0  0  0  0  0  0  0  0  0  0  0
    1.9115   -4.1982   -2.5296 H   0  0  0  0  0  0  0  0  0  0  0  0
    5.6500   -5.3585    2.6188 H   0  0  0  0  0  0  0  0  0  0  0  0
    2.7639   -7.0785    1.6959 H   0  0  0  0  0  0  0  0  0  0  0  0
    4.1421   -6.9881    2.7183 H   0  0  0  0  0  0  0  0  0  0  0  0
    3.2827   -3.7942    3.4199 H   0  0  0  0  0  0  0  0  0  0  0  0
    1.8510   -2.9825    5.2635 H   0  0  0  0  0  0  0  0  0  0  0  0
    1.4551   -7.7341    3.7152 H   0  0  0  0  0  0  0  0  0  0  0  0
   -1.7863   -5.6340    6.1773 H   0  0  0  0  0  0  0  0  0  0  0  0
   -0.8757   -6.1578    7.6160 H   0  0  0  0  0  0  0  0  0  0  0  0
    5.0112   -1.8519   -4.0887 H   0  0  0  0  0  0  0  0  0  0  0  0
    4.8817   -0.4147   -3.0903 H   0  0  0  0  0  0  0  0  0  0  0  0
  1  2  1  0
  1 26  1  0
  1 27  1  0
  1 28  1  0
  2 25  1  0
  2  3  1  0
  3  4  1  0
  3 29  1  0
  3 30  1  0
  4  5  1  0
  4 31  1  0
  4 32  1  0
  5 24  1  0
  5  6  2  0
  6  7  1  0
  6 25  1  0
  7  8  1  0
  8 24  2  0
  8  9  1  0
  9 10  2  0
 10 11  1  0
 10 33  1  0
 11 12  1  0
 11 22  1  0
 12 13  1  0
 12 34  1  0
 12 35  1  0
 13 18  1  0
 13 14  2  0
 14 15  1  0
 14 36  1  0
 15 16  2  0
 15 37  1  0
 16 21  1  0
 16 17  1  0
 17 18  2  0
 17 19  1  0
 18 38  1  0
 19 20  1  0
 20 21  1  0
 20 39  1  0
 20 40  1  0
 22 23  2  0
 22 24  1  0
 25 41  1  0
 25 42  1  0
M  END
>  <i_m_ct_stereo_status>  (69) 
1

>  <s_m_source_file>  (69) 
/var/tmp/pbs.5102264.sched01/tmpeif0x8wq/23vm_sbjim.sdf

>  <i_m_source_file_index>  (69) 
2

>  <i_lp_mmshare_version>  (69) 
48012

>  <i_f3d_flags>  (69) 
0

>  <s_epik_input>  (69) 
W0NIMl0xW0NIMl1OKFtDSDNdKVtDSDJdYyhjMTIpc2MzYzJjKD1PKW4oW2NIXW4zKVtDSDJdYyhbY0hdW2NIXTQpW2NIXWMoYzQ1KU9bQ0gyXU81

>  <s_epik_cmdline>  (69) 
J2VwaWtfcHl0aG9uJywgJy1waHQnLCAnMi4wJywgJy1waCcsICc3LjAnLCAnLXRuJywgJzgnLCAnLW1hJywgJzIwMCcsICctaW1hZScsICc8aW5maWxlLm1hZT4nLCAnLW9tYWUnLCAnPG91dGZpbGUubWFlPic=

>  <r_lp_tautomer_probability>  (69) 
1

>  <r_epik_Ionization_Penalty>  (69) 
0.810602

>  <r_epik_Ionization_Penalty_Charging>  (69) 
1.55116e-09

>  <r_epik_Ionization_Penalty_Neutral>  (69) 
0.810602

>  <r_epik_State_Penalty>  (69) 
0.84268

>  <r_epik_Charging_Adjusted_Penalty>  (69) 
0.84268

>  <i_epik_Tot_Q>  (69) 
0

>  <i_epik_Tot_abs_Q>  (69) 
0

>  <s_epik_Chemistry_Notes>  (69) 
This compound contains an acetal/aminal-like group ( X-CH(R)-Y where X, Y are N, S, or O) that may be acid/base labile, releasing an aldehyde.

>  <s_lp_Force_Field>  (69) 
OPLS3e

>  <r_lp_Energy>  (69) 
54.6236

>  <b_lp_Chiralities_Consistent>  (69) 
1

>  <s_lp_Variant>  (69) 
17:0-2

>  <s_i_glide_gridfile>  (69) 
pfpi4k_grid

>  <i_i_glide_lignum>  (69) 
2

>  <i_i_glide_rotatable_bonds>  (69) 
2

>  <r_i_docking_score>  (69) 
-2.9127

>  <r_i_glide_ligand_efficiency>  (69) 
-0.116508

>  <r_i_glide_ligand_efficiency_sa>  (69) 
-0.340671

>  <r_i_glide_ligand_efficiency_ln>  (69) 
-0.690397

>  <r_i_glide_gscore>  (69) 
-2.9127

>  <r_i_glide_lipo>  (69) 
-0.625643

>  <r_i_glide_hbond>  (69) 
-0.029097

>  <r_i_glide_metal>  (69) 
-0

>  <r_i_glide_rewards>  (69) 
-1.13533

>  <r_i_glide_evdw>  (69) 
-27.5913

>  <r_i_glide_ecoul>  (69) 
-0.305291

>  <r_i_glide_erotb>  (69) 
0.302733

>  <r_i_glide_esite>  (69) 
0

>  <r_i_glide_emodel>  (69) 
-33.2211

>  <r_i_glide_energy>  (69) 
-27.8966

>  <r_i_glide_einternal>  (69) 
0.457971

>  <r_i_glide_intrahb_reward>  (69) 
-0

>  <i_i_glide_confnum>  (69) 
1

>  <i_i_glide_posenum>  (69) 
3

>  <r_i_glide_eff_state_penalty>  (69) 
0

>  <ligand_id>  (69) 
17

>  <original_smiles>  (69) 
CN1CCc2c(sc3ncn(Cc4ccc5c(c4)OCO5)c(=O)c23)C1

>  <smiles>  (69) 
[H]c1c([H])c(C([H])([H])n2c([H])nc3sc4c(c3c2=O)C([H])([H])C([H])([H])N(C([H])([H])[H])C4([H])[H])c([H])c2c1OC([H])([H])O2

$$$$
17:1:1
     RDKit          3D

 42 46  0  0  1  0  0  0  0  0999 V2000
   -2.6930    3.0740    3.8947 C   0  0  0  0  0  0  0  0  0  0  0  0
   -1.7015    2.1301    3.4021 N   0  0  0  0  0  0  0  0  0  0  0  0
   -0.4331    2.8017    3.1183 C   0  0  0  0  0  0  0  0  0  0  0  0
    0.5512    1.8362    2.4007 C   0  0  0  0  0  0  0  0  0  0  0  0
    0.6125    0.4970    3.0917 C   0  0  0  0  0  0  0  0  0  0  0  0
   -0.3682    0.1621    3.9873 C   0  0  0  0  0  0  0  0  0  0  0  0
   -0.1437   -1.4309    4.6585 S   0  0  0  0  0  0  0  0  0  0  0  0
    1.3021   -1.6598    3.7092 C   0  0  0  0  0  0  0  0  0  0  0  0
    2.0185   -2.8354    3.7869 N   0  0  0  0  0  0  0  0  0  0  0  0
    3.0847   -2.8468    3.0390 C   0  0  0  0  0  0  0  0  0  0  0  0
    3.5174   -1.7781    2.2114 N   0  0  0  0  0  0  0  0  0  0  0  0
    4.7535   -2.0082    1.4315 C   0  0  0  0  0  0  0  0  0  0  0  0
    4.5519   -2.3325   -0.0474 C   0  0  0  0  0  0  0  0  0  0  0  0
    5.6771   -2.4018   -0.9116 C   0  0  0  0  0  0  0  0  0  0  0  0
    5.5252   -2.6879   -2.2916 C   0  0  0  0  0  0  0  0  0  0  0  0
    4.2237   -2.9083   -2.7754 C   0  0  0  0  0  0  0  0  0  0  0  0
    3.1312   -2.8419   -1.9412 C   0  0  0  0  0  0  0  0  0  0  0  0
    3.2575   -2.5669   -0.5742 C   0  0  0  0  0  0  0  0  0  0  0  0
    1.9997   -3.0922   -2.6429 O   0  0  0  0  0  0  0  0  0  0  0  0
    2.4298   -3.4774   -3.9181 C   0  0  0  0  0  0  0  0  0  0  0  0
    3.8101   -3.2233   -4.0332 O   0  0  0  0  0  0  0  0  0  0  0  0
    2.8155   -0.6094    2.1081 C   0  0  0  0  0  0  0  0  0  0  0  0
    3.1660    0.3278    1.3895 O   0  0  0  0  0  0  0  0  0  0  0  0
    1.5801   -0.5522    2.9485 C   0  0  0  0  0  0  0  0  0  0  0  0
   -1.4854    1.0693    4.3858 C   0  0  0  0  0  0  0  0  0  0  0  0
   -2.8823    3.8464    3.1509 H   0  0  0  0  0  0  0  0  0  0  0  0
   -2.3666    3.5572    4.8167 H   0  0  0  0  0  0  0  0  0  0  0  0
   -3.6407    2.5714    4.0805 H   0  0  0  0  0  0  0  0  0  0  0  0
   -0.6277    3.6691    2.4938 H   0  0  0  0  0  0  0  0  0  0  0  0
    0.0030    3.1627    4.0523 H   0  0  0  0  0  0  0  0  0  0  0  0
    0.2298    1.7021    1.3653 H   0  0  0  0  0  0  0  0  0  0  0  0
    1.5364    2.3025    2.3538 H   0  0  0  0  0  0  0  0  0  0  0  0
    3.7337   -3.7269    3.0041 H   0  0  0  0  0  0  0  0  0  0  0  0
    5.3871   -1.1222    1.4997 H   0  0  0  0  0  0  0  0  0  0  0  0
    5.3577   -2.8082    1.8647 H   0  0  0  0  0  0  0  0  0  0  0  0
    6.6670   -2.2407   -0.5163 H   0  0  0  0  0  0  0  0  0  0  0  0
    6.3738   -2.7585   -2.9554 H   0  0  0  0  0  0  0  0  0  0  0  0
    2.3629   -2.5243    0.0245 H   0  0  0  0  0  0  0  0  0  0  0  0
    2.2525   -4.5487   -4.0128 H   0  0  0  0  0  0  0  0  0  0  0  0
    1.8499   -2.9753   -4.6887 H   0  0  0  0  0  0  0  0  0  0  0  0
   -1.2582    1.5044    5.3601 H   0  0  0  0  0  0  0  0  0  0  0  0
   -2.4004    0.4899    4.4994 H   0  0  0  0  0  0  0  0  0  0  0  0
  1  2  1  0
  1 26  1  0
  1 27  1  0
  1 28  1  0
  2 25  1  0
  2  3  1  0
  3  4  1  0
  3 29  1  0
  3 30  1  0
  4  5  1  0
  4 31  1  0
  4 32  1  0
  5 24  1  0
  5  6  2  0
  6  7  1  0
  6 25  1  0
  7  8  1  0
  8 24  2  0
  8  9  1  0
  9 10  2  0
 10 11  1  0
 10 33  1  0
 11 12  1  0
 11 22  1  0
 12 13  1  0
 12 34  1  0
 12 35  1  0
 13 18  1  0
 13 14  2  0
 14 15  1  0
 14 36  1  0
 15 16  2  0
 15 37  1  0
 16 21  1  0
 16 17  1  0
 17 18  2  0
 17 19  1  0
 18 38  1  0
 19 20  1  0
 20 21  1  0
 20 39  1  0
 20 40  1  0
 22 23  2  0
 22 24  1  0
 25 41  1  0
 25 42  1  0
M  END
>  <i_m_ct_stereo_status>  (70) 
1

>  <s_m_source_file>  (70) 
/var/tmp/pbs.5102264.sched01/tmpeif0x8wq/23vm_sbjim.sdf

>  <i_m_source_file_index>  (70) 
2

>  <i_lp_mmshare_version>  (70) 
48012

>  <i_f3d_flags>  (70) 
0

>  <s_epik_input>  (70) 
W0NIMl0xW0NIMl1OKFtDSDNdKVtDSDJdYyhjMTIpc2MzYzJjKD1PKW4oW2NIXW4zKVtDSDJdYyhbY0hdW2NIXTQpW2NIXWMoYzQ1KU9bQ0gyXU81

>  <s_epik_cmdline>  (70) 
J2VwaWtfcHl0aG9uJywgJy1waHQnLCAnMi4wJywgJy1waCcsICc3LjAnLCAnLXRuJywgJzgnLCAnLW1hJywgJzIwMCcsICctaW1hZScsICc8aW5maWxlLm1hZT4nLCAnLW9tYWUnLCAnPG91dGZpbGUubWFlPic=

>  <r_lp_tautomer_probability>  (70) 
1

>  <r_epik_Ionization_Penalty>  (70) 
0.810602

>  <r_epik_Ionization_Penalty_Charging>  (70) 
1.55116e-09

>  <r_epik_Ionization_Penalty_Neutral>  (70) 
0.810602

>  <r_epik_State_Penalty>  (70) 
0.84268

>  <r_epik_Charging_Adjusted_Penalty>  (70) 
0.84268

>  <i_epik_Tot_Q>  (70) 
0

>  <i_epik_Tot_abs_Q>  (70) 
0

>  <s_epik_Chemistry_Notes>  (70) 
This compound contains an acetal/aminal-like group ( X-CH(R)-Y where X, Y are N, S, or O) that may be acid/base labile, releasing an aldehyde.

>  <s_lp_Force_Field>  (70) 
OPLS3e

>  <r_lp_Energy>  (70) 
54.6236

>  <b_lp_Chiralities_Consistent>  (70) 
1

>  <s_lp_Variant>  (70) 
17:0-2

>  <s_i_glide_gridfile>  (70) 
pfpi4k_grid

>  <i_i_glide_lignum>  (70) 
2

>  <i_i_glide_rotatable_bonds>  (70) 
2

>  <r_i_docking_score>  (70) 
-2.68582

>  <r_i_glide_ligand_efficiency>  (70) 
-0.107433

>  <r_i_glide_ligand_efficiency_sa>  (70) 
-0.314135

>  <r_i_glide_ligand_efficiency_ln>  (70) 
-0.636619

>  <r_i_glide_gscore>  (70) 
-2.68582

>  <r_i_glide_lipo>  (70) 
-0.151791

>  <r_i_glide_hbond>  (70) 
-0.091099

>  <r_i_glide_metal>  (70) 
-0

>  <r_i_glide_rewards>  (70) 
-1.11739

>  <r_i_glide_evdw>  (70) 
-31.2647

>  <r_i_glide_ecoul>  (70) 
-0.406739

>  <r_i_glide_erotb>  (70) 
0.302733

>  <r_i_glide_esite>  (70) 
-0.00402328

>  <r_i_glide_emodel>  (70) 
-36.343

>  <r_i_glide_energy>  (70) 
-31.6715

>  <r_i_glide_einternal>  (70) 
0.876525

>  <r_i_glide_intrahb_reward>  (70) 
-0

>  <i_i_glide_confnum>  (70) 
3

>  <i_i_glide_posenum>  (70) 
7

>  <r_i_glide_eff_state_penalty>  (70) 
0

>  <ligand_id>  (70) 
17

>  <original_smiles>  (70) 
CN1CCc2c(sc3ncn(Cc4ccc5c(c4)OCO5)c(=O)c23)C1

>  <smiles>  (70) 
[H]c1c([H])c(C([H])([H])n2c([H])nc3sc4c(c3c2=O)C([H])([H])C([H])([H])N(C([H])([H])[H])C4([H])[H])c([H])c2c1OC([H])([H])O2

$$$$
17:1:2
     RDKit          3D

 42 46  0  0  1  0  0  0  0  0999 V2000
   -1.4107   -4.8360    7.6502 C   0  0  0  0  0  0  0  0  0  0  0  0
   -0.5783   -4.7038    6.4618 N   0  0  0  0  0  0  0  0  0  0  0  0
    0.8107   -4.4063    6.8279 C   0  0  0  0  0  0  0  0  0  0  0  0
    1.6553   -4.0905    5.5620 C   0  0  0  0  0  0  0  0  0  0  0  0
    1.4227   -5.1046    4.4677 C   0  0  0  0  0  0  0  0  0  0  0  0
    0.3421   -5.9389    4.5502 C   0  0  0  0  0  0  0  0  0  0  0  0
    0.2299   -7.0264    3.1893 S   0  0  0  0  0  0  0  0  0  0  0  0
    1.6648   -6.3291    2.4821 C   0  0  0  0  0  0  0  0  0  0  0  0
    2.1533   -6.7856    1.2782 N   0  0  0  0  0  0  0  0  0  0  0  0
    3.2507   -6.1951    0.8942 C   0  0  0  0  0  0  0  0  0  0  0  0
    3.9085   -5.1563    1.6043 N   0  0  0  0  0  0  0  0  0  0  0  0
    5.1499   -4.6314    0.9969 C   0  0  0  0  0  0  0  0  0  0  0  0
    4.9438   -3.4200    0.1028 C   0  0  0  0  0  0  0  0  0  0  0  0
    5.5685   -2.1890    0.4279 C   0  0  0  0  0  0  0  0  0  0  0  0
    5.4049   -1.0553   -0.4018 C   0  0  0  0  0  0  0  0  0  0  0  0
    4.6287   -1.1920   -1.5648 C   0  0  0  0  0  0  0  0  0  0  0  0
    4.0194   -2.3842   -1.8866 C   0  0  0  0  0  0  0  0  0  0  0  0
    4.1516   -3.5157   -1.0672 C   0  0  0  0  0  0  0  0  0  0  0  0
    3.3603   -2.2543   -3.0682 O   0  0  0  0  0  0  0  0  0  0  0  0
    3.6638   -0.9640   -3.5340 C   0  0  0  0  0  0  0  0  0  0  0  0
    4.3761   -0.2771   -2.5371 O   0  0  0  0  0  0  0  0  0  0  0  0
    3.4341   -4.6770    2.7921 C   0  0  0  0  0  0  0  0  0  0  0  0
    3.9855   -3.7810    3.4333 O   0  0  0  0  0  0  0  0  0  0  0  0
    2.1839   -5.3407    3.2760 C   0  0  0  0  0  0  0  0  0  0  0  0
   -0.6116   -5.9582    5.6980 C   0  0  0  0  0  0  0  0  0  0  0  0
   -1.4121   -3.9057    8.2172 H   0  0  0  0  0  0  0  0  0  0  0  0
   -1.0545   -5.6296    8.3097 H   0  0  0  0  0  0  0  0  0  0  0  0
   -2.4458   -5.0546    7.3815 H   0  0  0  0  0  0  0  0  0  0  0  0
    0.8428   -3.5572    7.5092 H   0  0  0  0  0  0  0  0  0  0  0  0
    1.2341   -5.2577    7.3613 H   0  0  0  0  0  0  0  0  0  0  0  0
    1.3897   -3.0970    5.1938 H   0  0  0  0  0  0  0  0  0  0  0  0
    2.7110   -4.0432    5.8373 H   0  0  0  0  0  0  0  0  0  0  0  0
    3.7507   -6.4745   -0.0379 H   0  0  0  0  0  0  0  0  0  0  0  0
    5.8721   -4.3805    1.7744 H   0  0  0  0  0  0  0  0  0  0  0  0
    5.6566   -5.4039    0.4118 H   0  0  0  0  0  0  0  0  0  0  0  0
    6.1782   -2.1038    1.3119 H   0  0  0  0  0  0  0  0  0  0  0  0
    5.8771   -0.1183   -0.1562 H   0  0  0  0  0  0  0  0  0  0  0  0
    3.6803   -4.4382   -1.3546 H   0  0  0  0  0  0  0  0  0  0  0  0
    4.3238   -1.0678   -4.3934 H   0  0  0  0  0  0  0  0  0  0  0  0
    2.7607   -0.4223   -3.8274 H   0  0  0  0  0  0  0  0  0  0  0  0
   -0.3616   -6.7988    6.3433 H   0  0  0  0  0  0  0  0  0  0  0  0
   -1.6182   -6.1396    5.3268 H   0  0  0  0  0  0  0  0  0  0  0  0
  1  2  1  0
  1 26  1  0
  1 27  1  0
  1 28  1  0
  2 25  1  0
  2  3  1  0
  3  4  1  0
  3 29  1  0
  3 30  1  0
  4  5  1  0
  4 31  1  0
  4 32  1  0
  5 24  1  0
  5  6  2  0
  6  7  1  0
  6 25  1  0
  7  8  1  0
  8 24  2  0
  8  9  1  0
  9 10  2  0
 10 11  1  0
 10 33  1  0
 11 12  1  0
 11 22  1  0
 12 13  1  0
 12 34  1  0
 12 35  1  0
 13 18  1  0
 13 14  2  0
 14 15  1  0
 14 36  1  0
 15 16  2  0
 15 37  1  0
 16 21  1  0
 16 17  1  0
 17 18  2  0
 17 19  1  0
 18 38  1  0
 19 20  1  0
 20 21  1  0
 20 39  1  0
 20 40  1  0
 22 23  2  0
 22 24  1  0
 25 41  1  0
 25 42  1  0
M  END
>  <i_m_ct_stereo_status>  (71) 
1

>  <s_m_source_file>  (71) 
/var/tmp/pbs.5102264.sched01/tmpeif0x8wq/23vm_sbjim.sdf

>  <i_m_source_file_index>  (71) 
2

>  <i_lp_mmshare_version>  (71) 
48012

>  <i_f3d_flags>  (71) 
0

>  <s_epik_input>  (71) 
W0NIMl0xW0NIMl1OKFtDSDNdKVtDSDJdYyhjMTIpc2MzYzJjKD1PKW4oW2NIXW4zKVtDSDJdYyhbY0hdW2NIXTQpW2NIXWMoYzQ1KU9bQ0gyXU81

>  <s_epik_cmdline>  (71) 
J2VwaWtfcHl0aG9uJywgJy1waHQnLCAnMi4wJywgJy1waCcsICc3LjAnLCAnLXRuJywgJzgnLCAnLW1hJywgJzIwMCcsICctaW1hZScsICc8aW5maWxlLm1hZT4nLCAnLW9tYWUnLCAnPG91dGZpbGUubWFlPic=

>  <r_lp_tautomer_probability>  (71) 
1

>  <r_epik_Ionization_Penalty>  (71) 
0.810602

>  <r_epik_Ionization_Penalty_Charging>  (71) 
1.55116e-09

>  <r_epik_Ionization_Penalty_Neutral>  (71) 
0.810602

>  <r_epik_State_Penalty>  (71) 
0.84268

>  <r_epik_Charging_Adjusted_Penalty>  (71) 
0.84268

>  <i_epik_Tot_Q>  (71) 
0

>  <i_epik_Tot_abs_Q>  (71) 
0

>  <s_epik_Chemistry_Notes>  (71) 
This compound contains an acetal/aminal-like group ( X-CH(R)-Y where X, Y are N, S, or O) that may be acid/base labile, releasing an aldehyde.

>  <s_lp_Force_Field>  (71) 
OPLS3e

>  <r_lp_Energy>  (71) 
54.6236

>  <b_lp_Chiralities_Consistent>  (71) 
1

>  <s_lp_Variant>  (71) 
17:0-2

>  <s_i_glide_gridfile>  (71) 
pfpi4k_grid

>  <i_i_glide_lignum>  (71) 
2

>  <i_i_glide_rotatable_bonds>  (71) 
2

>  <r_i_docking_score>  (71) 
-2.56535

>  <r_i_glide_ligand_efficiency>  (71) 
-0.102614

>  <r_i_glide_ligand_efficiency_sa>  (71) 
-0.300046

>  <r_i_glide_ligand_efficiency_ln>  (71) 
-0.608066

>  <r_i_glide_gscore>  (71) 
-2.56535

>  <r_i_glide_lipo>  (71) 
-0.164077

>  <r_i_glide_hbond>  (71) 
0

>  <r_i_glide_metal>  (71) 
-0

>  <r_i_glide_rewards>  (71) 
-1.31054

>  <r_i_glide_evdw>  (71) 
-27.9494

>  <r_i_glide_ecoul>  (71) 
0.0267047

>  <r_i_glide_erotb>  (71) 
0.302733

>  <r_i_glide_esite>  (71) 
0

>  <r_i_glide_emodel>  (71) 
-32.5039

>  <r_i_glide_energy>  (71) 
-27.9227

>  <r_i_glide_einternal>  (71) 
0.749653

>  <r_i_glide_intrahb_reward>  (71) 
-0

>  <i_i_glide_confnum>  (71) 
3

>  <i_i_glide_posenum>  (71) 
2

>  <r_i_glide_eff_state_penalty>  (71) 
0

>  <ligand_id>  (71) 
17

>  <original_smiles>  (71) 
CN1CCc2c(sc3ncn(Cc4ccc5c(c4)OCO5)c(=O)c23)C1

>  <smiles>  (71) 
[H]c1c([H])c(C([H])([H])n2c([H])nc3sc4c(c3c2=O)C([H])([H])C([H])([H])N(C([H])([H])[H])C4([H])[H])c([H])c2c1OC([H])([H])O2

$$$$
18:0:0
     RDKit          3D

 40 46  0  0  1  0  0  0  0  0999 V2000
    7.2672   -1.8058    0.4898 O   0  0  0  0  0  0  0  0  0  0  0  0
    6.0531   -1.9373    0.3250 C   0  0  0  0  0  0  0  0  0  0  0  0
    5.0969   -0.9121    0.0112 C   0  0  0  0  0  0  0  0  0  0  0  0
    4.2436   -0.5003    0.9776 C   0  0  0  0  0  0  0  0  0  0  0  0
    4.2353   -1.0550    2.2839 N   0  0  0  0  0  0  0  0  0  0  0  0
    4.5003   -2.4153    2.5802 C   0  0  0  0  0  0  0  0  0  0  0  0
    4.2604   -2.6189    3.9068 C   0  0  0  0  0  0  0  0  0  0  0  0
    3.8409   -1.3610    4.4560 C   0  0  0  0  0  0  0  0  0  0  0  0
    3.4329   -0.9289    5.7344 C   0  0  0  0  0  0  0  0  0  0  0  0
    3.0608    0.4085    5.9809 C   0  0  0  0  0  0  0  0  0  0  0  0
    3.0414    1.3474    4.9360 C   0  0  0  0  0  0  0  0  0  0  0  0
    3.4037    0.9351    3.6422 C   0  0  0  0  0  0  0  0  0  0  0  0
    3.8171   -0.3910    3.4180 C   0  0  0  0  0  0  0  0  0  0  0  0
    4.7711   -3.4690    1.6045 C   0  0  0  0  0  0  0  0  0  0  0  0
    4.3599   -4.7557    1.7273 C   0  0  0  0  0  0  0  0  0  0  0  0
    4.4948   -5.6701    0.6077 C   0  0  0  0  0  0  0  0  0  0  0  0
    4.7517   -5.1764   -0.6069 C   0  0  0  0  0  0  0  0  0  0  0  0
    4.9833   -3.7657   -0.7789 C   0  0  0  0  0  0  0  0  0  0  0  0
    4.6976   -3.0951   -1.9121 C   0  0  0  0  0  0  0  0  0  0  0  0
    4.6362   -1.7842   -2.1835 C   0  0  0  0  0  0  0  0  0  0  0  0
    4.8265   -0.7286   -1.3993 C   0  0  0  0  0  0  0  0  0  0  0  0
    4.1028   -1.9472   -3.5831 C   0  0  2  0  0  0  0  0  0  0  0  0
    2.6545   -1.9545   -3.6904 O   0  0  0  0  0  0  0  0  0  0  0  0
    2.6287   -3.3975   -3.4240 C   0  0  0  0  0  0  0  0  0  0  0  0
    4.1365   -3.4595   -3.2809 C   0  0  2  0  0  0  0  0  0  0  0  0
    5.3804   -3.0880    0.3988 N   0  0  0  0  0  0  0  0  0  0  0  0
    3.4510    0.2174    0.8129 H   0  0  0  0  0  0  0  0  0  0  0  0
    4.3092   -3.5671    4.4239 H   0  0  0  0  0  0  0  0  0  0  0  0
    3.4420   -1.6506    6.5344 H   0  0  0  0  0  0  0  0  0  0  0  0
    2.7992    0.7076    6.9862 H   0  0  0  0  0  0  0  0  0  0  0  0
    2.7763    2.3823    5.1140 H   0  0  0  0  0  0  0  0  0  0  0  0
    3.4067    1.6364    2.8260 H   0  0  0  0  0  0  0  0  0  0  0  0
    3.8242   -5.0895    2.5919 H   0  0  0  0  0  0  0  0  0  0  0  0
    4.2969   -6.7235    0.7179 H   0  0  0  0  0  0  0  0  0  0  0  0
    4.7831   -5.8141   -1.4697 H   0  0  0  0  0  0  0  0  0  0  0  0
    4.6050    0.2056   -1.8501 H   0  0  0  0  0  0  0  0  0  0  0  0
    4.6170   -1.6271   -4.4845 H   0  0  0  0  0  0  0  0  0  0  0  0
    2.1080   -3.6342   -2.5054 H   0  0  0  0  0  0  0  0  0  0  0  0
    2.2623   -3.9753   -4.2623 H   0  0  0  0  0  0  0  0  0  0  0  0
    4.6959   -4.0366   -4.0090 H   0  0  0  0  0  0  0  0  0  0  0  0
  1  2  2  0
  2 26  1  0
  2  3  1  0
  3 21  1  0
  3  4  2  0
  4  5  1  0
  4 27  1  0
  5 13  1  0
  5  6  1  0
  6  7  2  0
  6 14  1  0
  7  8  1  0
  7 28  1  0
  8 13  2  0
  8  9  1  0
  9 10  2  0
  9 29  1  0
 10 11  1  0
 10 30  1  0
 11 12  2  0
 11 31  1  0
 12 13  1  0
 12 32  1  0
 14 26  1  0
 14 15  2  0
 15 16  1  0
 15 33  1  0
 16 17  2  0
 16 34  1  0
 17 18  1  0
 17 35  1  0
 18 19  2  0
 18 26  1  0
 19 25  1  0
 19 20  1  0
 20 21  2  0
 20 22  1  0
 21 36  1  0
 22 25  1  0
 22 23  1  0
 22 37  1  6
 23 24  1  0
 24 25  1  0
 24 38  1  0
 24 39  1  0
 25 40  1  6
M  END
>  <i_m_ct_stereo_status>  (72) 
1

>  <s_m_source_file>  (72) 
/var/tmp/pbs.5102264.sched01/tmpeif0x8wq/23vm_sbjim.sdf

>  <i_m_source_file_index>  (72) 
3

>  <i_lp_mmshare_version>  (72) 
48012

>  <i_f3d_flags>  (72) 
0

>  <s_epik_input>  (72) 
W2NIXTFbY0hdW2NIXVtjSF1jKFtjSF0yKWMxbihbY0hdMyljMmMobjRjKD1PKWMzNSlbY0hdW2NIXVtjSF1jNGM2YyhbY0hdNSlbQ0BIXTdbQ0BASF02W0NIMl1PNw==

>  <s_epik_cmdline>  (72) 
J2VwaWtfcHl0aG9uJywgJy1waHQnLCAnMi4wJywgJy1waCcsICc3LjAnLCAnLXRuJywgJzgnLCAnLW1hJywgJzIwMCcsICctaW1hZScsICc8aW5maWxlLm1hZT4nLCAnLW9tYWUnLCAnPG91dGZpbGUubWFlPic=

>  <r_lp_tautomer_probability>  (72) 
1

>  <r_epik_Ionization_Penalty>  (72) 
9.49851e-13

>  <r_epik_Ionization_Penalty_Charging>  (72) 
0

>  <r_epik_Ionization_Penalty_Neutral>  (72) 
9.49851e-13

>  <r_epik_State_Penalty>  (72) 
-0

>  <r_epik_Charging_Adjusted_Penalty>  (72) 
0

>  <i_epik_Tot_Q>  (72) 
0

>  <i_epik_Tot_abs_Q>  (72) 
0

>  <s_lp_Force_Field>  (72) 
OPLS3e

>  <r_lp_Energy>  (72) 
137.22

>  <b_lp_Chiralities_Consistent>  (72) 
1

>  <s_lp_Variant>  (72) 
18:0-1

>  <s_i_glide_gridfile>  (72) 
pfpi4k_grid

>  <i_i_glide_lignum>  (72) 
3

>  <i_i_glide_rotatable_bonds>  (72) 
0

>  <r_i_docking_score>  (72) 
-3.61771

>  <r_i_glide_ligand_efficiency>  (72) 
-0.139143

>  <r_i_glide_ligand_efficiency_sa>  (72) 
-0.41221

>  <r_i_glide_ligand_efficiency_ln>  (72) 
-0.849608

>  <r_i_glide_gscore>  (72) 
-3.61771

>  <r_i_glide_lipo>  (72) 
-0.913826

>  <r_i_glide_hbond>  (72) 
0

>  <r_i_glide_metal>  (72) 
-0

>  <r_i_glide_rewards>  (72) 
-1.20074

>  <r_i_glide_evdw>  (72) 
-27.1399

>  <r_i_glide_ecoul>  (72) 
-0.974317

>  <r_i_glide_erotb>  (72) 
0

>  <r_i_glide_esite>  (72) 
0

>  <r_i_glide_emodel>  (72) 
-33.8824

>  <r_i_glide_energy>  (72) 
-28.1142

>  <r_i_glide_einternal>  (72) 
0

>  <r_i_glide_intrahb_reward>  (72) 
-0

>  <i_i_glide_confnum>  (72) 
2

>  <i_i_glide_posenum>  (72) 
29

>  <r_i_glide_eff_state_penalty>  (72) 
0

>  <ligand_id>  (72) 
18

>  <original_smiles>  (72) 
O=C1C2=Cn3c(cc4ccccc43)C3=CC=CC(=C4C(=C2)C2OCC42)N13

>  <smiles>  (72) 
[H]C1=C([H])C2=C3C(=C([H])C4=C([H])n5c(c([H])c6c([H])c([H])c([H])c([H])c65)C(=C1[H])N2C4=O)C1([H])OC([H])([H])C31[H]

$$$$
18:0:1
     RDKit          3D

 40 46  0  0  1  0  0  0  0  0999 V2000
    5.4111   -6.0973    1.2300 O   0  0  0  0  0  0  0  0  0  0  0  0
    4.3562   -5.5229    1.4858 C   0  0  0  0  0  0  0  0  0  0  0  0
    3.0942   -5.6650    0.8068 C   0  0  0  0  0  0  0  0  0  0  0  0
    2.7123   -4.6830   -0.0411 C   0  0  0  0  0  0  0  0  0  0  0  0
    3.4855   -3.5208   -0.2994 N   0  0  0  0  0  0  0  0  0  0  0  0
    4.2812   -2.8578    0.6680 C   0  0  0  0  0  0  0  0  0  0  0  0
    4.7768   -1.7185    0.0904 C   0  0  0  0  0  0  0  0  0  0  0  0
    4.2947   -1.6782   -1.2631 C   0  0  0  0  0  0  0  0  0  0  0  0
    4.4215   -0.7652   -2.3289 C   0  0  0  0  0  0  0  0  0  0  0  0
    3.8108   -0.9912   -3.5758 C   0  0  0  0  0  0  0  0  0  0  0  0
    3.0165   -2.1291   -3.7657 C   0  0  0  0  0  0  0  0  0  0  0  0
    2.8312   -3.0383   -2.7168 C   0  0  0  0  0  0  0  0  0  0  0  0
    3.4781   -2.8179   -1.4881 C   0  0  0  0  0  0  0  0  0  0  0  0
    4.3951   -3.2253    2.0784 C   0  0  0  0  0  0  0  0  0  0  0  0
    4.5167   -2.3351    3.0890 C   0  0  0  0  0  0  0  0  0  0  0  0
    4.3757   -2.7594    4.4691 C   0  0  0  0  0  0  0  0  0  0  0  0
    3.8468   -3.9639    4.7392 C   0  0  0  0  0  0  0  0  0  0  0  0
    3.5223   -4.8490    3.6433 C   0  0  0  0  0  0  0  0  0  0  0  0
    2.5315   -5.7745    3.6806 C   0  0  0  0  0  0  0  0  0  0  0  0
    1.9457   -6.5144    2.7353 C   0  0  0  0  0  0  0  0  0  0  0  0
    2.1372   -6.5773    1.4049 C   0  0  0  0  0  0  0  0  0  0  0  0
    0.9031   -7.0942    3.6675 C   0  0  2  0  0  0  0  0  0  0  0  0
   -0.3177   -6.3043    3.7360 O   0  0  0  0  0  0  0  0  0  0  0  0
    0.2430   -5.4797    4.8027 C   0  0  0  0  0  0  0  0  0  0  0  0
    1.5679   -6.2220    4.7622 C   0  0  2  0  0  0  0  0  0  0  0  0
    4.2037   -4.5798    2.4280 N   0  0  0  0  0  0  0  0  0  0  0  0
    1.7672   -4.6794   -0.5629 H   0  0  0  0  0  0  0  0  0  0  0  0
    5.3635   -0.9636    0.5959 H   0  0  0  0  0  0  0  0  0  0  0  0
    5.0083    0.1193   -2.1739 H   0  0  0  0  0  0  0  0  0  0  0  0
    3.9488   -0.2747   -4.3663 H   0  0  0  0  0  0  0  0  0  0  0  0
    2.5439   -2.3153   -4.7182 H   0  0  0  0  0  0  0  0  0  0  0  0
    2.2065   -3.9048   -2.8565 H   0  0  0  0  0  0  0  0  0  0  0  0
    4.5827   -1.2790    2.8821 H   0  0  0  0  0  0  0  0  0  0  0  0
    4.6140   -2.0927    5.2796 H   0  0  0  0  0  0  0  0  0  0  0  0
    3.6605   -4.2775    5.7514 H   0  0  0  0  0  0  0  0  0  0  0  0
    1.4978   -7.1941    0.7950 H   0  0  0  0  0  0  0  0  0  0  0  0
    0.8065   -8.1562    3.8969 H   0  0  0  0  0  0  0  0  0  0  0  0
    0.3276   -4.4356    4.5089 H   0  0  0  0  0  0  0  0  0  0  0  0
   -0.2824   -5.5960    5.7489 H   0  0  0  0  0  0  0  0  0  0  0  0
    1.8820   -6.7695    5.6405 H   0  0  0  0  0  0  0  0  0  0  0  0
  1  2  2  0
  2 26  1  0
  2  3  1  0
  3 21  1  0
  3  4  2  0
  4  5  1  0
  4 27  1  0
  5 13  1  0
  5  6  1  0
  6  7  2  0
  6 14  1  0
  7  8  1  0
  7 28  1  0
  8 13  2  0
  8  9  1  0
  9 10  2  0
  9 29  1  0
 10 11  1  0
 10 30  1  0
 11 12  2  0
 11 31  1  0
 12 13  1  0
 12 32  1  0
 14 26  1  0
 14 15  2  0
 15 16  1  0
 15 33  1  0
 16 17  2  0
 16 34  1  0
 17 18  1  0
 17 35  1  0
 18 19  2  0
 18 26  1  0
 19 25  1  0
 19 20  1  0
 20 21  2  0
 20 22  1  0
 21 36  1  0
 22 25  1  0
 22 23  1  0
 22 37  1  1
 23 24  1  0
 24 25  1  0
 24 38  1  0
 24 39  1  0
 25 40  1  1
M  END
>  <i_m_ct_stereo_status>  (73) 
1

>  <s_m_source_file>  (73) 
/var/tmp/pbs.5102264.sched01/tmpeif0x8wq/23vm_sbjim.sdf

>  <i_m_source_file_index>  (73) 
3

>  <i_lp_mmshare_version>  (73) 
48012

>  <i_f3d_flags>  (73) 
0

>  <s_epik_input>  (73) 
W2NIXTFbY0hdW2NIXVtjSF1jKFtjSF0yKWMxbihbY0hdMyljMmMobjRjKD1PKWMzNSlbY0hdW2NIXVtjSF1jNGM2YyhbY0hdNSlbQ0BIXTdbQ0BASF02W0NIMl1PNw==

>  <s_epik_cmdline>  (73) 
J2VwaWtfcHl0aG9uJywgJy1waHQnLCAnMi4wJywgJy1waCcsICc3LjAnLCAnLXRuJywgJzgnLCAnLW1hJywgJzIwMCcsICctaW1hZScsICc8aW5maWxlLm1hZT4nLCAnLW9tYWUnLCAnPG91dGZpbGUubWFlPic=

>  <r_lp_tautomer_probability>  (73) 
1

>  <r_epik_Ionization_Penalty>  (73) 
9.49851e-13

>  <r_epik_Ionization_Penalty_Charging>  (73) 
0

>  <r_epik_Ionization_Penalty_Neutral>  (73) 
9.49851e-13

>  <r_epik_State_Penalty>  (73) 
-0

>  <r_epik_Charging_Adjusted_Penalty>  (73) 
0

>  <i_epik_Tot_Q>  (73) 
0

>  <i_epik_Tot_abs_Q>  (73) 
0

>  <s_lp_Force_Field>  (73) 
OPLS3e

>  <r_lp_Energy>  (73) 
137.22

>  <b_lp_Chiralities_Consistent>  (73) 
1

>  <s_lp_Variant>  (73) 
18:0-1

>  <s_i_glide_gridfile>  (73) 
pfpi4k_grid

>  <i_i_glide_lignum>  (73) 
3

>  <i_i_glide_rotatable_bonds>  (73) 
0

>  <r_i_docking_score>  (73) 
-3.50997

>  <r_i_glide_ligand_efficiency>  (73) 
-0.134999

>  <r_i_glide_ligand_efficiency_sa>  (73) 
-0.399934

>  <r_i_glide_ligand_efficiency_ln>  (73) 
-0.824306

>  <r_i_glide_gscore>  (73) 
-3.50997

>  <r_i_glide_lipo>  (73) 
-0.504695

>  <r_i_glide_hbond>  (73) 
-0.0895185

>  <r_i_glide_metal>  (73) 
-0

>  <r_i_glide_rewards>  (73) 
-1.1306

>  <r_i_glide_evdw>  (73) 
-26.8468

>  <r_i_glide_ecoul>  (73) 
-2.95218

>  <r_i_glide_erotb>  (73) 
0

>  <r_i_glide_esite>  (73) 
0

>  <r_i_glide_emodel>  (73) 
-35.5943

>  <r_i_glide_energy>  (73) 
-29.799

>  <r_i_glide_einternal>  (73) 
0

>  <r_i_glide_intrahb_reward>  (73) 
-0

>  <i_i_glide_confnum>  (73) 
1

>  <i_i_glide_posenum>  (73) 
1

>  <r_i_glide_eff_state_penalty>  (73) 
0

>  <ligand_id>  (73) 
18

>  <original_smiles>  (73) 
O=C1C2=Cn3c(cc4ccccc43)C3=CC=CC(=C4C(=C2)C2OCC42)N13

>  <smiles>  (73) 
[H]C1=C([H])C2=C3C(=C([H])C4=C([H])n5c(c([H])c6c([H])c([H])c([H])c([H])c65)C(=C1[H])N2C4=O)C1([H])OC([H])([H])C31[H]

$$$$
18:0:2
     RDKit          3D

 40 46  0  0  1  0  0  0  0  0999 V2000
    5.1428   -2.0012    3.2255 O   0  0  0  0  0  0  0  0  0  0  0  0
    4.3022   -2.0911    2.3287 C   0  0  0  0  0  0  0  0  0  0  0  0
    3.6657   -1.0116    1.6178 C   0  0  0  0  0  0  0  0  0  0  0  0
    2.3969   -0.6790    1.9473 C   0  0  0  0  0  0  0  0  0  0  0  0
    1.6543   -1.3512    2.9595 N   0  0  0  0  0  0  0  0  0  0  0  0
    1.7555   -2.7359    3.2443 C   0  0  0  0  0  0  0  0  0  0  0  0
    0.8111   -3.0381    4.1856 C   0  0  0  0  0  0  0  0  0  0  0  0
    0.1111   -1.8232    4.4965 C   0  0  0  0  0  0  0  0  0  0  0  0
   -0.9749   -1.4960    5.3373 C   0  0  0  0  0  0  0  0  0  0  0  0
   -1.4720   -0.1785    5.4146 C   0  0  0  0  0  0  0  0  0  0  0  0
   -0.9119    0.8423    4.6265 C   0  0  0  0  0  0  0  0  0  0  0  0
    0.1452    0.5366    3.7545 C   0  0  0  0  0  0  0  0  0  0  0  0
    0.6503   -0.7732    3.7046 C   0  0  0  0  0  0  0  0  0  0  0  0
    2.5766   -3.7100    2.5213 C   0  0  0  0  0  0  0  0  0  0  0  0
    2.2220   -4.9959    2.2831 C   0  0  0  0  0  0  0  0  0  0  0  0
    2.9823   -5.8173    1.3568 C   0  0  0  0  0  0  0  0  0  0  0  0
    3.8627   -5.2358    0.5294 C   0  0  0  0  0  0  0  0  0  0  0  0
    4.1075   -3.8133    0.6539 C   0  0  0  0  0  0  0  0  0  0  0  0
    4.4842   -3.0186   -0.3718 C   0  0  0  0  0  0  0  0  0  0  0  0
    4.5388   -1.6919   -0.5156 C   0  0  0  0  0  0  0  0  0  0  0  0
    4.2270   -0.6862    0.3289 C   0  0  0  0  0  0  0  0  0  0  0  0
    4.9196   -1.7475   -1.9753 C   0  0  2  0  0  0  0  0  0  0  0  0
    3.8003   -1.7341   -2.9012 O   0  0  0  0  0  0  0  0  0  0  0  0
    3.6644   -3.1839   -2.8047 C   0  0  0  0  0  0  0  0  0  0  0  0
    4.8252   -3.2859   -1.8291 C   0  0  2  0  0  0  0  0  0  0  0  0
    3.7496   -3.2373    1.9034 N   0  0  0  0  0  0  0  0  0  0  0  0
    1.8136    0.0501    1.4003 H   0  0  0  0  0  0  0  0  0  0  0  0
    0.5897   -4.0264    4.5641 H   0  0  0  0  0  0  0  0  0  0  0  0
   -1.3997   -2.2890    5.9291 H   0  0  0  0  0  0  0  0  0  0  0  0
   -2.2833    0.0563    6.0810 H   0  0  0  0  0  0  0  0  0  0  0  0
   -1.2777    1.8541    4.6957 H   0  0  0  0  0  0  0  0  0  0  0  0
    0.5801    1.3039    3.1347 H   0  0  0  0  0  0  0  0  0  0  0  0
    1.2965   -5.3849    2.6715 H   0  0  0  0  0  0  0  0  0  0  0  0
    2.7935   -6.8759    1.2718 H   0  0  0  0  0  0  0  0  0  0  0  0
    4.3933   -5.8064   -0.2187 H   0  0  0  0  0  0  0  0  0  0  0  0
    4.2730    0.3356    0.0031 H   0  0  0  0  0  0  0  0  0  0  0  0
    5.8641   -1.3616   -2.3487 H   0  0  0  0  0  0  0  0  0  0  0  0
    2.7122   -3.4870   -2.3659 H   0  0  0  0  0  0  0  0  0  0  0  0
    3.8564   -3.6950   -3.7472 H   0  0  0  0  0  0  0  0  0  0  0  0
    5.7166   -3.8180   -2.1428 H   0  0  0  0  0  0  0  0  0  0  0  0
  1  2  2  0
  2 26  1  0
  2  3  1  0
  3 21  1  0
  3  4  2  0
  4  5  1  0
  4 27  1  0
  5 13  1  0
  5  6  1  0
  6  7  2  0
  6 14  1  0
  7  8  1  0
  7 28  1  0
  8 13  2  0
  8  9  1  0
  9 10  2  0
  9 29  1  0
 10 11  1  0
 10 30  1  0
 11 12  2  0
 11 31  1  0
 12 13  1  0
 12 32  1  0
 14 26  1  0
 14 15  2  0
 15 16  1  0
 15 33  1  0
 16 17  2  0
 16 34  1  0
 17 18  1  0
 17 35  1  0
 18 19  2  0
 18 26  1  0
 19 25  1  0
 19 20  1  0
 20 21  2  0
 20 22  1  0
 21 36  1  0
 22 25  1  0
 22 23  1  0
 22 37  1  6
 23 24  1  0
 24 25  1  0
 24 38  1  0
 24 39  1  0
 25 40  1  1
M  END
>  <i_m_ct_stereo_status>  (74) 
1

>  <s_m_source_file>  (74) 
/var/tmp/pbs.5102264.sched01/tmpeif0x8wq/23vm_sbjim.sdf

>  <i_m_source_file_index>  (74) 
3

>  <i_lp_mmshare_version>  (74) 
48012

>  <i_f3d_flags>  (74) 
0

>  <s_epik_input>  (74) 
W2NIXTFbY0hdW2NIXVtjSF1jKFtjSF0yKWMxbihbY0hdMyljMmMobjRjKD1PKWMzNSlbY0hdW2NIXVtjSF1jNGM2YyhbY0hdNSlbQ0BIXTdbQ0BASF02W0NIMl1PNw==

>  <s_epik_cmdline>  (74) 
J2VwaWtfcHl0aG9uJywgJy1waHQnLCAnMi4wJywgJy1waCcsICc3LjAnLCAnLXRuJywgJzgnLCAnLW1hJywgJzIwMCcsICctaW1hZScsICc8aW5maWxlLm1hZT4nLCAnLW9tYWUnLCAnPG91dGZpbGUubWFlPic=

>  <r_lp_tautomer_probability>  (74) 
1

>  <r_epik_Ionization_Penalty>  (74) 
9.49851e-13

>  <r_epik_Ionization_Penalty_Charging>  (74) 
0

>  <r_epik_Ionization_Penalty_Neutral>  (74) 
9.49851e-13

>  <r_epik_State_Penalty>  (74) 
-0

>  <r_epik_Charging_Adjusted_Penalty>  (74) 
0

>  <i_epik_Tot_Q>  (74) 
0

>  <i_epik_Tot_abs_Q>  (74) 
0

>  <s_lp_Force_Field>  (74) 
OPLS3e

>  <r_lp_Energy>  (74) 
137.22

>  <b_lp_Chiralities_Consistent>  (74) 
1

>  <s_lp_Variant>  (74) 
18:0-1

>  <s_i_glide_gridfile>  (74) 
pfpi4k_grid

>  <i_i_glide_lignum>  (74) 
3

>  <i_i_glide_rotatable_bonds>  (74) 
0

>  <r_i_docking_score>  (74) 
-2.85247

>  <r_i_glide_ligand_efficiency>  (74) 
-0.10971

>  <r_i_glide_ligand_efficiency_sa>  (74) 
-0.325016

>  <r_i_glide_ligand_efficiency_ln>  (74) 
-0.669893

>  <r_i_glide_gscore>  (74) 
-2.85247

>  <r_i_glide_lipo>  (74) 
-0.250133

>  <r_i_glide_hbond>  (74) 
0

>  <r_i_glide_metal>  (74) 
-0

>  <r_i_glide_rewards>  (74) 
-1.10526

>  <r_i_glide_evdw>  (74) 
-29.7687

>  <r_i_glide_ecoul>  (74) 
0.0472528

>  <r_i_glide_erotb>  (74) 
0

>  <r_i_glide_esite>  (74) 
-0.0157236

>  <r_i_glide_emodel>  (74) 
-34.3955

>  <r_i_glide_energy>  (74) 
-29.7215

>  <r_i_glide_einternal>  (74) 
0

>  <r_i_glide_intrahb_reward>  (74) 
-0

>  <i_i_glide_confnum>  (74) 
2

>  <i_i_glide_posenum>  (74) 
35

>  <r_i_glide_eff_state_penalty>  (74) 
0

>  <ligand_id>  (74) 
18

>  <original_smiles>  (74) 
O=C1C2=Cn3c(cc4ccccc43)C3=CC=CC(=C4C(=C2)C2OCC42)N13

>  <smiles>  (74) 
[H]C1=C([H])C2=C3C(=C([H])C4=C([H])n5c(c([H])c6c([H])c([H])c([H])c([H])c65)C(=C1[H])N2C4=O)C1([H])OC([H])([H])C31[H]

$$$$
19:0:0
     RDKit          3D

 52 57  0  0  1  0  0  0  0  0999 V2000
   -1.1988   -8.1125    3.7177 C   0  0  0  0  0  0  0  0  0  0  0  0
   -0.3420   -8.6569    4.6860 C   0  0  0  0  0  0  0  0  0  0  0  0
    0.9828   -8.9641    4.3476 C   0  0  0  0  0  0  0  0  0  0  0  0
    1.4685   -8.6700    3.0583 C   0  0  0  0  0  0  0  0  0  0  0  0
    2.9259   -8.9397    2.7174 C   0  0  0  0  0  0  0  0  0  0  0  0
    3.7949   -7.7245    2.6513 N   0  0  0  0  0  0  0  0  0  0  0  0
    4.0182   -6.9803    3.7765 C   0  0  0  0  0  0  0  0  0  0  0  0
    3.3541   -7.2331    4.9113 N   0  0  0  0  0  0  0  0  0  0  0  0
    3.7288   -6.3594    6.0129 C   0  0  0  0  0  0  0  0  0  0  0  0
    4.9242   -5.6291    5.4385 C   0  0  0  0  0  0  0  0  0  0  0  0
    4.8869   -5.9622    4.0076 N   0  0  0  0  0  0  0  0  0  0  0  0
    5.9065   -5.2893    3.1703 C   0  0  0  0  0  0  0  0  0  0  0  0
    5.4175   -5.1707    1.7614 C   0  0  0  0  0  0  0  0  0  0  0  0
    4.8383   -6.1599    1.0165 C   0  0  0  0  0  0  0  0  0  0  0  0
    4.6022   -5.6524   -0.2529 N   0  0  0  0  0  0  0  0  0  0  0  0
    5.0171   -4.3476   -0.3591 C   0  0  0  0  0  0  0  0  0  0  0  0
    5.0060   -3.4329   -1.4232 C   0  0  0  0  0  0  0  0  0  0  0  0
    5.5270   -2.1385   -1.2259 C   0  0  0  0  0  0  0  0  0  0  0  0
    6.0767   -1.8026    0.0258 C   0  0  0  0  0  0  0  0  0  0  0  0
    6.0851   -2.7339    1.0709 C   0  0  0  0  0  0  0  0  0  0  0  0
    5.5428   -4.0213    0.9148 C   0  0  0  0  0  0  0  0  0  0  0  0
    4.5424   -7.5839    1.3822 C   0  0  1  0  0  0  0  0  0  0  0  0
    5.7624   -8.5035    1.3264 C   0  0  0  0  0  0  0  0  0  0  0  0
    6.5002   -8.9470    2.5975 C   0  0  0  0  0  0  0  0  0  0  0  0
    7.1780   -8.0344    1.6029 C   0  0  0  0  0  0  0  0  0  0  0  0
    0.6183   -8.0975    2.0976 C   0  0  0  0  0  0  0  0  0  0  0  0
   -0.7175   -7.8360    2.4270 C   0  0  0  0  0  0  0  0  0  0  0  0
    4.1800   -6.1743   -1.0221 H   0  0  0  0  0  0  0  0  0  0  0  0
   -2.2364   -7.9386    3.9637 H   0  0  0  0  0  0  0  0  0  0  0  0
   -0.7073   -8.8943    5.6744 H   0  0  0  0  0  0  0  0  0  0  0  0
    1.6168   -9.4148    5.0883 H   0  0  0  0  0  0  0  0  0  0  0  0
    3.3527   -9.6041    3.4742 H   0  0  0  0  0  0  0  0  0  0  0  0
    2.9703   -9.5256    1.7823 H   0  0  0  0  0  0  0  0  0  0  0  0
    2.9260   -5.6455    6.2015 H   0  0  0  0  0  0  0  0  0  0  0  0
    3.9581   -6.9054    6.9366 H   0  0  0  0  0  0  0  0  0  0  0  0
    4.9143   -4.5537    5.6190 H   0  0  0  0  0  0  0  0  0  0  0  0
    5.8346   -6.0463    5.8568 H   0  0  0  0  0  0  0  0  0  0  0  0
    6.0499   -4.2716    3.5779 H   0  0  0  0  0  0  0  0  0  0  0  0
    6.8565   -5.8265    3.1954 H   0  0  0  0  0  0  0  0  0  0  0  0
    4.5822   -3.7184   -2.3681 H   0  0  0  0  0  0  0  0  0  0  0  0
    5.4735   -1.4040   -2.0265 H   0  0  0  0  0  0  0  0  0  0  0  0
    6.4706   -0.8062    0.2209 H   0  0  0  0  0  0  0  0  0  0  0  0
    6.5083   -2.4889    2.0212 H   0  0  0  0  0  0  0  0  0  0  0  0
    3.8748   -7.9344    0.5872 H   0  0  0  0  0  0  0  0  0  0  0  0
    5.6496   -9.2359    0.5253 H   0  0  0  0  0  0  0  0  0  0  0  0
    6.1489   -8.5418    3.5371 H   0  0  0  0  0  0  0  0  0  0  0  0
    6.7986   -9.9993    2.6636 H   0  0  0  0  0  0  0  0  0  0  0  0
    7.9520   -8.5451    1.0132 H   0  0  0  0  0  0  0  0  0  0  0  0
    7.3406   -6.9860    1.8478 H   0  0  0  0  0  0  0  0  0  0  0  0
    0.9956   -7.8954    1.1060 H   0  0  0  0  0  0  0  0  0  0  0  0
   -1.3863   -7.4531    1.6821 H   0  0  0  0  0  0  0  0  0  0  0  0
    2.6507   -7.9617    4.9981 H   0  0  0  0  0  0  0  0  0  0  0  0
  1 27  2  0
  1  2  1  0
  1 29  1  0
  2  3  2  0
  2 30  1  0
  3  4  1  0
  3 31  1  0
  4  5  1  0
  4 26  2  0
  5  6  1  0
  5 32  1  0
  5 33  1  0
  6 22  1  0
  6  7  1  0
  7 11  1  0
  7  8  2  0
  8  9  1  0
  8 52  1  0
  9 10  1  0
  9 34  1  0
  9 35  1  0
 10 11  1  0
 10 36  1  0
 10 37  1  0
 11 12  1  0
 12 13  1  0
 12 38  1  0
 12 39  1  0
 13 21  1  0
 13 14  2  0
 14 15  1  0
 14 22  1  0
 15 28  1  0
 15 16  1  0
 16 21  2  0
 16 17  1  0
 17 18  2  0
 17 40  1  0
 18 19  1  0
 18 41  1  0
 19 20  2  0
 19 42  1  0
 20 21  1  0
 20 43  1  0
 22 23  1  0
 22 44  1  6
 23 25  1  0
 23 24  1  0
 23 45  1  0
 24 25  1  0
 24 46  1  0
 24 47  1  0
 25 48  1  0
 25 49  1  0
 26 27  1  0
 26 50  1  0
 27 51  1  0
M  CHG  1   8   1
M  END
>  <i_m_ct_stereo_status>  (75) 
1

>  <s_m_source_file>  (75) 
/var/tmp/pbs.5102264.sched01/tmpeif0x8wq/23vm_sbjim.sdf

>  <i_m_source_file_index>  (75) 
4

>  <i_lp_mmshare_version>  (75) 
48012

>  <i_f3d_flags>  (75) 
0

>  <s_epik_input>  (75) 
W2NIXTFbY0hdW2NIXVtjSF1bY0hdYzFbQ0gyXU4yW0NASF0oW0NIXTNbQ0gyXVtDSDJdMyljKGM0W0NIMl1OKEMyPTUpW0NIMl1bQ0gyXU41KVtuSF1jNmM0W2NIXVtjSF1bY0hdW2NIXTY=

>  <s_epik_cmdline>  (75) 
J2VwaWtfcHl0aG9uJywgJy1waHQnLCAnMi4wJywgJy1waCcsICc3LjAnLCAnLXRuJywgJzgnLCAnLW1hJywgJzIwMCcsICctaW1hZScsICc8aW5maWxlLm1hZT4nLCAnLW9tYWUnLCAnPG91dGZpbGUubWFlPic=

>  <r_lp_tautomer_probability>  (75) 
1

>  <r_epik_Ionization_Penalty>  (75) 
1.45027e-05

>  <r_epik_Ionization_Penalty_Charging>  (75) 
1.44983e-05

>  <r_epik_Ionization_Penalty_Neutral>  (75) 
4.32588e-09

>  <r_epik_State_Penalty>  (75) 
-0

>  <r_epik_Charging_Adjusted_Penalty>  (75) 
1.44983e-05

>  <i_epik_Tot_Q>  (75) 
1

>  <i_epik_Tot_abs_Q>  (75) 
1

>  <s_epik_Chemistry_Notes>  (75) 
This compound has an imine and may undergo hydrolysis.

>  <s_lp_Force_Field>  (75) 
OPLS3e

>  <r_lp_Energy>  (75) 
46.8585

>  <b_lp_Chiralities_Consistent>  (75) 
1

>  <s_lp_Variant>  (75) 
19:0-1

>  <s_i_glide_gridfile>  (75) 
pfpi4k_grid

>  <i_i_glide_lignum>  (75) 
4

>  <i_i_glide_rotatable_bonds>  (75) 
3

>  <r_i_docking_score>  (75) 
-3.33868

>  <r_i_glide_ligand_efficiency>  (75) 
-0.123655

>  <r_i_glide_ligand_efficiency_sa>  (75) 
-0.370965

>  <r_i_glide_ligand_efficiency_ln>  (75) 
-0.77719

>  <r_i_glide_gscore>  (75) 
-3.33868

>  <r_i_glide_lipo>  (75) 
-0.7225

>  <r_i_glide_hbond>  (75) 
-0.306832

>  <r_i_glide_metal>  (75) 
-0

>  <r_i_glide_rewards>  (75) 
-0.971786

>  <r_i_glide_evdw>  (75) 
-26.7979

>  <r_i_glide_ecoul>  (75) 
-2.86582

>  <r_i_glide_erotb>  (75) 
0.449451

>  <r_i_glide_esite>  (75) 
-0.017248

>  <r_i_glide_emodel>  (75) 
-30.7027

>  <r_i_glide_energy>  (75) 
-29.6637

>  <r_i_glide_einternal>  (75) 
8.57387

>  <r_i_glide_intrahb_reward>  (75) 
-0

>  <i_i_glide_confnum>  (75) 
5

>  <i_i_glide_posenum>  (75) 
14

>  <r_i_glide_eff_state_penalty>  (75) 
0

>  <ligand_id>  (75) 
19

>  <original_smiles>  (75) 
c1ccc(CN2C3=NCCN3Cc3c([nH]c4ccccc34)C2C2CC2)cc1

>  <smiles>  (75) 
[H]c1c([H])c([H])c(C([H])([H])N2C3=[N+]([H])C([H])([H])C([H])([H])N3C([H])([H])c3c(n([H])c4c([H])c([H])c([H])c([H])c34)C2([H])C2([H])C([H])([H])C2([H])[H])c([H])c1[H]

$$$$
19:0:1
     RDKit          3D

 52 57  0  0  1  0  0  0  0  0999 V2000
   -1.6247   -7.9066    3.5864 C   0  0  0  0  0  0  0  0  0  0  0  0
   -1.1375   -9.0489    2.8850 C   0  0  0  0  0  0  0  0  0  0  0  0
    0.2667   -9.1235    2.6373 C   0  0  0  0  0  0  0  0  0  0  0  0
    1.1065   -8.0522    2.9791 C   0  0  0  0  0  0  0  0  0  0  0  0
    2.5950   -8.2870    2.7727 C   0  0  0  0  0  0  0  0  0  0  0  0
    3.5213   -7.1200    2.7206 N   0  0  0  0  0  0  0  0  0  0  0  0
    3.7137   -6.3708    3.8391 C   0  0  0  0  0  0  0  0  0  0  0  0
    3.1355   -6.6802    4.9949 N   0  0  0  0  0  0  0  0  0  0  0  0
    3.3604   -5.6823    6.0289 C   0  0  0  0  0  0  0  0  0  0  0  0
    4.4415   -4.8142    5.4386 C   0  0  0  0  0  0  0  0  0  0  0  0
    4.5424   -5.2613    4.0367 N   0  0  0  0  0  0  0  0  0  0  0  0
    5.4530   -4.5414    3.1335 C   0  0  0  0  0  0  0  0  0  0  0  0
    4.9322   -4.4637    1.7285 C   0  0  0  0  0  0  0  0  0  0  0  0
    4.4083   -5.5055    1.0046 C   0  0  0  0  0  0  0  0  0  0  0  0
    4.1868   -5.0423   -0.2960 N   0  0  0  0  0  0  0  0  0  0  0  0
    4.5222   -3.7067   -0.4245 C   0  0  0  0  0  0  0  0  0  0  0  0
    4.4690   -2.8140   -1.5024 C   0  0  0  0  0  0  0  0  0  0  0  0
    4.8741   -1.4809   -1.3275 C   0  0  0  0  0  0  0  0  0  0  0  0
    5.3608   -1.0637   -0.0779 C   0  0  0  0  0  0  0  0  0  0  0  0
    5.4233   -1.9787    0.9974 C   0  0  0  0  0  0  0  0  0  0  0  0
    4.9941   -3.3109    0.8511 C   0  0  0  0  0  0  0  0  0  0  0  0
    4.2313   -6.9572    1.4200 C   0  0  1  0  0  0  0  0  0  0  0  0
    5.5174   -7.7719    1.4442 C   0  0  0  0  0  0  0  0  0  0  0  0
    5.4958   -9.2854    1.2882 C   0  0  0  0  0  0  0  0  0  0  0  0
    5.9526   -8.6656    2.6073 C   0  0  0  0  0  0  0  0  0  0  0  0
    0.5821   -6.8745    3.5685 C   0  0  0  0  0  0  0  0  0  0  0  0
   -0.7625   -6.8671    3.9473 C   0  0  0  0  0  0  0  0  0  0  0  0
    3.8337   -5.6211   -1.0556 H   0  0  0  0  0  0  0  0  0  0  0  0
   -2.6912   -7.8355    3.7756 H   0  0  0  0  0  0  0  0  0  0  0  0
   -1.7905   -9.8390    2.5214 H   0  0  0  0  0  0  0  0  0  0  0  0
    0.6642  -10.0189    2.1480 H   0  0  0  0  0  0  0  0  0  0  0  0
    2.9646   -8.9506    3.5578 H   0  0  0  0  0  0  0  0  0  0  0  0
    2.6807   -8.8409    1.8400 H   0  0  0  0  0  0  0  0  0  0  0  0
    2.4282   -5.1541    5.9999 H   0  0  0  0  0  0  0  0  0  0  0  0
    3.5444   -6.0258    7.0467 H   0  0  0  0  0  0  0  0  0  0  0  0
    4.2856   -3.7296    5.5577 H   0  0  0  0  0  0  0  0  0  0  0  0
    5.3725   -5.0986    5.8920 H   0  0  0  0  0  0  0  0  0  0  0  0
    5.6173   -3.5286    3.5093 H   0  0  0  0  0  0  0  0  0  0  0  0
    6.4171   -5.0489    3.1682 H   0  0  0  0  0  0  0  0  0  0  0  0
    4.0847   -3.1613   -2.4423 H   0  0  0  0  0  0  0  0  0  0  0  0
    4.7919   -0.7818   -2.1299 H   0  0  0  0  0  0  0  0  0  0  0  0
    5.6594   -0.0530    0.0988 H   0  0  0  0  0  0  0  0  0  0  0  0
    5.7915   -1.6760    1.9572 H   0  0  0  0  0  0  0  0  0  0  0  0
    3.5925   -7.3361    0.6223 H   0  0  0  0  0  0  0  0  0  0  0  0
    6.2917   -7.2593    0.8866 H   0  0  0  0  0  0  0  0  0  0  0  0
    4.5160   -9.7912    1.1995 H   0  0  0  0  0  0  0  0  0  0  0  0
    6.2929   -9.7370    0.6903 H   0  0  0  0  0  0  0  0  0  0  0  0
    7.0381   -8.6908    2.7880 H   0  0  0  0  0  0  0  0  0  0  0  0
    5.2949   -8.7652    3.4980 H   0  0  0  0  0  0  0  0  0  0  0  0
    1.1749   -5.9984    3.7576 H   0  0  0  0  0  0  0  0  0  0  0  0
   -1.1047   -6.0312    4.5217 H   0  0  0  0  0  0  0  0  0  0  0  0
    2.4655   -7.4366    5.0697 H   0  0  0  0  0  0  0  0  0  0  0  0
  1 27  2  0
  1  2  1  0
  1 29  1  0
  2  3  2  0
  2 30  1  0
  3  4  1  0
  3 31  1  0
  4  5  1  0
  4 26  2  0
  5  6  1  0
  5 32  1  0
  5 33  1  0
  6 22  1  0
  6  7  1  0
  7 11  1  0
  7  8  2  0
  8  9  1  0
  8 52  1  0
  9 10  1  0
  9 34  1  0
  9 35  1  0
 10 11  1  0
 10 36  1  0
 10 37  1  0
 11 12  1  0
 12 13  1  0
 12 38  1  0
 12 39  1  0
 13 21  1  0
 13 14  2  0
 14 15  1  0
 14 22  1  0
 15 28  1  0
 15 16  1  0
 16 21  2  0
 16 17  1  0
 17 18  2  0
 17 40  1  0
 18 19  1  0
 18 41  1  0
 19 20  2  0
 19 42  1  0
 20 21  1  0
 20 43  1  0
 22 23  1  0
 22 44  1  6
 23 25  1  0
 23 24  1  0
 23 45  1  0
 24 25  1  0
 24 46  1  0
 24 47  1  0
 25 48  1  0
 25 49  1  0
 26 27  1  0
 26 50  1  0
 27 51  1  0
M  CHG  1   8   1
M  END
>  <i_m_ct_stereo_status>  (76) 
1

>  <s_m_source_file>  (76) 
/var/tmp/pbs.5102264.sched01/tmpeif0x8wq/23vm_sbjim.sdf

>  <i_m_source_file_index>  (76) 
4

>  <i_lp_mmshare_version>  (76) 
48012

>  <i_f3d_flags>  (76) 
0

>  <s_epik_input>  (76) 
W2NIXTFbY0hdW2NIXVtjSF1bY0hdYzFbQ0gyXU4yW0NASF0oW0NIXTNbQ0gyXVtDSDJdMyljKGM0W0NIMl1OKEMyPTUpW0NIMl1bQ0gyXU41KVtuSF1jNmM0W2NIXVtjSF1bY0hdW2NIXTY=

>  <s_epik_cmdline>  (76) 
J2VwaWtfcHl0aG9uJywgJy1waHQnLCAnMi4wJywgJy1waCcsICc3LjAnLCAnLXRuJywgJzgnLCAnLW1hJywgJzIwMCcsICctaW1hZScsICc8aW5maWxlLm1hZT4nLCAnLW9tYWUnLCAnPG91dGZpbGUubWFlPic=

>  <r_lp_tautomer_probability>  (76) 
1

>  <r_epik_Ionization_Penalty>  (76) 
1.45027e-05

>  <r_epik_Ionization_Penalty_Charging>  (76) 
1.44983e-05

>  <r_epik_Ionization_Penalty_Neutral>  (76) 
4.32588e-09

>  <r_epik_State_Penalty>  (76) 
-0

>  <r_epik_Charging_Adjusted_Penalty>  (76) 
1.44983e-05

>  <i_epik_Tot_Q>  (76) 
1

>  <i_epik_Tot_abs_Q>  (76) 
1

>  <s_epik_Chemistry_Notes>  (76) 
This compound has an imine and may undergo hydrolysis.

>  <s_lp_Force_Field>  (76) 
OPLS3e

>  <r_lp_Energy>  (76) 
46.8585

>  <b_lp_Chiralities_Consistent>  (76) 
1

>  <s_lp_Variant>  (76) 
19:0-1

>  <s_i_glide_gridfile>  (76) 
pfpi4k_grid

>  <i_i_glide_lignum>  (76) 
4

>  <i_i_glide_rotatable_bonds>  (76) 
3

>  <r_i_docking_score>  (76) 
-3.32054

>  <r_i_glide_ligand_efficiency>  (76) 
-0.122983

>  <r_i_glide_ligand_efficiency_sa>  (76) 
-0.368949

>  <r_i_glide_ligand_efficiency_ln>  (76) 
-0.772967

>  <r_i_glide_gscore>  (76) 
-3.32054

>  <r_i_glide_lipo>  (76) 
-0.396336

>  <r_i_glide_hbond>  (76) 
-0.32

>  <r_i_glide_metal>  (76) 
-0

>  <r_i_glide_rewards>  (76) 
-0.972051

>  <r_i_glide_evdw>  (76) 
-27.2884

>  <r_i_glide_ecoul>  (76) 
-4.57539

>  <r_i_glide_erotb>  (76) 
0.449451

>  <r_i_glide_esite>  (76) 
-0.0308786

>  <r_i_glide_emodel>  (76) 
-31.4443

>  <r_i_glide_energy>  (76) 
-31.8637

>  <r_i_glide_einternal>  (76) 
8.02189

>  <r_i_glide_intrahb_reward>  (76) 
-0

>  <i_i_glide_confnum>  (76) 
2

>  <i_i_glide_posenum>  (76) 
13

>  <r_i_glide_eff_state_penalty>  (76) 
0

>  <ligand_id>  (76) 
19

>  <original_smiles>  (76) 
c1ccc(CN2C3=NCCN3Cc3c([nH]c4ccccc34)C2C2CC2)cc1

>  <smiles>  (76) 
[H]c1c([H])c([H])c(C([H])([H])N2C3=[N+]([H])C([H])([H])C([H])([H])N3C([H])([H])c3c(n([H])c4c([H])c([H])c([H])c([H])c34)C2([H])C2([H])C([H])([H])C2([H])[H])c([H])c1[H]

$$$$
19:0:2
     RDKit          3D

 52 57  0  0  1  0  0  0  0  0999 V2000
   -1.1161   -8.4500    2.4782 C   0  0  0  0  0  0  0  0  0  0  0  0
   -0.4196   -9.4576    3.1421 C   0  0  0  0  0  0  0  0  0  0  0  0
    0.9790   -9.4492    3.1896 C   0  0  0  0  0  0  0  0  0  0  0  0
    1.6941   -8.4431    2.5231 C   0  0  0  0  0  0  0  0  0  0  0  0
    3.2163   -8.4770    2.5681 C   0  0  0  0  0  0  0  0  0  0  0  0
    3.8716   -7.1315    2.5742 N   0  0  0  0  0  0  0  0  0  0  0  0
    3.6688   -6.2936    3.6438 C   0  0  0  0  0  0  0  0  0  0  0  0
    2.7896   -6.6177    4.6145 N   0  0  0  0  0  0  0  0  0  0  0  0
    2.6931   -5.6062    5.6543 C   0  0  0  0  0  0  0  0  0  0  0  0
    3.8581   -4.7020    5.3166 C   0  0  0  0  0  0  0  0  0  0  0  0
    4.2555   -5.0947    3.9646 N   0  0  0  0  0  0  0  0  0  0  0  0
    5.2470   -4.2229    3.3026 C   0  0  0  0  0  0  0  0  0  0  0  0
    5.1171   -4.3493    1.8202 C   0  0  0  0  0  0  0  0  0  0  0  0
    4.9205   -5.4735    1.0493 C   0  0  0  0  0  0  0  0  0  0  0  0
    4.8764   -5.1096   -0.2916 N   0  0  0  0  0  0  0  0  0  0  0  0
    5.0946   -3.7539   -0.4293 C   0  0  0  0  0  0  0  0  0  0  0  0
    5.1862   -2.9156   -1.5563 C   0  0  0  0  0  0  0  0  0  0  0  0
    5.3894   -1.5407   -1.3702 C   0  0  0  0  0  0  0  0  0  0  0  0
    5.5609   -1.0283   -0.0765 C   0  0  0  0  0  0  0  0  0  0  0  0
    5.5021   -1.8811    1.0392 C   0  0  0  0  0  0  0  0  0  0  0  0
    5.2387   -3.2591    0.8956 C   0  0  0  0  0  0  0  0  0  0  0  0
    4.8159   -6.9106    1.4549 C   0  0  1  0  0  0  0  0  0  0  0  0
    6.1643   -7.5922    1.7497 C   0  0  0  0  0  0  0  0  0  0  0  0
    7.1058   -6.9822    2.7422 C   0  0  0  0  0  0  0  0  0  0  0  0
    7.4827   -6.9456    1.2891 C   0  0  0  0  0  0  0  0  0  0  0  0
    0.9956   -7.4331    1.8263 C   0  0  0  0  0  0  0  0  0  0  0  0
   -0.4081   -7.4356    1.8098 C   0  0  0  0  0  0  0  0  0  0  0  0
    4.7736   -5.7658   -1.0600 H   0  0  0  0  0  0  0  0  0  0  0  0
   -2.1958   -8.4770    2.4512 H   0  0  0  0  0  0  0  0  0  0  0  0
   -0.9671  -10.2606    3.6114 H   0  0  0  0  0  0  0  0  0  0  0  0
    1.5084  -10.2337    3.7228 H   0  0  0  0  0  0  0  0  0  0  0  0
    3.5443   -8.9846    3.4775 H   0  0  0  0  0  0  0  0  0  0  0  0
    3.5721   -9.0785    1.7325 H   0  0  0  0  0  0  0  0  0  0  0  0
    1.7679   -5.0563    5.5471 H   0  0  0  0  0  0  0  0  0  0  0  0
    2.7659   -6.0267    6.6520 H   0  0  0  0  0  0  0  0  0  0  0  0
    3.6381   -3.6338    5.3737 H   0  0  0  0  0  0  0  0  0  0  0  0
    4.7093   -4.9180    5.9552 H   0  0  0  0  0  0  0  0  0  0  0  0
    5.0543   -3.1834    3.5938 H   0  0  0  0  0  0  0  0  0  0  0  0
    6.2233   -4.4644    3.6628 H   0  0  0  0  0  0  0  0  0  0  0  0
    5.0483   -3.3225   -2.5463 H   0  0  0  0  0  0  0  0  0  0  0  0
    5.4024   -0.8730   -2.2106 H   0  0  0  0  0  0  0  0  0  0  0  0
    5.7019    0.0268    0.0838 H   0  0  0  0  0  0  0  0  0  0  0  0
    5.6214   -1.4873    2.0375 H   0  0  0  0  0  0  0  0  0  0  0  0
    4.3734   -7.4333    0.5925 H   0  0  0  0  0  0  0  0  0  0  0  0
    6.0894   -8.6795    1.7027 H   0  0  0  0  0  0  0  0  0  0  0  0
    6.8237   -6.1070    3.2527 H   0  0  0  0  0  0  0  0  0  0  0  0
    7.7035   -7.7085    3.3061 H   0  0  0  0  0  0  0  0  0  0  0  0
    8.2859   -7.5782    0.9049 H   0  0  0  0  0  0  0  0  0  0  0  0
    7.4009   -5.9829    0.7740 H   0  0  0  0  0  0  0  0  0  0  0  0
    1.5335   -6.6578    1.3028 H   0  0  0  0  0  0  0  0  0  0  0  0
   -0.9469   -6.6776    1.2692 H   0  0  0  0  0  0  0  0  0  0  0  0
    2.2225   -7.4584    4.6174 H   0  0  0  0  0  0  0  0  0  0  0  0
  1 27  2  0
  1  2  1  0
  1 29  1  0
  2  3  2  0
  2 30  1  0
  3  4  1  0
  3 31  1  0
  4  5  1  0
  4 26  2  0
  5  6  1  0
  5 32  1  0
  5 33  1  0
  6 22  1  0
  6  7  1  0
  7 11  1  0
  7  8  2  0
  8  9  1  0
  8 52  1  0
  9 10  1  0
  9 34  1  0
  9 35  1  0
 10 11  1  0
 10 36  1  0
 10 37  1  0
 11 12  1  0
 12 13  1  0
 12 38  1  0
 12 39  1  0
 13 21  1  0
 13 14  2  0
 14 15  1  0
 14 22  1  0
 15 28  1  0
 15 16  1  0
 16 21  2  0
 16 17  1  0
 17 18  2  0
 17 40  1  0
 18 19  1  0
 18 41  1  0
 19 20  2  0
 19 42  1  0
 20 21  1  0
 20 43  1  0
 22 23  1  0
 22 44  1  6
 23 25  1  0
 23 24  1  0
 23 45  1  0
 24 25  1  0
 24 46  1  0
 24 47  1  0
 25 48  1  0
 25 49  1  0
 26 27  1  0
 26 50  1  0
 27 51  1  0
M  CHG  1   8   1
M  END
>  <i_m_ct_stereo_status>  (77) 
1

>  <s_m_source_file>  (77) 
/var/tmp/pbs.5102264.sched01/tmpeif0x8wq/23vm_sbjim.sdf

>  <i_m_source_file_index>  (77) 
4

>  <i_lp_mmshare_version>  (77) 
48012

>  <i_f3d_flags>  (77) 
0

>  <s_epik_input>  (77) 
W2NIXTFbY0hdW2NIXVtjSF1bY0hdYzFbQ0gyXU4yW0NASF0oW0NIXTNbQ0gyXVtDSDJdMyljKGM0W0NIMl1OKEMyPTUpW0NIMl1bQ0gyXU41KVtuSF1jNmM0W2NIXVtjSF1bY0hdW2NIXTY=

>  <s_epik_cmdline>  (77) 
J2VwaWtfcHl0aG9uJywgJy1waHQnLCAnMi4wJywgJy1waCcsICc3LjAnLCAnLXRuJywgJzgnLCAnLW1hJywgJzIwMCcsICctaW1hZScsICc8aW5maWxlLm1hZT4nLCAnLW9tYWUnLCAnPG91dGZpbGUubWFlPic=

>  <r_lp_tautomer_probability>  (77) 
1

>  <r_epik_Ionization_Penalty>  (77) 
1.45027e-05

>  <r_epik_Ionization_Penalty_Charging>  (77) 
1.44983e-05

>  <r_epik_Ionization_Penalty_Neutral>  (77) 
4.32588e-09

>  <r_epik_State_Penalty>  (77) 
-0

>  <r_epik_Charging_Adjusted_Penalty>  (77) 
1.44983e-05

>  <i_epik_Tot_Q>  (77) 
1

>  <i_epik_Tot_abs_Q>  (77) 
1

>  <s_epik_Chemistry_Notes>  (77) 
This compound has an imine and may undergo hydrolysis.

>  <s_lp_Force_Field>  (77) 
OPLS3e

>  <r_lp_Energy>  (77) 
46.8585

>  <b_lp_Chiralities_Consistent>  (77) 
1

>  <s_lp_Variant>  (77) 
19:0-1

>  <s_i_glide_gridfile>  (77) 
pfpi4k_grid

>  <i_i_glide_lignum>  (77) 
4

>  <i_i_glide_rotatable_bonds>  (77) 
3

>  <r_i_docking_score>  (77) 
-2.72195

>  <r_i_glide_ligand_efficiency>  (77) 
-0.100813

>  <r_i_glide_ligand_efficiency_sa>  (77) 
-0.302438

>  <r_i_glide_ligand_efficiency_ln>  (77) 
-0.633624

>  <r_i_glide_gscore>  (77) 
-2.72195

>  <r_i_glide_lipo>  (77) 
-0.49274

>  <r_i_glide_hbond>  (77) 
-0.0242127

>  <r_i_glide_metal>  (77) 
-0

>  <r_i_glide_rewards>  (77) 
-0.972069

>  <r_i_glide_evdw>  (77) 
-27.6739

>  <r_i_glide_ecoul>  (77) 
-1.9232

>  <r_i_glide_erotb>  (77) 
0.449451

>  <r_i_glide_esite>  (77) 
-0.0102015

>  <r_i_glide_emodel>  (77) 
-30.9898

>  <r_i_glide_energy>  (77) 
-29.5971

>  <r_i_glide_einternal>  (77) 
4.35439

>  <r_i_glide_intrahb_reward>  (77) 
-0

>  <i_i_glide_confnum>  (77) 
6

>  <i_i_glide_posenum>  (77) 
7

>  <r_i_glide_eff_state_penalty>  (77) 
0

>  <ligand_id>  (77) 
19

>  <original_smiles>  (77) 
c1ccc(CN2C3=NCCN3Cc3c([nH]c4ccccc34)C2C2CC2)cc1

>  <smiles>  (77) 
[H]c1c([H])c([H])c(C([H])([H])N2C3=[N+]([H])C([H])([H])C([H])([H])N3C([H])([H])c3c(n([H])c4c([H])c([H])c([H])c([H])c34)C2([H])C2([H])C([H])([H])C2([H])[H])c([H])c1[H]

$$$$
20:0:0
     RDKit          3D

 47 51  0  0  1  0  0  0  0  0999 V2000
    1.8586   -4.9593    0.0081 O   0  0  0  0  0  0  0  0  0  0  0  0
    3.0085   -5.1634    0.4361 C   0  0  0  0  0  0  0  0  0  0  0  0
    3.3491   -6.3836    0.9878 N   0  0  0  0  0  0  0  0  0  0  0  0
    4.7273   -6.9113    1.0211 C   0  0  0  0  0  0  0  0  0  0  0  0
    4.9358   -8.4011    1.0769 C   0  0  0  0  0  0  0  0  0  0  0  0
    4.0583   -8.9969    2.1555 C   0  0  0  0  0  0  0  0  0  0  0  0
    2.7264   -8.4357    2.0832 N   0  0  0  0  0  0  0  0  0  0  0  0
    1.5617   -8.9706    2.5915 C   0  0  0  0  0  0  0  0  0  0  0  0
    0.5674   -8.0601    2.3187 C   0  0  0  0  0  0  0  0  0  0  0  0
   -0.8083   -8.1231    2.6093 N   0  0  0  0  0  0  0  0  0  0  0  0
   -1.4583   -7.0794    2.5642 O   0  0  0  0  0  0  0  0  0  0  0  0
   -1.2838   -9.2223    2.8816 O   0  0  0  0  0  0  0  0  0  0  0  0
    1.0888   -6.9458    1.6833 N   0  0  0  0  0  0  0  0  0  0  0  0
    2.3765   -7.2391    1.5581 C   0  0  0  0  0  0  0  0  0  0  0  0
    3.9967   -3.9790    0.2458 C   0  0  1  0  0  0  0  0  0  0  0  0
    3.8524   -3.4395   -1.1993 C   0  0  0  0  0  0  0  0  0  0  0  0
    4.8088   -2.2477   -1.3949 C   0  0  2  0  0  0  0  0  0  0  0  0
    6.2700   -2.6861   -1.1669 C   0  0  0  0  0  0  0  0  0  0  0  0
    6.4358   -3.1506    0.2822 C   0  0  1  0  0  0  0  0  0  0  0  0
    6.0518   -2.0958    1.3182 C   0  0  0  0  0  0  0  0  0  0  0  0
    4.5971   -1.6522    1.0489 C   0  0  1  0  0  0  0  0  0  0  0  0
    4.2794   -0.6317    1.9584 O   0  0  0  0  0  0  0  0  0  0  0  0
    4.4431   -1.1300   -0.3961 C   0  0  0  0  0  0  0  0  0  0  0  0
    3.6347   -2.8408    1.2516 C   0  0  0  0  0  0  0  0  0  0  0  0
    5.5007   -4.2944    0.4554 C   0  0  0  0  0  0  0  0  0  0  0  0
    5.1989   -6.7434    0.0566 H   0  0  0  0  0  0  0  0  0  0  0  0
    5.2409   -6.5340    1.9069 H   0  0  0  0  0  0  0  0  0  0  0  0
    4.7141   -8.7772    0.0779 H   0  0  0  0  0  0  0  0  0  0  0  0
    6.0092   -8.5598    1.2507 H   0  0  0  0  0  0  0  0  0  0  0  0
    4.0260  -10.0717    2.0046 H   0  0  0  0  0  0  0  0  0  0  0  0
    4.4816   -8.7573    3.1332 H   0  0  0  0  0  0  0  0  0  0  0  0
    1.5227   -9.9250    3.0983 H   0  0  0  0  0  0  0  0  0  0  0  0
    4.0732   -4.2427   -1.9035 H   0  0  0  0  0  0  0  0  0  0  0  0
    2.8187   -3.1373   -1.3886 H   0  0  0  0  0  0  0  0  0  0  0  0
    4.7047   -1.8905   -2.4110 H   0  0  0  0  0  0  0  0  0  0  0  0
    6.5364   -3.4910   -1.8572 H   0  0  0  0  0  0  0  0  0  0  0  0
    6.9690   -1.8790   -1.3248 H   0  0  0  0  0  0  0  0  0  0  0  0
    7.4270   -3.5757    0.4706 H   0  0  0  0  0  0  0  0  0  0  0  0
    6.1410   -2.5218    2.3250 H   0  0  0  0  0  0  0  0  0  0  0  0
    6.7703   -1.2817    1.2452 H   0  0  0  0  0  0  0  0  0  0  0  0
    3.3988   -0.3373    1.7797 H   0  0  0  0  0  0  0  0  0  0  0  0
    5.0647   -0.2497   -0.5661 H   0  0  0  0  0  0  0  0  0  0  0  0
    3.4082   -0.8248   -0.5601 H   0  0  0  0  0  0  0  0  0  0  0  0
    2.6136   -2.4824    1.0975 H   0  0  0  0  0  0  0  0  0  0  0  0
    3.7204   -3.1865    2.2861 H   0  0  0  0  0  0  0  0  0  0  0  0
    5.6751   -4.6108    1.4823 H   0  0  0  0  0  0  0  0  0  0  0  0
    5.8697   -4.9689   -0.3134 H   0  0  0  0  0  0  0  0  0  0  0  0
  1  2  2  0
  2  3  1  0
 15  2  1  6
  3 14  1  0
  3  4  1  0
  4  5  1  0
  4 26  1  0
  4 27  1  0
  5  6  1  0
  5 28  1  0
  5 29  1  0
  6  7  1  0
  6 30  1  0
  6 31  1  0
  7 14  1  0
  7  8  1  0
  8  9  2  0
  8 32  1  0
  9 10  1  0
  9 13  1  0
 10 11  2  0
 10 12  1  0
 13 14  2  0
 15 24  1  0
 15 25  1  0
 15 16  1  0
 16 17  1  0
 16 33  1  0
 16 34  1  0
 17 23  1  0
 17 18  1  0
 17 35  1  6
 18 19  1  0
 18 36  1  0
 18 37  1  0
 19 20  1  0
 19 25  1  0
 19 38  1  1
 20 21  1  0
 20 39  1  0
 20 40  1  0
 21 22  1  1
 21 23  1  0
 21 24  1  0
 22 41  1  0
 23 42  1  0
 23 43  1  0
 24 44  1  0
 24 45  1  0
 25 46  1  0
 25 47  1  0
M  CHG  2  10   1  12  -1
M  END
>  <i_m_ct_stereo_status>  (78) 
1

>  <s_m_source_file>  (78) 
/var/tmp/pbs.5102264.sched01/tmpeif0x8wq/23vm_sbjim.sdf

>  <i_m_source_file_index>  (78) 
5

>  <i_lp_mmshare_version>  (78) 
48012

>  <i_f3d_flags>  (78) 
0

>  <s_epik_input>  (78) 
Tz1bTitdKFtPLV0pYyhbY0hdMSluYyhuMTIpTihbQ0gyXVtDSDJdW0NIMl0yKUMoPU8pW0NAQF0zNFtDSDJdW0NAQEhdNVtDSDJdW0NASF0oW0NIMl00KVtDSDJdW0NAQF0oW09IXSkoW0NIMl01KVtDSDJdMw==

>  <s_epik_cmdline>  (78) 
J2VwaWtfcHl0aG9uJywgJy1waHQnLCAnMi4wJywgJy1waCcsICc3LjAnLCAnLXRuJywgJzgnLCAnLW1hJywgJzIwMCcsICctaW1hZScsICc8aW5maWxlLm1hZT4nLCAnLW9tYWUnLCAnPG91dGZpbGUubWFlPic=

>  <r_lp_tautomer_probability>  (78) 
1

>  <r_epik_Ionization_Penalty>  (78) 
1.23091e-06

>  <r_epik_Ionization_Penalty_Charging>  (78) 
5.36903e-08

>  <r_epik_Ionization_Penalty_Neutral>  (78) 
1.17722e-06

>  <r_epik_State_Penalty>  (78) 
-0

>  <r_epik_Charging_Adjusted_Penalty>  (78) 
5.36903e-08

>  <i_epik_Tot_Q>  (78) 
0

>  <i_epik_Tot_abs_Q>  (78) 
2

>  <s_lp_Force_Field>  (78) 
OPLS3e

>  <r_lp_Energy>  (78) 
23.0304

>  <b_lp_Chiralities_Consistent>  (78) 
1

>  <s_lp_Variant>  (78) 
20:0-1

>  <s_i_glide_gridfile>  (78) 
pfpi4k_grid

>  <i_i_glide_lignum>  (78) 
5

>  <i_i_glide_rotatable_bonds>  (78) 
4

>  <r_i_docking_score>  (78) 
-3.87932

>  <r_i_glide_ligand_efficiency>  (78) 
-0.155173

>  <r_i_glide_ligand_efficiency_sa>  (78) 
-0.453729

>  <r_i_glide_ligand_efficiency_ln>  (78) 
-0.919516

>  <r_i_glide_gscore>  (78) 
-3.87932

>  <r_i_glide_lipo>  (78) 
-0.433388

>  <r_i_glide_hbond>  (78) 
-0.056049

>  <r_i_glide_metal>  (78) 
-0

>  <r_i_glide_rewards>  (78) 
-1.09083

>  <r_i_glide_evdw>  (78) 
-33.3481

>  <r_i_glide_ecoul>  (78) 
-4.85237

>  <r_i_glide_erotb>  (78) 
0.31691

>  <r_i_glide_esite>  (78) 
-0.220709

>  <r_i_glide_emodel>  (78) 
-38.6172

>  <r_i_glide_energy>  (78) 
-38.2005

>  <r_i_glide_einternal>  (78) 
14.9847

>  <r_i_glide_intrahb_reward>  (78) 
-0

>  <i_i_glide_confnum>  (78) 
1

>  <i_i_glide_posenum>  (78) 
8

>  <r_i_glide_eff_state_penalty>  (78) 
0

>  <ligand_id>  (78) 
20

>  <original_smiles>  (78) 
O=C(N1CCCn2cc([N+](=O)[O-])nc21)C12CC3CC(CC(O)(C3)C1)C2

>  <smiles>  (78) 
[H]OC12C([H])([H])C3([H])C([H])([H])C([H])(C1([H])[H])C([H])([H])C(C(=O)N1c4nc([N+](=O)[O-])c([H])n4C([H])([H])C([H])([H])C1([H])[H])(C3([H])[H])C2([H])[H]

$$$$
20:0:1
     RDKit          3D

 47 51  0  0  1  0  0  0  0  0999 V2000
    1.8491   -5.0422   -0.2527 O   0  0  0  0  0  0  0  0  0  0  0  0
    2.9850   -5.1062    0.2322 C   0  0  0  0  0  0  0  0  0  0  0  0
    3.4078   -6.1917    0.9678 N   0  0  0  0  0  0  0  0  0  0  0  0
    4.8435   -6.5641    1.1360 C   0  0  0  0  0  0  0  0  0  0  0  0
    5.1120   -8.0494    1.3717 C   0  0  0  0  0  0  0  0  0  0  0  0
    4.2202   -8.6411    2.4455 C   0  0  0  0  0  0  0  0  0  0  0  0
    2.8506   -8.1950    2.2438 N   0  0  0  0  0  0  0  0  0  0  0  0
    1.6962   -8.7758    2.7433 C   0  0  0  0  0  0  0  0  0  0  0  0
    0.6633   -7.9670    2.3260 C   0  0  0  0  0  0  0  0  0  0  0  0
   -0.7418   -8.1133    2.5581 N   0  0  0  0  0  0  0  0  0  0  0  0
   -1.1799   -9.2317    2.7887 O   0  0  0  0  0  0  0  0  0  0  0  0
   -1.4123   -7.0982    2.4888 O   0  0  0  0  0  0  0  0  0  0  0  0
    1.1455   -6.8782    1.6220 N   0  0  0  0  0  0  0  0  0  0  0  0
    2.4562   -7.0722    1.5807 C   0  0  0  0  0  0  0  0  0  0  0  0
    3.9362   -3.8841   -0.0291 C   0  0  1  0  0  0  0  0  0  0  0  0
    3.0526   -2.7525   -0.6243 C   0  0  0  0  0  0  0  0  0  0  0  0
    3.8919   -1.5004   -0.9388 C   0  0  2  0  0  0  0  0  0  0  0  0
    4.9883   -1.8594   -1.9605 C   0  0  0  0  0  0  0  0  0  0  0  0
    5.8801   -2.9500   -1.3724 C   0  0  1  0  0  0  0  0  0  0  0  0
    6.5259   -2.4832   -0.0448 C   0  0  0  0  0  0  0  0  0  0  0  0
    5.4126   -2.0852    0.9495 C   0  0  1  0  0  0  0  0  0  0  0  0
    6.0023   -1.6117    2.1345 O   0  0  0  0  0  0  0  0  0  0  0  0
    4.5167   -0.9860    0.3666 C   0  0  0  0  0  0  0  0  0  0  0  0
    4.5583   -3.3151    1.2913 C   0  0  0  0  0  0  0  0  0  0  0  0
    5.0386   -4.1976   -1.1024 C   0  0  0  0  0  0  0  0  0  0  0  0
    5.4232   -6.4767    0.2360 H   0  0  0  0  0  0  0  0  0  0  0  0
    5.2931   -6.0561    1.9983 H   0  0  0  0  0  0  0  0  0  0  0  0
    4.9680   -8.5760    0.4256 H   0  0  0  0  0  0  0  0  0  0  0  0
    6.1685   -8.1685    1.6233 H   0  0  0  0  0  0  0  0  0  0  0  0
    4.2650   -9.7370    2.4213 H   0  0  0  0  0  0  0  0  0  0  0  0
    4.5535   -8.2808    3.4268 H   0  0  0  0  0  0  0  0  0  0  0  0
    1.7022   -9.6731    3.3503 H   0  0  0  0  0  0  0  0  0  0  0  0
    2.5588   -3.0802   -1.5482 H   0  0  0  0  0  0  0  0  0  0  0  0
    2.2445   -2.4939    0.0708 H   0  0  0  0  0  0  0  0  0  0  0  0
    3.2310   -0.7509   -1.3664 H   0  0  0  0  0  0  0  0  0  0  0  0
    4.5379   -2.2371   -2.8829 H   0  0  0  0  0  0  0  0  0  0  0  0
    5.5881   -0.9844   -2.2053 H   0  0  0  0  0  0  0  0  0  0  0  0
    6.6609   -3.2408   -2.0782 H   0  0  0  0  0  0  0  0  0  0  0  0
    7.1400   -3.2800    0.3786 H   0  0  0  0  0  0  0  0  0  0  0  0
    7.2057   -1.6508   -0.2298 H   0  0  0  0  0  0  0  0  0  0  0  0
    6.5092   -2.3056    2.5184 H   0  0  0  0  0  0  0  0  0  0  0  0
    5.0803   -0.0716    0.1852 H   0  0  0  0  0  0  0  0  0  0  0  0
    3.7279   -0.7461    1.0800 H   0  0  0  0  0  0  0  0  0  0  0  0
    3.7739   -3.0689    2.0216 H   0  0  0  0  0  0  0  0  0  0  0  0
    5.2348   -3.9992    1.7925 H   0  0  0  0  0  0  0  0  0  0  0  0
    5.8225   -4.8745   -0.8156 H   0  0  0  0  0  0  0  0  0  0  0  0
    4.5730   -4.5862   -2.0205 H   0  0  0  0  0  0  0  0  0  0  0  0
  1  2  2  0
  2  3  1  0
 15  2  1  1
  3 14  1  0
  3  4  1  0
  4  5  1  0
  4 26  1  0
  4 27  1  0
  5  6  1  0
  5 28  1  0
  5 29  1  0
  6  7  1  0
  6 30  1  0
  6 31  1  0
  7 14  1  0
  7  8  1  0
  8  9  2  0
  8 32  1  0
  9 10  1  0
  9 13  1  0
 10 11  2  0
 10 12  1  0
 13 14  2  0
 15 24  1  0
 15 25  1  0
 15 16  1  0
 16 17  1  0
 16 33  1  0
 16 34  1  0
 17 23  1  0
 17 18  1  0
 17 35  1  6
 18 19  1  0
 18 36  1  0
 18 37  1  0
 19 20  1  0
 19 25  1  0
 19 38  1  6
 20 21  1  0
 20 39  1  0
 20 40  1  0
 21 22  1  1
 21 23  1  0
 21 24  1  0
 22 41  1  0
 23 42  1  0
 23 43  1  0
 24 44  1  0
 24 45  1  0
 25 46  1  0
 25 47  1  0
M  CHG  2  10   1  12  -1
M  END
>  <i_m_ct_stereo_status>  (79) 
1

>  <s_m_source_file>  (79) 
/var/tmp/pbs.5102264.sched01/tmpeif0x8wq/23vm_sbjim.sdf

>  <i_m_source_file_index>  (79) 
5

>  <i_lp_mmshare_version>  (79) 
48012

>  <i_f3d_flags>  (79) 
0

>  <s_epik_input>  (79) 
Tz1bTitdKFtPLV0pYyhbY0hdMSluYyhuMTIpTihbQ0gyXVtDSDJdW0NIMl0yKUMoPU8pW0NAQF0zNFtDSDJdW0NAQEhdNVtDSDJdW0NASF0oW0NIMl00KVtDSDJdW0NAQF0oW09IXSkoW0NIMl01KVtDSDJdMw==

>  <s_epik_cmdline>  (79) 
J2VwaWtfcHl0aG9uJywgJy1waHQnLCAnMi4wJywgJy1waCcsICc3LjAnLCAnLXRuJywgJzgnLCAnLW1hJywgJzIwMCcsICctaW1hZScsICc8aW5maWxlLm1hZT4nLCAnLW9tYWUnLCAnPG91dGZpbGUubWFlPic=

>  <r_lp_tautomer_probability>  (79) 
1

>  <r_epik_Ionization_Penalty>  (79) 
1.23091e-06

>  <r_epik_Ionization_Penalty_Charging>  (79) 
5.36903e-08

>  <r_epik_Ionization_Penalty_Neutral>  (79) 
1.17722e-06

>  <r_epik_State_Penalty>  (79) 
-0

>  <r_epik_Charging_Adjusted_Penalty>  (79) 
5.36903e-08

>  <i_epik_Tot_Q>  (79) 
0

>  <i_epik_Tot_abs_Q>  (79) 
2

>  <s_lp_Force_Field>  (79) 
OPLS3e

>  <r_lp_Energy>  (79) 
23.0304

>  <b_lp_Chiralities_Consistent>  (79) 
1

>  <s_lp_Variant>  (79) 
20:0-1

>  <s_i_glide_gridfile>  (79) 
pfpi4k_grid

>  <i_i_glide_lignum>  (79) 
5

>  <i_i_glide_rotatable_bonds>  (79) 
4

>  <r_i_docking_score>  (79) 
-3.56207

>  <r_i_glide_ligand_efficiency>  (79) 
-0.142483

>  <r_i_glide_ligand_efficiency_sa>  (79) 
-0.416622

>  <r_i_glide_ligand_efficiency_ln>  (79) 
-0.844318

>  <r_i_glide_gscore>  (79) 
-3.56207

>  <r_i_glide_lipo>  (79) 
-0.350797

>  <r_i_glide_hbond>  (79) 
-0.0420311

>  <r_i_glide_metal>  (79) 
-0

>  <r_i_glide_rewards>  (79) 
-1.0837

>  <r_i_glide_evdw>  (79) 
-32.1517

>  <r_i_glide_ecoul>  (79) 
-3.89495

>  <r_i_glide_erotb>  (79) 
0.31691

>  <r_i_glide_esite>  (79) 
-0.210627

>  <r_i_glide_emodel>  (79) 
-43.5816

>  <r_i_glide_energy>  (79) 
-36.0467

>  <r_i_glide_einternal>  (79) 
1.93426

>  <r_i_glide_intrahb_reward>  (79) 
-0

>  <i_i_glide_confnum>  (79) 
1

>  <i_i_glide_posenum>  (79) 
1

>  <r_i_glide_eff_state_penalty>  (79) 
0

>  <ligand_id>  (79) 
20

>  <original_smiles>  (79) 
O=C(N1CCCn2cc([N+](=O)[O-])nc21)C12CC3CC(CC(O)(C3)C1)C2

>  <smiles>  (79) 
[H]OC12C([H])([H])C3([H])C([H])([H])C([H])(C1([H])[H])C([H])([H])C(C(=O)N1c4nc([N+](=O)[O-])c([H])n4C([H])([H])C([H])([H])C1([H])[H])(C3([H])[H])C2([H])[H]

$$$$
20:0:2
     RDKit          3D

 47 51  0  0  1  0  0  0  0  0999 V2000
    1.1831    0.6488    1.6829 O   0  0  0  0  0  0  0  0  0  0  0  0
    1.4636    0.5567    2.8779 C   0  0  0  0  0  0  0  0  0  0  0  0
    2.2572   -0.4619    3.2980 N   0  0  0  0  0  0  0  0  0  0  0  0
    3.6038   -0.5940    2.7180 C   0  0  0  0  0  0  0  0  0  0  0  0
    4.5539   -1.4075    3.6326 C   0  0  0  0  0  0  0  0  0  0  0  0
    3.9346   -2.7216    4.1478 C   0  0  0  0  0  0  0  0  0  0  0  0
    2.5499   -2.5289    4.5323 N   0  0  0  0  0  0  0  0  0  0  0  0
    1.7749   -3.3234    5.3710 C   0  0  0  0  0  0  0  0  0  0  0  0
    0.5119   -2.7548    5.3431 C   0  0  0  0  0  0  0  0  0  0  0  0
   -0.6328   -3.0814    6.1173 N   0  0  0  0  0  0  0  0  0  0  0  0
   -0.6134   -4.0848    6.8198 O   0  0  0  0  0  0  0  0  0  0  0  0
   -1.5869   -2.3026    6.0804 O   0  0  0  0  0  0  0  0  0  0  0  0
    0.4761   -1.6918    4.4478 N   0  0  0  0  0  0  0  0  0  0  0  0
    1.7453   -1.5531    4.0743 C   0  0  0  0  0  0  0  0  0  0  0  0
    0.9570    1.6494    3.8606 C   0  0  1  0  0  0  0  0  0  0  0  0
    2.1138    2.6491    4.1243 C   0  0  0  0  0  0  0  0  0  0  0  0
    1.6388    3.7665    5.0854 C   0  0  2  0  0  0  0  0  0  0  0  0
    1.1756    3.1614    6.4334 C   0  0  0  0  0  0  0  0  0  0  0  0
    0.0064    2.2013    6.1700 C   0  0  1  0  0  0  0  0  0  0  0  0
   -1.1840    2.9255    5.5212 C   0  0  0  0  0  0  0  0  0  0  0  0
   -0.7112    3.5541    4.1938 C   0  0  1  0  0  0  0  0  0  0  0  0
   -1.7717    4.2640    3.5868 O   0  0  0  0  0  0  0  0  0  0  0  0
    0.4636    4.5249    4.4390 C   0  0  0  0  0  0  0  0  0  0  0  0
   -0.2422    2.4285    3.2391 C   0  0  0  0  0  0  0  0  0  0  0  0
    0.4707    1.1039    5.2245 C   0  0  0  0  0  0  0  0  0  0  0  0
    3.5012   -1.0794    1.7465 H   0  0  0  0  0  0  0  0  0  0  0  0
    4.0466    0.3913    2.5322 H   0  0  0  0  0  0  0  0  0  0  0  0
    5.4931   -1.6091    3.1061 H   0  0  0  0  0  0  0  0  0  0  0  0
    4.8139   -0.7830    4.4905 H   0  0  0  0  0  0  0  0  0  0  0  0
    3.9319   -3.4569    3.3462 H   0  0  0  0  0  0  0  0  0  0  0  0
    4.5114   -3.1348    4.9722 H   0  0  0  0  0  0  0  0  0  0  0  0
    2.1599   -4.1773    5.9028 H   0  0  0  0  0  0  0  0  0  0  0  0
    2.9727    2.1331    4.5612 H   0  0  0  0  0  0  0  0  0  0  0  0
    2.4794    3.0853    3.1883 H   0  0  0  0  0  0  0  0  0  0  0  0
    2.4631    4.4562    5.2731 H   0  0  0  0  0  0  0  0  0  0  0  0
    1.9986    2.6172    6.9031 H   0  0  0  0  0  0  0  0  0  0  0  0
    0.8629    3.9364    7.1339 H   0  0  0  0  0  0  0  0  0  0  0  0
   -0.3073    1.7323    7.1013 H   0  0  0  0  0  0  0  0  0  0  0  0
   -1.9815    2.2088    5.3196 H   0  0  0  0  0  0  0  0  0  0  0  0
   -1.5949    3.6686    6.2023 H   0  0  0  0  0  0  0  0  0  0  0  0
   -1.5280    4.3731    2.6732 H   0  0  0  0  0  0  0  0  0  0  0  0
    0.1469    5.3491    5.0753 H   0  0  0  0  0  0  0  0  0  0  0  0
    0.7851    4.9622    3.4945 H   0  0  0  0  0  0  0  0  0  0  0  0
    0.0739    2.8602    2.2906 H   0  0  0  0  0  0  0  0  0  0  0  0
   -1.0585    1.7420    2.9917 H   0  0  0  0  0  0  0  0  0  0  0  0
   -0.4022    0.4696    5.0860 H   0  0  0  0  0  0  0  0  0  0  0  0
    1.2630    0.5480    5.7236 H   0  0  0  0  0  0  0  0  0  0  0  0
  1  2  2  0
  2  3  1  0
 15  2  1  6
  3 14  1  0
  3  4  1  0
  4  5  1  0
  4 26  1  0
  4 27  1  0
  5  6  1  0
  5 28  1  0
  5 29  1  0
  6  7  1  0
  6 30  1  0
  6 31  1  0
  7 14  1  0
  7  8  1  0
  8  9  2  0
  8 32  1  0
  9 10  1  0
  9 13  1  0
 10 11  2  0
 10 12  1  0
 13 14  2  0
 15 24  1  0
 15 25  1  0
 15 16  1  0
 16 17  1  0
 16 33  1  0
 16 34  1  0
 17 23  1  0
 17 18  1  0
 17 35  1  1
 18 19  1  0
 18 36  1  0
 18 37  1  0
 19 20  1  0
 19 25  1  0
 19 38  1  1
 20 21  1  0
 20 39  1  0
 20 40  1  0
 21 22  1  6
 21 23  1  0
 21 24  1  0
 22 41  1  0
 23 42  1  0
 23 43  1  0
 24 44  1  0
 24 45  1  0
 25 46  1  0
 25 47  1  0
M  CHG  2  10   1  12  -1
M  END
>  <i_m_ct_stereo_status>  (80) 
1

>  <s_m_source_file>  (80) 
/var/tmp/pbs.5102264.sched01/tmpeif0x8wq/23vm_sbjim.sdf

>  <i_m_source_file_index>  (80) 
5

>  <i_lp_mmshare_version>  (80) 
48012

>  <i_f3d_flags>  (80) 
0

>  <s_epik_input>  (80) 
Tz1bTitdKFtPLV0pYyhbY0hdMSluYyhuMTIpTihbQ0gyXVtDSDJdW0NIMl0yKUMoPU8pW0NAQF0zNFtDSDJdW0NAQEhdNVtDSDJdW0NASF0oW0NIMl00KVtDSDJdW0NAQF0oW09IXSkoW0NIMl01KVtDSDJdMw==

>  <s_epik_cmdline>  (80) 
J2VwaWtfcHl0aG9uJywgJy1waHQnLCAnMi4wJywgJy1waCcsICc3LjAnLCAnLXRuJywgJzgnLCAnLW1hJywgJzIwMCcsICctaW1hZScsICc8aW5maWxlLm1hZT4nLCAnLW9tYWUnLCAnPG91dGZpbGUubWFlPic=

>  <r_lp_tautomer_probability>  (80) 
1

>  <r_epik_Ionization_Penalty>  (80) 
1.23091e-06

>  <r_epik_Ionization_Penalty_Charging>  (80) 
5.36903e-08

>  <r_epik_Ionization_Penalty_Neutral>  (80) 
1.17722e-06

>  <r_epik_State_Penalty>  (80) 
-0

>  <r_epik_Charging_Adjusted_Penalty>  (80) 
5.36903e-08

>  <i_epik_Tot_Q>  (80) 
0

>  <i_epik_Tot_abs_Q>  (80) 
2

>  <s_lp_Force_Field>  (80) 
OPLS3e

>  <r_lp_Energy>  (80) 
23.0304

>  <b_lp_Chiralities_Consistent>  (80) 
1

>  <s_lp_Variant>  (80) 
20:0-1

>  <s_i_glide_gridfile>  (80) 
pfpi4k_grid

>  <i_i_glide_lignum>  (80) 
5

>  <i_i_glide_rotatable_bonds>  (80) 
4

>  <r_i_docking_score>  (80) 
-2.60609

>  <r_i_glide_ligand_efficiency>  (80) 
-0.104244

>  <r_i_glide_ligand_efficiency_sa>  (80) 
-0.304811

>  <r_i_glide_ligand_efficiency_ln>  (80) 
-0.617722

>  <r_i_glide_gscore>  (80) 
-2.60609

>  <r_i_glide_lipo>  (80) 
-0.0481504

>  <r_i_glide_hbond>  (80) 
-0.0966787

>  <r_i_glide_metal>  (80) 
-0

>  <r_i_glide_rewards>  (80) 
-1.0474

>  <r_i_glide_evdw>  (80) 
-21.9871

>  <r_i_glide_ecoul>  (80) 
-3.36865

>  <r_i_glide_erotb>  (80) 
0.31691

>  <r_i_glide_esite>  (80) 
-0.126121

>  <r_i_glide_emodel>  (80) 
-29.7169

>  <r_i_glide_energy>  (80) 
-25.3557

>  <r_i_glide_einternal>  (80) 
3.88831

>  <r_i_glide_intrahb_reward>  (80) 
-0

>  <i_i_glide_confnum>  (80) 
2

>  <i_i_glide_posenum>  (80) 
20

>  <r_i_glide_eff_state_penalty>  (80) 
0

>  <ligand_id>  (80) 
20

>  <original_smiles>  (80) 
O=C(N1CCCn2cc([N+](=O)[O-])nc21)C12CC3CC(CC(O)(C3)C1)C2

>  <smiles>  (80) 
[H]OC12C([H])([H])C3([H])C([H])([H])C([H])(C1([H])[H])C([H])([H])C(C(=O)N1c4nc([N+](=O)[O-])c([H])n4C([H])([H])C([H])([H])C1([H])[H])(C3([H])[H])C2([H])[H]

$$$$
21:0:0
     RDKit          3D

 46 50  0  0  1  0  0  0  0  0999 V2000
    3.4370  -10.2669    4.8284 C   0  0  0  0  0  0  0  0  0  0  0  0
    3.7965  -10.8844    3.5171 N   0  0  0  0  0  0  0  0  0  0  0  0
    3.1030  -12.1954    3.4182 C   0  0  0  0  0  0  0  0  0  0  0  0
    5.2641  -11.0992    3.4636 C   0  0  0  0  0  0  0  0  0  0  0  0
    5.8494   -9.7789    2.9879 C   0  0  0  0  0  0  0  0  0  0  0  0
    4.8645   -9.3435    1.9045 C   0  0  2  0  0  0  0  0  0  0  0  0
    4.8344   -7.8257    1.5737 C   0  0  2  0  0  0  0  0  0  0  0  0
    6.2091   -7.1302    1.4248 C   0  0  0  0  0  0  0  0  0  0  0  0
    6.8029   -6.6753    2.7714 C   0  0  0  0  0  0  0  0  0  0  0  0
    5.7451   -6.0496    3.6987 C   0  0  0  0  0  0  0  0  0  0  0  0
    4.5809   -6.8643    3.7762 O   0  0  0  0  0  0  0  0  0  0  0  0
    3.9386   -7.0121    2.5199 C   0  0  2  0  0  0  0  0  0  0  0  0
    2.5573   -7.6137    2.6714 C   0  0  0  0  0  0  0  0  0  0  0  0
    1.4753   -6.7419    2.9421 C   0  0  0  0  0  0  0  0  0  0  0  0
    0.1915   -7.2959    3.0220 C   0  0  0  0  0  0  0  0  0  0  0  0
   -0.0318   -8.6402    2.8084 C   0  0  0  0  0  0  0  0  0  0  0  0
    1.0191   -9.5275    2.5401 C   0  0  0  0  0  0  0  0  0  0  0  0
    2.3414   -9.0122    2.5201 C   0  0  0  0  0  0  0  0  0  0  0  0
    3.5084   -9.9845    2.3396 C   0  0  2  0  0  0  0  0  0  0  0  0
   -1.3542   -8.9042    2.9385 O   0  0  0  0  0  0  0  0  0  0  0  0
   -1.9297   -7.7108    3.3940 C   0  0  0  0  0  0  0  0  0  0  0  0
   -0.9804   -6.6815    3.3150 O   0  0  0  0  0  0  0  0  0  0  0  0
    3.7865  -10.8860    5.6577 H   0  0  0  0  0  0  0  0  0  0  0  0
    2.3560  -10.1723    4.9502 H   0  0  0  0  0  0  0  0  0  0  0  0
    3.8762   -9.2746    4.9512 H   0  0  0  0  0  0  0  0  0  0  0  0
    3.3198  -12.7122    2.4803 H   0  0  0  0  0  0  0  0  0  0  0  0
    2.0218  -12.0842    3.4991 H   0  0  0  0  0  0  0  0  0  0  0  0
    3.4150  -12.8502    4.2348 H   0  0  0  0  0  0  0  0  0  0  0  0
    5.6874  -11.4303    4.4132 H   0  0  0  0  0  0  0  0  0  0  0  0
    5.4994  -11.8650    2.7208 H   0  0  0  0  0  0  0  0  0  0  0  0
    5.8483   -9.0829    3.8254 H   0  0  0  0  0  0  0  0  0  0  0  0
    6.8749   -9.8780    2.6234 H   0  0  0  0  0  0  0  0  0  0  0  0
    5.1813   -9.8610    0.9971 H   0  0  0  0  0  0  0  0  0  0  0  0
    4.3682   -7.7732    0.5904 H   0  0  0  0  0  0  0  0  0  0  0  0
    6.9155   -7.7717    0.8963 H   0  0  0  0  0  0  0  0  0  0  0  0
    6.0793   -6.2448    0.7984 H   0  0  0  0  0  0  0  0  0  0  0  0
    7.2840   -7.5128    3.2731 H   0  0  0  0  0  0  0  0  0  0  0  0
    7.6009   -5.9532    2.5963 H   0  0  0  0  0  0  0  0  0  0  0  0
    6.1483   -5.9555    4.7058 H   0  0  0  0  0  0  0  0  0  0  0  0
    5.4796   -5.0441    3.3688 H   0  0  0  0  0  0  0  0  0  0  0  0
    3.7956   -6.0237    2.0786 H   0  0  0  0  0  0  0  0  0  0  0  0
    1.6327   -5.6849    3.1011 H   0  0  0  0  0  0  0  0  0  0  0  0
    0.8069  -10.5759    2.3789 H   0  0  0  0  0  0  0  0  0  0  0  0
    3.1812  -10.6167    1.5199 H   0  0  0  0  0  0  0  0  0  0  0  0
   -2.8158   -7.4652    2.8137 H   0  0  0  0  0  0  0  0  0  0  0  0
   -2.1853   -7.8437    4.4433 H   0  0  0  0  0  0  0  0  0  0  0  0
  1  2  1  0
  1 23  1  0
  1 24  1  0
  1 25  1  0
  2 19  1  0
  2  3  1  0
  2  4  1  0
  3 26  1  0
  3 27  1  0
  3 28  1  0
  4  5  1  0
  4 29  1  0
  4 30  1  0
  5  6  1  0
  5 31  1  0
  5 32  1  0
  6 19  1  0
  6  7  1  0
  6 33  1  6
  7 12  1  0
  7  8  1  0
  7 34  1  6
  8  9  1  0
  8 35  1  0
  8 36  1  0
  9 10  1  0
  9 37  1  0
  9 38  1  0
 10 11  1  0
 10 39  1  0
 10 40  1  0
 11 12  1  0
 12 13  1  0
 12 41  1  6
 13 18  2  0
 13 14  1  0
 14 15  2  0
 14 42  1  0
 15 22  1  0
 15 16  1  0
 16 17  2  0
 16 20  1  0
 17 18  1  0
 17 43  1  0
 18 19  1  0
 19 44  1  6
 20 21  1  0
 21 22  1  0
 21 45  1  0
 21 46  1  0
M  CHG  1   2   1
M  END
>  <i_m_ct_stereo_status>  (81) 
1

>  <s_m_source_file>  (81) 
/var/tmp/pbs.5102264.sched01/tmpeif0x8wq/23vm_sbjim.sdf

>  <i_m_source_file_index>  (81) 
6

>  <i_lp_mmshare_version>  (81) 
48012

>  <i_f3d_flags>  (81) 
0

>  <s_epik_input>  (81) 
TzFbQ0gyXU9jKFtjSF0yKWMxW2NIXWMoW0NAQEhdM1tOK10oW0NIM10pKFtDSDNdKVtDSDJdW0NIMl00KWMyW0NASF0oW0NAQEhdNVtDQEhdMzQpT1tDSDJdW0NIMl1bQ0gyXTU=

>  <s_epik_cmdline>  (81) 
J2VwaWtfcHl0aG9uJywgJy1waHQnLCAnMi4wJywgJy1waCcsICc3LjAnLCAnLXRuJywgJzgnLCAnLW1hJywgJzIwMCcsICctaW1hZScsICc8aW5maWxlLm1hZT4nLCAnLW9tYWUnLCAnPG91dGZpbGUubWFlPic=

>  <r_lp_tautomer_probability>  (81) 
1

>  <r_epik_Ionization_Penalty>  (81) 
1.66605e-12

>  <r_epik_Ionization_Penalty_Charging>  (81) 
0

>  <r_epik_Ionization_Penalty_Neutral>  (81) 
1.66605e-12

>  <r_epik_State_Penalty>  (81) 
-0

>  <r_epik_Charging_Adjusted_Penalty>  (81) 
0

>  <i_epik_Tot_Q>  (81) 
1

>  <i_epik_Tot_abs_Q>  (81) 
1

>  <s_epik_Chemistry_Notes>  (81) 
This compound contains an acetal/aminal-like group ( X-CH(R)-Y where X, Y are N, S, or O) that may be acid/base labile, releasing an aldehyde.

>  <s_lp_Force_Field>  (81) 
OPLS3e

>  <r_lp_Energy>  (81) 
50.6726

>  <b_lp_Chiralities_Consistent>  (81) 
1

>  <s_lp_Variant>  (81) 
21:0-1

>  <s_i_glide_gridfile>  (81) 
pfpi4k_grid

>  <i_i_glide_lignum>  (81) 
6

>  <i_i_glide_rotatable_bonds>  (81) 
0

>  <r_i_docking_score>  (81) 
-3.34456

>  <r_i_glide_ligand_efficiency>  (81) 
-0.152026

>  <r_i_glide_ligand_efficiency_sa>  (81) 
-0.425981

>  <r_i_glide_ligand_efficiency_ln>  (81) 
-0.817533

>  <r_i_glide_gscore>  (81) 
-3.34456

>  <r_i_glide_lipo>  (81) 
-0.247474

>  <r_i_glide_hbond>  (81) 
-0.145886

>  <r_i_glide_metal>  (81) 
-0

>  <r_i_glide_rewards>  (81) 
-1.34735

>  <r_i_glide_evdw>  (81) 
-18.2642

>  <r_i_glide_ecoul>  (81) 
-3.91044

>  <r_i_glide_erotb>  (81) 
0

>  <r_i_glide_esite>  (81) 
-0.104071

>  <r_i_glide_emodel>  (81) 
-28.8838

>  <r_i_glide_energy>  (81) 
-22.1746

>  <r_i_glide_einternal>  (81) 
0

>  <r_i_glide_intrahb_reward>  (81) 
-0

>  <i_i_glide_confnum>  (81) 
2

>  <i_i_glide_posenum>  (81) 
25

>  <r_i_glide_eff_state_penalty>  (81) 
0

>  <ligand_id>  (81) 
21

>  <original_smiles>  (81) 
C[N+]1(C)CCC2C3CCCOC3c3cc4c(cc3C21)OCO4

>  <smiles>  (81) 
[H]c1c2c(c([H])c3c1C1([H])OC([H])([H])C([H])([H])C([H])([H])C1([H])C1([H])C([H])([H])C([H])([H])[N+](C([H])([H])[H])(C([H])([H])[H])C31[H])OC([H])([H])O2

$$$$
21:0:1
     RDKit          3D

 46 50  0  0  1  0  0  0  0  0999 V2000
    6.9966   -1.7181    0.4507 C   0  0  0  0  0  0  0  0  0  0  0  0
    7.1412   -3.0755   -0.1563 N   0  0  0  0  0  0  0  0  0  0  0  0
    8.0999   -3.8546    0.6654 C   0  0  0  0  0  0  0  0  0  0  0  0
    7.6811   -2.9339   -1.5330 C   0  0  0  0  0  0  0  0  0  0  0  0
    6.4518   -2.6987   -2.4015 C   0  0  0  0  0  0  0  0  0  0  0  0
    5.4144   -3.6422   -1.8221 C   0  0  2  0  0  0  0  0  0  0  0  0
    3.9400   -3.2892   -2.1199 C   0  0  2  0  0  0  0  0  0  0  0  0
    3.6081   -2.8894   -3.5852 C   0  0  0  0  0  0  0  0  0  0  0  0
    3.8679   -1.3991   -3.8795 C   0  0  0  0  0  0  0  0  0  0  0  0
    3.4157   -0.5069   -2.7220 C   0  0  0  0  0  0  0  0  0  0  0  0
    3.9055   -1.0006   -1.4762 O   0  0  0  0  0  0  0  0  0  0  0  0
    3.3645   -2.2688   -1.1489 C   0  0  2  0  0  0  0  0  0  0  0  0
    3.6081   -2.6421    0.3022 C   0  0  0  0  0  0  0  0  0  0  0  0
    2.6592   -2.2265    1.2703 C   0  0  0  0  0  0  0  0  0  0  0  0
    2.8573   -2.6263    2.5980 C   0  0  0  0  0  0  0  0  0  0  0  0
    3.9179   -3.4304    2.9606 C   0  0  0  0  0  0  0  0  0  0  0  0
    4.8672   -3.8654    2.0246 C   0  0  0  0  0  0  0  0  0  0  0  0
    4.7355   -3.4228    0.6813 C   0  0  0  0  0  0  0  0  0  0  0  0
    5.8232   -3.7938   -0.3300 C   0  0  2  0  0  0  0  0  0  0  0  0
    3.8850   -3.6490    4.2995 O   0  0  0  0  0  0  0  0  0  0  0  0
    2.8312   -2.8547    4.7854 C   0  0  0  0  0  0  0  0  0  0  0  0
    2.1289   -2.3072    3.6993 O   0  0  0  0  0  0  0  0  0  0  0  0
    7.9486   -1.1854    0.4426 H   0  0  0  0  0  0  0  0  0  0  0  0
    6.6830   -1.7624    1.4941 H   0  0  0  0  0  0  0  0  0  0  0  0
    6.2709   -1.1021   -0.0825 H   0  0  0  0  0  0  0  0  0  0  0  0
    8.2630   -4.8666    0.2905 H   0  0  0  0  0  0  0  0  0  0  0  0
    7.7458   -3.9402    1.6859 H   0  0  0  0  0  0  0  0  0  0  0  0
    9.0683   -3.3548    0.7093 H   0  0  0  0  0  0  0  0  0  0  0  0
    8.4468   -2.1607   -1.6262 H   0  0  0  0  0  0  0  0  0  0  0  0
    8.1709   -3.8515   -1.8543 H   0  0  0  0  0  0  0  0  0  0  0  0
    6.1397   -1.6637   -2.2830 H   0  0  0  0  0  0  0  0  0  0  0  0
    6.6079   -2.9183   -3.4586 H   0  0  0  0  0  0  0  0  0  0  0  0
    5.5703   -4.6046   -2.3019 H   0  0  0  0  0  0  0  0  0  0  0  0
    3.4070   -4.2129   -1.9152 H   0  0  0  0  0  0  0  0  0  0  0  0
    4.1523   -3.5141   -4.2952 H   0  0  0  0  0  0  0  0  0  0  0  0
    2.5466   -3.0818   -3.7590 H   0  0  0  0  0  0  0  0  0  0  0  0
    4.9227   -1.2257   -4.0660 H   0  0  0  0  0  0  0  0  0  0  0  0
    3.3496   -1.0911   -4.7866 H   0  0  0  0  0  0  0  0  0  0  0  0
    3.8194    0.4957   -2.8522 H   0  0  0  0  0  0  0  0  0  0  0  0
    2.3299   -0.4040   -2.6992 H   0  0  0  0  0  0  0  0  0  0  0  0
    2.2902   -2.2788   -1.3071 H   0  0  0  0  0  0  0  0  0  0  0  0
    1.8170   -1.6042    1.0020 H   0  0  0  0  0  0  0  0  0  0  0  0
    5.6891   -4.4925    2.3423 H   0  0  0  0  0  0  0  0  0  0  0  0
    5.9923   -4.8621   -0.1895 H   0  0  0  0  0  0  0  0  0  0  0  0
    2.1700   -3.4311    5.4313 H   0  0  0  0  0  0  0  0  0  0  0  0
    3.2648   -2.0354    5.3565 H   0  0  0  0  0  0  0  0  0  0  0  0
  1  2  1  0
  1 23  1  0
  1 24  1  0
  1 25  1  0
  2 19  1  0
  2  3  1  0
  2  4  1  0
  3 26  1  0
  3 27  1  0
  3 28  1  0
  4  5  1  0
  4 29  1  0
  4 30  1  0
  5  6  1  0
  5 31  1  0
  5 32  1  0
  6 19  1  0
  6  7  1  0
  6 33  1  6
  7 12  1  0
  7  8  1  0
  7 34  1  1
  8  9  1  0
  8 35  1  0
  8 36  1  0
  9 10  1  0
  9 37  1  0
  9 38  1  0
 10 11  1  0
 10 39  1  0
 10 40  1  0
 11 12  1  0
 12 13  1  0
 12 41  1  1
 13 18  2  0
 13 14  1  0
 14 15  2  0
 14 42  1  0
 15 22  1  0
 15 16  1  0
 16 17  2  0
 16 20  1  0
 17 18  1  0
 17 43  1  0
 18 19  1  0
 19 44  1  6
 20 21  1  0
 21 22  1  0
 21 45  1  0
 21 46  1  0
M  CHG  1   2   1
M  END
>  <i_m_ct_stereo_status>  (82) 
1

>  <s_m_source_file>  (82) 
/var/tmp/pbs.5102264.sched01/tmpeif0x8wq/23vm_sbjim.sdf

>  <i_m_source_file_index>  (82) 
6

>  <i_lp_mmshare_version>  (82) 
48012

>  <i_f3d_flags>  (82) 
0

>  <s_epik_input>  (82) 
TzFbQ0gyXU9jKFtjSF0yKWMxW2NIXWMoW0NAQEhdM1tOK10oW0NIM10pKFtDSDNdKVtDSDJdW0NIMl00KWMyW0NASF0oW0NAQEhdNVtDQEhdMzQpT1tDSDJdW0NIMl1bQ0gyXTU=

>  <s_epik_cmdline>  (82) 
J2VwaWtfcHl0aG9uJywgJy1waHQnLCAnMi4wJywgJy1waCcsICc3LjAnLCAnLXRuJywgJzgnLCAnLW1hJywgJzIwMCcsICctaW1hZScsICc8aW5maWxlLm1hZT4nLCAnLW9tYWUnLCAnPG91dGZpbGUubWFlPic=

>  <r_lp_tautomer_probability>  (82) 
1

>  <r_epik_Ionization_Penalty>  (82) 
1.66605e-12

>  <r_epik_Ionization_Penalty_Charging>  (82) 
0

>  <r_epik_Ionization_Penalty_Neutral>  (82) 
1.66605e-12

>  <r_epik_State_Penalty>  (82) 
-0

>  <r_epik_Charging_Adjusted_Penalty>  (82) 
0

>  <i_epik_Tot_Q>  (82) 
1

>  <i_epik_Tot_abs_Q>  (82) 
1

>  <s_epik_Chemistry_Notes>  (82) 
This compound contains an acetal/aminal-like group ( X-CH(R)-Y where X, Y are N, S, or O) that may be acid/base labile, releasing an aldehyde.

>  <s_lp_Force_Field>  (82) 
OPLS3e

>  <r_lp_Energy>  (82) 
50.6726

>  <b_lp_Chiralities_Consistent>  (82) 
1

>  <s_lp_Variant>  (82) 
21:0-1

>  <s_i_glide_gridfile>  (82) 
pfpi4k_grid

>  <i_i_glide_lignum>  (82) 
6

>  <i_i_glide_rotatable_bonds>  (82) 
0

>  <r_i_docking_score>  (82) 
-3.25911

>  <r_i_glide_ligand_efficiency>  (82) 
-0.148141

>  <r_i_glide_ligand_efficiency_sa>  (82) 
-0.415098

>  <r_i_glide_ligand_efficiency_ln>  (82) 
-0.796645

>  <r_i_glide_gscore>  (82) 
-3.25911

>  <r_i_glide_lipo>  (82) 
-0.695193

>  <r_i_glide_hbond>  (82) 
0

>  <r_i_glide_metal>  (82) 
-0

>  <r_i_glide_rewards>  (82) 
-1.34735

>  <r_i_glide_evdw>  (82) 
-19.9572

>  <r_i_glide_ecoul>  (82) 
-1.45802

>  <r_i_glide_erotb>  (82) 
0

>  <r_i_glide_esite>  (82) 
0

>  <r_i_glide_emodel>  (82) 
-27.8769

>  <r_i_glide_energy>  (82) 
-21.4152

>  <r_i_glide_einternal>  (82) 
0

>  <r_i_glide_intrahb_reward>  (82) 
-0

>  <i_i_glide_confnum>  (82) 
2

>  <i_i_glide_posenum>  (82) 
29

>  <r_i_glide_eff_state_penalty>  (82) 
0

>  <ligand_id>  (82) 
21

>  <original_smiles>  (82) 
C[N+]1(C)CCC2C3CCCOC3c3cc4c(cc3C21)OCO4

>  <smiles>  (82) 
[H]c1c2c(c([H])c3c1C1([H])OC([H])([H])C([H])([H])C([H])([H])C1([H])C1([H])C([H])([H])C([H])([H])[N+](C([H])([H])[H])(C([H])([H])[H])C31[H])OC([H])([H])O2

$$$$
21:0:2
     RDKit          3D

 46 50  0  0  1  0  0  0  0  0999 V2000
    2.7666  -11.1178    2.7729 C   0  0  0  0  0  0  0  0  0  0  0  0
    2.5591  -10.8945    4.2326 N   0  0  0  0  0  0  0  0  0  0  0  0
    3.4504  -11.8258    4.9749 C   0  0  0  0  0  0  0  0  0  0  0  0
    1.1433  -11.1819    4.5714 C   0  0  0  0  0  0  0  0  0  0  0  0
    0.3921   -9.8942    4.2713 C   0  0  0  0  0  0  0  0  0  0  0  0
    1.3411   -8.8166    4.7833 C   0  0  2  0  0  0  0  0  0  0  0  0
    1.1526   -7.3969    4.1816 C   0  0  2  0  0  0  0  0  0  0  0  0
   -0.3059   -6.8846    4.0839 C   0  0  0  0  0  0  0  0  0  0  0  0
   -1.0233   -7.3628    2.8072 C   0  0  0  0  0  0  0  0  0  0  0  0
   -0.1191   -7.2911    1.5637 C   0  0  0  0  0  0  0  0  0  0  0  0
    1.1566   -7.8682    1.8114 O   0  0  0  0  0  0  0  0  0  0  0  0
    1.8708   -7.2019    2.8392 C   0  0  2  0  0  0  0  0  0  0  0  0
    3.3195   -7.6398    2.8911 C   0  0  0  0  0  0  0  0  0  0  0  0
    4.2417   -6.9855    2.0362 C   0  0  0  0  0  0  0  0  0  0  0  0
    5.5918   -7.3480    2.1252 C   0  0  0  0  0  0  0  0  0  0  0  0
    6.0291   -8.2888    3.0358 C   0  0  0  0  0  0  0  0  0  0  0  0
    5.1402   -8.9463    3.8989 C   0  0  0  0  0  0  0  0  0  0  0  0
    3.7534   -8.6548    3.7928 C   0  0  0  0  0  0  0  0  0  0  0  0
    2.7572   -9.4527    4.6449 C   0  0  2  0  0  0  0  0  0  0  0  0
    7.3705   -8.4596    2.9020 O   0  0  0  0  0  0  0  0  0  0  0  0
    7.7411   -7.6772    1.7931 C   0  0  0  0  0  0  0  0  0  0  0  0
    6.6414   -6.9032    1.3872 O   0  0  0  0  0  0  0  0  0  0  0  0
    2.4871  -12.1363    2.4980 H   0  0  0  0  0  0  0  0  0  0  0  0
    3.8134  -11.0024    2.4872 H   0  0  0  0  0  0  0  0  0  0  0  0
    2.1753  -10.4345    2.1590 H   0  0  0  0  0  0  0  0  0  0  0  0
    3.3533  -11.7257    6.0584 H   0  0  0  0  0  0  0  0  0  0  0  0
    4.4956  -11.6709    4.7073 H   0  0  0  0  0  0  0  0  0  0  0  0
    3.2114  -12.8599    4.7240 H   0  0  0  0  0  0  0  0  0  0  0  0
    0.7348  -12.0425    4.0423 H   0  0  0  0  0  0  0  0  0  0  0  0
    1.0528  -11.3863    5.6390 H   0  0  0  0  0  0  0  0  0  0  0  0
    0.2509   -9.8218    3.1935 H   0  0  0  0  0  0  0  0  0  0  0  0
   -0.5838   -9.8458    4.7535 H   0  0  0  0  0  0  0  0  0  0  0  0
    1.1409   -8.7387    5.8534 H   0  0  0  0  0  0  0  0  0  0  0  0
    1.6463   -6.7387    4.8951 H   0  0  0  0  0  0  0  0  0  0  0  0
   -0.8779   -7.1679    4.9696 H   0  0  0  0  0  0  0  0  0  0  0  0
   -0.2813   -5.7924    4.0801 H   0  0  0  0  0  0  0  0  0  0  0  0
   -1.3824   -8.3817    2.9412 H   0  0  0  0  0  0  0  0  0  0  0  0
   -1.9232   -6.7726    2.6410 H   0  0  0  0  0  0  0  0  0  0  0  0
   -0.5815   -7.8428    0.7484 H   0  0  0  0  0  0  0  0  0  0  0  0
    0.0038   -6.2626    1.2242 H   0  0  0  0  0  0  0  0  0  0  0  0
    1.8810   -6.1331    2.6209 H   0  0  0  0  0  0  0  0  0  0  0  0
    3.9178   -6.2350    1.3276 H   0  0  0  0  0  0  0  0  0  0  0  0
    5.5148   -9.6820    4.5976 H   0  0  0  0  0  0  0  0  0  0  0  0
    3.1776   -9.4465    5.6522 H   0  0  0  0  0  0  0  0  0  0  0  0
    8.6040   -7.0536    2.0244 H   0  0  0  0  0  0  0  0  0  0  0  0
    7.9989   -8.3405    0.9701 H   0  0  0  0  0  0  0  0  0  0  0  0
  1  2  1  0
  1 23  1  0
  1 24  1  0
  1 25  1  0
  2 19  1  0
  2  3  1  0
  2  4  1  0
  3 26  1  0
  3 27  1  0
  3 28  1  0
  4  5  1  0
  4 29  1  0
  4 30  1  0
  5  6  1  0
  5 31  1  0
  5 32  1  0
  6 19  1  0
  6  7  1  0
  6 33  1  1
  7 12  1  0
  7  8  1  0
  7 34  1  1
  8  9  1  0
  8 35  1  0
  8 36  1  0
  9 10  1  0
  9 37  1  0
  9 38  1  0
 10 11  1  0
 10 39  1  0
 10 40  1  0
 11 12  1  0
 12 13  1  0
 12 41  1  6
 13 18  2  0
 13 14  1  0
 14 15  2  0
 14 42  1  0
 15 22  1  0
 15 16  1  0
 16 17  2  0
 16 20  1  0
 17 18  1  0
 17 43  1  0
 18 19  1  0
 19 44  1  1
 20 21  1  0
 21 22  1  0
 21 45  1  0
 21 46  1  0
M  CHG  1   2   1
M  END
>  <i_m_ct_stereo_status>  (83) 
1

>  <s_m_source_file>  (83) 
/var/tmp/pbs.5102264.sched01/tmpeif0x8wq/23vm_sbjim.sdf

>  <i_m_source_file_index>  (83) 
6

>  <i_lp_mmshare_version>  (83) 
48012

>  <i_f3d_flags>  (83) 
0

>  <s_epik_input>  (83) 
TzFbQ0gyXU9jKFtjSF0yKWMxW2NIXWMoW0NAQEhdM1tOK10oW0NIM10pKFtDSDNdKVtDSDJdW0NIMl00KWMyW0NASF0oW0NAQEhdNVtDQEhdMzQpT1tDSDJdW0NIMl1bQ0gyXTU=

>  <s_epik_cmdline>  (83) 
J2VwaWtfcHl0aG9uJywgJy1waHQnLCAnMi4wJywgJy1waCcsICc3LjAnLCAnLXRuJywgJzgnLCAnLW1hJywgJzIwMCcsICctaW1hZScsICc8aW5maWxlLm1hZT4nLCAnLW9tYWUnLCAnPG91dGZpbGUubWFlPic=

>  <r_lp_tautomer_probability>  (83) 
1

>  <r_epik_Ionization_Penalty>  (83) 
1.66605e-12

>  <r_epik_Ionization_Penalty_Charging>  (83) 
0

>  <r_epik_Ionization_Penalty_Neutral>  (83) 
1.66605e-12

>  <r_epik_State_Penalty>  (83) 
-0

>  <r_epik_Charging_Adjusted_Penalty>  (83) 
0

>  <i_epik_Tot_Q>  (83) 
1

>  <i_epik_Tot_abs_Q>  (83) 
1

>  <s_epik_Chemistry_Notes>  (83) 
This compound contains an acetal/aminal-like group ( X-CH(R)-Y where X, Y are N, S, or O) that may be acid/base labile, releasing an aldehyde.

>  <s_lp_Force_Field>  (83) 
OPLS3e

>  <r_lp_Energy>  (83) 
50.6726

>  <b_lp_Chiralities_Consistent>  (83) 
1

>  <s_lp_Variant>  (83) 
21:0-1

>  <s_i_glide_gridfile>  (83) 
pfpi4k_grid

>  <i_i_glide_lignum>  (83) 
6

>  <i_i_glide_rotatable_bonds>  (83) 
0

>  <r_i_docking_score>  (83) 
-2.96361

>  <r_i_glide_ligand_efficiency>  (83) 
-0.13471

>  <r_i_glide_ligand_efficiency_sa>  (83) 
-0.377462

>  <r_i_glide_ligand_efficiency_ln>  (83) 
-0.724415

>  <r_i_glide_gscore>  (83) 
-2.96361

>  <r_i_glide_lipo>  (83) 
-0.087684

>  <r_i_glide_hbond>  (83) 
0

>  <r_i_glide_metal>  (83) 
-0

>  <r_i_glide_rewards>  (83) 
-1.34735

>  <r_i_glide_evdw>  (83) 
-18.6717

>  <r_i_glide_ecoul>  (83) 
-3.6379

>  <r_i_glide_erotb>  (83) 
0

>  <r_i_glide_esite>  (83) 
-0.0493014

>  <r_i_glide_emodel>  (83) 
-28.2613

>  <r_i_glide_energy>  (83) 
-22.3096

>  <r_i_glide_einternal>  (83) 
0

>  <r_i_glide_intrahb_reward>  (83) 
-0

>  <i_i_glide_confnum>  (83) 
2

>  <i_i_glide_posenum>  (83) 
9

>  <r_i_glide_eff_state_penalty>  (83) 
0

>  <ligand_id>  (83) 
21

>  <original_smiles>  (83) 
C[N+]1(C)CCC2C3CCCOC3c3cc4c(cc3C21)OCO4

>  <smiles>  (83) 
[H]c1c2c(c([H])c3c1C1([H])OC([H])([H])C([H])([H])C([H])([H])C1([H])C1([H])C([H])([H])C([H])([H])[N+](C([H])([H])[H])(C([H])([H])[H])C31[H])OC([H])([H])O2

$$$$
22:0:0
     RDKit          3D

 38 40  0  0  1  0  0  0  0  0999 V2000
    1.0623   -5.1870    8.0174 C   0  0  0  0  0  0  0  0  0  0  0  0
    0.4494   -3.5443    7.4671 S   0  0  0  0  0  0  0  0  0  0  0  0
   -0.5875   -3.0701    8.4021 O   0  0  0  0  0  0  0  0  0  0  0  0
    1.6018   -2.6926    7.1230 O   0  0  0  0  0  0  0  0  0  0  0  0
   -0.3425   -3.9737    6.0364 O   0  0  0  0  0  0  0  0  0  0  0  0
    0.4285   -4.5096    5.0416 C   0  0  0  0  0  0  0  0  0  0  0  0
    0.5243   -5.9064    4.9092 C   0  0  0  0  0  0  0  0  0  0  0  0
    1.3414   -6.4828    3.9113 C   0  0  0  0  0  0  0  0  0  0  0  0
    1.4790   -7.8496    3.7839 O   0  0  0  0  0  0  0  0  0  0  0  0
    0.8520   -8.7189    4.7192 C   0  0  0  0  0  0  0  0  0  0  0  0
    1.1736  -10.1465    4.3332 C   0  0  0  0  0  0  0  0  0  0  0  0
    0.6167  -11.1563    5.2509 N   0  0  0  0  0  0  0  0  0  0  0  0
    1.1961  -10.5986    2.8891 C   0  0  0  0  0  0  0  0  0  0  0  0
    2.4821  -10.5500    3.6908 C   0  0  0  0  0  0  0  0  0  0  0  0
    2.0559   -5.6502    3.0110 C   0  0  0  0  0  0  0  0  0  0  0  0
    2.8236   -6.1917    2.0393 N   0  0  0  0  0  0  0  0  0  0  0  0
    3.4888   -5.3855    1.1873 C   0  0  0  0  0  0  0  0  0  0  0  0
    3.4228   -3.9811    1.2592 C   0  0  0  0  0  0  0  0  0  0  0  0
    2.6306   -3.3961    2.2618 C   0  0  0  0  0  0  0  0  0  0  0  0
    1.9344   -4.2388    3.1483 C   0  0  0  0  0  0  0  0  0  0  0  0
    1.1253   -3.6768    4.1508 C   0  0  0  0  0  0  0  0  0  0  0  0
    1.5951   -5.0797    8.9640 H   0  0  0  0  0  0  0  0  0  0  0  0
    1.7648   -5.5815    7.2821 H   0  0  0  0  0  0  0  0  0  0  0  0
    0.2097   -5.8581    8.1318 H   0  0  0  0  0  0  0  0  0  0  0  0
   -0.0180   -6.5198    5.6123 H   0  0  0  0  0  0  0  0  0  0  0  0
    1.2299   -8.5273    5.7238 H   0  0  0  0  0  0  0  0  0  0  0  0
   -0.2301   -8.5811    4.7118 H   0  0  0  0  0  0  0  0  0  0  0  0
    0.8680  -12.0722    4.9153 H   0  0  0  0  0  0  0  0  0  0  0  0
   -0.4057  -11.0685    5.2609 H   0  0  0  0  0  0  0  0  0  0  0  0
    0.8124  -11.5856    2.6365 H   0  0  0  0  0  0  0  0  0  0  0  0
    1.0489   -9.8451    2.1160 H   0  0  0  0  0  0  0  0  0  0  0  0
    3.1948   -9.7585    3.4627 H   0  0  0  0  0  0  0  0  0  0  0  0
    2.9358  -11.5023    3.9584 H   0  0  0  0  0  0  0  0  0  0  0  0
    4.0902   -5.8700    0.4311 H   0  0  0  0  0  0  0  0  0  0  0  0
    3.9642   -3.3629    0.5572 H   0  0  0  0  0  0  0  0  0  0  0  0
    2.5475   -2.3210    2.3424 H   0  0  0  0  0  0  0  0  0  0  0  0
    1.0488   -2.6050    4.2499 H   0  0  0  0  0  0  0  0  0  0  0  0
    0.9975  -11.1028    6.1931 H   0  0  0  0  0  0  0  0  0  0  0  0
  1  2  1  0
  1 22  1  0
  1 23  1  0
  1 24  1  0
  2  3  2  0
  2  4  2  0
  2  5  1  0
  5  6  1  0
  6 21  2  0
  6  7  1  0
  7  8  2  0
  7 25  1  0
  8  9  1  0
  8 15  1  0
  9 10  1  0
 10 11  1  0
 10 26  1  0
 10 27  1  0
 11 14  1  0
 11 12  1  0
 11 13  1  0
 12 28  1  0
 12 29  1  0
 12 38  1  0
 13 14  1  0
 13 30  1  0
 13 31  1  0
 14 32  1  0
 14 33  1  0
 15 20  2  0
 15 16  1  0
 16 17  2  0
 17 18  1  0
 17 34  1  0
 18 19  2  0
 18 35  1  0
 19 20  1  0
 19 36  1  0
 20 21  1  0
 21 37  1  0
M  CHG  1  12   1
M  END
>  <i_m_ct_stereo_status>  (84) 
1

>  <s_m_source_file>  (84) 
/var/tmp/pbs.5102264.sched01/tmpeif0x8wq/23vm_sbjim.sdf

>  <i_m_source_file_index>  (84) 
7

>  <i_lp_mmshare_version>  (84) 
48012

>  <i_f3d_flags>  (84) 
0

>  <s_epik_input>  (84) 
bjFbY0hdW2NIXVtjSF1jKGMxMilbY0hdYyhPUyg9TykoPU8pW0NIM10pW2NIXWMyT1tDSDJdQzMoW05IMl0pW0NIMl1bQ0gyXTM=

>  <s_epik_cmdline>  (84) 
J2VwaWtfcHl0aG9uJywgJy1waHQnLCAnMi4wJywgJy1waCcsICc3LjAnLCAnLXRuJywgJzgnLCAnLW1hJywgJzIwMCcsICctaW1hZScsICc8aW5maWxlLm1hZT4nLCAnLW9tYWUnLCAnPG91dGZpbGUubWFlPic=

>  <r_epik_Ionization_Penalty>  (84) 
0.0409724

>  <r_epik_Ionization_Penalty_Charging>  (84) 
0.0404474

>  <r_epik_Ionization_Penalty_Neutral>  (84) 
0.000524974

>  <r_epik_State_Penalty>  (84) 
0.0340455

>  <r_epik_Charging_Adjusted_Penalty>  (84) 
0.074493

>  <i_epik_Tot_Q>  (84) 
1

>  <i_epik_Tot_abs_Q>  (84) 
1

>  <s_lp_Force_Field>  (84) 
OPLS3e

>  <r_lp_Energy>  (84) 
27.3844

>  <b_lp_Chiralities_Consistent>  (84) 
1

>  <s_lp_Variant>  (84) 
22:0-1

>  <s_i_glide_gridfile>  (84) 
pfpi4k_grid

>  <i_i_glide_lignum>  (84) 
7

>  <i_i_glide_rotatable_bonds>  (84) 
5

>  <r_i_docking_score>  (84) 
-3.65024

>  <r_i_glide_ligand_efficiency>  (84) 
-0.173821

>  <r_i_glide_ligand_efficiency_sa>  (84) 
-0.479559

>  <r_i_glide_ligand_efficiency_ln>  (84) 
-0.902515

>  <r_i_glide_gscore>  (84) 
-3.65024

>  <r_i_glide_lipo>  (84) 
-0.181866

>  <r_i_glide_hbond>  (84) 
-0.341504

>  <r_i_glide_metal>  (84) 
-0

>  <r_i_glide_rewards>  (84) 
-1.29981

>  <r_i_glide_evdw>  (84) 
-15.73

>  <r_i_glide_ecoul>  (84) 
-10.731

>  <r_i_glide_erotb>  (84) 
0.773842

>  <r_i_glide_esite>  (84) 
-0.204751

>  <r_i_glide_emodel>  (84) 
-36.3341

>  <r_i_glide_energy>  (84) 
-26.461

>  <r_i_glide_einternal>  (84) 
1.30286

>  <r_i_glide_intrahb_reward>  (84) 
-0

>  <i_i_glide_confnum>  (84) 
6

>  <i_i_glide_posenum>  (84) 
9

>  <r_i_glide_eff_state_penalty>  (84) 
0

>  <ligand_id>  (84) 
22

>  <original_smiles>  (84) 
CS(=O)(=O)Oc1cc(OCC2(N)CC2)c2ncccc2c1

>  <smiles>  (84) 
[H]c1nc2c(OC([H])([H])C3([N+]([H])([H])[H])C([H])([H])C3([H])[H])c([H])c(OS(=O)(=O)C([H])([H])[H])c([H])c2c([H])c1[H]

$$$$
22:0:1
     RDKit          3D

 38 40  0  0  1  0  0  0  0  0999 V2000
    5.4168   -3.4530   -3.1206 C   0  0  0  0  0  0  0  0  0  0  0  0
    5.4046   -2.8991   -1.3942 S   0  0  0  0  0  0  0  0  0  0  0  0
    6.1215   -3.8751   -0.5672 O   0  0  0  0  0  0  0  0  0  0  0  0
    5.7445   -1.4588   -1.3461 O   0  0  0  0  0  0  0  0  0  0  0  0
    3.7554   -3.0755   -1.1097 O   0  0  0  0  0  0  0  0  0  0  0  0
    3.3710   -3.1727    0.1946 C   0  0  0  0  0  0  0  0  0  0  0  0
    2.9786   -2.0165    0.8784 C   0  0  0  0  0  0  0  0  0  0  0  0
    2.5175   -2.0736    2.2173 C   0  0  0  0  0  0  0  0  0  0  0  0
    2.0821   -0.9566    2.9075 O   0  0  0  0  0  0  0  0  0  0  0  0
    1.9174    0.3081    2.2668 C   0  0  0  0  0  0  0  0  0  0  0  0
    0.5892    0.9168    2.6775 C   0  0  0  0  0  0  0  0  0  0  0  0
   -0.0329    1.7300    1.6082 N   0  0  0  0  0  0  0  0  0  0  0  0
   -0.4211    0.2180    3.5740 C   0  0  0  0  0  0  0  0  0  0  0  0
    0.3279    1.4382    4.0688 C   0  0  0  0  0  0  0  0  0  0  0  0
    2.4934   -3.3256    2.8890 C   0  0  0  0  0  0  0  0  0  0  0  0
    2.0657   -3.4235    4.1756 N   0  0  0  0  0  0  0  0  0  0  0  0
    2.0827   -4.6163    4.8008 C   0  0  0  0  0  0  0  0  0  0  0  0
    2.5068   -5.8076    4.1764 C   0  0  0  0  0  0  0  0  0  0  0  0
    2.9334   -5.7382    2.8386 C   0  0  0  0  0  0  0  0  0  0  0  0
    2.9235   -4.4919    2.1860 C   0  0  0  0  0  0  0  0  0  0  0  0
    3.3473   -4.4196    0.8511 C   0  0  0  0  0  0  0  0  0  0  0  0
    6.4436   -3.4501   -3.4814 H   0  0  0  0  0  0  0  0  0  0  0  0
    4.7968   -2.7755   -3.7091 H   0  0  0  0  0  0  0  0  0  0  0  0
    5.0082   -4.4639   -3.1580 H   0  0  0  0  0  0  0  0  0  0  0  0
    3.0284   -1.1079    0.2926 H   0  0  0  0  0  0  0  0  0  0  0  0
    2.7306    0.9568    2.5848 H   0  0  0  0  0  0  0  0  0  0  0  0
    1.9010    0.3043    1.1819 H   0  0  0  0  0  0  0  0  0  0  0  0
   -0.9077    2.1249    1.9200 H   0  0  0  0  0  0  0  0  0  0  0  0
   -0.2064    1.1511    0.7871 H   0  0  0  0  0  0  0  0  0  0  0  0
   -1.4801    0.3331    3.3441 H   0  0  0  0  0  0  0  0  0  0  0  0
   -0.1516   -0.7498    3.9957 H   0  0  0  0  0  0  0  0  0  0  0  0
    1.1289    1.2927    4.7927 H   0  0  0  0  0  0  0  0  0  0  0  0
   -0.2396    2.3614    4.1786 H   0  0  0  0  0  0  0  0  0  0  0  0
    1.7525   -4.6359    5.8344 H   0  0  0  0  0  0  0  0  0  0  0  0
    2.5094   -6.7491    4.7059 H   0  0  0  0  0  0  0  0  0  0  0  0
    3.2727   -6.6267    2.3220 H   0  0  0  0  0  0  0  0  0  0  0  0
    3.6766   -5.2957    0.3129 H   0  0  0  0  0  0  0  0  0  0  0  0
    0.5669    2.5036    1.3249 H   0  0  0  0  0  0  0  0  0  0  0  0
  1  2  1  0
  1 22  1  0
  1 23  1  0
  1 24  1  0
  2  3  2  0
  2  4  2  0
  2  5  1  0
  5  6  1  0
  6 21  2  0
  6  7  1  0
  7  8  2  0
  7 25  1  0
  8  9  1  0
  8 15  1  0
  9 10  1  0
 10 11  1  0
 10 26  1  0
 10 27  1  0
 11 14  1  0
 11 12  1  0
 11 13  1  0
 12 28  1  0
 12 29  1  0
 12 38  1  0
 13 14  1  0
 13 30  1  0
 13 31  1  0
 14 32  1  0
 14 33  1  0
 15 20  2  0
 15 16  1  0
 16 17  2  0
 17 18  1  0
 17 34  1  0
 18 19  2  0
 18 35  1  0
 19 20  1  0
 19 36  1  0
 20 21  1  0
 21 37  1  0
M  CHG  1  12   1
M  END
>  <i_m_ct_stereo_status>  (85) 
1

>  <s_m_source_file>  (85) 
/var/tmp/pbs.5102264.sched01/tmpeif0x8wq/23vm_sbjim.sdf

>  <i_m_source_file_index>  (85) 
7

>  <i_lp_mmshare_version>  (85) 
48012

>  <i_f3d_flags>  (85) 
0

>  <s_epik_input>  (85) 
bjFbY0hdW2NIXVtjSF1jKGMxMilbY0hdYyhPUyg9TykoPU8pW0NIM10pW2NIXWMyT1tDSDJdQzMoW05IMl0pW0NIMl1bQ0gyXTM=

>  <s_epik_cmdline>  (85) 
J2VwaWtfcHl0aG9uJywgJy1waHQnLCAnMi4wJywgJy1waCcsICc3LjAnLCAnLXRuJywgJzgnLCAnLW1hJywgJzIwMCcsICctaW1hZScsICc8aW5maWxlLm1hZT4nLCAnLW9tYWUnLCAnPG91dGZpbGUubWFlPic=

>  <r_epik_Ionization_Penalty>  (85) 
0.0409724

>  <r_epik_Ionization_Penalty_Charging>  (85) 
0.0404474

>  <r_epik_Ionization_Penalty_Neutral>  (85) 
0.000524974

>  <r_epik_State_Penalty>  (85) 
0.0340455

>  <r_epik_Charging_Adjusted_Penalty>  (85) 
0.074493

>  <i_epik_Tot_Q>  (85) 
1

>  <i_epik_Tot_abs_Q>  (85) 
1

>  <s_lp_Force_Field>  (85) 
OPLS3e

>  <r_lp_Energy>  (85) 
27.3844

>  <b_lp_Chiralities_Consistent>  (85) 
1

>  <s_lp_Variant>  (85) 
22:0-1

>  <s_i_glide_gridfile>  (85) 
pfpi4k_grid

>  <i_i_glide_lignum>  (85) 
7

>  <i_i_glide_rotatable_bonds>  (85) 
5

>  <r_i_docking_score>  (85) 
-3.5195

>  <r_i_glide_ligand_efficiency>  (85) 
-0.167595

>  <r_i_glide_ligand_efficiency_sa>  (85) 
-0.462382

>  <r_i_glide_ligand_efficiency_ln>  (85) 
-0.870188

>  <r_i_glide_gscore>  (85) 
-3.5195

>  <r_i_glide_lipo>  (85) 
-0.189403

>  <r_i_glide_hbond>  (85) 
-0.320125

>  <r_i_glide_metal>  (85) 
-0

>  <r_i_glide_rewards>  (85) 
-1.32462

>  <r_i_glide_evdw>  (85) 
-21.5129

>  <r_i_glide_ecoul>  (85) 
-8.1889

>  <r_i_glide_erotb>  (85) 
0.773842

>  <r_i_glide_esite>  (85) 
-0.155212

>  <r_i_glide_emodel>  (85) 
-38.1683

>  <r_i_glide_energy>  (85) 
-29.7018

>  <r_i_glide_einternal>  (85) 
3.11201

>  <r_i_glide_intrahb_reward>  (85) 
-0

>  <i_i_glide_confnum>  (85) 
6

>  <i_i_glide_posenum>  (85) 
2

>  <r_i_glide_eff_state_penalty>  (85) 
0

>  <ligand_id>  (85) 
22

>  <original_smiles>  (85) 
CS(=O)(=O)Oc1cc(OCC2(N)CC2)c2ncccc2c1

>  <smiles>  (85) 
[H]c1nc2c(OC([H])([H])C3([N+]([H])([H])[H])C([H])([H])C3([H])[H])c([H])c(OS(=O)(=O)C([H])([H])[H])c([H])c2c([H])c1[H]

$$$$
22:0:2
     RDKit          3D

 38 40  0  0  1  0  0  0  0  0999 V2000
    5.2528   -3.7351   -2.2309 C   0  0  0  0  0  0  0  0  0  0  0  0
    5.0794   -3.8698   -0.4161 S   0  0  0  0  0  0  0  0  0  0  0  0
    5.7017   -5.1132    0.0627 O   0  0  0  0  0  0  0  0  0  0  0  0
    5.4284   -2.5639    0.1644 O   0  0  0  0  0  0  0  0  0  0  0  0
    3.4055   -4.0596   -0.3364 O   0  0  0  0  0  0  0  0  0  0  0  0
    2.8462   -4.1167    0.9071 C   0  0  0  0  0  0  0  0  0  0  0  0
    2.2681   -5.3118    1.3665 C   0  0  0  0  0  0  0  0  0  0  0  0
    1.6218   -5.3650    2.6280 C   0  0  0  0  0  0  0  0  0  0  0  0
    0.9835   -6.4999    3.0852 O   0  0  0  0  0  0  0  0  0  0  0  0
    1.0706   -7.7124    2.3469 C   0  0  0  0  0  0  0  0  0  0  0  0
    0.1023   -8.7090    2.9507 C   0  0  0  0  0  0  0  0  0  0  0  0
    0.2874  -10.0971    2.4822 N   0  0  0  0  0  0  0  0  0  0  0  0
   -0.4249   -8.5864    4.3661 C   0  0  0  0  0  0  0  0  0  0  0  0
   -1.3475   -8.3409    3.1895 C   0  0  0  0  0  0  0  0  0  0  0  0
    1.5847   -4.2043    3.4500 C   0  0  0  0  0  0  0  0  0  0  0  0
    0.9711   -4.2295    4.6587 N   0  0  0  0  0  0  0  0  0  0  0  0
    0.9562   -3.1165    5.4209 C   0  0  0  0  0  0  0  0  0  0  0  0
    1.5373   -1.8971    5.0216 C   0  0  0  0  0  0  0  0  0  0  0  0
    2.1613   -1.8422    3.7644 C   0  0  0  0  0  0  0  0  0  0  0  0
    2.1858   -3.0074    2.9711 C   0  0  0  0  0  0  0  0  0  0  0  0
    2.7955   -2.9623    1.7080 C   0  0  0  0  0  0  0  0  0  0  0  0
    6.3042   -3.5752   -2.4736 H   0  0  0  0  0  0  0  0  0  0  0  0
    4.6546   -2.8892   -2.5663 H   0  0  0  0  0  0  0  0  0  0  0  0
    4.8906   -4.6577   -2.6831 H   0  0  0  0  0  0  0  0  0  0  0  0
    2.3045   -6.1642    0.7069 H   0  0  0  0  0  0  0  0  0  0  0  0
    0.7878   -7.5808    1.3048 H   0  0  0  0  0  0  0  0  0  0  0  0
    2.0900   -8.0959    2.3949 H   0  0  0  0  0  0  0  0  0  0  0  0
   -0.4083  -10.6821    2.9288 H   0  0  0  0  0  0  0  0  0  0  0  0
    1.2074  -10.4190    2.7499 H   0  0  0  0  0  0  0  0  0  0  0  0
   -0.5812   -9.4901    4.9452 H   0  0  0  0  0  0  0  0  0  0  0  0
   -0.1115   -7.7264    4.9559 H   0  0  0  0  0  0  0  0  0  0  0  0
   -1.6414   -7.3127    2.9838 H   0  0  0  0  0  0  0  0  0  0  0  0
   -2.1213   -9.0841    3.0094 H   0  0  0  0  0  0  0  0  0  0  0  0
    0.4693   -3.1961    6.3846 H   0  0  0  0  0  0  0  0  0  0  0  0
    1.5100   -1.0274    5.6580 H   0  0  0  0  0  0  0  0  0  0  0  0
    2.6171   -0.9282    3.4146 H   0  0  0  0  0  0  0  0  0  0  0  0
    3.2163   -2.0401    1.3485 H   0  0  0  0  0  0  0  0  0  0  0  0
    0.1918  -10.1376    1.4693 H   0  0  0  0  0  0  0  0  0  0  0  0
  1  2  1  0
  1 22  1  0
  1 23  1  0
  1 24  1  0
  2  3  2  0
  2  4  2  0
  2  5  1  0
  5  6  1  0
  6 21  2  0
  6  7  1  0
  7  8  2  0
  7 25  1  0
  8  9  1  0
  8 15  1  0
  9 10  1  0
 10 11  1  0
 10 26  1  0
 10 27  1  0
 11 14  1  0
 11 12  1  0
 11 13  1  0
 12 28  1  0
 12 29  1  0
 12 38  1  0
 13 14  1  0
 13 30  1  0
 13 31  1  0
 14 32  1  0
 14 33  1  0
 15 20  2  0
 15 16  1  0
 16 17  2  0
 17 18  1  0
 17 34  1  0
 18 19  2  0
 18 35  1  0
 19 20  1  0
 19 36  1  0
 20 21  1  0
 21 37  1  0
M  CHG  1  12   1
M  END
>  <i_m_ct_stereo_status>  (86) 
1

>  <s_m_source_file>  (86) 
/var/tmp/pbs.5102264.sched01/tmpeif0x8wq/23vm_sbjim.sdf

>  <i_m_source_file_index>  (86) 
7

>  <i_lp_mmshare_version>  (86) 
48012

>  <i_f3d_flags>  (86) 
0

>  <s_epik_input>  (86) 
bjFbY0hdW2NIXVtjSF1jKGMxMilbY0hdYyhPUyg9TykoPU8pW0NIM10pW2NIXWMyT1tDSDJdQzMoW05IMl0pW0NIMl1bQ0gyXTM=

>  <s_epik_cmdline>  (86) 
J2VwaWtfcHl0aG9uJywgJy1waHQnLCAnMi4wJywgJy1waCcsICc3LjAnLCAnLXRuJywgJzgnLCAnLW1hJywgJzIwMCcsICctaW1hZScsICc8aW5maWxlLm1hZT4nLCAnLW9tYWUnLCAnPG91dGZpbGUubWFlPic=

>  <r_epik_Ionization_Penalty>  (86) 
0.0409724

>  <r_epik_Ionization_Penalty_Charging>  (86) 
0.0404474

>  <r_epik_Ionization_Penalty_Neutral>  (86) 
0.000524974

>  <r_epik_State_Penalty>  (86) 
0.0340455

>  <r_epik_Charging_Adjusted_Penalty>  (86) 
0.074493

>  <i_epik_Tot_Q>  (86) 
1

>  <i_epik_Tot_abs_Q>  (86) 
1

>  <s_lp_Force_Field>  (86) 
OPLS3e

>  <r_lp_Energy>  (86) 
27.3844

>  <b_lp_Chiralities_Consistent>  (86) 
1

>  <s_lp_Variant>  (86) 
22:0-1

>  <s_i_glide_gridfile>  (86) 
pfpi4k_grid

>  <i_i_glide_lignum>  (86) 
7

>  <i_i_glide_rotatable_bonds>  (86) 
5

>  <r_i_docking_score>  (86) 
-2.83367

>  <r_i_glide_ligand_efficiency>  (86) 
-0.134937

>  <r_i_glide_ligand_efficiency_sa>  (86) 
-0.37228

>  <r_i_glide_ligand_efficiency_ln>  (86) 
-0.70062

>  <r_i_glide_gscore>  (86) 
-2.83367

>  <r_i_glide_lipo>  (86) 
-0.0625109

>  <r_i_glide_hbond>  (86) 
0

>  <r_i_glide_metal>  (86) 
-0

>  <r_i_glide_rewards>  (86) 
-1.37701

>  <r_i_glide_evdw>  (86) 
-21.7561

>  <r_i_glide_ecoul>  (86) 
-7.20128

>  <r_i_glide_erotb>  (86) 
0.773842

>  <r_i_glide_esite>  (86) 
0

>  <r_i_glide_emodel>  (86) 
-36.2155

>  <r_i_glide_energy>  (86) 
-28.9573

>  <r_i_glide_einternal>  (86) 
1.74152

>  <r_i_glide_intrahb_reward>  (86) 
-0

>  <i_i_glide_confnum>  (86) 
5

>  <i_i_glide_posenum>  (86) 
33

>  <r_i_glide_eff_state_penalty>  (86) 
0

>  <ligand_id>  (86) 
22

>  <original_smiles>  (86) 
CS(=O)(=O)Oc1cc(OCC2(N)CC2)c2ncccc2c1

>  <smiles>  (86) 
[H]c1nc2c(OC([H])([H])C3([N+]([H])([H])[H])C([H])([H])C3([H])[H])c([H])c(OS(=O)(=O)C([H])([H])[H])c([H])c2c([H])c1[H]

$$$$
22:1:0
     RDKit          3D

 37 39  0  0  1  0  0  0  0  0999 V2000
    4.3231  -10.2091    2.8311 C   0  0  0  0  0  0  0  0  0  0  0  0
    5.7589   -9.3661    2.0467 S   0  0  0  0  0  0  0  0  0  0  0  0
    6.3399   -8.4230    3.0132 O   0  0  0  0  0  0  0  0  0  0  0  0
    6.6036  -10.3533    1.3594 O   0  0  0  0  0  0  0  0  0  0  0  0
    4.9502   -8.4772    0.8606 O   0  0  0  0  0  0  0  0  0  0  0  0
    4.2852   -7.3539    1.2688 C   0  0  0  0  0  0  0  0  0  0  0  0
    2.8937   -7.3856    1.4411 C   0  0  0  0  0  0  0  0  0  0  0  0
    2.1758   -6.2219    1.8167 C   0  0  0  0  0  0  0  0  0  0  0  0
    0.7956   -6.1871    1.9101 O   0  0  0  0  0  0  0  0  0  0  0  0
    0.0421   -7.3599    1.6012 C   0  0  0  0  0  0  0  0  0  0  0  0
   -0.1336   -8.2718    2.8217 C   0  0  0  0  0  0  0  0  0  0  0  0
    0.3666   -9.6136    2.5863 N   0  0  0  0  0  0  0  0  0  0  0  0
   -0.0345   -7.7184    4.2253 C   0  0  0  0  0  0  0  0  0  0  0  0
   -1.3777   -8.1456    3.6756 C   0  0  0  0  0  0  0  0  0  0  0  0
    2.8859   -5.0261    2.0906 C   0  0  0  0  0  0  0  0  0  0  0  0
    2.2204   -3.9198    2.4961 N   0  0  0  0  0  0  0  0  0  0  0  0
    2.9085   -2.7831    2.7278 C   0  0  0  0  0  0  0  0  0  0  0  0
    4.3054   -2.6859    2.5814 C   0  0  0  0  0  0  0  0  0  0  0  0
    5.0126   -3.8260    2.1710 C   0  0  0  0  0  0  0  0  0  0  0  0
    4.2968   -5.0115    1.9193 C   0  0  0  0  0  0  0  0  0  0  0  0
    4.9863   -6.1603    1.4942 C   0  0  0  0  0  0  0  0  0  0  0  0
    4.6838  -10.8320    3.6483 H   0  0  0  0  0  0  0  0  0  0  0  0
    3.8347  -10.8311    2.0818 H   0  0  0  0  0  0  0  0  0  0  0  0
    3.6312   -9.4681    3.2251 H   0  0  0  0  0  0  0  0  0  0  0  0
    2.4061   -8.3281    1.2496 H   0  0  0  0  0  0  0  0  0  0  0  0
   -0.9490   -7.0103    1.3090 H   0  0  0  0  0  0  0  0  0  0  0  0
    0.4138   -7.8579    0.7131 H   0  0  0  0  0  0  0  0  0  0  0  0
   -0.0899  -10.0265    1.7799 H   0  0  0  0  0  0  0  0  0  0  0  0
    1.3509   -9.5895    2.3724 H   0  0  0  0  0  0  0  0  0  0  0  0
    0.4362   -8.3492    4.9766 H   0  0  0  0  0  0  0  0  0  0  0  0
    0.1406   -6.6481    4.3406 H   0  0  0  0  0  0  0  0  0  0  0  0
   -2.0995   -7.3710    3.4188 H   0  0  0  0  0  0  0  0  0  0  0  0
   -1.8155   -9.0567    4.0849 H   0  0  0  0  0  0  0  0  0  0  0  0
    2.3296   -1.9231    3.0380 H   0  0  0  0  0  0  0  0  0  0  0  0
    4.8199   -1.7570    2.7763 H   0  0  0  0  0  0  0  0  0  0  0  0
    6.0843   -3.7957    2.0443 H   0  0  0  0  0  0  0  0  0  0  0  0
    6.0556   -6.1437    1.3600 H   0  0  0  0  0  0  0  0  0  0  0  0
  1  2  1  0
  1 22  1  0
  1 23  1  0
  1 24  1  0
  2  3  2  0
  2  4  2  0
  2  5  1  0
  5  6  1  0
  6 21  2  0
  6  7  1  0
  7  8  2  0
  7 25  1  0
  8  9  1  0
  8 15  1  0
  9 10  1  0
 10 11  1  0
 10 26  1  0
 10 27  1  0
 11 14  1  0
 11 12  1  0
 11 13  1  0
 12 28  1  0
 12 29  1  0
 13 14  1  0
 13 30  1  0
 13 31  1  0
 14 32  1  0
 14 33  1  0
 15 20  2  0
 15 16  1  0
 16 17  2  0
 17 18  1  0
 17 34  1  0
 18 19  2  0
 18 35  1  0
 19 20  1  0
 19 36  1  0
 20 21  1  0
 21 37  1  0
M  END
>  <i_m_ct_stereo_status>  (87) 
1

>  <s_m_source_file>  (87) 
/var/tmp/pbs.5102264.sched01/tmpeif0x8wq/23vm_sbjim.sdf

>  <i_m_source_file_index>  (87) 
8

>  <i_lp_mmshare_version>  (87) 
48012

>  <i_f3d_flags>  (87) 
0

>  <s_epik_input>  (87) 
bjFbY0hdW2NIXVtjSF1jKGMxMilbY0hdYyhPUyg9TykoPU8pW0NIM10pW2NIXWMyT1tDSDJdQzMoW05IMl0pW0NIMl1bQ0gyXTM=

>  <s_epik_cmdline>  (87) 
J2VwaWtfcHl0aG9uJywgJy1waHQnLCAnMi4wJywgJy1waCcsICc3LjAnLCAnLXRuJywgJzgnLCAnLW1hJywgJzIwMCcsICctaW1hZScsICc8aW5maWxlLm1hZT4nLCAnLW9tYWUnLCAnPG91dGZpbGUubWFlPic=

>  <r_epik_Ionization_Penalty>  (87) 
1.61143

>  <r_epik_Ionization_Penalty_Charging>  (87) 
0

>  <r_epik_Ionization_Penalty_Neutral>  (87) 
1.61143

>  <r_epik_State_Penalty>  (87) 
1.70945

>  <r_epik_Charging_Adjusted_Penalty>  (87) 
1.70945

>  <i_epik_Tot_Q>  (87) 
0

>  <i_epik_Tot_abs_Q>  (87) 
0

>  <s_lp_Force_Field>  (87) 
OPLS3e

>  <r_lp_Energy>  (87) 
18.8828

>  <b_lp_Chiralities_Consistent>  (87) 
1

>  <s_lp_Variant>  (87) 
22:0-2

>  <s_i_glide_gridfile>  (87) 
pfpi4k_grid

>  <i_i_glide_lignum>  (87) 
8

>  <i_i_glide_rotatable_bonds>  (87) 
5

>  <r_i_docking_score>  (87) 
-3.02772

>  <r_i_glide_ligand_efficiency>  (87) 
-0.144177

>  <r_i_glide_ligand_efficiency_sa>  (87) 
-0.397774

>  <r_i_glide_ligand_efficiency_ln>  (87) 
-0.748599

>  <r_i_glide_gscore>  (87) 
-3.02772

>  <r_i_glide_lipo>  (87) 
-0.257554

>  <r_i_glide_hbond>  (87) 
-0.316671

>  <r_i_glide_metal>  (87) 
-0

>  <r_i_glide_rewards>  (87) 
-1.30668

>  <r_i_glide_evdw>  (87) 
-23.9751

>  <r_i_glide_ecoul>  (87) 
-4.42902

>  <r_i_glide_erotb>  (87) 
0.778288

>  <r_i_glide_esite>  (87) 
-0.0619991

>  <r_i_glide_emodel>  (87) 
-32.676

>  <r_i_glide_energy>  (87) 
-28.4041

>  <r_i_glide_einternal>  (87) 
3.72115

>  <r_i_glide_intrahb_reward>  (87) 
-0

>  <i_i_glide_confnum>  (87) 
3

>  <i_i_glide_posenum>  (87) 
33

>  <r_i_glide_eff_state_penalty>  (87) 
0

>  <ligand_id>  (87) 
22

>  <original_smiles>  (87) 
CS(=O)(=O)Oc1cc(OCC2(N)CC2)c2ncccc2c1

>  <smiles>  (87) 
[H]c1nc2c(OC([H])([H])C3(N([H])[H])C([H])([H])C3([H])[H])c([H])c(OS(=O)(=O)C([H])([H])[H])c([H])c2c([H])c1[H]

$$$$
22:1:1
     RDKit          3D

 37 39  0  0  1  0  0  0  0  0999 V2000
    4.6544  -10.7266    3.2115 C   0  0  0  0  0  0  0  0  0  0  0  0
    6.1689  -10.1710    2.3170 S   0  0  0  0  0  0  0  0  0  0  0  0
    6.8255   -9.1162    3.1052 O   0  0  0  0  0  0  0  0  0  0  0  0
    6.9375  -11.3372    1.8569 O   0  0  0  0  0  0  0  0  0  0  0  0
    5.4833   -9.4497    0.9339 O   0  0  0  0  0  0  0  0  0  0  0  0
    4.7013   -8.3433    1.1211 C   0  0  0  0  0  0  0  0  0  0  0  0
    3.3711   -8.4991    1.5366 C   0  0  0  0  0  0  0  0  0  0  0  0
    2.5618   -7.3711    1.8112 C   0  0  0  0  0  0  0  0  0  0  0  0
    1.2887   -7.4816    2.3326 O   0  0  0  0  0  0  0  0  0  0  0  0
    0.8478   -8.7359    2.8572 C   0  0  0  0  0  0  0  0  0  0  0  0
   -0.5482   -8.5481    3.4471 C   0  0  0  0  0  0  0  0  0  0  0  0
   -0.5670   -8.6273    4.8955 N   0  0  0  0  0  0  0  0  0  0  0  0
   -1.4984   -7.5602    2.8176 C   0  0  0  0  0  0  0  0  0  0  0  0
   -1.7628   -9.0414    2.6979 C   0  0  0  0  0  0  0  0  0  0  0  0
    3.0684   -6.0716    1.5642 C   0  0  0  0  0  0  0  0  0  0  0  0
    2.2803   -4.9867    1.7893 N   0  0  0  0  0  0  0  0  0  0  0  0
    2.7610   -3.7548    1.5427 C   0  0  0  0  0  0  0  0  0  0  0  0
    4.0628   -3.5195    1.0613 C   0  0  0  0  0  0  0  0  0  0  0  0
    4.9050   -4.6294    0.8387 C   0  0  0  0  0  0  0  0  0  0  0  0
    4.3990   -5.9193    1.0959 C   0  0  0  0  0  0  0  0  0  0  0  0
    5.2168   -7.0527    0.8892 C   0  0  0  0  0  0  0  0  0  0  0  0
    4.9460  -11.3119    4.0936 H   0  0  0  0  0  0  0  0  0  0  0  0
    4.0786  -11.3669    2.5300 H   0  0  0  0  0  0  0  0  0  0  0  0
    4.0496   -9.8515    3.4717 H   0  0  0  0  0  0  0  0  0  0  0  0
    2.9965   -9.5090    1.6565 H   0  0  0  0  0  0  0  0  0  0  0  0
    0.7848   -9.4656    2.0446 H   0  0  0  0  0  0  0  0  0  0  0  0
    1.5367   -9.1388    3.5923 H   0  0  0  0  0  0  0  0  0  0  0  0
   -0.3127   -9.5767    5.1880 H   0  0  0  0  0  0  0  0  0  0  0  0
    0.1004   -7.9875    5.2930 H   0  0  0  0  0  0  0  0  0  0  0  0
   -2.1386   -6.9902    3.4830 H   0  0  0  0  0  0  0  0  0  0  0  0
   -1.1670   -7.0365    1.9192 H   0  0  0  0  0  0  0  0  0  0  0  0
   -1.6111   -9.5091    1.7218 H   0  0  0  0  0  0  0  0  0  0  0  0
   -2.5791   -9.4512    3.2782 H   0  0  0  0  0  0  0  0  0  0  0  0
    2.0877   -2.9273    1.7236 H   0  0  0  0  0  0  0  0  0  0  0  0
    4.4074   -2.5176    0.8674 H   0  0  0  0  0  0  0  0  0  0  0  0
    5.9063   -4.4921    0.4680 H   0  0  0  0  0  0  0  0  0  0  0  0
    6.2341   -6.9157    0.5584 H   0  0  0  0  0  0  0  0  0  0  0  0
  1  2  1  0
  1 22  1  0
  1 23  1  0
  1 24  1  0
  2  3  2  0
  2  4  2  0
  2  5  1  0
  5  6  1  0
  6 21  2  0
  6  7  1  0
  7  8  2  0
  7 25  1  0
  8  9  1  0
  8 15  1  0
  9 10  1  0
 10 11  1  0
 10 26  1  0
 10 27  1  0
 11 14  1  0
 11 12  1  0
 11 13  1  0
 12 28  1  0
 12 29  1  0
 13 14  1  0
 13 30  1  0
 13 31  1  0
 14 32  1  0
 14 33  1  0
 15 20  2  0
 15 16  1  0
 16 17  2  0
 17 18  1  0
 17 34  1  0
 18 19  2  0
 18 35  1  0
 19 20  1  0
 19 36  1  0
 20 21  1  0
 21 37  1  0
M  END
>  <i_m_ct_stereo_status>  (88) 
1

>  <s_m_source_file>  (88) 
/var/tmp/pbs.5102264.sched01/tmpeif0x8wq/23vm_sbjim.sdf

>  <i_m_source_file_index>  (88) 
8

>  <i_lp_mmshare_version>  (88) 
48012

>  <i_f3d_flags>  (88) 
0

>  <s_epik_input>  (88) 
bjFbY0hdW2NIXVtjSF1jKGMxMilbY0hdYyhPUyg9TykoPU8pW0NIM10pW2NIXWMyT1tDSDJdQzMoW05IMl0pW0NIMl1bQ0gyXTM=

>  <s_epik_cmdline>  (88) 
J2VwaWtfcHl0aG9uJywgJy1waHQnLCAnMi4wJywgJy1waCcsICc3LjAnLCAnLXRuJywgJzgnLCAnLW1hJywgJzIwMCcsICctaW1hZScsICc8aW5maWxlLm1hZT4nLCAnLW9tYWUnLCAnPG91dGZpbGUubWFlPic=

>  <r_epik_Ionization_Penalty>  (88) 
1.61143

>  <r_epik_Ionization_Penalty_Charging>  (88) 
0

>  <r_epik_Ionization_Penalty_Neutral>  (88) 
1.61143

>  <r_epik_State_Penalty>  (88) 
1.70945

>  <r_epik_Charging_Adjusted_Penalty>  (88) 
1.70945

>  <i_epik_Tot_Q>  (88) 
0

>  <i_epik_Tot_abs_Q>  (88) 
0

>  <s_lp_Force_Field>  (88) 
OPLS3e

>  <r_lp_Energy>  (88) 
18.8828

>  <b_lp_Chiralities_Consistent>  (88) 
1

>  <s_lp_Variant>  (88) 
22:0-2

>  <s_i_glide_gridfile>  (88) 
pfpi4k_grid

>  <i_i_glide_lignum>  (88) 
8

>  <i_i_glide_rotatable_bonds>  (88) 
5

>  <r_i_docking_score>  (88) 
-2.93418

>  <r_i_glide_ligand_efficiency>  (88) 
-0.139723

>  <r_i_glide_ligand_efficiency_sa>  (88) 
-0.385485

>  <r_i_glide_ligand_efficiency_ln>  (88) 
-0.725471

>  <r_i_glide_gscore>  (88) 
-2.93418

>  <r_i_glide_lipo>  (88) 
-0.30633

>  <r_i_glide_hbond>  (88) 
-0.00418628

>  <r_i_glide_metal>  (88) 
-0

>  <r_i_glide_rewards>  (88) 
-1.30668

>  <r_i_glide_evdw>  (88) 
-25.852

>  <r_i_glide_ecoul>  (88) 
-4.6916

>  <r_i_glide_erotb>  (88) 
0.778288

>  <r_i_glide_esite>  (88) 
-0.0989348

>  <r_i_glide_emodel>  (88) 
-33.8638

>  <r_i_glide_energy>  (88) 
-30.5436

>  <r_i_glide_einternal>  (88) 
3.99039

>  <r_i_glide_intrahb_reward>  (88) 
-0

>  <i_i_glide_confnum>  (88) 
4

>  <i_i_glide_posenum>  (88) 
11

>  <r_i_glide_eff_state_penalty>  (88) 
0

>  <ligand_id>  (88) 
22

>  <original_smiles>  (88) 
CS(=O)(=O)Oc1cc(OCC2(N)CC2)c2ncccc2c1

>  <smiles>  (88) 
[H]c1nc2c(OC([H])([H])C3(N([H])[H])C([H])([H])C3([H])[H])c([H])c(OS(=O)(=O)C([H])([H])[H])c([H])c2c([H])c1[H]

$$$$
22:1:2
     RDKit          3D

 37 39  0  0  1  0  0  0  0  0999 V2000
    4.6246  -10.7090    2.8715 C   0  0  0  0  0  0  0  0  0  0  0  0
    6.2329   -9.9901    2.3512 S   0  0  0  0  0  0  0  0  0  0  0  0
    7.3067  -10.6961    3.0678 O   0  0  0  0  0  0  0  0  0  0  0  0
    6.2780   -9.8606    0.8859 O   0  0  0  0  0  0  0  0  0  0  0  0
    6.1412   -8.4284    2.9981 O   0  0  0  0  0  0  0  0  0  0  0  0
    5.2326   -7.5732    2.4402 C   0  0  0  0  0  0  0  0  0  0  0  0
    3.9024   -7.6108    2.8768 C   0  0  0  0  0  0  0  0  0  0  0  0
    2.9033   -6.8085    2.2832 C   0  0  0  0  0  0  0  0  0  0  0  0
    1.5707   -6.8794    2.6573 O   0  0  0  0  0  0  0  0  0  0  0  0
    1.0975   -7.8424    3.6165 C   0  0  0  0  0  0  0  0  0  0  0  0
   -0.1517   -8.5258    3.0830 C   0  0  0  0  0  0  0  0  0  0  0  0
    0.0317   -9.9606    2.9775 N   0  0  0  0  0  0  0  0  0  0  0  0
   -1.5239   -8.0255    3.4635 C   0  0  0  0  0  0  0  0  0  0  0  0
   -1.0176   -7.8670    2.0480 C   0  0  0  0  0  0  0  0  0  0  0  0
    3.2682   -5.8819    1.2728 C   0  0  0  0  0  0  0  0  0  0  0  0
    2.3368   -5.0688    0.7070 N   0  0  0  0  0  0  0  0  0  0  0  0
    2.7237   -4.1589   -0.2081 C   0  0  0  0  0  0  0  0  0  0  0  0
    4.0602   -4.0097   -0.6338 C   0  0  0  0  0  0  0  0  0  0  0  0
    5.0313   -4.8625   -0.0808 C   0  0  0  0  0  0  0  0  0  0  0  0
    4.6399   -5.8057    0.8837 C   0  0  0  0  0  0  0  0  0  0  0  0
    5.6129   -6.6494    1.4487 C   0  0  0  0  0  0  0  0  0  0  0  0
    4.5724  -11.7463    2.5311 H   0  0  0  0  0  0  0  0  0  0  0  0
    3.8065  -10.1969    2.3685 H   0  0  0  0  0  0  0  0  0  0  0  0
    4.5362  -10.6587    3.9532 H   0  0  0  0  0  0  0  0  0  0  0  0
    3.7026   -8.3012    3.6801 H   0  0  0  0  0  0  0  0  0  0  0  0
    1.7771   -8.6188    3.9679 H   0  0  0  0  0  0  0  0  0  0  0  0
    0.8290   -7.2597    4.4982 H   0  0  0  0  0  0  0  0  0  0  0  0
    0.7992  -10.1874    2.3588 H   0  0  0  0  0  0  0  0  0  0  0  0
    0.2405  -10.3655    3.8831 H   0  0  0  0  0  0  0  0  0  0  0  0
   -2.2912   -8.7749    3.6474 H   0  0  0  0  0  0  0  0  0  0  0  0
   -1.5734   -7.1391    4.0944 H   0  0  0  0  0  0  0  0  0  0  0  0
   -0.7431   -6.8710    1.7074 H   0  0  0  0  0  0  0  0  0  0  0  0
   -1.4269   -8.5218    1.2815 H   0  0  0  0  0  0  0  0  0  0  0  0
    1.9499   -3.5275   -0.6301 H   0  0  0  0  0  0  0  0  0  0  0  0
    4.3230   -3.2858   -1.3880 H   0  0  0  0  0  0  0  0  0  0  0  0
    6.0660   -4.7941   -0.3858 H   0  0  0  0  0  0  0  0  0  0  0  0
    6.6494   -6.6011    1.1472 H   0  0  0  0  0  0  0  0  0  0  0  0
  1  2  1  0
  1 22  1  0
  1 23  1  0
  1 24  1  0
  2  3  2  0
  2  4  2  0
  2  5  1  0
  5  6  1  0
  6 21  2  0
  6  7  1  0
  7  8  2  0
  7 25  1  0
  8  9  1  0
  8 15  1  0
  9 10  1  0
 10 11  1  0
 10 26  1  0
 10 27  1  0
 11 14  1  0
 11 12  1  0
 11 13  1  0
 12 28  1  0
 12 29  1  0
 13 14  1  0
 13 30  1  0
 13 31  1  0
 14 32  1  0
 14 33  1  0
 15 20  2  0
 15 16  1  0
 16 17  2  0
 17 18  1  0
 17 34  1  0
 18 19  2  0
 18 35  1  0
 19 20  1  0
 19 36  1  0
 20 21  1  0
 21 37  1  0
M  END
>  <i_m_ct_stereo_status>  (89) 
1

>  <s_m_source_file>  (89) 
/var/tmp/pbs.5102264.sched01/tmpeif0x8wq/23vm_sbjim.sdf

>  <i_m_source_file_index>  (89) 
8

>  <i_lp_mmshare_version>  (89) 
48012

>  <i_f3d_flags>  (89) 
0

>  <s_epik_input>  (89) 
bjFbY0hdW2NIXVtjSF1jKGMxMilbY0hdYyhPUyg9TykoPU8pW0NIM10pW2NIXWMyT1tDSDJdQzMoW05IMl0pW0NIMl1bQ0gyXTM=

>  <s_epik_cmdline>  (89) 
J2VwaWtfcHl0aG9uJywgJy1waHQnLCAnMi4wJywgJy1waCcsICc3LjAnLCAnLXRuJywgJzgnLCAnLW1hJywgJzIwMCcsICctaW1hZScsICc8aW5maWxlLm1hZT4nLCAnLW9tYWUnLCAnPG91dGZpbGUubWFlPic=

>  <r_epik_Ionization_Penalty>  (89) 
1.61143

>  <r_epik_Ionization_Penalty_Charging>  (89) 
0

>  <r_epik_Ionization_Penalty_Neutral>  (89) 
1.61143

>  <r_epik_State_Penalty>  (89) 
1.70945

>  <r_epik_Charging_Adjusted_Penalty>  (89) 
1.70945

>  <i_epik_Tot_Q>  (89) 
0

>  <i_epik_Tot_abs_Q>  (89) 
0

>  <s_lp_Force_Field>  (89) 
OPLS3e

>  <r_lp_Energy>  (89) 
18.8828

>  <b_lp_Chiralities_Consistent>  (89) 
1

>  <s_lp_Variant>  (89) 
22:0-2

>  <s_i_glide_gridfile>  (89) 
pfpi4k_grid

>  <i_i_glide_lignum>  (89) 
8

>  <i_i_glide_rotatable_bonds>  (89) 
5

>  <r_i_docking_score>  (89) 
-2.64937

>  <r_i_glide_ligand_efficiency>  (89) 
-0.126161

>  <r_i_glide_ligand_efficiency_sa>  (89) 
-0.348068

>  <r_i_glide_ligand_efficiency_ln>  (89) 
-0.655052

>  <r_i_glide_gscore>  (89) 
-2.64937

>  <r_i_glide_lipo>  (89) 
-0.225335

>  <r_i_glide_hbond>  (89) 
-0.000707534

>  <r_i_glide_metal>  (89) 
-0

>  <r_i_glide_rewards>  (89) 
-1.30668

>  <r_i_glide_evdw>  (89) 
-24.8989

>  <r_i_glide_ecoul>  (89) 
-3.92414

>  <r_i_glide_erotb>  (89) 
0.778288

>  <r_i_glide_esite>  (89) 
-0.0613767

>  <r_i_glide_emodel>  (89) 
-31.9099

>  <r_i_glide_energy>  (89) 
-28.823

>  <r_i_glide_einternal>  (89) 
4.13087

>  <r_i_glide_intrahb_reward>  (89) 
-0

>  <i_i_glide_confnum>  (89) 
1

>  <i_i_glide_posenum>  (89) 
29

>  <r_i_glide_eff_state_penalty>  (89) 
0

>  <ligand_id>  (89) 
22

>  <original_smiles>  (89) 
CS(=O)(=O)Oc1cc(OCC2(N)CC2)c2ncccc2c1

>  <smiles>  (89) 
[H]c1nc2c(OC([H])([H])C3(N([H])[H])C([H])([H])C3([H])[H])c([H])c(OS(=O)(=O)C([H])([H])[H])c([H])c2c([H])c1[H]

$$$$
23:0:0
     RDKit          3D

 27 29  0  0  1  0  0  0  0  0999 V2000
    6.4725   -4.8655    0.5934 O   0  0  0  0  0  0  0  0  0  0  0  0
    5.3124   -5.2632    0.4522 C   0  0  0  0  0  0  0  0  0  0  0  0
    4.4235   -4.6117   -0.3120 N   0  0  0  0  0  0  0  0  0  0  0  0
    4.7336   -3.4259   -1.1091 C   0  0  2  0  0  0  0  0  0  0  0  0
    4.3986   -2.1427   -0.3214 C   0  0  0  0  0  0  0  0  0  0  0  0
    4.7278   -0.9676   -1.0641 O   0  0  0  0  0  0  0  0  0  0  0  0
    4.3128   -0.9605   -2.3552 C   0  0  0  0  0  0  0  0  0  0  0  0
    4.1570    0.0728   -3.2254 C   0  0  0  0  0  0  0  0  0  0  0  0
    3.7431   -0.5740   -4.4225 C   0  0  0  0  0  0  0  0  0  0  0  0
    3.6930   -1.8928   -4.3135 N   0  0  0  0  0  0  0  0  0  0  0  0
    4.0169   -2.1228   -3.0223 N   0  0  0  0  0  0  0  0  0  0  0  0
    4.0003   -3.4470   -2.4617 C   0  0  0  0  0  0  0  0  0  0  0  0
    4.8237   -6.5564    1.0368 C   0  0  0  0  0  0  0  0  0  0  0  0
    3.5084   -6.8567    1.3352 C   0  0  0  0  0  0  0  0  0  0  0  0
    3.3366   -8.4598    2.0078 S   0  0  0  0  0  0  0  0  0  0  0  0
    5.0767   -8.6556    1.8738 C   0  0  0  0  0  0  0  0  0  0  0  0
    5.7050   -7.5947    1.3658 N   0  0  0  0  0  0  0  0  0  0  0  0
    3.4923   -4.9953   -0.3890 H   0  0  0  0  0  0  0  0  0  0  0  0
    5.7995   -3.4078   -1.3489 H   0  0  0  0  0  0  0  0  0  0  0  0
    3.3409   -2.1217   -0.0497 H   0  0  0  0  0  0  0  0  0  0  0  0
    4.9686   -2.1270    0.6081 H   0  0  0  0  0  0  0  0  0  0  0  0
    4.3010    1.1222   -3.0610 H   0  0  0  0  0  0  0  0  0  0  0  0
    3.4932   -0.1252   -5.3716 H   0  0  0  0  0  0  0  0  0  0  0  0
    4.4749   -4.1439   -3.1596 H   0  0  0  0  0  0  0  0  0  0  0  0
    2.9528   -3.7419   -2.3404 H   0  0  0  0  0  0  0  0  0  0  0  0
    2.6355   -6.2311    1.2034 H   0  0  0  0  0  0  0  0  0  0  0  0
    5.6357   -9.5320    2.1740 H   0  0  0  0  0  0  0  0  0  0  0  0
  1  2  2  0
  2  3  1  0
  2 13  1  0
  3  4  1  0
  3 18  1  0
  4 12  1  0
  4  5  1  0
  4 19  1  6
  5  6  1  0
  5 20  1  0
  5 21  1  0
  6  7  1  0
  7 11  1  0
  7  8  2  0
  8  9  1  0
  8 22  1  0
  9 10  2  0
  9 23  1  0
 10 11  1  0
 11 12  1  0
 12 24  1  0
 12 25  1  0
 13 17  1  0
 13 14  2  0
 14 15  1  0
 14 26  1  0
 15 16  1  0
 16 17  2  0
 16 27  1  0
M  END
>  <i_m_ct_stereo_status>  (90) 
1

>  <s_m_source_file>  (90) 
/var/tmp/pbs.5102264.sched01/tmpeif0x8wq/23vm_sbjim.sdf

>  <i_m_source_file_index>  (90) 
9

>  <i_lp_mmshare_version>  (90) 
48012

>  <i_f3d_flags>  (90) 
0

>  <s_epik_input>  (90) 
bjFbY0hdc1tjSF1jMUMoPU8pW05IXVtDQEhdKFtDSDJdTzIpW0NIMl1uKGMyMyluW2NIXVtjSF0z

>  <s_epik_cmdline>  (90) 
J2VwaWtfcHl0aG9uJywgJy1waHQnLCAnMi4wJywgJy1waCcsICc3LjAnLCAnLXRuJywgJzgnLCAnLW1hJywgJzIwMCcsICctaW1hZScsICc8aW5maWxlLm1hZT4nLCAnLW9tYWUnLCAnPG91dGZpbGUubWFlPic=

>  <r_lp_tautomer_probability>  (90) 
1

>  <r_epik_Ionization_Penalty>  (90) 
6.55038e-06

>  <r_epik_Ionization_Penalty_Charging>  (90) 
0

>  <r_epik_Ionization_Penalty_Neutral>  (90) 
6.55038e-06

>  <r_epik_State_Penalty>  (90) 
-0

>  <r_epik_Charging_Adjusted_Penalty>  (90) 
0

>  <i_epik_Tot_Q>  (90) 
0

>  <i_epik_Tot_abs_Q>  (90) 
0

>  <s_lp_Force_Field>  (90) 
OPLS3e

>  <r_lp_Energy>  (90) 
11.8954

>  <b_lp_Chiralities_Consistent>  (90) 
1

>  <s_lp_Variant>  (90) 
23:0-1

>  <s_i_glide_gridfile>  (90) 
pfpi4k_grid

>  <i_i_glide_lignum>  (90) 
9

>  <i_i_glide_rotatable_bonds>  (90) 
3

>  <r_i_docking_score>  (90) 
-3.91044

>  <r_i_glide_ligand_efficiency>  (90) 
-0.230026

>  <r_i_glide_ligand_efficiency_sa>  (90) 
-0.591462

>  <r_i_glide_ligand_efficiency_ln>  (90) 
-1.02015

>  <r_i_glide_gscore>  (90) 
-3.91044

>  <r_i_glide_lipo>  (90) 
-0.500938

>  <r_i_glide_hbond>  (90) 
-0.32

>  <r_i_glide_metal>  (90) 
-0

>  <r_i_glide_rewards>  (90) 
-1.98862

>  <r_i_glide_evdw>  (90) 
-24.6192

>  <r_i_glide_ecoul>  (90) 
-4.63235

>  <r_i_glide_erotb>  (90) 
0.838401

>  <r_i_glide_esite>  (90) 
-0.0134761

>  <r_i_glide_emodel>  (90) 
-36.6754

>  <r_i_glide_energy>  (90) 
-29.2515

>  <r_i_glide_einternal>  (90) 
0.940556

>  <r_i_glide_intrahb_reward>  (90) 
-0

>  <i_i_glide_confnum>  (90) 
2

>  <i_i_glide_posenum>  (90) 
35

>  <r_i_glide_eff_state_penalty>  (90) 
0

>  <ligand_id>  (90) 
23

>  <original_smiles>  (90) 
O=C(NC1COc2ccnn2C1)c1cscn1

>  <smiles>  (90) 
[H]c1nc(C(=O)N([H])C2([H])C([H])([H])Oc3c([H])c([H])nn3C2([H])[H])c([H])s1

$$$$
23:0:1
     RDKit          3D

 27 29  0  0  1  0  0  0  0  0999 V2000
    0.5966   -6.2543    0.5239 O   0  0  0  0  0  0  0  0  0  0  0  0
    1.3451   -6.8789    1.2733 C   0  0  0  0  0  0  0  0  0  0  0  0
    2.6435   -6.5874    1.4115 N   0  0  0  0  0  0  0  0  0  0  0  0
    3.3432   -5.5273    0.6863 C   0  0  2  0  0  0  0  0  0  0  0  0
    4.8282   -5.8955    0.4963 C   0  0  0  0  0  0  0  0  0  0  0  0
    5.5492   -4.9004   -0.2361 O   0  0  0  0  0  0  0  0  0  0  0  0
    5.3389   -3.6180    0.1522 C   0  0  0  0  0  0  0  0  0  0  0  0
    6.0714   -2.4984   -0.0903 C   0  0  0  0  0  0  0  0  0  0  0  0
    5.3109   -1.4782    0.5558 C   0  0  0  0  0  0  0  0  0  0  0  0
    4.2153   -1.9391    1.1499 N   0  0  0  0  0  0  0  0  0  0  0  0
    4.2332   -3.2636    0.8904 N   0  0  0  0  0  0  0  0  0  0  0  0
    3.2154   -4.1623    1.3980 C   0  0  0  0  0  0  0  0  0  0  0  0
    0.8552   -8.0024    2.1207 C   0  0  0  0  0  0  0  0  0  0  0  0
    1.5949   -9.1166    2.4670 C   0  0  0  0  0  0  0  0  0  0  0  0
    0.6504  -10.2607    3.3803 S   0  0  0  0  0  0  0  0  0  0  0  0
   -0.7181   -9.1633    3.2602 C   0  0  0  0  0  0  0  0  0  0  0  0
   -0.4699   -8.0523    2.5728 N   0  0  0  0  0  0  0  0  0  0  0  0
    3.1860   -7.1731    2.0340 H   0  0  0  0  0  0  0  0  0  0  0  0
    2.9110   -5.4294   -0.3136 H   0  0  0  0  0  0  0  0  0  0  0  0
    5.3217   -6.0676    1.4575 H   0  0  0  0  0  0  0  0  0  0  0  0
    4.8992   -6.8292   -0.0611 H   0  0  0  0  0  0  0  0  0  0  0  0
    7.0007   -2.4306   -0.6332 H   0  0  0  0  0  0  0  0  0  0  0  0
    5.5224   -0.4209    0.6306 H   0  0  0  0  0  0  0  0  0  0  0  0
    2.2276   -3.7231    1.2475 H   0  0  0  0  0  0  0  0  0  0  0  0
    3.3757   -4.2614    2.4741 H   0  0  0  0  0  0  0  0  0  0  0  0
    2.6205   -9.3549    2.2057 H   0  0  0  0  0  0  0  0  0  0  0  0
   -1.7000   -9.3435    3.6791 H   0  0  0  0  0  0  0  0  0  0  0  0
  1  2  2  0
  2  3  1  0
  2 13  1  0
  3  4  1  0
  3 18  1  0
  4 12  1  0
  4  5  1  0
  4 19  1  6
  5  6  1  0
  5 20  1  0
  5 21  1  0
  6  7  1  0
  7 11  1  0
  7  8  2  0
  8  9  1  0
  8 22  1  0
  9 10  2  0
  9 23  1  0
 10 11  1  0
 11 12  1  0
 12 24  1  0
 12 25  1  0
 13 17  1  0
 13 14  2  0
 14 15  1  0
 14 26  1  0
 15 16  1  0
 16 17  2  0
 16 27  1  0
M  END
>  <i_m_ct_stereo_status>  (91) 
1

>  <s_m_source_file>  (91) 
/var/tmp/pbs.5102264.sched01/tmpeif0x8wq/23vm_sbjim.sdf

>  <i_m_source_file_index>  (91) 
9

>  <i_lp_mmshare_version>  (91) 
48012

>  <i_f3d_flags>  (91) 
0

>  <s_epik_input>  (91) 
bjFbY0hdc1tjSF1jMUMoPU8pW05IXVtDQEhdKFtDSDJdTzIpW0NIMl1uKGMyMyluW2NIXVtjSF0z

>  <s_epik_cmdline>  (91) 
J2VwaWtfcHl0aG9uJywgJy1waHQnLCAnMi4wJywgJy1waCcsICc3LjAnLCAnLXRuJywgJzgnLCAnLW1hJywgJzIwMCcsICctaW1hZScsICc8aW5maWxlLm1hZT4nLCAnLW9tYWUnLCAnPG91dGZpbGUubWFlPic=

>  <r_lp_tautomer_probability>  (91) 
1

>  <r_epik_Ionization_Penalty>  (91) 
6.55038e-06

>  <r_epik_Ionization_Penalty_Charging>  (91) 
0

>  <r_epik_Ionization_Penalty_Neutral>  (91) 
6.55038e-06

>  <r_epik_State_Penalty>  (91) 
-0

>  <r_epik_Charging_Adjusted_Penalty>  (91) 
0

>  <i_epik_Tot_Q>  (91) 
0

>  <i_epik_Tot_abs_Q>  (91) 
0

>  <s_lp_Force_Field>  (91) 
OPLS3e

>  <r_lp_Energy>  (91) 
11.8954

>  <b_lp_Chiralities_Consistent>  (91) 
1

>  <s_lp_Variant>  (91) 
23:0-1

>  <s_i_glide_gridfile>  (91) 
pfpi4k_grid

>  <i_i_glide_lignum>  (91) 
9

>  <i_i_glide_rotatable_bonds>  (91) 
3

>  <r_i_docking_score>  (91) 
-3.41273

>  <r_i_glide_ligand_efficiency>  (91) 
-0.200749

>  <r_i_glide_ligand_efficiency_sa>  (91) 
-0.516181

>  <r_i_glide_ligand_efficiency_ln>  (91) 
-0.890304

>  <r_i_glide_gscore>  (91) 
-3.41273

>  <r_i_glide_lipo>  (91) 
-0.293045

>  <r_i_glide_hbond>  (91) 
-0.214578

>  <r_i_glide_metal>  (91) 
-0

>  <r_i_glide_rewards>  (91) 
-1.72242

>  <r_i_glide_evdw>  (91) 
-24.5063

>  <r_i_glide_ecoul>  (91) 
-4.92196

>  <r_i_glide_erotb>  (91) 
0.838401

>  <r_i_glide_esite>  (91) 
-0.0574704

>  <r_i_glide_emodel>  (91) 
-36.2389

>  <r_i_glide_energy>  (91) 
-29.4283

>  <r_i_glide_einternal>  (91) 
0.173617

>  <r_i_glide_intrahb_reward>  (91) 
-0

>  <i_i_glide_confnum>  (91) 
1

>  <i_i_glide_posenum>  (91) 
33

>  <r_i_glide_eff_state_penalty>  (91) 
0

>  <ligand_id>  (91) 
23

>  <original_smiles>  (91) 
O=C(NC1COc2ccnn2C1)c1cscn1

>  <smiles>  (91) 
[H]c1nc(C(=O)N([H])C2([H])C([H])([H])Oc3c([H])c([H])nn3C2([H])[H])c([H])s1

$$$$
23:0:2
     RDKit          3D

 27 29  0  0  1  0  0  0  0  0999 V2000
    0.6411   -6.2585    0.4334 O   0  0  0  0  0  0  0  0  0  0  0  0
    1.2908   -6.6764    1.3966 C   0  0  0  0  0  0  0  0  0  0  0  0
    2.5941   -6.4162    1.5688 N   0  0  0  0  0  0  0  0  0  0  0  0
    3.4474   -5.7126    0.6177 C   0  0  2  0  0  0  0  0  0  0  0  0
    4.9329   -5.8312    1.0132 C   0  0  0  0  0  0  0  0  0  0  0  0
    5.8132   -5.1880    0.0829 O   0  0  0  0  0  0  0  0  0  0  0  0
    5.4316   -3.9546   -0.3323 C   0  0  0  0  0  0  0  0  0  0  0  0
    6.1512   -2.9721   -0.9381 C   0  0  0  0  0  0  0  0  0  0  0  0
    5.1813   -1.9424   -1.1309 C   0  0  0  0  0  0  0  0  0  0  0  0
    3.9764   -2.2689   -0.6835 N   0  0  0  0  0  0  0  0  0  0  0  0
    4.1345   -3.5176   -0.1948 N   0  0  0  0  0  0  0  0  0  0  0  0
    3.0472   -4.2314    0.4354 C   0  0  0  0  0  0  0  0  0  0  0  0
    0.6557   -7.4597    2.4930 C   0  0  0  0  0  0  0  0  0  0  0  0
    1.3239   -8.2749    3.3852 C   0  0  0  0  0  0  0  0  0  0  0  0
    0.2303   -9.0625    4.4897 S   0  0  0  0  0  0  0  0  0  0  0  0
   -1.1055   -8.2683    3.6750 C   0  0  0  0  0  0  0  0  0  0  0  0
   -0.7336   -7.4582    2.6821 N   0  0  0  0  0  0  0  0  0  0  0  0
    3.0423   -6.7920    2.3913 H   0  0  0  0  0  0  0  0  0  0  0  0
    3.3334   -6.2272   -0.3243 H   0  0  0  0  0  0  0  0  0  0  0  0
    5.1051   -5.4173    2.0091 H   0  0  0  0  0  0  0  0  0  0  0  0
    5.2170   -6.8831    1.0534 H   0  0  0  0  0  0  0  0  0  0  0  0
    7.1988   -2.9907   -1.1929 H   0  0  0  0  0  0  0  0  0  0  0  0
    5.3064   -0.9626   -1.5658 H   0  0  0  0  0  0  0  0  0  0  0  0
    2.1476   -4.1288   -0.1731 H   0  0  0  0  0  0  0  0  0  0  0  0
    2.8577   -3.7626    1.4026 H   0  0  0  0  0  0  0  0  0  0  0  0
    2.3878   -8.4783    3.4533 H   0  0  0  0  0  0  0  0  0  0  0  0
   -2.1496   -8.3931    3.9252 H   0  0  0  0  0  0  0  0  0  0  0  0
  1  2  2  0
  2  3  1  0
  2 13  1  0
  3  4  1  0
  3 18  1  0
  4 12  1  0
  4  5  1  0
  4 19  1  6
  5  6  1  0
  5 20  1  0
  5 21  1  0
  6  7  1  0
  7 11  1  0
  7  8  2  0
  8  9  1  0
  8 22  1  0
  9 10  2  0
  9 23  1  0
 10 11  1  0
 11 12  1  0
 12 24  1  0
 12 25  1  0
 13 17  1  0
 13 14  2  0
 14 15  1  0
 14 26  1  0
 15 16  1  0
 16 17  2  0
 16 27  1  0
M  END
>  <i_m_ct_stereo_status>  (92) 
1

>  <s_m_source_file>  (92) 
/var/tmp/pbs.5102264.sched01/tmpeif0x8wq/23vm_sbjim.sdf

>  <i_m_source_file_index>  (92) 
9

>  <i_lp_mmshare_version>  (92) 
48012

>  <i_f3d_flags>  (92) 
0

>  <s_epik_input>  (92) 
bjFbY0hdc1tjSF1jMUMoPU8pW05IXVtDQEhdKFtDSDJdTzIpW0NIMl1uKGMyMyluW2NIXVtjSF0z

>  <s_epik_cmdline>  (92) 
J2VwaWtfcHl0aG9uJywgJy1waHQnLCAnMi4wJywgJy1waCcsICc3LjAnLCAnLXRuJywgJzgnLCAnLW1hJywgJzIwMCcsICctaW1hZScsICc8aW5maWxlLm1hZT4nLCAnLW9tYWUnLCAnPG91dGZpbGUubWFlPic=

>  <r_lp_tautomer_probability>  (92) 
1

>  <r_epik_Ionization_Penalty>  (92) 
6.55038e-06

>  <r_epik_Ionization_Penalty_Charging>  (92) 
0

>  <r_epik_Ionization_Penalty_Neutral>  (92) 
6.55038e-06

>  <r_epik_State_Penalty>  (92) 
-0

>  <r_epik_Charging_Adjusted_Penalty>  (92) 
0

>  <i_epik_Tot_Q>  (92) 
0

>  <i_epik_Tot_abs_Q>  (92) 
0

>  <s_lp_Force_Field>  (92) 
OPLS3e

>  <r_lp_Energy>  (92) 
11.8954

>  <b_lp_Chiralities_Consistent>  (92) 
1

>  <s_lp_Variant>  (92) 
23:0-1

>  <s_i_glide_gridfile>  (92) 
pfpi4k_grid

>  <i_i_glide_lignum>  (92) 
9

>  <i_i_glide_rotatable_bonds>  (92) 
3

>  <r_i_docking_score>  (92) 
-3.29981

>  <r_i_glide_ligand_efficiency>  (92) 
-0.194106

>  <r_i_glide_ligand_efficiency_sa>  (92) 
-0.499102

>  <r_i_glide_ligand_efficiency_ln>  (92) 
-0.860846

>  <r_i_glide_gscore>  (92) 
-3.29981

>  <r_i_glide_lipo>  (92) 
-0.173102

>  <r_i_glide_hbond>  (92) 
-0.271472

>  <r_i_glide_metal>  (92) 
-0

>  <r_i_glide_rewards>  (92) 
-1.73559

>  <r_i_glide_evdw>  (92) 
-24.8147

>  <r_i_glide_ecoul>  (92) 
-4.33127

>  <r_i_glide_erotb>  (92) 
0.838401

>  <r_i_glide_esite>  (92) 
-0.0676133

>  <r_i_glide_emodel>  (92) 
-35.757

>  <r_i_glide_energy>  (92) 
-29.146

>  <r_i_glide_einternal>  (92) 
0.102482

>  <r_i_glide_intrahb_reward>  (92) 
-0

>  <i_i_glide_confnum>  (92) 
1

>  <i_i_glide_posenum>  (92) 
31

>  <r_i_glide_eff_state_penalty>  (92) 
0

>  <ligand_id>  (92) 
23

>  <original_smiles>  (92) 
O=C(NC1COc2ccnn2C1)c1cscn1

>  <smiles>  (92) 
[H]c1nc(C(=O)N([H])C2([H])C([H])([H])Oc3c([H])c([H])nn3C2([H])[H])c([H])s1

$$$$
24:0:0
     RDKit          3D

 36 38  0  0  1  0  0  0  0  0999 V2000
    1.4689    0.6303    5.5559 C   0  0  0  0  0  0  0  0  0  0  0  0
    0.2994   -0.0780    5.8919 O   0  0  0  0  0  0  0  0  0  0  0  0
   -0.7711   -0.2448    5.0438 C   0  0  0  0  0  0  0  0  0  0  0  0
   -1.7978   -0.8711    5.3511 O   0  0  0  0  0  0  0  0  0  0  0  0
   -0.6491    0.4036    3.6490 C   0  0  2  0  0  0  0  0  0  0  0  0
    0.5404    0.0271    2.8662 N   0  0  0  0  0  0  0  0  0  0  0  0
    1.5069   -0.9934    2.7933 C   0  0  0  0  0  0  0  0  0  0  0  0
    1.5499   -2.1005    3.2358 O   0  0  0  0  0  0  0  0  0  0  0  0
    2.5032    0.0119    2.1429 C   0  0  1  0  0  0  0  0  0  0  0  0
    2.9934   -0.4824    0.8631 N   0  0  0  0  0  0  0  0  0  0  0  0
    4.2798   -0.7296    0.5569 C   0  0  0  0  0  0  0  0  0  0  0  0
    5.2218   -0.4284    1.2952 O   0  0  0  0  0  0  0  0  0  0  0  0
    4.5251   -1.4713   -0.7317 C   0  0  0  0  0  0  0  0  0  0  0  0
    5.7147   -2.2095   -0.9215 C   0  0  0  0  0  0  0  0  0  0  0  0
    5.9060   -2.8886   -2.1382 C   0  0  0  0  0  0  0  0  0  0  0  0
    5.0256   -2.8599   -3.1486 N   0  0  0  0  0  0  0  0  0  0  0  0
    3.8769   -2.1559   -2.9708 C   0  0  0  0  0  0  0  0  0  0  0  0
    3.5924   -1.4493   -1.7935 C   0  0  0  0  0  0  0  0  0  0  0  0
    1.3057    0.9831    2.0544 C   0  0  2  0  0  0  0  0  0  0  0  0
    1.2165    2.2862    2.8727 C   0  0  0  0  0  0  0  0  0  0  0  0
   -0.4865    2.2656    3.6896 S   0  0  0  0  0  0  0  0  0  0  0  0
   -1.4834    2.8394    2.7751 O   0  0  0  0  0  0  0  0  0  0  0  0
   -0.4491    2.8075    5.0565 O   0  0  0  0  0  0  0  0  0  0  0  0
    2.1926    0.6937    6.3371 H   0  0  0  0  0  0  0  0  0  0  0  0
    1.2640    1.6182    5.2976 H   0  0  0  0  0  0  0  0  0  0  0  0
    1.9640    0.2068    4.7244 H   0  0  0  0  0  0  0  0  0  0  0  0
   -1.5382    0.1658    3.0709 H   0  0  0  0  0  0  0  0  0  0  0  0
    3.2988    0.3643    2.7965 H   0  0  0  0  0  0  0  0  0  0  0  0
    2.2860   -0.7281    0.1792 H   0  0  0  0  0  0  0  0  0  0  0  0
    6.4627   -2.2668   -0.1456 H   0  0  0  0  0  0  0  0  0  0  0  0
    6.8082   -3.4570   -2.3072 H   0  0  0  0  0  0  0  0  0  0  0  0
    3.1785   -2.1473   -3.7921 H   0  0  0  0  0  0  0  0  0  0  0  0
    2.6635   -0.9007   -1.7244 H   0  0  0  0  0  0  0  0  0  0  0  0
    0.8499    1.0698    1.0676 H   0  0  0  0  0  0  0  0  0  0  0  0
    2.0056    2.3022    3.6201 H   0  0  0  0  0  0  0  0  0  0  0  0
    1.3602    3.1955    2.2952 H   0  0  0  0  0  0  0  0  0  0  0  0
  1  2  1  0
  1 24  1  0
  1 25  1  0
  1 26  1  0
  2  3  1  0
  3  4  2  0
  3  5  1  0
  5 21  1  0
  5  6  1  0
  5 27  1  6
  6 19  1  0
  6  7  1  0
  7  8  2  0
  7  9  1  0
  9 10  1  0
  9 19  1  0
  9 28  1  1
 10 11  1  0
 10 29  1  0
 11 12  2  0
 11 13  1  0
 13 18  1  0
 13 14  2  0
 14 15  1  0
 14 30  1  0
 15 16  2  0
 15 31  1  0
 16 17  1  0
 17 18  2  0
 17 32  1  0
 18 33  1  0
 19 20  1  0
 19 34  1  6
 20 21  1  0
 20 35  1  0
 20 36  1  0
 21 22  2  0
 21 23  2  0
M  END
>  <i_m_ct_stereo_status>  (93) 
1

>  <s_m_source_file>  (93) 
/var/tmp/pbs.5102264.sched01/tmpeif0x8wq/23vm_sbjim.sdf

>  <i_m_source_file_index>  (93) 
10

>  <i_lp_mmshare_version>  (93) 
48012

>  <i_f3d_flags>  (93) 
0

>  <s_epik_input>  (93) 
W0NIM11PQyg9TylbQ0BIXTFTKD1PKSg9TylbQ0gyXVtDQEhdKE4xMilbQ0BASF0oQzI9TylbTkhdQyg9TyljM1tjSF1bY0hdbltjSF1bY0hdMw==

>  <s_epik_cmdline>  (93) 
J2VwaWtfcHl0aG9uJywgJy1waHQnLCAnMi4wJywgJy1waCcsICc3LjAnLCAnLXRuJywgJzgnLCAnLW1hJywgJzIwMCcsICctaW1hZScsICc8aW5maWxlLm1hZT4nLCAnLW9tYWUnLCAnPG91dGZpbGUubWFlPic=

>  <r_lp_tautomer_probability>  (93) 
1

>  <r_epik_Ionization_Penalty>  (93) 
8.49977e-05

>  <r_epik_Ionization_Penalty_Charging>  (93) 
0

>  <r_epik_Ionization_Penalty_Neutral>  (93) 
8.49977e-05

>  <r_epik_State_Penalty>  (93) 
-0

>  <r_epik_Charging_Adjusted_Penalty>  (93) 
0

>  <i_epik_Tot_Q>  (93) 
0

>  <i_epik_Tot_abs_Q>  (93) 
0

>  <s_epik_Chemistry_Notes>  (93) 
This compound has an ester and may undergo hydrolysis at high or low pH.

>  <s_lp_Force_Field>  (93) 
OPLS3e

>  <r_lp_Energy>  (93) 
25.9988

>  <b_lp_Chiralities_Consistent>  (93) 
1

>  <s_lp_Variant>  (93) 
24:0-1

>  <s_i_glide_gridfile>  (93) 
pfpi4k_grid

>  <i_i_glide_lignum>  (93) 
10

>  <i_i_glide_rotatable_bonds>  (93) 
5

>  <r_i_docking_score>  (93) 
-4.05214

>  <r_i_glide_ligand_efficiency>  (93) 
-0.17618

>  <r_i_glide_ligand_efficiency_sa>  (93) 
-0.501033

>  <r_i_glide_ligand_efficiency_ln>  (93) 
-0.979845

>  <r_i_glide_gscore>  (93) 
-4.05214

>  <r_i_glide_lipo>  (93) 
-0.179382

>  <r_i_glide_hbond>  (93) 
-0.187676

>  <r_i_glide_metal>  (93) 
-0

>  <r_i_glide_rewards>  (93) 
-1.19496

>  <r_i_glide_evdw>  (93) 
-32.4886

>  <r_i_glide_ecoul>  (93) 
-8.33326

>  <r_i_glide_erotb>  (93) 
0.657392

>  <r_i_glide_esite>  (93) 
-0.273102

>  <r_i_glide_emodel>  (93) 
-47.6184

>  <r_i_glide_energy>  (93) 
-40.8219

>  <r_i_glide_einternal>  (93) 
6.80233

>  <r_i_glide_intrahb_reward>  (93) 
-0

>  <i_i_glide_confnum>  (93) 
4

>  <i_i_glide_posenum>  (93) 
5

>  <r_i_glide_eff_state_penalty>  (93) 
0

>  <ligand_id>  (93) 
24

>  <original_smiles>  (93) 
COC(=O)C1N2C(=O)C(NC(=O)c3ccncc3)C2CS1(=O)=O

>  <smiles>  (93) 
[H]c1nc([H])c([H])c(C(=O)N([H])C2([H])C(=O)N3C2([H])C([H])([H])S(=O)(=O)C3([H])C(=O)OC([H])([H])[H])c1[H]

$$$$
24:0:1
     RDKit          3D

 36 38  0  0  1  0  0  0  0  0999 V2000
   -2.7191    2.9577    7.9692 C   0  0  0  0  0  0  0  0  0  0  0  0
   -2.4450    2.9931    6.5789 O   0  0  0  0  0  0  0  0  0  0  0  0
   -1.7630    1.9920    5.9972 C   0  0  0  0  0  0  0  0  0  0  0  0
   -1.5197    0.9085    6.5371 O   0  0  0  0  0  0  0  0  0  0  0  0
   -1.3812    2.3141    4.5362 C   0  0  2  0  0  0  0  0  0  0  0  0
   -0.2548    1.5753    3.9783 N   0  0  0  0  0  0  0  0  0  0  0  0
    0.4492    0.4060    4.1425 C   0  0  0  0  0  0  0  0  0  0  0  0
    0.1996   -0.6126    4.7494 O   0  0  0  0  0  0  0  0  0  0  0  0
    1.6470    0.9880    3.3625 C   0  0  1  0  0  0  0  0  0  0  0  0
    2.0415    0.2050    2.1817 N   0  0  0  0  0  0  0  0  0  0  0  0
    2.6964   -0.9649    2.2626 C   0  0  0  0  0  0  0  0  0  0  0  0
    2.8435   -1.5911    3.3112 O   0  0  0  0  0  0  0  0  0  0  0  0
    3.2813   -1.4910    0.9861 C   0  0  0  0  0  0  0  0  0  0  0  0
    3.1423   -2.8501    0.6358 C   0  0  0  0  0  0  0  0  0  0  0  0
    3.7195   -3.2961   -0.5674 C   0  0  0  0  0  0  0  0  0  0  0  0
    4.4242   -2.4957   -1.3952 N   0  0  0  0  0  0  0  0  0  0  0  0
    4.5732   -1.2029   -1.0418 C   0  0  0  0  0  0  0  0  0  0  0  0
    4.0397   -0.6557    0.1385 C   0  0  0  0  0  0  0  0  0  0  0  0
    0.7086    2.1690    3.0490 C   0  0  2  0  0  0  0  0  0  0  0  0
    0.8760    3.5769    3.6325 C   0  0  0  0  0  0  0  0  0  0  0  0
   -0.7703    4.0488    4.3183 S   0  0  0  0  0  0  0  0  0  0  0  0
   -1.5982    4.6921    3.2828 O   0  0  0  0  0  0  0  0  0  0  0  0
   -0.5496    4.7308    5.6001 O   0  0  0  0  0  0  0  0  0  0  0  0
   -3.1990    3.8874    8.2690 H   0  0  0  0  0  0  0  0  0  0  0  0
   -1.8054    2.8478    8.5551 H   0  0  0  0  0  0  0  0  0  0  0  0
   -3.3916    2.1439    8.2211 H   0  0  0  0  0  0  0  0  0  0  0  0
   -2.2501    2.1651    3.8988 H   0  0  0  0  0  0  0  0  0  0  0  0
    2.4882    1.3075    3.9796 H   0  0  0  0  0  0  0  0  0  0  0  0
    1.8645    0.5841    1.2597 H   0  0  0  0  0  0  0  0  0  0  0  0
    2.5989   -3.5302    1.2713 H   0  0  0  0  0  0  0  0  0  0  0  0
    3.6163   -4.3255   -0.8754 H   0  0  0  0  0  0  0  0  0  0  0  0
    5.1424   -0.5857   -1.7237 H   0  0  0  0  0  0  0  0  0  0  0  0
    4.2125    0.3814    0.3784 H   0  0  0  0  0  0  0  0  0  0  0  0
    0.3299    2.1600    2.0221 H   0  0  0  0  0  0  0  0  0  0  0  0
    1.5861    3.5867    4.4644 H   0  0  0  0  0  0  0  0  0  0  0  0
    1.1846    4.3077    2.8865 H   0  0  0  0  0  0  0  0  0  0  0  0
  1  2  1  0
  1 24  1  0
  1 25  1  0
  1 26  1  0
  2  3  1  0
  3  4  2  0
  3  5  1  0
  5 21  1  0
  5  6  1  0
  5 27  1  6
  6 19  1  0
  6  7  1  0
  7  8  2  0
  7  9  1  0
  9 10  1  0
  9 19  1  0
  9 28  1  1
 10 11  1  0
 10 29  1  0
 11 12  2  0
 11 13  1  0
 13 18  1  0
 13 14  2  0
 14 15  1  0
 14 30  1  0
 15 16  2  0
 15 31  1  0
 16 17  1  0
 17 18  2  0
 17 32  1  0
 18 33  1  0
 19 20  1  0
 19 34  1  6
 20 21  1  0
 20 35  1  0
 20 36  1  0
 21 22  2  0
 21 23  2  0
M  END
>  <i_m_ct_stereo_status>  (94) 
1

>  <s_m_source_file>  (94) 
/var/tmp/pbs.5102264.sched01/tmpeif0x8wq/23vm_sbjim.sdf

>  <i_m_source_file_index>  (94) 
10

>  <i_lp_mmshare_version>  (94) 
48012

>  <i_f3d_flags>  (94) 
0

>  <s_epik_input>  (94) 
W0NIM11PQyg9TylbQ0BIXTFTKD1PKSg9TylbQ0gyXVtDQEhdKE4xMilbQ0BASF0oQzI9TylbTkhdQyg9TyljM1tjSF1bY0hdbltjSF1bY0hdMw==

>  <s_epik_cmdline>  (94) 
J2VwaWtfcHl0aG9uJywgJy1waHQnLCAnMi4wJywgJy1waCcsICc3LjAnLCAnLXRuJywgJzgnLCAnLW1hJywgJzIwMCcsICctaW1hZScsICc8aW5maWxlLm1hZT4nLCAnLW9tYWUnLCAnPG91dGZpbGUubWFlPic=

>  <r_lp_tautomer_probability>  (94) 
1

>  <r_epik_Ionization_Penalty>  (94) 
8.49977e-05

>  <r_epik_Ionization_Penalty_Charging>  (94) 
0

>  <r_epik_Ionization_Penalty_Neutral>  (94) 
8.49977e-05

>  <r_epik_State_Penalty>  (94) 
-0

>  <r_epik_Charging_Adjusted_Penalty>  (94) 
0

>  <i_epik_Tot_Q>  (94) 
0

>  <i_epik_Tot_abs_Q>  (94) 
0

>  <s_epik_Chemistry_Notes>  (94) 
This compound has an ester and may undergo hydrolysis at high or low pH.

>  <s_lp_Force_Field>  (94) 
OPLS3e

>  <r_lp_Energy>  (94) 
25.9988

>  <b_lp_Chiralities_Consistent>  (94) 
1

>  <s_lp_Variant>  (94) 
24:0-1

>  <s_i_glide_gridfile>  (94) 
pfpi4k_grid

>  <i_i_glide_lignum>  (94) 
10

>  <i_i_glide_rotatable_bonds>  (94) 
5

>  <r_i_docking_score>  (94) 
-3.45855

>  <r_i_glide_ligand_efficiency>  (94) 
-0.150372

>  <r_i_glide_ligand_efficiency_sa>  (94) 
-0.427637

>  <r_i_glide_ligand_efficiency_ln>  (94) 
-0.836309

>  <r_i_glide_gscore>  (94) 
-3.45855

>  <r_i_glide_lipo>  (94) 
-0.173377

>  <r_i_glide_hbond>  (94) 
-0.0684099

>  <r_i_glide_metal>  (94) 
-0

>  <r_i_glide_rewards>  (94) 
-1.09551

>  <r_i_glide_evdw>  (94) 
-28.0007

>  <r_i_glide_ecoul>  (94) 
-7.32

>  <r_i_glide_erotb>  (94) 
0.657392

>  <r_i_glide_esite>  (94) 
-0.280612

>  <r_i_glide_emodel>  (94) 
-43.0834

>  <r_i_glide_energy>  (94) 
-35.3207

>  <r_i_glide_einternal>  (94) 
3.9837

>  <r_i_glide_intrahb_reward>  (94) 
-0

>  <i_i_glide_confnum>  (94) 
4

>  <i_i_glide_posenum>  (94) 
23

>  <r_i_glide_eff_state_penalty>  (94) 
0

>  <ligand_id>  (94) 
24

>  <original_smiles>  (94) 
COC(=O)C1N2C(=O)C(NC(=O)c3ccncc3)C2CS1(=O)=O

>  <smiles>  (94) 
[H]c1nc([H])c([H])c(C(=O)N([H])C2([H])C(=O)N3C2([H])C([H])([H])S(=O)(=O)C3([H])C(=O)OC([H])([H])[H])c1[H]

$$$$
24:0:2
     RDKit          3D

 36 38  0  0  1  0  0  0  0  0999 V2000
   -3.3371    3.2440    2.8722 C   0  0  0  0  0  0  0  0  0  0  0  0
   -1.9202    3.1895    2.8748 O   0  0  0  0  0  0  0  0  0  0  0  0
   -1.2360    3.6720    3.9146 C   0  0  0  0  0  0  0  0  0  0  0  0
   -1.7709    4.1384    4.9208 O   0  0  0  0  0  0  0  0  0  0  0  0
    0.2897    3.7128    3.6769 C   0  0  2  0  0  0  0  0  0  0  0  0
    0.9072    2.4571    3.2711 N   0  0  0  0  0  0  0  0  0  0  0  0
    0.5972    1.2392    2.7072 C   0  0  0  0  0  0  0  0  0  0  0  0
   -0.3708    0.8328    2.1131 O   0  0  0  0  0  0  0  0  0  0  0  0
    1.8990    0.6330    3.2570 C   0  0  1  0  0  0  0  0  0  0  0  0
    2.7439    0.0606    2.2112 N   0  0  0  0  0  0  0  0  0  0  0  0
    4.0121   -0.3383    2.3803 C   0  0  0  0  0  0  0  0  0  0  0  0
    4.5988   -0.2445    3.4592 O   0  0  0  0  0  0  0  0  0  0  0  0
    4.7002   -0.9226    1.1707 C   0  0  0  0  0  0  0  0  0  0  0  0
    6.0450   -1.3459    1.2428 C   0  0  0  0  0  0  0  0  0  0  0  0
    6.6612   -1.8602    0.0870 C   0  0  0  0  0  0  0  0  0  0  0  0
    6.0397   -1.9575   -1.1051 N   0  0  0  0  0  0  0  0  0  0  0  0
    4.7459   -1.5806   -1.1688 C   0  0  0  0  0  0  0  0  0  0  0  0
    4.0372   -1.0576   -0.0719 C   0  0  0  0  0  0  0  0  0  0  0  0
    2.2667    2.0773    3.6547 C   0  0  2  0  0  0  0  0  0  0  0  0
    2.3243    2.5595    5.1027 C   0  0  0  0  0  0  0  0  0  0  0  0
    1.3178    4.1079    5.1651 S   0  0  0  0  0  0  0  0  0  0  0  0
    2.1933    5.2430    4.8347 O   0  0  0  0  0  0  0  0  0  0  0  0
    0.5461    4.1025    6.4182 O   0  0  0  0  0  0  0  0  0  0  0  0
   -3.7172    2.7659    1.9732 H   0  0  0  0  0  0  0  0  0  0  0  0
   -3.6872    4.2749    2.8732 H   0  0  0  0  0  0  0  0  0  0  0  0
   -3.7606    2.7253    3.7321 H   0  0  0  0  0  0  0  0  0  0  0  0
    0.4938    4.4570    2.9066 H   0  0  0  0  0  0  0  0  0  0  0  0
    1.7583   -0.0151    4.1228 H   0  0  0  0  0  0  0  0  0  0  0  0
    2.3069   -0.1227    1.3186 H   0  0  0  0  0  0  0  0  0  0  0  0
    6.6106   -1.2612    2.1575 H   0  0  0  0  0  0  0  0  0  0  0  0
    7.6927   -2.1827    0.1108 H   0  0  0  0  0  0  0  0  0  0  0  0
    4.2563   -1.6927   -2.1262 H   0  0  0  0  0  0  0  0  0  0  0  0
    3.0107   -0.7684   -0.2159 H   0  0  0  0  0  0  0  0  0  0  0  0
    3.0124    2.5389    2.9994 H   0  0  0  0  0  0  0  0  0  0  0  0
    1.8391    1.8469    5.7762 H   0  0  0  0  0  0  0  0  0  0  0  0
    3.3364    2.7536    5.4537 H   0  0  0  0  0  0  0  0  0  0  0  0
  1  2  1  0
  1 24  1  0
  1 25  1  0
  1 26  1  0
  2  3  1  0
  3  4  2  0
  3  5  1  0
  5 21  1  0
  5  6  1  0
  5 27  1  6
  6 19  1  0
  6  7  1  0
  7  8  2  0
  7  9  1  0
  9 10  1  0
  9 19  1  0
  9 28  1  1
 10 11  1  0
 10 29  1  0
 11 12  2  0
 11 13  1  0
 13 18  1  0
 13 14  2  0
 14 15  1  0
 14 30  1  0
 15 16  2  0
 15 31  1  0
 16 17  1  0
 17 18  2  0
 17 32  1  0
 18 33  1  0
 19 20  1  0
 19 34  1  6
 20 21  1  0
 20 35  1  0
 20 36  1  0
 21 22  2  0
 21 23  2  0
M  END
>  <i_m_ct_stereo_status>  (95) 
1

>  <s_m_source_file>  (95) 
/var/tmp/pbs.5102264.sched01/tmpeif0x8wq/23vm_sbjim.sdf

>  <i_m_source_file_index>  (95) 
10

>  <i_lp_mmshare_version>  (95) 
48012

>  <i_f3d_flags>  (95) 
0

>  <s_epik_input>  (95) 
W0NIM11PQyg9TylbQ0BIXTFTKD1PKSg9TylbQ0gyXVtDQEhdKE4xMilbQ0BASF0oQzI9TylbTkhdQyg9TyljM1tjSF1bY0hdbltjSF1bY0hdMw==

>  <s_epik_cmdline>  (95) 
J2VwaWtfcHl0aG9uJywgJy1waHQnLCAnMi4wJywgJy1waCcsICc3LjAnLCAnLXRuJywgJzgnLCAnLW1hJywgJzIwMCcsICctaW1hZScsICc8aW5maWxlLm1hZT4nLCAnLW9tYWUnLCAnPG91dGZpbGUubWFlPic=

>  <r_lp_tautomer_probability>  (95) 
1

>  <r_epik_Ionization_Penalty>  (95) 
8.49977e-05

>  <r_epik_Ionization_Penalty_Charging>  (95) 
0

>  <r_epik_Ionization_Penalty_Neutral>  (95) 
8.49977e-05

>  <r_epik_State_Penalty>  (95) 
-0

>  <r_epik_Charging_Adjusted_Penalty>  (95) 
0

>  <i_epik_Tot_Q>  (95) 
0

>  <i_epik_Tot_abs_Q>  (95) 
0

>  <s_epik_Chemistry_Notes>  (95) 
This compound has an ester and may undergo hydrolysis at high or low pH.

>  <s_lp_Force_Field>  (95) 
OPLS3e

>  <r_lp_Energy>  (95) 
25.9988

>  <b_lp_Chiralities_Consistent>  (95) 
1

>  <s_lp_Variant>  (95) 
24:0-1

>  <s_i_glide_gridfile>  (95) 
pfpi4k_grid

>  <i_i_glide_lignum>  (95) 
10

>  <i_i_glide_rotatable_bonds>  (95) 
5

>  <r_i_docking_score>  (95) 
-3.20425

>  <r_i_glide_ligand_efficiency>  (95) 
-0.139315

>  <r_i_glide_ligand_efficiency_sa>  (95) 
-0.396194

>  <r_i_glide_ligand_efficiency_ln>  (95) 
-0.774816

>  <r_i_glide_gscore>  (95) 
-3.20425

>  <r_i_glide_lipo>  (95) 
-0.283131

>  <r_i_glide_hbond>  (95) 
-0.0635893

>  <r_i_glide_metal>  (95) 
-0

>  <r_i_glide_rewards>  (95) 
-1.1631

>  <r_i_glide_evdw>  (95) 
-29.5464

>  <r_i_glide_ecoul>  (95) 
-4.58455

>  <r_i_glide_erotb>  (95) 
0.657392

>  <r_i_glide_esite>  (95) 
-0.186814

>  <r_i_glide_emodel>  (95) 
-42.599

>  <r_i_glide_energy>  (95) 
-34.1309

>  <r_i_glide_einternal>  (95) 
1.64099

>  <r_i_glide_intrahb_reward>  (95) 
-0

>  <i_i_glide_confnum>  (95) 
2

>  <i_i_glide_posenum>  (95) 
2

>  <r_i_glide_eff_state_penalty>  (95) 
0

>  <ligand_id>  (95) 
24

>  <original_smiles>  (95) 
COC(=O)C1N2C(=O)C(NC(=O)c3ccncc3)C2CS1(=O)=O

>  <smiles>  (95) 
[H]c1nc([H])c([H])c(C(=O)N([H])C2([H])C(=O)N3C2([H])C([H])([H])S(=O)(=O)C3([H])C(=O)OC([H])([H])[H])c1[H]

$$$$
25:1:0
     RDKit          3D

 44 47  0  0  1  0  0  0  0  0999 V2000
   -1.5958    1.5923    6.7178 C   0  0  0  0  0  0  0  0  0  0  0  0
   -0.4745    1.5703    5.8534 O   0  0  0  0  0  0  0  0  0  0  0  0
   -0.1086    0.4499    5.1982 C   0  0  0  0  0  0  0  0  0  0  0  0
   -0.6133   -0.6599    5.4041 O   0  0  0  0  0  0  0  0  0  0  0  0
    0.9695    0.6902    4.1954 C   0  0  0  0  0  0  0  0  0  0  0  0
    1.1563    1.8697    3.5261 C   0  0  0  0  0  0  0  0  0  0  0  0
    0.3183    3.0556    3.6212 C   0  0  0  0  0  0  0  0  0  0  0  0
    0.9755    4.6097    3.9949 S   0  0  0  0  0  0  0  0  0  0  0  0
   -0.5335    5.3311    3.9479 N   0  0  0  0  0  0  0  0  0  0  0  0
   -1.4774    4.4627    3.6587 N   0  0  0  0  0  0  0  0  0  0  0  0
   -1.0249    3.1626    3.4390 C   0  0  0  0  0  0  0  0  0  0  0  0
   -2.0621    2.1226    3.1090 C   0  0  0  0  0  0  0  0  0  0  0  0
    2.3450    2.0237    2.5642 C   0  0  0  0  0  0  0  0  0  0  0  0
    3.1732    0.7445    2.4217 C   0  0  1  0  0  0  0  0  0  0  0  0
    3.3928    0.1528    3.8025 C   0  0  0  0  0  0  0  0  0  0  0  0
    1.9922   -0.4563    4.0094 C   0  0  2  0  0  0  0  0  0  0  0  0
    1.6921   -1.1362    2.7150 N   0  0  2  0  0  0  0  0  0  0  0  0
    1.8687   -2.6262    2.7315 C   0  0  0  0  0  0  0  0  0  0  0  0
    3.1913   -3.2001    3.3026 C   0  0  0  0  0  0  0  0  0  0  0  0
    3.7329   -3.3081    1.8754 C   0  0  0  0  0  0  0  0  0  0  0  0
    2.2665   -3.2674    1.3897 C   0  0  0  0  0  0  0  0  0  0  0  0
    2.4155   -0.3450    1.6563 C   0  0  0  0  0  0  0  0  0  0  0  0
   -1.7859    2.6160    7.0351 H   0  0  0  0  0  0  0  0  0  0  0  0
   -1.3838    0.9935    7.5986 H   0  0  0  0  0  0  0  0  0  0  0  0
   -2.5080    1.2266    6.2429 H   0  0  0  0  0  0  0  0  0  0  0  0
   -1.6636    1.1045    3.0672 H   0  0  0  0  0  0  0  0  0  0  0  0
   -2.5405    2.3097    2.1489 H   0  0  0  0  0  0  0  0  0  0  0  0
   -2.8421    2.1308    3.8676 H   0  0  0  0  0  0  0  0  0  0  0  0
    1.9695    2.3142    1.5843 H   0  0  0  0  0  0  0  0  0  0  0  0
    3.0061    2.8230    2.9140 H   0  0  0  0  0  0  0  0  0  0  0  0
    4.1141    0.9455    1.9189 H   0  0  0  0  0  0  0  0  0  0  0  0
    4.2077   -0.5718    3.7306 H   0  0  0  0  0  0  0  0  0  0  0  0
    3.6836    0.8763    4.5716 H   0  0  0  0  0  0  0  0  0  0  0  0
    1.9497   -1.1300    4.8680 H   0  0  0  0  0  0  0  0  0  0  0  0
    0.9996   -3.1010    3.1980 H   0  0  0  0  0  0  0  0  0  0  0  0
    3.7455   -2.5684    3.9920 H   0  0  0  0  0  0  0  0  0  0  0  0
    3.0582   -4.1864    3.7519 H   0  0  0  0  0  0  0  0  0  0  0  0
    4.3582   -2.4702    1.6054 H   0  0  0  0  0  0  0  0  0  0  0  0
    4.2542   -4.2434    1.6577 H   0  0  0  0  0  0  0  0  0  0  0  0
    1.8675   -4.2780    1.2805 H   0  0  0  0  0  0  0  0  0  0  0  0
    2.0265   -2.6883    0.4912 H   0  0  0  0  0  0  0  0  0  0  0  0
    1.7132    0.0625    0.9250 H   0  0  0  0  0  0  0  0  0  0  0  0
    3.1554   -0.8748    1.0986 H   0  0  0  0  0  0  0  0  0  0  0  0
    0.7057   -0.9731    2.5523 H   0  0  0  0  0  0  0  0  0  0  0  0
  1  2  1  0
  1 23  1  0
  1 24  1  0
  1 25  1  0
  2  3  1  0
  3  4  2  0
  3  5  1  0
  5 16  1  0
  5  6  2  0
  6  7  1  0
  6 13  1  0
  7 11  2  0
  7  8  1  0
  8  9  1  0
  9 10  2  0
 10 11  1  0
 11 12  1  0
 12 26  1  0
 12 27  1  0
 12 28  1  0
 13 14  1  0
 13 29  1  0
 13 30  1  0
 14 22  1  0
 14 15  1  0
 14 31  1  6
 15 16  1  0
 15 32  1  0
 15 33  1  0
 16 17  1  0
 16 34  1  1
 17 18  1  0
 17 22  1  0
 17 44  1  6
 18 21  1  0
 18 19  1  0
 18 35  1  0
 19 20  1  0
 19 36  1  0
 19 37  1  0
 20 21  1  0
 20 38  1  0
 20 39  1  0
 21 40  1  0
 21 41  1  0
 22 42  1  0
 22 43  1  0
M  CHG  1  17   1
M  END
>  <i_m_ct_stereo_status>  (96) 
1

>  <s_m_source_file>  (96) 
/var/tmp/pbs.5102264.sched01/tmpeif0x8wq/23vm_sbjim.sdf

>  <i_m_source_file_index>  (96) 
12

>  <i_lp_mmshare_version>  (96) 
48012

>  <i_f3d_flags>  (96) 
0

>  <s_epik_input>  (96) 
W0NIMl0xW0NIMl1bQ0gyXVtDSF0xTihbQ0gyXTIpW0NAQEhdKFtDSDJdMylDKEMoPU8pT1tDSDNdKT1DKFtDSDJdW0NASF0yMyljNHNubmM0W0NIM10=

>  <s_epik_cmdline>  (96) 
J2VwaWtfcHl0aG9uJywgJy1waHQnLCAnMi4wJywgJy1waCcsICc3LjAnLCAnLXRuJywgJzgnLCAnLW1hJywgJzIwMCcsICctaW1hZScsICc8aW5maWxlLm1hZT4nLCAnLW9tYWUnLCAnPG91dGZpbGUubWFlPic=

>  <r_epik_Ionization_Penalty>  (96) 
1.26412

>  <r_epik_Ionization_Penalty_Charging>  (96) 
1.26412

>  <r_epik_Ionization_Penalty_Neutral>  (96) 
3.51149e-11

>  <r_epik_State_Penalty>  (96) 
1.33501

>  <r_epik_Charging_Adjusted_Penalty>  (96) 
2.59913

>  <i_epik_Tot_Q>  (96) 
1

>  <i_epik_Tot_abs_Q>  (96) 
1

>  <s_epik_Chemistry_Notes>  (96) 
This compound has an ester and may undergo hydrolysis at high or low pH.

>  <s_lp_Force_Field>  (96) 
OPLS3e

>  <r_lp_Energy>  (96) 
49.6058

>  <b_lp_Chiralities_Consistent>  (96) 
1

>  <s_lp_Variant>  (96) 
25:0-2

>  <s_i_glide_gridfile>  (96) 
pfpi4k_grid

>  <i_i_glide_lignum>  (96) 
12

>  <i_i_glide_rotatable_bonds>  (96) 
4

>  <r_i_docking_score>  (96) 
-2.83945

>  <r_i_glide_ligand_efficiency>  (96) 
-0.129066

>  <r_i_glide_ligand_efficiency_sa>  (96) 
-0.361648

>  <r_i_glide_ligand_efficiency_ln>  (96) 
-0.694065

>  <r_i_glide_gscore>  (96) 
-2.83945

>  <r_i_glide_lipo>  (96) 
-0.0733412

>  <r_i_glide_hbond>  (96) 
0

>  <r_i_glide_metal>  (96) 
-0

>  <r_i_glide_rewards>  (96) 
-1.22434

>  <r_i_glide_evdw>  (96) 
-18.479

>  <r_i_glide_ecoul>  (96) 
-6.19166

>  <r_i_glide_erotb>  (96) 
0.54558

>  <r_i_glide_esite>  (96) 
-0.234654

>  <r_i_glide_emodel>  (96) 
-22.1573

>  <r_i_glide_energy>  (96) 
-24.6706

>  <r_i_glide_einternal>  (96) 
12.4802

>  <r_i_glide_intrahb_reward>  (96) 
-0

>  <i_i_glide_confnum>  (96) 
2

>  <i_i_glide_posenum>  (96) 
24

>  <r_i_glide_eff_state_penalty>  (96) 
0

>  <ligand_id>  (96) 
25

>  <original_smiles>  (96) 
COC(=O)C1=C(c2snnc2C)CC2CC1N(C1CCC1)C2

>  <smiles>  (96) 
[H]C([H])([H])OC(=O)C1=C(c2snnc2C([H])([H])[H])C([H])([H])C2([H])C([H])([H])C1([H])[N+]([H])(C1([H])C([H])([H])C([H])([H])C1([H])[H])C2([H])[H]

$$$$
25:1:1
     RDKit          3D

 44 47  0  0  1  0  0  0  0  0999 V2000
    1.0423    2.2783    7.6177 C   0  0  0  0  0  0  0  0  0  0  0  0
    1.0880    1.7963    6.2885 O   0  0  0  0  0  0  0  0  0  0  0  0
    2.2537    1.4218    5.7174 C   0  0  0  0  0  0  0  0  0  0  0  0
    3.3246    1.3199    6.3014 O   0  0  0  0  0  0  0  0  0  0  0  0
    2.0874    1.1601    4.2515 C   0  0  0  0  0  0  0  0  0  0  0  0
    1.1899    1.8143    3.4493 C   0  0  0  0  0  0  0  0  0  0  0  0
    0.3831    2.9506    3.8372 C   0  0  0  0  0  0  0  0  0  0  0  0
    0.9898    4.3896    4.5636 S   0  0  0  0  0  0  0  0  0  0  0  0
   -0.5553    5.0153    4.7625 N   0  0  0  0  0  0  0  0  0  0  0  0
   -1.4607    4.2751    4.2254 N   0  0  0  0  0  0  0  0  0  0  0  0
   -0.9744    3.0611    3.6537 C   0  0  0  0  0  0  0  0  0  0  0  0
   -1.9822    2.1572    3.0323 C   0  0  0  0  0  0  0  0  0  0  0  0
    1.1255    1.4468    1.9529 C   0  0  0  0  0  0  0  0  0  0  0  0
    2.0172    0.2635    1.5892 C   0  0  1  0  0  0  0  0  0  0  0  0
    3.3799    0.4007    2.2390 C   0  0  0  0  0  0  0  0  0  0  0  0
    2.9912    0.0426    3.6850 C   0  0  2  0  0  0  0  0  0  0  0  0
    2.1525   -1.1658    3.5187 N   0  0  2  0  0  0  0  0  0  0  0  0
    2.8543   -2.4729    3.8289 C   0  0  0  0  0  0  0  0  0  0  0  0
    3.6870   -3.0868    2.6795 C   0  0  0  0  0  0  0  0  0  0  0  0
    2.5209   -4.0469    2.3566 C   0  0  0  0  0  0  0  0  0  0  0  0
    1.9596   -3.7289    3.7538 C   0  0  0  0  0  0  0  0  0  0  0  0
    1.5166   -1.0591    2.1776 C   0  0  0  0  0  0  0  0  0  0  0  0
    0.0323    2.6386    7.8163 H   0  0  0  0  0  0  0  0  0  0  0  0
    1.7223    3.1156    7.7927 H   0  0  0  0  0  0  0  0  0  0  0  0
    1.2624    1.4723    8.3162 H   0  0  0  0  0  0  0  0  0  0  0  0
   -1.6103    1.1603    2.7722 H   0  0  0  0  0  0  0  0  0  0  0  0
   -2.3946    2.6111    2.1286 H   0  0  0  0  0  0  0  0  0  0  0  0
   -2.8161    1.9918    3.7120 H   0  0  0  0  0  0  0  0  0  0  0  0
    0.1179    1.1875    1.6233 H   0  0  0  0  0  0  0  0  0  0  0  0
    1.4307    2.3206    1.3687 H   0  0  0  0  0  0  0  0  0  0  0  0
    2.0930    0.1557    0.5098 H   0  0  0  0  0  0  0  0  0  0  0  0
    4.0947   -0.2971    1.8059 H   0  0  0  0  0  0  0  0  0  0  0  0
    3.8027    1.3906    2.1152 H   0  0  0  0  0  0  0  0  0  0  0  0
    3.8825   -0.1234    4.2919 H   0  0  0  0  0  0  0  0  0  0  0  0
    3.3939   -2.4164    4.7762 H   0  0  0  0  0  0  0  0  0  0  0  0
    3.9831   -2.4178    1.8794 H   0  0  0  0  0  0  0  0  0  0  0  0
    4.5637   -3.6195    3.0590 H   0  0  0  0  0  0  0  0  0  0  0  0
    1.8562   -3.6878    1.5726 H   0  0  0  0  0  0  0  0  0  0  0  0
    2.8442   -5.0791    2.1802 H   0  0  0  0  0  0  0  0  0  0  0  0
    2.2715   -4.5010    4.4627 H   0  0  0  0  0  0  0  0  0  0  0  0
    0.8862   -3.5487    3.8233 H   0  0  0  0  0  0  0  0  0  0  0  0
    0.4265   -1.1442    2.2428 H   0  0  0  0  0  0  0  0  0  0  0  0
    1.8599   -1.7682    1.4378 H   0  0  0  0  0  0  0  0  0  0  0  0
    1.4316   -1.0799    4.2344 H   0  0  0  0  0  0  0  0  0  0  0  0
  1  2  1  0
  1 23  1  0
  1 24  1  0
  1 25  1  0
  2  3  1  0
  3  4  2  0
  3  5  1  0
  5 16  1  0
  5  6  2  0
  6  7  1  0
  6 13  1  0
  7 11  2  0
  7  8  1  0
  8  9  1  0
  9 10  2  0
 10 11  1  0
 11 12  1  0
 12 26  1  0
 12 27  1  0
 12 28  1  0
 13 14  1  0
 13 29  1  0
 13 30  1  0
 14 22  1  0
 14 15  1  0
 14 31  1  6
 15 16  1  0
 15 32  1  0
 15 33  1  0
 16 17  1  0
 16 34  1  1
 17 18  1  0
 17 22  1  0
 17 44  1  1
 18 21  1  0
 18 19  1  0
 18 35  1  0
 19 20  1  0
 19 36  1  0
 19 37  1  0
 20 21  1  0
 20 38  1  0
 20 39  1  0
 21 40  1  0
 21 41  1  0
 22 42  1  0
 22 43  1  0
M  CHG  1  17   1
M  END
>  <i_m_ct_stereo_status>  (97) 
1

>  <s_m_source_file>  (97) 
/var/tmp/pbs.5102264.sched01/tmpeif0x8wq/23vm_sbjim.sdf

>  <i_m_source_file_index>  (97) 
12

>  <i_lp_mmshare_version>  (97) 
48012

>  <i_f3d_flags>  (97) 
0

>  <s_epik_input>  (97) 
W0NIMl0xW0NIMl1bQ0gyXVtDSF0xTihbQ0gyXTIpW0NAQEhdKFtDSDJdMylDKEMoPU8pT1tDSDNdKT1DKFtDSDJdW0NASF0yMyljNHNubmM0W0NIM10=

>  <s_epik_cmdline>  (97) 
J2VwaWtfcHl0aG9uJywgJy1waHQnLCAnMi4wJywgJy1waCcsICc3LjAnLCAnLXRuJywgJzgnLCAnLW1hJywgJzIwMCcsICctaW1hZScsICc8aW5maWxlLm1hZT4nLCAnLW9tYWUnLCAnPG91dGZpbGUubWFlPic=

>  <r_epik_Ionization_Penalty>  (97) 
1.26412

>  <r_epik_Ionization_Penalty_Charging>  (97) 
1.26412

>  <r_epik_Ionization_Penalty_Neutral>  (97) 
3.51149e-11

>  <r_epik_State_Penalty>  (97) 
1.33501

>  <r_epik_Charging_Adjusted_Penalty>  (97) 
2.59913

>  <i_epik_Tot_Q>  (97) 
1

>  <i_epik_Tot_abs_Q>  (97) 
1

>  <s_epik_Chemistry_Notes>  (97) 
This compound has an ester and may undergo hydrolysis at high or low pH.

>  <s_lp_Force_Field>  (97) 
OPLS3e

>  <r_lp_Energy>  (97) 
49.6058

>  <b_lp_Chiralities_Consistent>  (97) 
1

>  <s_lp_Variant>  (97) 
25:0-2

>  <s_i_glide_gridfile>  (97) 
pfpi4k_grid

>  <i_i_glide_lignum>  (97) 
12

>  <i_i_glide_rotatable_bonds>  (97) 
4

>  <r_i_docking_score>  (97) 
-2.62511

>  <r_i_glide_ligand_efficiency>  (97) 
-0.119323

>  <r_i_glide_ligand_efficiency_sa>  (97) 
-0.334348

>  <r_i_glide_ligand_efficiency_ln>  (97) 
-0.641672

>  <r_i_glide_gscore>  (97) 
-2.62511

>  <r_i_glide_lipo>  (97) 
-0.0570468

>  <r_i_glide_hbond>  (97) 
0

>  <r_i_glide_metal>  (97) 
-0

>  <r_i_glide_rewards>  (97) 
-1.22434

>  <r_i_glide_evdw>  (97) 
-15.3855

>  <r_i_glide_ecoul>  (97) 
-6.45697

>  <r_i_glide_erotb>  (97) 
0.54558

>  <r_i_glide_esite>  (97) 
-0.151482

>  <r_i_glide_emodel>  (97) 
-19.7831

>  <r_i_glide_energy>  (97) 
-21.8425

>  <r_i_glide_einternal>  (97) 
9.28264

>  <r_i_glide_intrahb_reward>  (97) 
-0

>  <i_i_glide_confnum>  (97) 
2

>  <i_i_glide_posenum>  (97) 
17

>  <r_i_glide_eff_state_penalty>  (97) 
0

>  <ligand_id>  (97) 
25

>  <original_smiles>  (97) 
COC(=O)C1=C(c2snnc2C)CC2CC1N(C1CCC1)C2

>  <smiles>  (97) 
[H]C([H])([H])OC(=O)C1=C(c2snnc2C([H])([H])[H])C([H])([H])C2([H])C([H])([H])C1([H])[N+]([H])(C1([H])C([H])([H])C([H])([H])C1([H])[H])C2([H])[H]

$$$$
25:1:2
     RDKit          3D

 44 47  0  0  1  0  0  0  0  0999 V2000
    4.5149   -0.2842   -1.8810 C   0  0  0  0  0  0  0  0  0  0  0  0
    3.8278   -0.9008   -0.7964 O   0  0  0  0  0  0  0  0  0  0  0  0
    3.9499   -0.5377    0.4855 C   0  0  0  0  0  0  0  0  0  0  0  0
    4.1530    0.6002    0.8220 O   0  0  0  0  0  0  0  0  0  0  0  0
    3.8470   -1.6653    1.4410 C   0  0  0  0  0  0  0  0  0  0  0  0
    4.0903   -2.9420    1.0977 C   0  0  0  0  0  0  0  0  0  0  0  0
    4.5463   -3.3882   -0.2316 C   0  0  0  0  0  0  0  0  0  0  0  0
    6.2028   -3.3878   -0.6809 S   0  0  0  0  0  0  0  0  0  0  0  0
    5.8201   -3.6983   -2.2955 N   0  0  0  0  0  0  0  0  0  0  0  0
    4.5373   -3.6688   -2.4911 N   0  0  0  0  0  0  0  0  0  0  0  0
    3.7702   -3.5451   -1.3126 C   0  0  0  0  0  0  0  0  0  0  0  0
    2.2820   -3.4321   -1.4329 C   0  0  0  0  0  0  0  0  0  0  0  0
    4.0606   -4.0145    2.1525 C   0  0  0  0  0  0  0  0  0  0  0  0
    3.6326   -3.4815    3.5394 C   0  0  1  0  0  0  0  0  0  0  0  0
    4.3470   -2.1749    3.8513 C   0  0  0  0  0  0  0  0  0  0  0  0
    3.5621   -1.2597    2.9045 C   0  0  2  0  0  0  0  0  0  0  0  0
    2.1439   -1.6081    3.1520 N   0  0  2  0  0  0  0  0  0  0  0  0
    1.4277   -0.7012    4.0939 C   0  0  0  0  0  0  0  0  0  0  0  0
   -0.0921   -0.9360    4.1130 C   0  0  0  0  0  0  0  0  0  0  0  0
   -0.2560    0.2042    3.1012 C   0  0  0  0  0  0  0  0  0  0  0  0
    1.1375    0.6850    3.4979 C   0  0  0  0  0  0  0  0  0  0  0  0
    2.1539   -3.0339    3.5744 C   0  0  0  0  0  0  0  0  0  0  0  0
    4.2575   -0.8728   -2.7634 H   0  0  0  0  0  0  0  0  0  0  0  0
    5.5870   -0.2725   -1.7243 H   0  0  0  0  0  0  0  0  0  0  0  0
    4.2085    0.7182   -2.1121 H   0  0  0  0  0  0  0  0  0  0  0  0
    1.8152   -3.0384   -0.5026 H   0  0  0  0  0  0  0  0  0  0  0  0
    1.7907   -4.3812   -1.6493 H   0  0  0  0  0  0  0  0  0  0  0  0
    2.0135   -2.7519   -2.2434 H   0  0  0  0  0  0  0  0  0  0  0  0
    3.3790   -4.7713    1.7821 H   0  0  0  0  0  0  0  0  0  0  0  0
    5.0771   -4.4029    2.2074 H   0  0  0  0  0  0  0  0  0  0  0  0
    3.8199   -4.2474    4.2894 H   0  0  0  0  0  0  0  0  0  0  0  0
    4.1901   -1.8939    4.8971 H   0  0  0  0  0  0  0  0  0  0  0  0
    5.4181   -2.1773    3.6491 H   0  0  0  0  0  0  0  0  0  0  0  0
    3.8042   -0.2261    3.1076 H   0  0  0  0  0  0  0  0  0  0  0  0
    1.8671   -0.6646    5.0998 H   0  0  0  0  0  0  0  0  0  0  0  0
   -0.4546   -1.9092    3.7727 H   0  0  0  0  0  0  0  0  0  0  0  0
   -0.5475   -0.6832    5.0771 H   0  0  0  0  0  0  0  0  0  0  0  0
   -0.2435   -0.1240    2.0722 H   0  0  0  0  0  0  0  0  0  0  0  0
   -1.0752    0.9019    3.2981 H   0  0  0  0  0  0  0  0  0  0  0  0
    1.0793    1.4518    4.2717 H   0  0  0  0  0  0  0  0  0  0  0  0
    1.7537    1.0269    2.6532 H   0  0  0  0  0  0  0  0  0  0  0  0
    1.5163   -3.6391    2.9434 H   0  0  0  0  0  0  0  0  0  0  0  0
    1.7894   -3.1179    4.5867 H   0  0  0  0  0  0  0  0  0  0  0  0
    1.6716   -1.5206    2.2629 H   0  0  0  0  0  0  0  0  0  0  0  0
  1  2  1  0
  1 23  1  0
  1 24  1  0
  1 25  1  0
  2  3  1  0
  3  4  2  0
  3  5  1  0
  5 16  1  0
  5  6  2  0
  6  7  1  0
  6 13  1  0
  7 11  2  0
  7  8  1  0
  8  9  1  0
  9 10  2  0
 10 11  1  0
 11 12  1  0
 12 26  1  0
 12 27  1  0
 12 28  1  0
 13 14  1  0
 13 29  1  0
 13 30  1  0
 14 22  1  0
 14 15  1  0
 14 31  1  1
 15 16  1  0
 15 32  1  0
 15 33  1  0
 16 17  1  0
 16 34  1  6
 17 18  1  0
 17 22  1  0
 17 44  1  6
 18 21  1  0
 18 19  1  0
 18 35  1  0
 19 20  1  0
 19 36  1  0
 19 37  1  0
 20 21  1  0
 20 38  1  0
 20 39  1  0
 21 40  1  0
 21 41  1  0
 22 42  1  0
 22 43  1  0
M  CHG  1  17   1
M  END
>  <i_m_ct_stereo_status>  (98) 
1

>  <s_m_source_file>  (98) 
/var/tmp/pbs.5102264.sched01/tmpeif0x8wq/23vm_sbjim.sdf

>  <i_m_source_file_index>  (98) 
12

>  <i_lp_mmshare_version>  (98) 
48012

>  <i_f3d_flags>  (98) 
0

>  <s_epik_input>  (98) 
W0NIMl0xW0NIMl1bQ0gyXVtDSF0xTihbQ0gyXTIpW0NAQEhdKFtDSDJdMylDKEMoPU8pT1tDSDNdKT1DKFtDSDJdW0NASF0yMyljNHNubmM0W0NIM10=

>  <s_epik_cmdline>  (98) 
J2VwaWtfcHl0aG9uJywgJy1waHQnLCAnMi4wJywgJy1waCcsICc3LjAnLCAnLXRuJywgJzgnLCAnLW1hJywgJzIwMCcsICctaW1hZScsICc8aW5maWxlLm1hZT4nLCAnLW9tYWUnLCAnPG91dGZpbGUubWFlPic=

>  <r_epik_Ionization_Penalty>  (98) 
1.26412

>  <r_epik_Ionization_Penalty_Charging>  (98) 
1.26412

>  <r_epik_Ionization_Penalty_Neutral>  (98) 
3.51149e-11

>  <r_epik_State_Penalty>  (98) 
1.33501

>  <r_epik_Charging_Adjusted_Penalty>  (98) 
2.59913

>  <i_epik_Tot_Q>  (98) 
1

>  <i_epik_Tot_abs_Q>  (98) 
1

>  <s_epik_Chemistry_Notes>  (98) 
This compound has an ester and may undergo hydrolysis at high or low pH.

>  <s_lp_Force_Field>  (98) 
OPLS3e

>  <r_lp_Energy>  (98) 
49.6058

>  <b_lp_Chiralities_Consistent>  (98) 
1

>  <s_lp_Variant>  (98) 
25:0-2

>  <s_i_glide_gridfile>  (98) 
pfpi4k_grid

>  <i_i_glide_lignum>  (98) 
12

>  <i_i_glide_rotatable_bonds>  (98) 
4

>  <r_i_docking_score>  (98) 
-2.08462

>  <r_i_glide_ligand_efficiency>  (98) 
-0.0947556

>  <r_i_glide_ligand_efficiency_sa>  (98) 
-0.265509

>  <r_i_glide_ligand_efficiency_ln>  (98) 
-0.509558

>  <r_i_glide_gscore>  (98) 
-2.08462

>  <r_i_glide_lipo>  (98) 
-0.242937

>  <r_i_glide_hbond>  (98) 
-0.00135815

>  <r_i_glide_metal>  (98) 
-0

>  <r_i_glide_rewards>  (98) 
-1.27693

>  <r_i_glide_evdw>  (98) 
-12.0825

>  <r_i_glide_ecoul>  (98) 
-3.23113

>  <r_i_glide_erotb>  (98) 
0.54558

>  <r_i_glide_esite>  (98) 
-0.0201872

>  <r_i_glide_emodel>  (98) 
-14.2229

>  <r_i_glide_energy>  (98) 
-15.3136

>  <r_i_glide_einternal>  (98) 
5.05967

>  <r_i_glide_intrahb_reward>  (98) 
-0

>  <i_i_glide_confnum>  (98) 
5

>  <i_i_glide_posenum>  (98) 
37

>  <r_i_glide_eff_state_penalty>  (98) 
0

>  <ligand_id>  (98) 
25

>  <original_smiles>  (98) 
COC(=O)C1=C(c2snnc2C)CC2CC1N(C1CCC1)C2

>  <smiles>  (98) 
[H]C([H])([H])OC(=O)C1=C(c2snnc2C([H])([H])[H])C([H])([H])C2([H])C([H])([H])C1([H])[N+]([H])(C1([H])C([H])([H])C([H])([H])C1([H])[H])C2([H])[H]

$$$$
26:0:0
     RDKit          3D

 42 46  0  0  1  0  0  0  0  0999 V2000
    3.5322   -4.2330    7.0814 C   0  0  0  0  0  0  0  0  0  0  0  0
    2.7533   -3.0967    6.3933 C   0  0  2  0  0  0  0  0  0  0  0  0
    1.3200   -2.9766    6.9561 C   0  0  0  0  0  0  0  0  0  0  0  0
    0.6905   -1.7693    6.5221 O   0  0  0  0  0  0  0  0  0  0  0  0
   -0.0742   -1.8656    5.3596 C   0  0  1  0  0  0  0  0  0  0  0  0
   -1.4416   -1.8397    5.6655 O   0  0  0  0  0  0  0  0  0  0  0  0
   -2.0520   -0.7070    5.0616 C   0  0  0  0  0  0  0  0  0  0  0  0
   -1.0034    0.0351    4.2949 C   0  0  0  0  0  0  0  0  0  0  0  0
   -1.0270    1.1952    3.5075 C   0  0  0  0  0  0  0  0  0  0  0  0
    0.1882    1.6317    2.9392 C   0  0  0  0  0  0  0  0  0  0  0  0
    1.3957    0.9264    3.1694 C   0  0  0  0  0  0  0  0  0  0  0  0
    2.5665    1.4168    2.5878 N   0  0  0  0  0  0  0  0  0  0  0  0
    1.4384   -0.2495    3.9691 C   0  0  0  0  0  0  0  0  0  0  0  0
    0.1860   -0.6421    4.5002 C   0  0  0  0  0  0  0  0  0  0  0  0
    2.6282   -0.8885    4.2342 O   0  0  0  0  0  0  0  0  0  0  0  0
    2.7046   -2.2072    3.9550 C   0  0  0  0  0  0  0  0  0  0  0  0
    2.7757   -3.2060    4.8946 C   0  0  0  0  0  0  0  0  0  0  0  0
    2.7923   -4.4235    4.2354 N   0  0  0  0  0  0  0  0  0  0  0  0
    2.7566   -4.2465    2.8681 C   0  0  0  0  0  0  0  0  0  0  0  0
    2.7623   -5.1591    1.7987 C   0  0  0  0  0  0  0  0  0  0  0  0
    2.7061   -4.6801    0.4791 C   0  0  0  0  0  0  0  0  0  0  0  0
    2.6322   -3.2938    0.2410 C   0  0  0  0  0  0  0  0  0  0  0  0
    2.6231   -2.3867    1.3208 C   0  0  0  0  0  0  0  0  0  0  0  0
    2.6950   -2.8380    2.6593 C   0  0  0  0  0  0  0  0  0  0  0  0
    2.8517   -5.3079    4.7220 H   0  0  0  0  0  0  0  0  0  0  0  0
    4.5662   -4.2660    6.7322 H   0  0  0  0  0  0  0  0  0  0  0  0
    3.0857   -5.2114    6.8880 H   0  0  0  0  0  0  0  0  0  0  0  0
    3.5609   -4.0974    8.1649 H   0  0  0  0  0  0  0  0  0  0  0  0
    3.2655   -2.1725    6.6617 H   0  0  0  0  0  0  0  0  0  0  0  0
    0.7178   -3.8601    6.7283 H   0  0  0  0  0  0  0  0  0  0  0  0
    1.3745   -2.9279    8.0457 H   0  0  0  0  0  0  0  0  0  0  0  0
    0.1129   -2.7876    4.8036 H   0  0  0  0  0  0  0  0  0  0  0  0
   -2.8445   -1.0408    4.3953 H   0  0  0  0  0  0  0  0  0  0  0  0
   -2.4856   -0.0533    5.8166 H   0  0  0  0  0  0  0  0  0  0  0  0
   -1.9450    1.7401    3.3392 H   0  0  0  0  0  0  0  0  0  0  0  0
    0.1957    2.5269    2.3318 H   0  0  0  0  0  0  0  0  0  0  0  0
    3.4703    0.9943    2.7522 H   0  0  0  0  0  0  0  0  0  0  0  0
    2.5631    2.2905    2.0751 H   0  0  0  0  0  0  0  0  0  0  0  0
    2.8216   -6.2177    1.9941 H   0  0  0  0  0  0  0  0  0  0  0  0
    2.7144   -5.3778   -0.3482 H   0  0  0  0  0  0  0  0  0  0  0  0
    2.5739   -2.9148   -0.7715 H   0  0  0  0  0  0  0  0  0  0  0  0
    2.5482   -1.3294    1.1211 H   0  0  0  0  0  0  0  0  0  0  0  0
  1  2  1  0
  1 26  1  0
  1 27  1  0
  1 28  1  0
  2 17  1  0
  2  3  1  0
  2 29  1  6
  3  4  1  0
  3 30  1  0
  3 31  1  0
  4  5  1  0
  5 14  1  0
  5  6  1  0
  5 32  1  6
  6  7  1  0
  7  8  1  0
  7 33  1  0
  7 34  1  0
  8 14  2  0
  8  9  1  0
  9 10  2  0
  9 35  1  0
 10 11  1  0
 10 36  1  0
 11 12  1  0
 11 13  2  0
 12 37  1  0
 12 38  1  0
 13 14  1  0
 13 15  1  0
 15 16  1  0
 16 24  1  0
 16 17  2  0
 17 18  1  0
 18 25  1  0
 18 19  1  0
 19 24  2  0
 19 20  1  0
 20 21  2  0
 20 39  1  0
 21 22  1  0
 21 40  1  0
 22 23  2  0
 22 41  1  0
 23 24  1  0
 23 42  1  0
M  END
>  <i_m_ct_stereo_status>  (99) 
1

>  <s_m_source_file>  (99) 
/var/tmp/pbs.5102264.sched01/tmpeif0x8wq/23vm_sbjim.sdf

>  <i_m_source_file_index>  (99) 
13

>  <i_lp_mmshare_version>  (99) 
48012

>  <i_f3d_flags>  (99) 
0

>  <s_epik_input>  (99) 
W2NIXTFbY0hdW2NIXVtjSF1jMmMxW25IXWMoW0NASF0oW0NIM10pW0NIMl1PMyljMk9jNGMoW05IMl0pW2NIXVtjSF1jKFtDSDJdTzUpYzRbQ0BASF0zNQ==

>  <s_epik_cmdline>  (99) 
J2VwaWtfcHl0aG9uJywgJy1waHQnLCAnMi4wJywgJy1waCcsICc3LjAnLCAnLXRuJywgJzgnLCAnLW1hJywgJzIwMCcsICctaW1hZScsICc8aW5maWxlLm1hZT4nLCAnLW9tYWUnLCAnPG91dGZpbGUubWFlPic=

>  <r_epik_Ionization_Penalty>  (99) 
0.00119602

>  <r_epik_Ionization_Penalty_Charging>  (99) 
0

>  <r_epik_Ionization_Penalty_Neutral>  (99) 
0.00119602

>  <r_epik_State_Penalty>  (99) 
0.000789099

>  <r_epik_Charging_Adjusted_Penalty>  (99) 
0.000789099

>  <i_epik_Tot_Q>  (99) 
0

>  <i_epik_Tot_abs_Q>  (99) 
0

>  <s_epik_Chemistry_Notes>  (99) 
This compound contains an acetal/aminal-like group ( X-CH(R)-Y where X, Y are N, S, or O) that may be acid/base labile, releasing an aldehyde.

>  <s_lp_Force_Field>  (99) 
OPLS3e

>  <r_lp_Energy>  (99) 
34.5308

>  <b_lp_Chiralities_Consistent>  (99) 
1

>  <s_lp_Variant>  (99) 
26:0-1

>  <s_i_glide_gridfile>  (99) 
pfpi4k_grid

>  <i_i_glide_lignum>  (99) 
13

>  <i_i_glide_rotatable_bonds>  (99) 
0

>  <r_i_docking_score>  (99) 
-2.60509

>  <r_i_glide_ligand_efficiency>  (99) 
-0.108545

>  <r_i_glide_ligand_efficiency_sa>  (99) 
-0.313099

>  <r_i_glide_ligand_efficiency_ln>  (99) 
-0.623517

>  <r_i_glide_gscore>  (99) 
-2.60509

>  <r_i_glide_lipo>  (99) 
0

>  <r_i_glide_hbond>  (99) 
0

>  <r_i_glide_metal>  (99) 
-0

>  <r_i_glide_rewards>  (99) 
-1.2112

>  <r_i_glide_evdw>  (99) 
-19.7373

>  <r_i_glide_ecoul>  (99) 
-2.61089

>  <r_i_glide_erotb>  (99) 
0

>  <r_i_glide_esite>  (99) 
-0.015396

>  <r_i_glide_emodel>  (99) 
-26.4086

>  <r_i_glide_energy>  (99) 
-22.3481

>  <r_i_glide_einternal>  (99) 
0

>  <r_i_glide_intrahb_reward>  (99) 
-0

>  <i_i_glide_confnum>  (99) 
1

>  <i_i_glide_posenum>  (99) 
5

>  <r_i_glide_eff_state_penalty>  (99) 
0

>  <ligand_id>  (99) 
26

>  <original_smiles>  (99) 
CC1COC2OCc3ccc(N)c(c32)Oc2c1[nH]c1ccccc21

>  <smiles>  (99) 
[H]c1c([H])c2c3c(c1N([H])[H])Oc1c(n([H])c4c([H])c([H])c([H])c([H])c14)C([H])(C([H])([H])[H])C([H])([H])OC3([H])OC2([H])[H]

$$$$
26:0:1
     RDKit          3D

 42 46  0  0  1  0  0  0  0  0999 V2000
    3.0248   -5.3678    7.2463 C   0  0  0  0  0  0  0  0  0  0  0  0
    3.2014   -4.8950    5.7922 C   0  0  2  0  0  0  0  0  0  0  0  0
    3.1315   -3.3561    5.6856 C   0  0  0  0  0  0  0  0  0  0  0  0
    3.5592   -2.9108    4.3975 O   0  0  0  0  0  0  0  0  0  0  0  0
    2.5509   -2.7351    3.4488 C   0  0  1  0  0  0  0  0  0  0  0  0
    2.2698   -1.3783    3.2507 O   0  0  0  0  0  0  0  0  0  0  0  0
    2.5507   -1.0106    1.9048 C   0  0  0  0  0  0  0  0  0  0  0  0
    3.0164   -2.2351    1.1818 C   0  0  0  0  0  0  0  0  0  0  0  0
    3.4159   -2.4768   -0.1391 C   0  0  0  0  0  0  0  0  0  0  0  0
    3.8257   -3.7862   -0.4718 C   0  0  0  0  0  0  0  0  0  0  0  0
    3.8568   -4.8141    0.5039 C   0  0  0  0  0  0  0  0  0  0  0  0
    4.2983   -6.0811    0.1153 N   0  0  0  0  0  0  0  0  0  0  0  0
    3.4582   -4.5850    1.8486 C   0  0  0  0  0  0  0  0  0  0  0  0
    3.0438   -3.2583    2.1149 C   0  0  0  0  0  0  0  0  0  0  0  0
    3.5424   -5.5775    2.7984 O   0  0  0  0  0  0  0  0  0  0  0  0
    2.4305   -5.8592    3.5121 C   0  0  0  0  0  0  0  0  0  0  0  0
    2.2587   -5.5798    4.8455 C   0  0  0  0  0  0  0  0  0  0  0  0
    0.9794   -5.9631    5.2140 N   0  0  0  0  0  0  0  0  0  0  0  0
    0.3047   -6.5193    4.1479 C   0  0  0  0  0  0  0  0  0  0  0  0
   -0.9892   -7.0543    4.0264 C   0  0  0  0  0  0  0  0  0  0  0  0
   -1.4200   -7.5453    2.7849 C   0  0  0  0  0  0  0  0  0  0  0  0
   -0.5602   -7.4697    1.6745 C   0  0  0  0  0  0  0  0  0  0  0  0
    0.7352   -6.9354    1.8007 C   0  0  0  0  0  0  0  0  0  0  0  0
    1.2055   -6.4533    3.0453 C   0  0  0  0  0  0  0  0  0  0  0  0
    0.6317   -5.8680    6.1570 H   0  0  0  0  0  0  0  0  0  0  0  0
    3.1494   -6.4500    7.3216 H   0  0  0  0  0  0  0  0  0  0  0  0
    2.0367   -5.1179    7.6402 H   0  0  0  0  0  0  0  0  0  0  0  0
    3.7651   -4.9085    7.9048 H   0  0  0  0  0  0  0  0  0  0  0  0
    4.2144   -5.1742    5.5015 H   0  0  0  0  0  0  0  0  0  0  0  0
    2.1411   -2.9738    5.9464 H   0  0  0  0  0  0  0  0  0  0  0  0
    3.8184   -2.9227    6.4155 H   0  0  0  0  0  0  0  0  0  0  0  0
    1.6116   -3.2104    3.7385 H   0  0  0  0  0  0  0  0  0  0  0  0
    1.6553   -0.6162    1.4262 H   0  0  0  0  0  0  0  0  0  0  0  0
    3.3285   -0.2483    1.8698 H   0  0  0  0  0  0  0  0  0  0  0  0
    3.3964   -1.6900   -0.8800 H   0  0  0  0  0  0  0  0  0  0  0  0
    4.1359   -4.0033   -1.4821 H   0  0  0  0  0  0  0  0  0  0  0  0
    4.3483   -6.8573    0.7632 H   0  0  0  0  0  0  0  0  0  0  0  0
    4.5679   -6.2619   -0.8450 H   0  0  0  0  0  0  0  0  0  0  0  0
   -1.6388   -7.1078    4.8840 H   0  0  0  0  0  0  0  0  0  0  0  0
   -2.4074   -7.9795    2.6809 H   0  0  0  0  0  0  0  0  0  0  0  0
   -0.8837   -7.8549    0.7169 H   0  0  0  0  0  0  0  0  0  0  0  0
    1.3932   -6.9105    0.9470 H   0  0  0  0  0  0  0  0  0  0  0  0
  1  2  1  0
  1 26  1  0
  1 27  1  0
  1 28  1  0
  2 17  1  0
  2  3  1  0
  2 29  1  6
  3  4  1  0
  3 30  1  0
  3 31  1  0
  4  5  1  0
  5 14  1  0
  5  6  1  0
  5 32  1  1
  6  7  1  0
  7  8  1  0
  7 33  1  0
  7 34  1  0
  8 14  2  0
  8  9  1  0
  9 10  2  0
  9 35  1  0
 10 11  1  0
 10 36  1  0
 11 12  1  0
 11 13  2  0
 12 37  1  0
 12 38  1  0
 13 14  1  0
 13 15  1  0
 15 16  1  0
 16 24  1  0
 16 17  2  0
 17 18  1  0
 18 25  1  0
 18 19  1  0
 19 24  2  0
 19 20  1  0
 20 21  2  0
 20 39  1  0
 21 22  1  0
 21 40  1  0
 22 23  2  0
 22 41  1  0
 23 24  1  0
 23 42  1  0
M  END
>  <i_m_ct_stereo_status>  (100) 
1

>  <s_m_source_file>  (100) 
/var/tmp/pbs.5102264.sched01/tmpeif0x8wq/23vm_sbjim.sdf

>  <i_m_source_file_index>  (100) 
13

>  <i_lp_mmshare_version>  (100) 
48012

>  <i_f3d_flags>  (100) 
0

>  <s_epik_input>  (100) 
W2NIXTFbY0hdW2NIXVtjSF1jMmMxW25IXWMoW0NASF0oW0NIM10pW0NIMl1PMyljMk9jNGMoW05IMl0pW2NIXVtjSF1jKFtDSDJdTzUpYzRbQ0BASF0zNQ==

>  <s_epik_cmdline>  (100) 
J2VwaWtfcHl0aG9uJywgJy1waHQnLCAnMi4wJywgJy1waCcsICc3LjAnLCAnLXRuJywgJzgnLCAnLW1hJywgJzIwMCcsICctaW1hZScsICc8aW5maWxlLm1hZT4nLCAnLW9tYWUnLCAnPG91dGZpbGUubWFlPic=

>  <r_epik_Ionization_Penalty>  (100) 
0.00119602

>  <r_epik_Ionization_Penalty_Charging>  (100) 
0

>  <r_epik_Ionization_Penalty_Neutral>  (100) 
0.00119602

>  <r_epik_State_Penalty>  (100) 
0.000789099

>  <r_epik_Charging_Adjusted_Penalty>  (100) 
0.000789099

>  <i_epik_Tot_Q>  (100) 
0

>  <i_epik_Tot_abs_Q>  (100) 
0

>  <s_epik_Chemistry_Notes>  (100) 
This compound contains an acetal/aminal-like group ( X-CH(R)-Y where X, Y are N, S, or O) that may be acid/base labile, releasing an aldehyde.

>  <s_lp_Force_Field>  (100) 
OPLS3e

>  <r_lp_Energy>  (100) 
34.5308

>  <b_lp_Chiralities_Consistent>  (100) 
1

>  <s_lp_Variant>  (100) 
26:0-1

>  <s_i_glide_gridfile>  (100) 
pfpi4k_grid

>  <i_i_glide_lignum>  (100) 
13

>  <i_i_glide_rotatable_bonds>  (100) 
0

>  <r_i_docking_score>  (100) 
-2.58821

>  <r_i_glide_ligand_efficiency>  (100) 
-0.107842

>  <r_i_glide_ligand_efficiency_sa>  (100) 
-0.31107

>  <r_i_glide_ligand_efficiency_ln>  (100) 
-0.619477

>  <r_i_glide_gscore>  (100) 
-2.58821

>  <r_i_glide_lipo>  (100) 
-0.014833

>  <r_i_glide_hbond>  (100) 
-0.0252283

>  <r_i_glide_metal>  (100) 
-0

>  <r_i_glide_rewards>  (100) 
-1.21233

>  <r_i_glide_evdw>  (100) 
-20.8195

>  <r_i_glide_ecoul>  (100) 
-1.94642

>  <r_i_glide_erotb>  (100) 
0

>  <r_i_glide_esite>  (100) 
-0.00287635

>  <r_i_glide_emodel>  (100) 
-26.7987

>  <r_i_glide_energy>  (100) 
-22.7659

>  <r_i_glide_einternal>  (100) 
0

>  <r_i_glide_intrahb_reward>  (100) 
-0

>  <i_i_glide_confnum>  (100) 
1

>  <i_i_glide_posenum>  (100) 
10

>  <r_i_glide_eff_state_penalty>  (100) 
0

>  <ligand_id>  (100) 
26

>  <original_smiles>  (100) 
CC1COC2OCc3ccc(N)c(c32)Oc2c1[nH]c1ccccc21

>  <smiles>  (100) 
[H]c1c([H])c2c3c(c1N([H])[H])Oc1c(n([H])c4c([H])c([H])c([H])c([H])c14)C([H])(C([H])([H])[H])C([H])([H])OC3([H])OC2([H])[H]

$$$$
26:0:2
     RDKit          3D

 42 46  0  0  1  0  0  0  0  0999 V2000
    2.3124   -4.9672    7.7113 C   0  0  0  0  0  0  0  0  0  0  0  0
    2.7330   -4.8143    6.2377 C   0  0  2  0  0  0  0  0  0  0  0  0
    2.8124   -3.3281    5.8242 C   0  0  0  0  0  0  0  0  0  0  0  0
    3.4569   -3.1833    4.5570 O   0  0  0  0  0  0  0  0  0  0  0  0
    2.6125   -3.1521    3.4461 C   0  0  1  0  0  0  0  0  0  0  0  0
    2.4791   -1.8527    2.9430 O   0  0  0  0  0  0  0  0  0  0  0  0
    2.9870   -1.7875    1.6153 C   0  0  0  0  0  0  0  0  0  0  0  0
    3.4367   -3.1590    1.2266 C   0  0  0  0  0  0  0  0  0  0  0  0
    3.9966   -3.6904    0.0573 C   0  0  0  0  0  0  0  0  0  0  0  0
    4.3404   -5.0584    0.0590 C   0  0  0  0  0  0  0  0  0  0  0  0
    4.1351   -5.8693    1.2041 C   0  0  0  0  0  0  0  0  0  0  0  0
    4.4947   -7.2182    1.1376 N   0  0  0  0  0  0  0  0  0  0  0  0
    3.5744   -5.3435    2.4016 C   0  0  0  0  0  0  0  0  0  0  0  0
    3.2428   -3.9688    2.3344 C   0  0  0  0  0  0  0  0  0  0  0  0
    3.4373   -6.1204    3.5265 O   0  0  0  0  0  0  0  0  0  0  0  0
    2.2150   -6.1852    4.0978 C   0  0  0  0  0  0  0  0  0  0  0  0
    1.8806   -5.6261    5.3070 C   0  0  0  0  0  0  0  0  0  0  0  0
    0.5336   -5.8535    5.5380 N   0  0  0  0  0  0  0  0  0  0  0  0
   -0.0263   -6.5789    4.5052 C   0  0  0  0  0  0  0  0  0  0  0  0
   -1.3306   -7.0528    4.2851 C   0  0  0  0  0  0  0  0  0  0  0  0
   -1.6219   -7.7681    3.1161 C   0  0  0  0  0  0  0  0  0  0  0  0
   -0.6114   -7.9802    2.1655 C   0  0  0  0  0  0  0  0  0  0  0  0
    0.6934   -7.4978    2.3828 C   0  0  0  0  0  0  0  0  0  0  0  0
    1.0240   -6.7939    3.5663 C   0  0  0  0  0  0  0  0  0  0  0  0
    0.0639   -5.5435    6.3755 H   0  0  0  0  0  0  0  0  0  0  0  0
    2.3339   -6.0159    8.0150 H   0  0  0  0  0  0  0  0  0  0  0  0
    1.3037   -4.5887    7.8905 H   0  0  0  0  0  0  0  0  0  0  0  0
    2.9894   -4.4254    8.3762 H   0  0  0  0  0  0  0  0  0  0  0  0
    3.7500   -5.2026    6.1705 H   0  0  0  0  0  0  0  0  0  0  0  0
    1.8318   -2.8452    5.8479 H   0  0  0  0  0  0  0  0  0  0  0  0
    3.4232   -2.7930    6.5528 H   0  0  0  0  0  0  0  0  0  0  0  0
    1.6040   -3.5019    3.6731 H   0  0  0  0  0  0  0  0  0  0  0  0
    2.2141   -1.4469    0.9275 H   0  0  0  0  0  0  0  0  0  0  0  0
    3.8268   -1.0970    1.5585 H   0  0  0  0  0  0  0  0  0  0  0  0
    4.1645   -3.0768   -0.8159 H   0  0  0  0  0  0  0  0  0  0  0  0
    4.7727   -5.4931   -0.8287 H   0  0  0  0  0  0  0  0  0  0  0  0
    4.4091   -7.8345    1.9365 H   0  0  0  0  0  0  0  0  0  0  0  0
    4.9352   -7.6070    0.3151 H   0  0  0  0  0  0  0  0  0  0  0  0
   -2.1013   -6.8756    5.0174 H   0  0  0  0  0  0  0  0  0  0  0  0
   -2.6116   -8.1606    2.9466 H   0  0  0  0  0  0  0  0  0  0  0  0
   -0.8426   -8.5536    1.2779 H   0  0  0  0  0  0  0  0  0  0  0  0
    1.4626   -7.6849    1.6506 H   0  0  0  0  0  0  0  0  0  0  0  0
  1  2  1  0
  1 26  1  0
  1 27  1  0
  1 28  1  0
  2 17  1  0
  2  3  1  0
  2 29  1  1
  3  4  1  0
  3 30  1  0
  3 31  1  0
  4  5  1  0
  5 14  1  0
  5  6  1  0
  5 32  1  1
  6  7  1  0
  7  8  1  0
  7 33  1  0
  7 34  1  0
  8 14  2  0
  8  9  1  0
  9 10  2  0
  9 35  1  0
 10 11  1  0
 10 36  1  0
 11 12  1  0
 11 13  2  0
 12 37  1  0
 12 38  1  0
 13 14  1  0
 13 15  1  0
 15 16  1  0
 16 24  1  0
 16 17  2  0
 17 18  1  0
 18 25  1  0
 18 19  1  0
 19 24  2  0
 19 20  1  0
 20 21  2  0
 20 39  1  0
 21 22  1  0
 21 40  1  0
 22 23  2  0
 22 41  1  0
 23 24  1  0
 23 42  1  0
M  END
>  <i_m_ct_stereo_status>  (101) 
1

>  <s_m_source_file>  (101) 
/var/tmp/pbs.5102264.sched01/tmpeif0x8wq/23vm_sbjim.sdf

>  <i_m_source_file_index>  (101) 
13

>  <i_lp_mmshare_version>  (101) 
48012

>  <i_f3d_flags>  (101) 
0

>  <s_epik_input>  (101) 
W2NIXTFbY0hdW2NIXVtjSF1jMmMxW25IXWMoW0NASF0oW0NIM10pW0NIMl1PMyljMk9jNGMoW05IMl0pW2NIXVtjSF1jKFtDSDJdTzUpYzRbQ0BASF0zNQ==

>  <s_epik_cmdline>  (101) 
J2VwaWtfcHl0aG9uJywgJy1waHQnLCAnMi4wJywgJy1waCcsICc3LjAnLCAnLXRuJywgJzgnLCAnLW1hJywgJzIwMCcsICctaW1hZScsICc8aW5maWxlLm1hZT4nLCAnLW9tYWUnLCAnPG91dGZpbGUubWFlPic=

>  <r_epik_Ionization_Penalty>  (101) 
0.00119602

>  <r_epik_Ionization_Penalty_Charging>  (101) 
0

>  <r_epik_Ionization_Penalty_Neutral>  (101) 
0.00119602

>  <r_epik_State_Penalty>  (101) 
0.000789099

>  <r_epik_Charging_Adjusted_Penalty>  (101) 
0.000789099

>  <i_epik_Tot_Q>  (101) 
0

>  <i_epik_Tot_abs_Q>  (101) 
0

>  <s_epik_Chemistry_Notes>  (101) 
This compound contains an acetal/aminal-like group ( X-CH(R)-Y where X, Y are N, S, or O) that may be acid/base labile, releasing an aldehyde.

>  <s_lp_Force_Field>  (101) 
OPLS3e

>  <r_lp_Energy>  (101) 
34.5308

>  <b_lp_Chiralities_Consistent>  (101) 
1

>  <s_lp_Variant>  (101) 
26:0-1

>  <s_i_glide_gridfile>  (101) 
pfpi4k_grid

>  <i_i_glide_lignum>  (101) 
13

>  <i_i_glide_rotatable_bonds>  (101) 
0

>  <r_i_docking_score>  (101) 
-2.43764

>  <r_i_glide_ligand_efficiency>  (101) 
-0.101568

>  <r_i_glide_ligand_efficiency_sa>  (101) 
-0.292974

>  <r_i_glide_ligand_efficiency_ln>  (101) 
-0.58344

>  <r_i_glide_gscore>  (101) 
-2.43764

>  <r_i_glide_lipo>  (101) 
-0.0664646

>  <r_i_glide_hbond>  (101) 
0

>  <r_i_glide_metal>  (101) 
-0

>  <r_i_glide_rewards>  (101) 
-1.21333

>  <r_i_glide_evdw>  (101) 
-20.3383

>  <r_i_glide_ecoul>  (101) 
-0.905613

>  <r_i_glide_erotb>  (101) 
0

>  <r_i_glide_esite>  (101) 
-0.00508877

>  <r_i_glide_emodel>  (101) 
-25.0421

>  <r_i_glide_energy>  (101) 
-21.244

>  <r_i_glide_einternal>  (101) 
0

>  <r_i_glide_intrahb_reward>  (101) 
-0

>  <i_i_glide_confnum>  (101) 
2

>  <i_i_glide_posenum>  (101) 
32

>  <r_i_glide_eff_state_penalty>  (101) 
0

>  <ligand_id>  (101) 
26

>  <original_smiles>  (101) 
CC1COC2OCc3ccc(N)c(c32)Oc2c1[nH]c1ccccc21

>  <smiles>  (101) 
[H]c1c([H])c2c3c(c1N([H])[H])Oc1c(n([H])c4c([H])c([H])c([H])c([H])c14)C([H])(C([H])([H])[H])C([H])([H])OC3([H])OC2([H])[H]

$$$$
27:0:0
     RDKit          3D

 55 59  0  0  1  0  0  0  0  0999 V2000
    7.9410   -4.2093    0.5240 C   0  0  0  0  0  0  0  0  0  0  0  0
    6.9325   -5.1829    1.0225 C   0  0  0  0  0  0  0  0  0  0  0  0
    6.9930   -6.5169    0.8877 N   0  0  0  0  0  0  0  0  0  0  0  0
    5.8178   -6.9315    1.4946 C   0  0  0  0  0  0  0  0  0  0  0  0
    5.2264   -8.1963    1.6797 C   0  0  0  0  0  0  0  0  0  0  0  0
    3.9603   -8.3412    2.2969 C   0  0  0  0  0  0  0  0  0  0  0  0
    3.2499   -7.1870    2.7540 C   0  0  0  0  0  0  0  0  0  0  0  0
    3.8568   -5.9144    2.6065 C   0  0  0  0  0  0  0  0  0  0  0  0
    5.1095   -5.8132    1.9694 C   0  0  0  0  0  0  0  0  0  0  0  0
    5.8385   -4.6774    1.6673 O   0  0  0  0  0  0  0  0  0  0  0  0
    1.9168   -7.2566    3.4301 C   0  0  0  0  0  0  0  0  0  0  0  0
    1.5455   -6.3600    4.1871 O   0  0  0  0  0  0  0  0  0  0  0  0
    1.0179   -8.4976    3.1283 C   0  0  1  0  0  0  0  0  0  0  0  0
    1.4276   -9.6292    3.9924 N   0  0  2  0  0  0  0  0  0  0  0  0
    0.7540   -9.4521    5.3107 C   0  0  0  0  0  0  0  0  0  0  0  0
   -0.4988   -8.5921    5.0114 C   0  0  0  0  0  0  0  0  0  0  0  0
   -0.4842   -8.3484    3.4855 C   0  0  0  0  0  0  0  0  0  0  0  0
   -1.1628   -7.0235    3.0974 C   0  0  0  0  0  0  0  0  0  0  0  0
   -1.2580   -9.4676    2.7649 C   0  0  0  0  0  0  0  0  0  0  0  0
    2.8367  -10.1513    3.8768 C   0  0  0  0  0  0  0  0  0  0  0  0
    3.7315   -9.6775    5.0649 C   0  0  0  0  0  0  0  0  0  0  0  0
    5.1411  -10.2881    5.0106 C   0  0  0  0  0  0  0  0  0  0  0  0
    5.0924  -11.8282    5.0029 C   0  0  0  0  0  0  0  0  0  0  0  0
    4.1921  -12.3891    3.8858 C   0  0  0  0  0  0  0  0  0  0  0  0
    2.7912  -11.7139    3.9227 C   0  0  0  0  0  0  0  0  0  0  0  0
    3.4389   -9.7664    2.4761 C   0  0  0  0  0  0  0  0  0  0  0  0
    8.7522   -4.7342    0.0263 H   0  0  0  0  0  0  0  0  0  0  0  0
    8.3496   -3.6393    1.3563 H   0  0  0  0  0  0  0  0  0  0  0  0
    7.4791   -3.5197   -0.1828 H   0  0  0  0  0  0  0  0  0  0  0  0
    5.7659   -9.0623    1.3270 H   0  0  0  0  0  0  0  0  0  0  0  0
    3.3758   -5.0156    2.9647 H   0  0  0  0  0  0  0  0  0  0  0  0
    1.0957   -8.7574    2.0730 H   0  0  0  0  0  0  0  0  0  0  0  0
    0.4895  -10.4123    5.7620 H   0  0  0  0  0  0  0  0  0  0  0  0
    1.3639   -8.9061    6.0329 H   0  0  0  0  0  0  0  0  0  0  0  0
   -1.4188   -9.0480    5.3513 H   0  0  0  0  0  0  0  0  0  0  0  0
   -0.4263   -7.6512    5.5658 H   0  0  0  0  0  0  0  0  0  0  0  0
   -2.2433   -7.0966    3.2281 H   0  0  0  0  0  0  0  0  0  0  0  0
   -0.9619   -6.7823    2.0539 H   0  0  0  0  0  0  0  0  0  0  0  0
   -0.8387   -6.1947    3.7249 H   0  0  0  0  0  0  0  0  0  0  0  0
   -2.3174   -9.4613    3.0335 H   0  0  0  0  0  0  0  0  0  0  0  0
   -0.8616  -10.4492    3.0252 H   0  0  0  0  0  0  0  0  0  0  0  0
   -1.1866   -9.3613    1.6810 H   0  0  0  0  0  0  0  0  0  0  0  0
    3.8152   -8.5900    5.1085 H   0  0  0  0  0  0  0  0  0  0  0  0
    3.3045   -9.9714    6.0258 H   0  0  0  0  0  0  0  0  0  0  0  0
    5.6702   -9.9202    4.1299 H   0  0  0  0  0  0  0  0  0  0  0  0
    5.7234   -9.9355    5.8652 H   0  0  0  0  0  0  0  0  0  0  0  0
    6.1000  -12.2224    4.8920 H   0  0  0  0  0  0  0  0  0  0  0  0
    4.7152  -12.1777    5.9639 H   0  0  0  0  0  0  0  0  0  0  0  0
    4.6750  -12.2589    2.9145 H   0  0  0  0  0  0  0  0  0  0  0  0
    4.0825  -13.4759    4.0001 H   0  0  0  0  0  0  0  0  0  0  0  0
    2.2725  -12.0552    4.8206 H   0  0  0  0  0  0  0  0  0  0  0  0
    2.1990  -12.0924    3.0854 H   0  0  0  0  0  0  0  0  0  0  0  0
    2.7538  -10.0188    1.6600 H   0  0  0  0  0  0  0  0  0  0  0  0
    4.3028  -10.3848    2.2878 H   0  0  0  0  0  0  0  0  0  0  0  0
    0.8842  -10.3809    3.5948 H   0  0  0  0  0  0  0  0  0  0  0  0
  1  2  1  0
  1 27  1  0
  1 28  1  0
  1 29  1  0
  2 10  1  0
  2  3  2  0
  3  4  1  0
  4  9  2  0
  4  5  1  0
  5  6  2  0
  5 30  1  0
  6 26  1  0
  6  7  1  0
  7  8  2  0
  7 11  1  0
  8  9  1  0
  8 31  1  0
  9 10  1  0
 11 12  2  0
 11 13  1  0
 13 17  1  0
 13 14  1  0
 13 32  1  6
 14 15  1  0
 14 20  1  0
 14 55  1  6
 15 16  1  0
 15 33  1  0
 15 34  1  0
 16 17  1  0
 16 35  1  0
 16 36  1  0
 17 18  1  0
 17 19  1  0
 18 37  1  0
 18 38  1  0
 18 39  1  0
 19 40  1  0
 19 41  1  0
 19 42  1  0
 20 25  1  0
 20 21  1  0
 20 26  1  0
 21 22  1  0
 21 43  1  0
 21 44  1  0
 22 23  1  0
 22 45  1  0
 22 46  1  0
 23 24  1  0
 23 47  1  0
 23 48  1  0
 24 25  1  0
 24 49  1  0
 24 50  1  0
 25 51  1  0
 25 52  1  0
 26 53  1  0
 26 54  1  0
M  CHG  1  14   1
M  END
>  <i_m_ct_stereo_status>  (102) 
1

>  <s_m_source_file>  (102) 
/var/tmp/pbs.5102264.sched01/tmpeif0x8wq/23vm_sbjim.sdf

>  <i_m_source_file_index>  (102) 
14

>  <i_lp_mmshare_version>  (102) 
48012

>  <i_f3d_flags>  (102) 
0

>  <s_epik_input>  (102) 
W0NIM11jKG4xKW9jKFtjSF0yKWMxW2NIXWMoW0NIMl0zKWMyQyg9TylbQ0BIXShDKFtDSDNdKShbQ0gzXSlbQ0gyXVtDSDJdNClONEMzNVtDSDJdW0NIMl1bQ0gyXVtDSDJdW0NIMl01

>  <s_epik_cmdline>  (102) 
J2VwaWtfcHl0aG9uJywgJy1waHQnLCAnMi4wJywgJy1waCcsICc3LjAnLCAnLXRuJywgJzgnLCAnLW1hJywgJzIwMCcsICctaW1hZScsICc8aW5maWxlLm1hZT4nLCAnLW9tYWUnLCAnPG91dGZpbGUubWFlPic=

>  <r_epik_Ionization_Penalty>  (102) 
0.0650384

>  <r_epik_Ionization_Penalty_Charging>  (102) 
0.0650384

>  <r_epik_Ionization_Penalty_Neutral>  (102) 
9.32342e-11

>  <r_epik_State_Penalty>  (102) 
0.0566931

>  <r_epik_Charging_Adjusted_Penalty>  (102) 
0.121732

>  <i_epik_Tot_Q>  (102) 
1

>  <i_epik_Tot_abs_Q>  (102) 
1

>  <s_lp_Force_Field>  (102) 
OPLS3e

>  <r_lp_Energy>  (102) 
55.9532

>  <b_lp_Chiralities_Consistent>  (102) 
1

>  <s_lp_Variant>  (102) 
27:0-1

>  <s_i_glide_gridfile>  (102) 
pfpi4k_grid

>  <i_i_glide_lignum>  (102) 
14

>  <i_i_glide_rotatable_bonds>  (102) 
0

>  <r_i_docking_score>  (102) 
-3.13624

>  <r_i_glide_ligand_efficiency>  (102) 
-0.120625

>  <r_i_glide_ligand_efficiency_sa>  (102) 
-0.35735

>  <r_i_glide_ligand_efficiency_ln>  (102) 
-0.736536

>  <r_i_glide_gscore>  (102) 
-3.13624

>  <r_i_glide_lipo>  (102) 
-0.492378

>  <r_i_glide_hbond>  (102) 
0

>  <r_i_glide_metal>  (102) 
-0

>  <r_i_glide_rewards>  (102) 
-0.999015

>  <r_i_glide_evdw>  (102) 
-22.2206

>  <r_i_glide_ecoul>  (102) 
-3.42884

>  <r_i_glide_erotb>  (102) 
0

>  <r_i_glide_esite>  (102) 
-0.0194927

>  <r_i_glide_emodel>  (102) 
-31.8832

>  <r_i_glide_energy>  (102) 
-25.6494

>  <r_i_glide_einternal>  (102) 
0

>  <r_i_glide_intrahb_reward>  (102) 
-0

>  <i_i_glide_confnum>  (102) 
1

>  <i_i_glide_posenum>  (102) 
1

>  <r_i_glide_eff_state_penalty>  (102) 
0

>  <ligand_id>  (102) 
27

>  <original_smiles>  (102) 
Cc1nc2cc3c(cc2o1)C(=O)C1N(CCC1(C)C)C1(CCCCC1)C3

>  <smiles>  (102) 
[H]c1c2c(c([H])c3oc(C([H])([H])[H])nc13)C(=O)C1([H])C(C([H])([H])[H])(C([H])([H])[H])C([H])([H])C([H])([H])[N+]1([H])C1(C2([H])[H])C([H])([H])C([H])([H])C([H])([H])C([H])([H])C1([H])[H]

$$$$
27:0:1
     RDKit          3D

 55 59  0  0  1  0  0  0  0  0999 V2000
    3.1394    0.4861    1.7254 C   0  0  0  0  0  0  0  0  0  0  0  0
    2.9678   -0.9876    1.8081 C   0  0  0  0  0  0  0  0  0  0  0  0
    3.5506   -1.9020    1.0053 N   0  0  0  0  0  0  0  0  0  0  0  0
    3.0509   -3.0885    1.5011 C   0  0  0  0  0  0  0  0  0  0  0  0
    3.2061   -4.4403    1.1226 C   0  0  0  0  0  0  0  0  0  0  0  0
    2.5367   -5.4852    1.7977 C   0  0  0  0  0  0  0  0  0  0  0  0
    1.6659   -5.2018    2.8946 C   0  0  0  0  0  0  0  0  0  0  0  0
    1.5388   -3.8517    3.3108 C   0  0  0  0  0  0  0  0  0  0  0  0
    2.2094   -2.8359    2.6065 C   0  0  0  0  0  0  0  0  0  0  0  0
    2.1653   -1.4675    2.8018 O   0  0  0  0  0  0  0  0  0  0  0  0
    0.9143   -6.2564    3.6529 C   0  0  0  0  0  0  0  0  0  0  0  0
    0.5515   -6.0583    4.8065 O   0  0  0  0  0  0  0  0  0  0  0  0
    0.6161   -7.5967    2.9081 C   0  0  1  0  0  0  0  0  0  0  0  0
    1.7967   -8.4853    2.9806 N   0  0  2  0  0  0  0  0  0  0  0  0
    1.7521   -9.1824    4.2952 C   0  0  0  0  0  0  0  0  0  0  0  0
    0.2575   -9.1918    4.6906 C   0  0  0  0  0  0  0  0  0  0  0  0
   -0.4843   -8.4884    3.5333 C   0  0  0  0  0  0  0  0  0  0  0  0
   -1.7697   -7.7718    3.9927 C   0  0  0  0  0  0  0  0  0  0  0  0
   -0.9135   -9.5325    2.4775 C   0  0  0  0  0  0  0  0  0  0  0  0
    3.1021   -8.0063    2.3753 C   0  0  0  0  0  0  0  0  0  0  0  0
    4.1078   -7.5332    3.4687 C   0  0  0  0  0  0  0  0  0  0  0  0
    5.4703   -7.1438    2.8664 C   0  0  0  0  0  0  0  0  0  0  0  0
    6.0955   -8.3099    2.0766 C   0  0  0  0  0  0  0  0  0  0  0  0
    5.1480   -8.8873    1.0070 C   0  0  0  0  0  0  0  0  0  0  0  0
    3.7537   -9.2061    1.6217 C   0  0  0  0  0  0  0  0  0  0  0  0
    2.8016   -6.8992    1.3084 C   0  0  0  0  0  0  0  0  0  0  0  0
    3.8066    0.7434    0.9059 H   0  0  0  0  0  0  0  0  0  0  0  0
    3.5647    0.8579    2.6586 H   0  0  0  0  0  0  0  0  0  0  0  0
    2.1730    0.9667    1.5634 H   0  0  0  0  0  0  0  0  0  0  0  0
    3.8589   -4.6402    0.2808 H   0  0  0  0  0  0  0  0  0  0  0  0
    0.9156   -3.5857    4.1517 H   0  0  0  0  0  0  0  0  0  0  0  0
    0.3392   -7.3965    1.8756 H   0  0  0  0  0  0  0  0  0  0  0  0
    2.1503  -10.1959    4.2328 H   0  0  0  0  0  0  0  0  0  0  0  0
    2.2954   -8.6630    5.0828 H   0  0  0  0  0  0  0  0  0  0  0  0
   -0.1097  -10.2070    4.8676 H   0  0  0  0  0  0  0  0  0  0  0  0
    0.1260   -8.6521    5.6350 H   0  0  0  0  0  0  0  0  0  0  0  0
   -2.5296   -8.5187    4.2278 H   0  0  0  0  0  0  0  0  0  0  0  0
   -2.1720   -7.1260    3.2129 H   0  0  0  0  0  0  0  0  0  0  0  0
   -1.6325   -7.1665    4.8886 H   0  0  0  0  0  0  0  0  0  0  0  0
   -1.6495  -10.2254    2.8872 H   0  0  0  0  0  0  0  0  0  0  0  0
   -0.0830  -10.1406    2.1140 H   0  0  0  0  0  0  0  0  0  0  0  0
   -1.3753   -9.0456    1.6194 H   0  0  0  0  0  0  0  0  0  0  0  0
    3.7257   -6.6932    4.0502 H   0  0  0  0  0  0  0  0  0  0  0  0
    4.3074   -8.3185    4.1996 H   0  0  0  0  0  0  0  0  0  0  0  0
    5.3566   -6.2684    2.2267 H   0  0  0  0  0  0  0  0  0  0  0  0
    6.1419   -6.8273    3.6678 H   0  0  0  0  0  0  0  0  0  0  0  0
    7.0210   -7.9758    1.6102 H   0  0  0  0  0  0  0  0  0  0  0  0
    6.3597   -9.1066    2.7728 H   0  0  0  0  0  0  0  0  0  0  0  0
    5.0580   -8.1947    0.1670 H   0  0  0  0  0  0  0  0  0  0  0  0
    5.5827   -9.7959    0.5685 H   0  0  0  0  0  0  0  0  0  0  0  0
    3.8750  -10.0651    2.2867 H   0  0  0  0  0  0  0  0  0  0  0  0
    3.0950   -9.5596    0.8254 H   0  0  0  0  0  0  0  0  0  0  0  0
    1.9889   -7.1747    0.6364 H   0  0  0  0  0  0  0  0  0  0  0  0
    3.6670   -6.7813    0.6690 H   0  0  0  0  0  0  0  0  0  0  0  0
    1.5187   -9.2259    2.3519 H   0  0  0  0  0  0  0  0  0  0  0  0
  1  2  1  0
  1 27  1  0
  1 28  1  0
  1 29  1  0
  2 10  1  0
  2  3  2  0
  3  4  1  0
  4  9  2  0
  4  5  1  0
  5  6  2  0
  5 30  1  0
  6 26  1  0
  6  7  1  0
  7  8  2  0
  7 11  1  0
  8  9  1  0
  8 31  1  0
  9 10  1  0
 11 12  2  0
 11 13  1  0
 13 17  1  0
 13 14  1  0
 13 32  1  6
 14 15  1  0
 14 20  1  0
 14 55  1  6
 15 16  1  0
 15 33  1  0
 15 34  1  0
 16 17  1  0
 16 35  1  0
 16 36  1  0
 17 18  1  0
 17 19  1  0
 18 37  1  0
 18 38  1  0
 18 39  1  0
 19 40  1  0
 19 41  1  0
 19 42  1  0
 20 25  1  0
 20 21  1  0
 20 26  1  0
 21 22  1  0
 21 43  1  0
 21 44  1  0
 22 23  1  0
 22 45  1  0
 22 46  1  0
 23 24  1  0
 23 47  1  0
 23 48  1  0
 24 25  1  0
 24 49  1  0
 24 50  1  0
 25 51  1  0
 25 52  1  0
 26 53  1  0
 26 54  1  0
M  CHG  1  14   1
M  END
>  <i_m_ct_stereo_status>  (103) 
1

>  <s_m_source_file>  (103) 
/var/tmp/pbs.5102264.sched01/tmpeif0x8wq/23vm_sbjim.sdf

>  <i_m_source_file_index>  (103) 
14

>  <i_lp_mmshare_version>  (103) 
48012

>  <i_f3d_flags>  (103) 
0

>  <s_epik_input>  (103) 
W0NIM11jKG4xKW9jKFtjSF0yKWMxW2NIXWMoW0NIMl0zKWMyQyg9TylbQ0BIXShDKFtDSDNdKShbQ0gzXSlbQ0gyXVtDSDJdNClONEMzNVtDSDJdW0NIMl1bQ0gyXVtDSDJdW0NIMl01

>  <s_epik_cmdline>  (103) 
J2VwaWtfcHl0aG9uJywgJy1waHQnLCAnMi4wJywgJy1waCcsICc3LjAnLCAnLXRuJywgJzgnLCAnLW1hJywgJzIwMCcsICctaW1hZScsICc8aW5maWxlLm1hZT4nLCAnLW9tYWUnLCAnPG91dGZpbGUubWFlPic=

>  <r_epik_Ionization_Penalty>  (103) 
0.0650384

>  <r_epik_Ionization_Penalty_Charging>  (103) 
0.0650384

>  <r_epik_Ionization_Penalty_Neutral>  (103) 
9.32342e-11

>  <r_epik_State_Penalty>  (103) 
0.0566931

>  <r_epik_Charging_Adjusted_Penalty>  (103) 
0.121732

>  <i_epik_Tot_Q>  (103) 
1

>  <i_epik_Tot_abs_Q>  (103) 
1

>  <s_lp_Force_Field>  (103) 
OPLS3e

>  <r_lp_Energy>  (103) 
55.9532

>  <b_lp_Chiralities_Consistent>  (103) 
1

>  <s_lp_Variant>  (103) 
27:0-1

>  <s_i_glide_gridfile>  (103) 
pfpi4k_grid

>  <i_i_glide_lignum>  (103) 
14

>  <i_i_glide_rotatable_bonds>  (103) 
0

>  <r_i_docking_score>  (103) 
-2.90422

>  <r_i_glide_ligand_efficiency>  (103) 
-0.111701

>  <r_i_glide_ligand_efficiency_sa>  (103) 
-0.330913

>  <r_i_glide_ligand_efficiency_ln>  (103) 
-0.682046

>  <r_i_glide_gscore>  (103) 
-2.90422

>  <r_i_glide_lipo>  (103) 
-0.384982

>  <r_i_glide_hbond>  (103) 
0

>  <r_i_glide_metal>  (103) 
-0

>  <r_i_glide_rewards>  (103) 
-0.999015

>  <r_i_glide_evdw>  (103) 
-23.4702

>  <r_i_glide_ecoul>  (103) 
-2.07235

>  <r_i_glide_erotb>  (103) 
0

>  <r_i_glide_esite>  (103) 
-0.035856

>  <r_i_glide_emodel>  (103) 
-31.2482

>  <r_i_glide_energy>  (103) 
-25.5426

>  <r_i_glide_einternal>  (103) 
0

>  <r_i_glide_intrahb_reward>  (103) 
-0

>  <i_i_glide_confnum>  (103) 
1

>  <i_i_glide_posenum>  (103) 
6

>  <r_i_glide_eff_state_penalty>  (103) 
0

>  <ligand_id>  (103) 
27

>  <original_smiles>  (103) 
Cc1nc2cc3c(cc2o1)C(=O)C1N(CCC1(C)C)C1(CCCCC1)C3

>  <smiles>  (103) 
[H]c1c2c(c([H])c3oc(C([H])([H])[H])nc13)C(=O)C1([H])C(C([H])([H])[H])(C([H])([H])[H])C([H])([H])C([H])([H])[N+]1([H])C1(C2([H])[H])C([H])([H])C([H])([H])C([H])([H])C([H])([H])C1([H])[H]

$$$$
27:0:2
     RDKit          3D

 55 59  0  0  1  0  0  0  0  0999 V2000
    5.4471   -1.7085   -0.7215 C   0  0  0  0  0  0  0  0  0  0  0  0
    4.8907   -2.9541   -0.1358 C   0  0  0  0  0  0  0  0  0  0  0  0
    5.3016   -4.2094   -0.3975 N   0  0  0  0  0  0  0  0  0  0  0  0
    4.4463   -4.9655    0.3893 C   0  0  0  0  0  0  0  0  0  0  0  0
    4.2854   -6.3479    0.5946 C   0  0  0  0  0  0  0  0  0  0  0  0
    3.2678   -6.8757    1.4347 C   0  0  0  0  0  0  0  0  0  0  0  0
    2.3867   -5.9949    2.1243 C   0  0  0  0  0  0  0  0  0  0  0  0
    2.5718   -4.5975    1.9711 C   0  0  0  0  0  0  0  0  0  0  0  0
    3.5705   -4.1090    1.1021 C   0  0  0  0  0  0  0  0  0  0  0  0
    3.8693   -2.8044    0.7699 O   0  0  0  0  0  0  0  0  0  0  0  0
    1.3022   -6.4813    3.0399 C   0  0  0  0  0  0  0  0  0  0  0  0
    0.8643   -5.7520    3.9351 O   0  0  0  0  0  0  0  0  0  0  0  0
    0.7534   -7.9209    2.8092 C   0  0  1  0  0  0  0  0  0  0  0  0
    1.6615   -8.9079    3.4641 N   0  0  2  0  0  0  0  0  0  0  0  0
    1.2619   -8.9710    4.9041 C   0  0  0  0  0  0  0  0  0  0  0  0
   -0.2137   -8.5215    4.9419 C   0  0  0  0  0  0  0  0  0  0  0  0
   -0.6008   -8.2363    3.4715 C   0  0  0  0  0  0  0  0  0  0  0  0
   -1.6980   -7.1552    3.3586 C   0  0  0  0  0  0  0  0  0  0  0  0
   -1.1624   -9.5147    2.8194 C   0  0  0  0  0  0  0  0  0  0  0  0
    3.0856   -8.9767    3.0280 C   0  0  0  0  0  0  0  0  0  0  0  0
    4.0541   -8.2963    4.0535 C   0  0  0  0  0  0  0  0  0  0  0  0
    5.5344   -8.4642    3.6677 C   0  0  0  0  0  0  0  0  0  0  0  0
    5.9267   -9.9500    3.5381 C   0  0  0  0  0  0  0  0  0  0  0  0
    5.0059  -10.7304    2.5845 C   0  0  0  0  0  0  0  0  0  0  0  0
    3.5071  -10.4812    2.9402 C   0  0  0  0  0  0  0  0  0  0  0  0
    3.2208   -8.3877    1.5785 C   0  0  0  0  0  0  0  0  0  0  0  0
    6.2472   -1.9532   -1.4169 H   0  0  0  0  0  0  0  0  0  0  0  0
    5.8426   -1.0722    0.0722 H   0  0  0  0  0  0  0  0  0  0  0  0
    4.6666   -1.1634   -1.2547 H   0  0  0  0  0  0  0  0  0  0  0  0
    4.9695   -6.9998    0.0822 H   0  0  0  0  0  0  0  0  0  0  0  0
    1.9556   -3.8815    2.5020 H   0  0  0  0  0  0  0  0  0  0  0  0
    0.6708   -8.1203    1.7444 H   0  0  0  0  0  0  0  0  0  0  0  0
    1.3821   -9.9772    5.3122 H   0  0  0  0  0  0  0  0  0  0  0  0
    1.8279   -8.2886    5.5394 H   0  0  0  0  0  0  0  0  0  0  0  0
   -0.8541   -9.2746    5.4141 H   0  0  0  0  0  0  0  0  0  0  0  0
   -0.3015   -7.6185    5.5611 H   0  0  0  0  0  0  0  0  0  0  0  0
   -2.6647   -7.5472    3.6814 H   0  0  0  0  0  0  0  0  0  0  0  0
   -1.7975   -6.8370    2.3216 H   0  0  0  0  0  0  0  0  0  0  0  0
   -1.5073   -6.2817    3.9842 H   0  0  0  0  0  0  0  0  0  0  0  0
   -2.1058   -9.8195    3.2715 H   0  0  0  0  0  0  0  0  0  0  0  0
   -0.4800  -10.3621    2.9086 H   0  0  0  0  0  0  0  0  0  0  0  0
   -1.3588   -9.3562    1.7577 H   0  0  0  0  0  0  0  0  0  0  0  0
    3.8407   -7.2343    4.1871 H   0  0  0  0  0  0  0  0  0  0  0  0
    3.9519   -8.7333    5.0518 H   0  0  0  0  0  0  0  0  0  0  0  0
    5.7355   -7.9316    2.7381 H   0  0  0  0  0  0  0  0  0  0  0  0
    6.1616   -7.9767    4.4199 H   0  0  0  0  0  0  0  0  0  0  0  0
    6.9535  -10.0216    3.1895 H   0  0  0  0  0  0  0  0  0  0  0  0
    5.8825  -10.4164    4.5204 H   0  0  0  0  0  0  0  0  0  0  0  0
    5.2475  -10.4723    1.5497 H   0  0  0  0  0  0  0  0  0  0  0  0
    5.2205  -11.8100    2.6375 H   0  0  0  0  0  0  0  0  0  0  0  0
    3.3034  -10.9885    3.8907 H   0  0  0  0  0  0  0  0  0  0  0  0
    2.8837  -11.0023    2.2088 H   0  0  0  0  0  0  0  0  0  0  0  0
    2.4769   -8.8187    0.9013 H   0  0  0  0  0  0  0  0  0  0  0  0
    4.1639   -8.6954    1.1533 H   0  0  0  0  0  0  0  0  0  0  0  0
    1.2618   -9.7697    3.1154 H   0  0  0  0  0  0  0  0  0  0  0  0
  1  2  1  0
  1 27  1  0
  1 28  1  0
  1 29  1  0
  2 10  1  0
  2  3  2  0
  3  4  1  0
  4  9  2  0
  4  5  1  0
  5  6  2  0
  5 30  1  0
  6 26  1  0
  6  7  1  0
  7  8  2  0
  7 11  1  0
  8  9  1  0
  8 31  1  0
  9 10  1  0
 11 12  2  0
 11 13  1  0
 13 17  1  0
 13 14  1  0
 13 32  1  6
 14 15  1  0
 14 20  1  0
 14 55  1  6
 15 16  1  0
 15 33  1  0
 15 34  1  0
 16 17  1  0
 16 35  1  0
 16 36  1  0
 17 18  1  0
 17 19  1  0
 18 37  1  0
 18 38  1  0
 18 39  1  0
 19 40  1  0
 19 41  1  0
 19 42  1  0
 20 25  1  0
 20 21  1  0
 20 26  1  0
 21 22  1  0
 21 43  1  0
 21 44  1  0
 22 23  1  0
 22 45  1  0
 22 46  1  0
 23 24  1  0
 23 47  1  0
 23 48  1  0
 24 25  1  0
 24 49  1  0
 24 50  1  0
 25 51  1  0
 25 52  1  0
 26 53  1  0
 26 54  1  0
M  CHG  1  14   1
M  END
>  <i_m_ct_stereo_status>  (104) 
1

>  <s_m_source_file>  (104) 
/var/tmp/pbs.5102264.sched01/tmpeif0x8wq/23vm_sbjim.sdf

>  <i_m_source_file_index>  (104) 
14

>  <i_lp_mmshare_version>  (104) 
48012

>  <i_f3d_flags>  (104) 
0

>  <s_epik_input>  (104) 
W0NIM11jKG4xKW9jKFtjSF0yKWMxW2NIXWMoW0NIMl0zKWMyQyg9TylbQ0BIXShDKFtDSDNdKShbQ0gzXSlbQ0gyXVtDSDJdNClONEMzNVtDSDJdW0NIMl1bQ0gyXVtDSDJdW0NIMl01

>  <s_epik_cmdline>  (104) 
J2VwaWtfcHl0aG9uJywgJy1waHQnLCAnMi4wJywgJy1waCcsICc3LjAnLCAnLXRuJywgJzgnLCAnLW1hJywgJzIwMCcsICctaW1hZScsICc8aW5maWxlLm1hZT4nLCAnLW9tYWUnLCAnPG91dGZpbGUubWFlPic=

>  <r_epik_Ionization_Penalty>  (104) 
0.0650384

>  <r_epik_Ionization_Penalty_Charging>  (104) 
0.0650384

>  <r_epik_Ionization_Penalty_Neutral>  (104) 
9.32342e-11

>  <r_epik_State_Penalty>  (104) 
0.0566931

>  <r_epik_Charging_Adjusted_Penalty>  (104) 
0.121732

>  <i_epik_Tot_Q>  (104) 
1

>  <i_epik_Tot_abs_Q>  (104) 
1

>  <s_lp_Force_Field>  (104) 
OPLS3e

>  <r_lp_Energy>  (104) 
55.9532

>  <b_lp_Chiralities_Consistent>  (104) 
1

>  <s_lp_Variant>  (104) 
27:0-1

>  <s_i_glide_gridfile>  (104) 
pfpi4k_grid

>  <i_i_glide_lignum>  (104) 
14

>  <i_i_glide_rotatable_bonds>  (104) 
0

>  <r_i_docking_score>  (104) 
-2.81541

>  <r_i_glide_ligand_efficiency>  (104) 
-0.108285

>  <r_i_glide_ligand_efficiency_sa>  (104) 
-0.320794

>  <r_i_glide_ligand_efficiency_ln>  (104) 
-0.661191

>  <r_i_glide_gscore>  (104) 
-2.81541

>  <r_i_glide_lipo>  (104) 
-0.268813

>  <r_i_glide_hbond>  (104) 
0

>  <r_i_glide_metal>  (104) 
-0

>  <r_i_glide_rewards>  (104) 
-0.999015

>  <r_i_glide_evdw>  (104) 
-24.1053

>  <r_i_glide_ecoul>  (104) 
-2.04227

>  <r_i_glide_erotb>  (104) 
0

>  <r_i_glide_esite>  (104) 
-0.0359825

>  <r_i_glide_emodel>  (104) 
-31.6675

>  <r_i_glide_energy>  (104) 
-26.1475

>  <r_i_glide_einternal>  (104) 
0

>  <r_i_glide_intrahb_reward>  (104) 
-0

>  <i_i_glide_confnum>  (104) 
3

>  <i_i_glide_posenum>  (104) 
28

>  <r_i_glide_eff_state_penalty>  (104) 
0

>  <ligand_id>  (104) 
27

>  <original_smiles>  (104) 
Cc1nc2cc3c(cc2o1)C(=O)C1N(CCC1(C)C)C1(CCCCC1)C3

>  <smiles>  (104) 
[H]c1c2c(c([H])c3oc(C([H])([H])[H])nc13)C(=O)C1([H])C(C([H])([H])[H])(C([H])([H])[H])C([H])([H])C([H])([H])[N+]1([H])C1(C2([H])[H])C([H])([H])C([H])([H])C([H])([H])C([H])([H])C1([H])[H]

$$$$
27:1:0
     RDKit          3D

 54 58  0  0  1  0  0  0  0  0999 V2000
    7.8231   -2.6142    0.1707 C   0  0  0  0  0  0  0  0  0  0  0  0
    6.9690   -3.7985    0.4736 C   0  0  0  0  0  0  0  0  0  0  0  0
    7.3828   -5.0337    0.7810 N   0  0  0  0  0  0  0  0  0  0  0  0
    6.1955   -5.7208    0.9516 C   0  0  0  0  0  0  0  0  0  0  0  0
    5.8944   -7.0561    1.2820 C   0  0  0  0  0  0  0  0  0  0  0  0
    4.5515   -7.5023    1.3938 C   0  0  0  0  0  0  0  0  0  0  0  0
    3.4698   -6.5880    1.1998 C   0  0  0  0  0  0  0  0  0  0  0  0
    3.7730   -5.2489    0.8639 C   0  0  0  0  0  0  0  0  0  0  0  0
    5.1121   -4.8494    0.7429 C   0  0  0  0  0  0  0  0  0  0  0  0
    5.6191   -3.6125    0.4268 O   0  0  0  0  0  0  0  0  0  0  0  0
    2.0050   -6.9700    1.3163 C   0  0  0  0  0  0  0  0  0  0  0  0
    1.1562   -6.2541    0.7791 O   0  0  0  0  0  0  0  0  0  0  0  0
    1.6058   -8.2324    2.1467 C   0  0  1  0  0  0  0  0  0  0  0  0
    2.5123   -8.3335    3.3063 N   0  0  0  0  0  0  0  0  0  0  0  0
    1.7964   -8.0487    4.5516 C   0  0  0  0  0  0  0  0  0  0  0  0
    0.3900   -7.6071    4.0969 C   0  0  0  0  0  0  0  0  0  0  0  0
    0.1724   -8.3026    2.7549 C   0  0  0  0  0  0  0  0  0  0  0  0
   -0.9862   -7.6748    1.9459 C   0  0  0  0  0  0  0  0  0  0  0  0
   -0.2404   -9.7746    3.0000 C   0  0  0  0  0  0  0  0  0  0  0  0
    3.7267   -9.1661    3.1836 C   0  0  0  0  0  0  0  0  0  0  0  0
    3.3606  -10.6552    3.4074 C   0  0  0  0  0  0  0  0  0  0  0  0
    4.6018  -11.5633    3.3707 C   0  0  0  0  0  0  0  0  0  0  0  0
    5.6658  -11.1070    4.3880 C   0  0  0  0  0  0  0  0  0  0  0  0
    6.0421   -9.6198    4.2312 C   0  0  0  0  0  0  0  0  0  0  0  0
    4.7765   -8.7340    4.2497 C   0  0  0  0  0  0  0  0  0  0  0  0
    4.3075   -8.9676    1.7462 C   0  0  0  0  0  0  0  0  0  0  0  0
    8.8757   -2.8762    0.2440 H   0  0  0  0  0  0  0  0  0  0  0  0
    7.6150   -1.8016    0.8682 H   0  0  0  0  0  0  0  0  0  0  0  0
    7.6235   -2.2614   -0.8403 H   0  0  0  0  0  0  0  0  0  0  0  0
    6.7176   -7.7412    1.4450 H   0  0  0  0  0  0  0  0  0  0  0  0
    2.9894   -4.5222    0.6814 H   0  0  0  0  0  0  0  0  0  0  0  0
    1.7169   -9.0954    1.5040 H   0  0  0  0  0  0  0  0  0  0  0  0
    1.7327   -8.9271    5.1949 H   0  0  0  0  0  0  0  0  0  0  0  0
    2.2872   -7.2568    5.1177 H   0  0  0  0  0  0  0  0  0  0  0  0
   -0.3833   -7.8548    4.8303 H   0  0  0  0  0  0  0  0  0  0  0  0
    0.3715   -6.5257    3.9591 H   0  0  0  0  0  0  0  0  0  0  0  0
   -1.9563   -7.9304    2.3727 H   0  0  0  0  0  0  0  0  0  0  0  0
   -0.9785   -8.0229    0.9122 H   0  0  0  0  0  0  0  0  0  0  0  0
   -0.9388   -6.5885    1.9368 H   0  0  0  0  0  0  0  0  0  0  0  0
   -1.2152   -9.8244    3.4948 H   0  0  0  0  0  0  0  0  0  0  0  0
    0.4642  -10.3114    3.6367 H   0  0  0  0  0  0  0  0  0  0  0  0
   -0.3313  -10.3268    2.0633 H   0  0  0  0  0  0  0  0  0  0  0  0
    2.8618  -10.7824    4.3738 H   0  0  0  0  0  0  0  0  0  0  0  0
    2.6432  -10.9879    2.6535 H   0  0  0  0  0  0  0  0  0  0  0  0
    4.2986  -12.5956    3.5631 H   0  0  0  0  0  0  0  0  0  0  0  0
    5.0236  -11.5744    2.3684 H   0  0  0  0  0  0  0  0  0  0  0  0
    5.2838  -11.2802    5.3948 H   0  0  0  0  0  0  0  0  0  0  0  0
    6.5557  -11.7295    4.2738 H   0  0  0  0  0  0  0  0  0  0  0  0
    6.7235   -9.3246    5.0379 H   0  0  0  0  0  0  0  0  0  0  0  0
    6.5885   -9.4789    3.2973 H   0  0  0  0  0  0  0  0  0  0  0  0
    5.0586   -7.6886    4.1180 H   0  0  0  0  0  0  0  0  0  0  0  0
    4.3434   -8.7753    5.2516 H   0  0  0  0  0  0  0  0  0  0  0  0
    3.6747   -9.4273    0.9770 H   0  0  0  0  0  0  0  0  0  0  0  0
    5.2592   -9.4919    1.6353 H   0  0  0  0  0  0  0  0  0  0  0  0
  1  2  1  0
  1 27  1  0
  1 28  1  0
  1 29  1  0
  2 10  1  0
  2  3  2  0
  3  4  1  0
  4  9  2  0
  4  5  1  0
  5  6  2  0
  5 30  1  0
  6 26  1  0
  6  7  1  0
  7  8  2  0
  7 11  1  0
  8  9  1  0
  8 31  1  0
  9 10  1  0
 11 12  2  0
 11 13  1  0
 13 17  1  0
 13 14  1  0
 13 32  1  6
 14 15  1  0
 14 20  1  0
 15 16  1  0
 15 33  1  0
 15 34  1  0
 16 17  1  0
 16 35  1  0
 16 36  1  0
 17 18  1  0
 17 19  1  0
 18 37  1  0
 18 38  1  0
 18 39  1  0
 19 40  1  0
 19 41  1  0
 19 42  1  0
 20 25  1  0
 20 21  1  0
 20 26  1  0
 21 22  1  0
 21 43  1  0
 21 44  1  0
 22 23  1  0
 22 45  1  0
 22 46  1  0
 23 24  1  0
 23 47  1  0
 23 48  1  0
 24 25  1  0
 24 49  1  0
 24 50  1  0
 25 51  1  0
 25 52  1  0
 26 53  1  0
 26 54  1  0
M  END
>  <i_m_ct_stereo_status>  (105) 
1

>  <s_m_source_file>  (105) 
/var/tmp/pbs.5102264.sched01/tmpeif0x8wq/23vm_sbjim.sdf

>  <i_m_source_file_index>  (105) 
15

>  <i_lp_mmshare_version>  (105) 
48012

>  <i_f3d_flags>  (105) 
0

>  <s_epik_input>  (105) 
W0NIM11jKG4xKW9jKFtjSF0yKWMxW2NIXWMoW0NIMl0zKWMyQyg9TylbQ0BIXShDKFtDSDNdKShbQ0gzXSlbQ0gyXVtDSDJdNClONEMzNVtDSDJdW0NIMl1bQ0gyXVtDSDJdW0NIMl01

>  <s_epik_cmdline>  (105) 
J2VwaWtfcHl0aG9uJywgJy1waHQnLCAnMi4wJywgJy1waCcsICc3LjAnLCAnLXRuJywgJzgnLCAnLW1hJywgJzIwMCcsICctaW1hZScsICc8aW5maWxlLm1hZT4nLCAnLW9tYWUnLCAnPG91dGZpbGUubWFlPic=

>  <r_epik_Ionization_Penalty>  (105) 
1.34123

>  <r_epik_Ionization_Penalty_Charging>  (105) 
0

>  <r_epik_Ionization_Penalty_Neutral>  (105) 
1.34123

>  <r_epik_State_Penalty>  (105) 
1.41849

>  <r_epik_Charging_Adjusted_Penalty>  (105) 
1.41849

>  <i_epik_Tot_Q>  (105) 
0

>  <i_epik_Tot_abs_Q>  (105) 
0

>  <s_lp_Force_Field>  (105) 
OPLS3e

>  <r_lp_Energy>  (105) 
41.3439

>  <b_lp_Chiralities_Consistent>  (105) 
1

>  <s_lp_Variant>  (105) 
27:0-2

>  <s_i_glide_gridfile>  (105) 
pfpi4k_grid

>  <i_i_glide_lignum>  (105) 
15

>  <i_i_glide_rotatable_bonds>  (105) 
0

>  <r_i_docking_score>  (105) 
-3.48631

>  <r_i_glide_ligand_efficiency>  (105) 
-0.134089

>  <r_i_glide_ligand_efficiency_sa>  (105) 
-0.397238

>  <r_i_glide_ligand_efficiency_ln>  (105) 
-0.818748

>  <r_i_glide_gscore>  (105) 
-3.48631

>  <r_i_glide_lipo>  (105) 
-0.661489

>  <r_i_glide_hbond>  (105) 
-0.16

>  <r_i_glide_metal>  (105) 
-0

>  <r_i_glide_rewards>  (105) 
-1.00589

>  <r_i_glide_evdw>  (105) 
-25.2574

>  <r_i_glide_ecoul>  (105) 
-2.47234

>  <r_i_glide_erotb>  (105) 
0

>  <r_i_glide_esite>  (105) 
-0.0252117

>  <r_i_glide_emodel>  (105) 
-33.7845

>  <r_i_glide_energy>  (105) 
-27.7298

>  <r_i_glide_einternal>  (105) 
0

>  <r_i_glide_intrahb_reward>  (105) 
-0

>  <i_i_glide_confnum>  (105) 
4

>  <i_i_glide_posenum>  (105) 
18

>  <r_i_glide_eff_state_penalty>  (105) 
0

>  <ligand_id>  (105) 
27

>  <original_smiles>  (105) 
Cc1nc2cc3c(cc2o1)C(=O)C1N(CCC1(C)C)C1(CCCCC1)C3

>  <smiles>  (105) 
[H]c1c2c(c([H])c3oc(C([H])([H])[H])nc13)C(=O)C1([H])N(C([H])([H])C([H])([H])C1(C([H])([H])[H])C([H])([H])[H])C1(C2([H])[H])C([H])([H])C([H])([H])C([H])([H])C([H])([H])C1([H])[H]

$$$$
27:1:1
     RDKit          3D

 54 58  0  0  1  0  0  0  0  0999 V2000
    6.4960   -1.3030    0.5351 C   0  0  0  0  0  0  0  0  0  0  0  0
    5.9245   -2.6689    0.7088 C   0  0  0  0  0  0  0  0  0  0  0  0
    6.6017   -3.8306    0.7468 N   0  0  0  0  0  0  0  0  0  0  0  0
    5.5844   -4.7534    0.9298 C   0  0  0  0  0  0  0  0  0  0  0  0
    5.5747   -6.1581    1.0673 C   0  0  0  0  0  0  0  0  0  0  0  0
    4.3701   -6.8726    1.2457 C   0  0  0  0  0  0  0  0  0  0  0  0
    3.1164   -6.1778    1.3168 C   0  0  0  0  0  0  0  0  0  0  0  0
    3.1256   -4.7652    1.1945 C   0  0  0  0  0  0  0  0  0  0  0  0
    4.3468   -4.0944    0.9923 C   0  0  0  0  0  0  0  0  0  0  0  0
    4.5686   -2.7471    0.8459 O   0  0  0  0  0  0  0  0  0  0  0  0
    1.7828   -6.8617    1.5081 C   0  0  0  0  0  0  0  0  0  0  0  0
    0.7523   -6.2629    1.1794 O   0  0  0  0  0  0  0  0  0  0  0  0
    1.7355   -8.2758    2.1831 C   0  0  1  0  0  0  0  0  0  0  0  0
    2.8004   -8.3575    3.2031 N   0  0  0  0  0  0  0  0  0  0  0  0
    2.2215   -8.4127    4.5474 C   0  0  0  0  0  0  0  0  0  0  0  0
    0.7136   -8.2003    4.3267 C   0  0  0  0  0  0  0  0  0  0  0  0
    0.4367   -8.7217    2.9189 C   0  0  0  0  0  0  0  0  0  0  0  0
   -0.9182   -8.2248    2.3574 C   0  0  0  0  0  0  0  0  0  0  0  0
    0.3376  -10.2692    2.9596 C   0  0  0  0  0  0  0  0  0  0  0  0
    4.1210   -8.9048    2.8132 C   0  0  0  0  0  0  0  0  0  0  0  0
    4.0694  -10.4516    2.8307 C   0  0  0  0  0  0  0  0  0  0  0  0
    5.4429  -11.0743    2.5098 C   0  0  0  0  0  0  0  0  0  0  0  0
    6.5327  -10.5676    3.4720 C   0  0  0  0  0  0  0  0  0  0  0  0
    6.6072   -9.0280    3.5306 C   0  0  0  0  0  0  0  0  0  0  0  0
    5.2118   -8.4276    3.8224 C   0  0  0  0  0  0  0  0  0  0  0  0
    4.4422   -8.3889    1.3726 C   0  0  0  0  0  0  0  0  0  0  0  0
    7.5772   -1.3542    0.4483 H   0  0  0  0  0  0  0  0  0  0  0  0
    6.2502   -0.6659    1.3856 H   0  0  0  0  0  0  0  0  0  0  0  0
    6.0898   -0.8337   -0.3623 H   0  0  0  0  0  0  0  0  0  0  0  0
    6.5228   -6.6787    1.0339 H   0  0  0  0  0  0  0  0  0  0  0  0
    2.2097   -4.1871    1.2265 H   0  0  0  0  0  0  0  0  0  0  0  0
    1.9080   -9.0020    1.3986 H   0  0  0  0  0  0  0  0  0  0  0  0
    2.4161   -9.3697    5.0341 H   0  0  0  0  0  0  0  0  0  0  0  0
    2.6400   -7.6322    5.1871 H   0  0  0  0  0  0  0  0  0  0  0  0
    0.1088   -8.7046    5.0861 H   0  0  0  0  0  0  0  0  0  0  0  0
    0.4828   -7.1379    4.3738 H   0  0  0  0  0  0  0  0  0  0  0  0
   -1.7561   -8.7391    2.8325 H   0  0  0  0  0  0  0  0  0  0  0  0
   -0.9857   -8.4066    1.2834 H   0  0  0  0  0  0  0  0  0  0  0  0
   -1.0822   -7.1619    2.5362 H   0  0  0  0  0  0  0  0  0  0  0  0
   -0.5261  -10.5770    3.5591 H   0  0  0  0  0  0  0  0  0  0  0  0
    1.2179  -10.7323    3.4134 H   0  0  0  0  0  0  0  0  0  0  0  0
    0.2147  -10.6837    1.9579 H   0  0  0  0  0  0  0  0  0  0  0  0
    3.7372  -10.8131    3.8139 H   0  0  0  0  0  0  0  0  0  0  0  0
    3.3252  -10.8090    2.1150 H   0  0  0  0  0  0  0  0  0  0  0  0
    5.3531  -12.1648    2.5583 H   0  0  0  0  0  0  0  0  0  0  0  0
    5.7193  -10.8588    1.4782 H   0  0  0  0  0  0  0  0  0  0  0  0
    6.3277  -10.9613    4.4670 H   0  0  0  0  0  0  0  0  0  0  0  0
    7.4950  -10.9770    3.1583 H   0  0  0  0  0  0  0  0  0  0  0  0
    7.3211   -8.7287    4.3085 H   0  0  0  0  0  0  0  0  0  0  0  0
    6.9824   -8.6469    2.5768 H   0  0  0  0  0  0  0  0  0  0  0  0
    5.2780   -7.3423    3.8499 H   0  0  0  0  0  0  0  0  0  0  0  0
    4.9314   -8.7023    4.8451 H   0  0  0  0  0  0  0  0  0  0  0  0
    3.7922   -8.8573    0.6189 H   0  0  0  0  0  0  0  0  0  0  0  0
    5.4532   -8.6919    1.0778 H   0  0  0  0  0  0  0  0  0  0  0  0
  1  2  1  0
  1 27  1  0
  1 28  1  0
  1 29  1  0
  2 10  1  0
  2  3  2  0
  3  4  1  0
  4  9  2  0
  4  5  1  0
  5  6  2  0
  5 30  1  0
  6 26  1  0
  6  7  1  0
  7  8  2  0
  7 11  1  0
  8  9  1  0
  8 31  1  0
  9 10  1  0
 11 12  2  0
 11 13  1  0
 13 17  1  0
 13 14  1  0
 13 32  1  6
 14 15  1  0
 14 20  1  0
 15 16  1  0
 15 33  1  0
 15 34  1  0
 16 17  1  0
 16 35  1  0
 16 36  1  0
 17 18  1  0
 17 19  1  0
 18 37  1  0
 18 38  1  0
 18 39  1  0
 19 40  1  0
 19 41  1  0
 19 42  1  0
 20 25  1  0
 20 21  1  0
 20 26  1  0
 21 22  1  0
 21 43  1  0
 21 44  1  0
 22 23  1  0
 22 45  1  0
 22 46  1  0
 23 24  1  0
 23 47  1  0
 23 48  1  0
 24 25  1  0
 24 49  1  0
 24 50  1  0
 25 51  1  0
 25 52  1  0
 26 53  1  0
 26 54  1  0
M  END
>  <i_m_ct_stereo_status>  (106) 
1

>  <s_m_source_file>  (106) 
/var/tmp/pbs.5102264.sched01/tmpeif0x8wq/23vm_sbjim.sdf

>  <i_m_source_file_index>  (106) 
15

>  <i_lp_mmshare_version>  (106) 
48012

>  <i_f3d_flags>  (106) 
0

>  <s_epik_input>  (106) 
W0NIM11jKG4xKW9jKFtjSF0yKWMxW2NIXWMoW0NIMl0zKWMyQyg9TylbQ0BIXShDKFtDSDNdKShbQ0gzXSlbQ0gyXVtDSDJdNClONEMzNVtDSDJdW0NIMl1bQ0gyXVtDSDJdW0NIMl01

>  <s_epik_cmdline>  (106) 
J2VwaWtfcHl0aG9uJywgJy1waHQnLCAnMi4wJywgJy1waCcsICc3LjAnLCAnLXRuJywgJzgnLCAnLW1hJywgJzIwMCcsICctaW1hZScsICc8aW5maWxlLm1hZT4nLCAnLW9tYWUnLCAnPG91dGZpbGUubWFlPic=

>  <r_epik_Ionization_Penalty>  (106) 
1.34123

>  <r_epik_Ionization_Penalty_Charging>  (106) 
0

>  <r_epik_Ionization_Penalty_Neutral>  (106) 
1.34123

>  <r_epik_State_Penalty>  (106) 
1.41849

>  <r_epik_Charging_Adjusted_Penalty>  (106) 
1.41849

>  <i_epik_Tot_Q>  (106) 
0

>  <i_epik_Tot_abs_Q>  (106) 
0

>  <s_lp_Force_Field>  (106) 
OPLS3e

>  <r_lp_Energy>  (106) 
41.3439

>  <b_lp_Chiralities_Consistent>  (106) 
1

>  <s_lp_Variant>  (106) 
27:0-2

>  <s_i_glide_gridfile>  (106) 
pfpi4k_grid

>  <i_i_glide_lignum>  (106) 
15

>  <i_i_glide_rotatable_bonds>  (106) 
0

>  <r_i_docking_score>  (106) 
-3.43655

>  <r_i_glide_ligand_efficiency>  (106) 
-0.132175

>  <r_i_glide_ligand_efficiency_sa>  (106) 
-0.391568

>  <r_i_glide_ligand_efficiency_ln>  (106) 
-0.807062

>  <r_i_glide_gscore>  (106) 
-3.43655

>  <r_i_glide_lipo>  (106) 
-0.473032

>  <r_i_glide_hbond>  (106) 
-0.16

>  <r_i_glide_metal>  (106) 
-0

>  <r_i_glide_rewards>  (106) 
-1.00589

>  <r_i_glide_evdw>  (106) 
-25.502

>  <r_i_glide_ecoul>  (106) 
-3.25344

>  <r_i_glide_erotb>  (106) 
0

>  <r_i_glide_esite>  (106) 
-0.0345165

>  <r_i_glide_emodel>  (106) 
-34.6867

>  <r_i_glide_energy>  (106) 
-28.7554

>  <r_i_glide_einternal>  (106) 
0

>  <r_i_glide_intrahb_reward>  (106) 
-0

>  <i_i_glide_confnum>  (106) 
4

>  <i_i_glide_posenum>  (106) 
10

>  <r_i_glide_eff_state_penalty>  (106) 
0

>  <ligand_id>  (106) 
27

>  <original_smiles>  (106) 
Cc1nc2cc3c(cc2o1)C(=O)C1N(CCC1(C)C)C1(CCCCC1)C3

>  <smiles>  (106) 
[H]c1c2c(c([H])c3oc(C([H])([H])[H])nc13)C(=O)C1([H])N(C([H])([H])C([H])([H])C1(C([H])([H])[H])C([H])([H])[H])C1(C2([H])[H])C([H])([H])C([H])([H])C([H])([H])C([H])([H])C1([H])[H]

$$$$
27:1:2
     RDKit          3D

 54 58  0  0  1  0  0  0  0  0999 V2000
    7.7974   -3.0394   -0.3064 C   0  0  0  0  0  0  0  0  0  0  0  0
    6.8879   -4.1094    0.1960 C   0  0  0  0  0  0  0  0  0  0  0  0
    7.2472   -5.2675    0.7735 N   0  0  0  0  0  0  0  0  0  0  0  0
    6.0233   -5.8670    1.0180 C   0  0  0  0  0  0  0  0  0  0  0  0
    5.6525   -7.1020    1.5905 C   0  0  0  0  0  0  0  0  0  0  0  0
    4.2983   -7.4734    1.7326 C   0  0  0  0  0  0  0  0  0  0  0  0
    3.2574   -6.5830    1.3068 C   0  0  0  0  0  0  0  0  0  0  0  0
    3.6264   -5.3470    0.7251 C   0  0  0  0  0  0  0  0  0  0  0  0
    4.9857   -5.0247    0.5838 C   0  0  0  0  0  0  0  0  0  0  0  0
    5.5476   -3.8916    0.0478 O   0  0  0  0  0  0  0  0  0  0  0  0
    1.7865   -6.8915    1.4379 C   0  0  0  0  0  0  0  0  0  0  0  0
    0.9825   -6.2663    0.7396 O   0  0  0  0  0  0  0  0  0  0  0  0
    1.3064   -7.9327    2.5034 C   0  0  1  0  0  0  0  0  0  0  0  0
    2.1680   -7.8276    3.6939 N   0  0  0  0  0  0  0  0  0  0  0  0
    1.4215   -7.2762    4.8280 C   0  0  0  0  0  0  0  0  0  0  0  0
    0.0555   -6.8866    4.2385 C   0  0  0  0  0  0  0  0  0  0  0  0
   -0.1444   -7.8319    3.0567 C   0  0  0  0  0  0  0  0  0  0  0  0
   -1.2397   -7.3596    2.0834 C   0  0  0  0  0  0  0  0  0  0  0  0
   -0.6298   -9.2052    3.5754 C   0  0  0  0  0  0  0  0  0  0  0  0
    3.3515   -8.7113    3.7904 C   0  0  0  0  0  0  0  0  0  0  0  0
    2.9181  -10.1094    4.3007 C   0  0  0  0  0  0  0  0  0  0  0  0
    4.1234  -11.0465    4.4989 C   0  0  0  0  0  0  0  0  0  0  0  0
    5.1692  -10.4241    5.4464 C   0  0  0  0  0  0  0  0  0  0  0  0
    5.6117   -9.0101    5.0151 C   0  0  0  0  0  0  0  0  0  0  0  0
    4.3808   -8.1019    4.7937 C   0  0  0  0  0  0  0  0  0  0  0  0
    3.9792   -8.8251    2.3608 C   0  0  0  0  0  0  0  0  0  0  0  0
    8.8352   -3.3188   -0.1478 H   0  0  0  0  0  0  0  0  0  0  0  0
    7.6091   -2.0994    0.2135 H   0  0  0  0  0  0  0  0  0  0  0  0
    7.6465   -2.8813   -1.3754 H   0  0  0  0  0  0  0  0  0  0  0  0
    6.4388   -7.7665    1.9232 H   0  0  0  0  0  0  0  0  0  0  0  0
    2.8807   -4.6493    0.3603 H   0  0  0  0  0  0  0  0  0  0  0  0
    1.3958   -8.9129    2.0525 H   0  0  0  0  0  0  0  0  0  0  0  0
    1.3082   -8.0072    5.6299 H   0  0  0  0  0  0  0  0  0  0  0  0
    1.9294   -6.4056    5.2475 H   0  0  0  0  0  0  0  0  0  0  0  0
   -0.7511   -6.9578    4.9721 H   0  0  0  0  0  0  0  0  0  0  0  0
    0.0885   -5.8596    3.8831 H   0  0  0  0  0  0  0  0  0  0  0  0
   -2.2361   -7.4780    2.5122 H   0  0  0  0  0  0  0  0  0  0  0  0
   -1.1911   -7.9484    1.1663 H   0  0  0  0  0  0  0  0  0  0  0  0
   -1.1385   -6.3078    1.8260 H   0  0  0  0  0  0  0  0  0  0  0  0
   -1.6159   -9.0779    4.0353 H   0  0  0  0  0  0  0  0  0  0  0  0
    0.0311   -9.6289    4.3355 H   0  0  0  0  0  0  0  0  0  0  0  0
   -0.7197   -9.9273    2.7603 H   0  0  0  0  0  0  0  0  0  0  0  0
    2.3841  -10.0178    5.2555 H   0  0  0  0  0  0  0  0  0  0  0  0
    2.2092  -10.5635    3.6040 H   0  0  0  0  0  0  0  0  0  0  0  0
    3.7646  -12.0018    4.8962 H   0  0  0  0  0  0  0  0  0  0  0  0
    4.5630  -11.2889    3.5313 H   0  0  0  0  0  0  0  0  0  0  0  0
    4.7446  -10.3807    6.4496 H   0  0  0  0  0  0  0  0  0  0  0  0
    6.0355  -11.0859    5.4986 H   0  0  0  0  0  0  0  0  0  0  0  0
    6.2673   -8.5815    5.7845 H   0  0  0  0  0  0  0  0  0  0  0  0
    6.1935   -9.0788    4.0921 H   0  0  0  0  0  0  0  0  0  0  0  0
    4.7070   -7.1135    4.4754 H   0  0  0  0  0  0  0  0  0  0  0  0
    3.9096   -7.9247    5.7661 H   0  0  0  0  0  0  0  0  0  0  0  0
    3.3416   -9.4091    1.6802 H   0  0  0  0  0  0  0  0  0  0  0  0
    4.9154   -9.3931    2.4015 H   0  0  0  0  0  0  0  0  0  0  0  0
  1  2  1  0
  1 27  1  0
  1 28  1  0
  1 29  1  0
  2 10  1  0
  2  3  2  0
  3  4  1  0
  4  9  2  0
  4  5  1  0
  5  6  2  0
  5 30  1  0
  6 26  1  0
  6  7  1  0
  7  8  2  0
  7 11  1  0
  8  9  1  0
  8 31  1  0
  9 10  1  0
 11 12  2  0
 11 13  1  0
 13 17  1  0
 13 14  1  0
 13 32  1  6
 14 15  1  0
 14 20  1  0
 15 16  1  0
 15 33  1  0
 15 34  1  0
 16 17  1  0
 16 35  1  0
 16 36  1  0
 17 18  1  0
 17 19  1  0
 18 37  1  0
 18 38  1  0
 18 39  1  0
 19 40  1  0
 19 41  1  0
 19 42  1  0
 20 25  1  0
 20 21  1  0
 20 26  1  0
 21 22  1  0
 21 43  1  0
 21 44  1  0
 22 23  1  0
 22 45  1  0
 22 46  1  0
 23 24  1  0
 23 47  1  0
 23 48  1  0
 24 25  1  0
 24 49  1  0
 24 50  1  0
 25 51  1  0
 25 52  1  0
 26 53  1  0
 26 54  1  0
M  END
>  <i_m_ct_stereo_status>  (107) 
1

>  <s_m_source_file>  (107) 
/var/tmp/pbs.5102264.sched01/tmpeif0x8wq/23vm_sbjim.sdf

>  <i_m_source_file_index>  (107) 
15

>  <i_lp_mmshare_version>  (107) 
48012

>  <i_f3d_flags>  (107) 
0

>  <s_epik_input>  (107) 
W0NIM11jKG4xKW9jKFtjSF0yKWMxW2NIXWMoW0NIMl0zKWMyQyg9TylbQ0BIXShDKFtDSDNdKShbQ0gzXSlbQ0gyXVtDSDJdNClONEMzNVtDSDJdW0NIMl1bQ0gyXVtDSDJdW0NIMl01

>  <s_epik_cmdline>  (107) 
J2VwaWtfcHl0aG9uJywgJy1waHQnLCAnMi4wJywgJy1waCcsICc3LjAnLCAnLXRuJywgJzgnLCAnLW1hJywgJzIwMCcsICctaW1hZScsICc8aW5maWxlLm1hZT4nLCAnLW9tYWUnLCAnPG91dGZpbGUubWFlPic=

>  <r_epik_Ionization_Penalty>  (107) 
1.34123

>  <r_epik_Ionization_Penalty_Charging>  (107) 
0

>  <r_epik_Ionization_Penalty_Neutral>  (107) 
1.34123

>  <r_epik_State_Penalty>  (107) 
1.41849

>  <r_epik_Charging_Adjusted_Penalty>  (107) 
1.41849

>  <i_epik_Tot_Q>  (107) 
0

>  <i_epik_Tot_abs_Q>  (107) 
0

>  <s_lp_Force_Field>  (107) 
OPLS3e

>  <r_lp_Energy>  (107) 
41.3439

>  <b_lp_Chiralities_Consistent>  (107) 
1

>  <s_lp_Variant>  (107) 
27:0-2

>  <s_i_glide_gridfile>  (107) 
pfpi4k_grid

>  <i_i_glide_lignum>  (107) 
15

>  <i_i_glide_rotatable_bonds>  (107) 
0

>  <r_i_docking_score>  (107) 
-3.31427

>  <r_i_glide_ligand_efficiency>  (107) 
-0.127472

>  <r_i_glide_ligand_efficiency_sa>  (107) 
-0.377635

>  <r_i_glide_ligand_efficiency_ln>  (107) 
-0.778345

>  <r_i_glide_gscore>  (107) 
-3.31427

>  <r_i_glide_lipo>  (107) 
-0.574965

>  <r_i_glide_hbond>  (107) 
-0.16

>  <r_i_glide_metal>  (107) 
-0

>  <r_i_glide_rewards>  (107) 
-1.00589

>  <r_i_glide_evdw>  (107) 
-23.332

>  <r_i_glide_ecoul>  (107) 
-2.47812

>  <r_i_glide_erotb>  (107) 
0

>  <r_i_glide_esite>  (107) 
-0.0350966

>  <r_i_glide_emodel>  (107) 
-31.4324

>  <r_i_glide_energy>  (107) 
-25.8101

>  <r_i_glide_einternal>  (107) 
0

>  <r_i_glide_intrahb_reward>  (107) 
-0

>  <i_i_glide_confnum>  (107) 
4

>  <i_i_glide_posenum>  (107) 
20

>  <r_i_glide_eff_state_penalty>  (107) 
0

>  <ligand_id>  (107) 
27

>  <original_smiles>  (107) 
Cc1nc2cc3c(cc2o1)C(=O)C1N(CCC1(C)C)C1(CCCCC1)C3

>  <smiles>  (107) 
[H]c1c2c(c([H])c3oc(C([H])([H])[H])nc13)C(=O)C1([H])N(C([H])([H])C([H])([H])C1(C([H])([H])[H])C([H])([H])[H])C1(C2([H])[H])C([H])([H])C([H])([H])C([H])([H])C([H])([H])C1([H])[H]

$$$$
28:0:0
     RDKit          3D

 20 21  0  0  1  0  0  0  0  0999 V2000
   -6.5697   -4.7815   -4.0424 C   0  0  0  0  0  0  0  0  0  0  0  0
   -7.4063   -5.1453   -5.2528 C   0  0  0  0  0  0  0  0  0  0  0  0
   -8.4993   -4.3264   -5.6100 C   0  0  0  0  0  0  0  0  0  0  0  0
   -9.2963   -4.6292   -6.7310 C   0  0  0  0  0  0  0  0  0  0  0  0
   -8.9996   -5.7595   -7.5146 C   0  0  0  0  0  0  0  0  0  0  0  0
   -7.9137   -6.5775   -7.1528 C   0  0  0  0  0  0  0  0  0  0  0  0
   -7.3739   -7.7362   -7.6897 N   0  0  0  0  0  0  0  0  0  0  0  0
   -6.2920   -8.2028   -7.0150 N   0  0  0  0  0  0  0  0  0  0  0  0
   -6.1151   -7.3572   -6.0306 C   0  0  0  0  0  0  0  0  0  0  0  0
   -5.0568   -7.4846   -5.1254 N   0  0  0  0  0  0  0  0  0  0  0  0
   -7.0927   -6.2989   -6.0241 C   0  0  0  0  0  0  0  0  0  0  0  0
   -7.7083   -8.2264   -8.5080 H   0  0  0  0  0  0  0  0  0  0  0  0
   -6.9392   -3.8775   -3.5621 H   0  0  0  0  0  0  0  0  0  0  0  0
   -5.5353   -4.5957   -4.3343 H   0  0  0  0  0  0  0  0  0  0  0  0
   -6.5858   -5.5796   -3.2987 H   0  0  0  0  0  0  0  0  0  0  0  0
   -8.7357   -3.4562   -5.0158 H   0  0  0  0  0  0  0  0  0  0  0  0
  -10.1378   -3.9992   -6.9811 H   0  0  0  0  0  0  0  0  0  0  0  0
   -9.6071   -6.0115   -8.3683 H   0  0  0  0  0  0  0  0  0  0  0  0
   -4.9856   -6.8671   -4.3332 H   0  0  0  0  0  0  0  0  0  0  0  0
   -4.4330   -8.2824   -5.1462 H   0  0  0  0  0  0  0  0  0  0  0  0
  1  2  1  0
  1 13  1  0
  1 14  1  0
  1 15  1  0
  2 11  2  0
  2  3  1  0
  3  4  2  0
  3 16  1  0
  4  5  1  0
  4 17  1  0
  5  6  2  0
  5 18  1  0
  6 11  1  0
  6  7  1  0
  7 12  1  0
  7  8  1  0
  8  9  2  0
  9 10  1  0
  9 11  1  0
 10 19  1  0
 10 20  1  0
M  END
>  <i_m_ct_stereo_status>  (108) 
1

>  <s_m_source_file>  (108) 
/var/tmp/pbs.5102264.sched01/tmpeif0x8wq/23vm_sbjim.sdf

>  <i_m_source_file_index>  (108) 
16

>  <i_lp_mmshare_version>  (108) 
48012

>  <i_f3d_flags>  (108) 
0

>  <s_epik_input>  (108) 
W2NIXTFbY0hdW2NIXWMoW0NIM10pYyhjMTIpYyg9TlxbSF0pXFtuSF1bbkhdMg==

>  <s_epik_cmdline>  (108) 
J2VwaWtfcHl0aG9uJywgJy1waHQnLCAnMi4wJywgJy1waCcsICc3LjAnLCAnLXRuJywgJzgnLCAnLW1hJywgJzIwMCcsICctaW1hZScsICc8aW5maWxlLm1hZT4nLCAnLW9tYWUnLCAnPG91dGZpbGUubWFlPic=

>  <r_lp_tautomer_probability>  (108) 
1

>  <r_epik_Ionization_Penalty>  (108) 
0.000118439

>  <r_epik_Ionization_Penalty_Charging>  (108) 
0

>  <r_epik_Ionization_Penalty_Neutral>  (108) 
0.000118439

>  <r_epik_State_Penalty>  (108) 
-0

>  <r_epik_Charging_Adjusted_Penalty>  (108) 
0

>  <i_epik_Tot_Q>  (108) 
0

>  <i_epik_Tot_abs_Q>  (108) 
0

>  <s_lp_Force_Field>  (108) 
OPLS3e

>  <r_lp_Energy>  (108) 
9.93374

>  <b_lp_Chiralities_Consistent>  (108) 
1

>  <s_lp_Variant>  (108) 
28:0-1

>  <s_i_glide_gridfile>  (108) 
pfpi4k_grid

>  <i_i_glide_lignum>  (108) 
16

>  <i_i_glide_rotatable_bonds>  (108) 
0

>  <r_i_docking_score>  (108) 
-5.80126

>  <r_i_glide_ligand_efficiency>  (108) 
-0.527387

>  <r_i_glide_ligand_efficiency_sa>  (108) 
-1.1729

>  <r_i_glide_ligand_efficiency_ln>  (108) 
-1.70731

>  <r_i_glide_gscore>  (108) 
-5.80126

>  <r_i_glide_lipo>  (108) 
-2.15001

>  <r_i_glide_hbond>  (108) 
0

>  <r_i_glide_metal>  (108) 
-0

>  <r_i_glide_rewards>  (108) 
-2.52332

>  <r_i_glide_evdw>  (108) 
-21.6362

>  <r_i_glide_ecoul>  (108) 
-0.307445

>  <r_i_glide_erotb>  (108) 
0

>  <r_i_glide_esite>  (108) 
0

>  <r_i_glide_emodel>  (108) 
-29.6106

>  <r_i_glide_energy>  (108) 
-21.9437

>  <r_i_glide_einternal>  (108) 
0

>  <r_i_glide_intrahb_reward>  (108) 
-0

>  <i_i_glide_confnum>  (108) 
1

>  <i_i_glide_posenum>  (108) 
1

>  <r_i_glide_eff_state_penalty>  (108) 
0

>  <ligand_id>  (108) 
28

>  <original_smiles>  (108) 
Cc1cccc2[nH][nH]c(=N)c12

>  <smiles>  (108) 
[H]c1c([H])c([H])c2c(c(N([H])[H])nn2[H])c1C([H])([H])[H]

$$$$
28:0:1
     RDKit          3D

 20 21  0  0  1  0  0  0  0  0999 V2000
    5.3480   -1.1852    0.0425 C   0  0  0  0  0  0  0  0  0  0  0  0
    4.4688   -1.4469   -1.1679 C   0  0  0  0  0  0  0  0  0  0  0  0
    4.6192   -0.6535   -2.3233 C   0  0  0  0  0  0  0  0  0  0  0  0
    3.8317   -0.8679   -3.4738 C   0  0  0  0  0  0  0  0  0  0  0  0
    2.8648   -1.8845   -3.4652 C   0  0  0  0  0  0  0  0  0  0  0  0
    2.6934   -2.6586   -2.3030 C   0  0  0  0  0  0  0  0  0  0  0  0
    1.8190   -3.6729   -1.9546 N   0  0  0  0  0  0  0  0  0  0  0  0
    2.0352   -4.1866   -0.7151 N   0  0  0  0  0  0  0  0  0  0  0  0
    3.0026   -3.4614   -0.2124 C   0  0  0  0  0  0  0  0  0  0  0  0
    3.4734   -3.6619    1.0943 N   0  0  0  0  0  0  0  0  0  0  0  0
    3.4891   -2.4716   -1.1338 C   0  0  0  0  0  0  0  0  0  0  0  0
    1.1320   -4.0910   -2.5686 H   0  0  0  0  0  0  0  0  0  0  0  0
    6.0413   -0.3690   -0.1426 H   0  0  0  0  0  0  0  0  0  0  0  0
    5.9366   -2.0681    0.2976 H   0  0  0  0  0  0  0  0  0  0  0  0
    4.7478   -0.9060    0.9096 H   0  0  0  0  0  0  0  0  0  0  0  0
    5.3511    0.1356   -2.3229 H   0  0  0  0  0  0  0  0  0  0  0  0
    3.9560   -0.2440   -4.3504 H   0  0  0  0  0  0  0  0  0  0  0  0
    2.2237   -2.0546   -4.3177 H   0  0  0  0  0  0  0  0  0  0  0  0
    4.2140   -3.0897    1.4688 H   0  0  0  0  0  0  0  0  0  0  0  0
    3.0908   -4.3729    1.7006 H   0  0  0  0  0  0  0  0  0  0  0  0
  1  2  1  0
  1 13  1  0
  1 14  1  0
  1 15  1  0
  2 11  2  0
  2  3  1  0
  3  4  2  0
  3 16  1  0
  4  5  1  0
  4 17  1  0
  5  6  2  0
  5 18  1  0
  6 11  1  0
  6  7  1  0
  7 12  1  0
  7  8  1  0
  8  9  2  0
  9 10  1  0
  9 11  1  0
 10 19  1  0
 10 20  1  0
M  END
>  <i_m_ct_stereo_status>  (109) 
1

>  <s_m_source_file>  (109) 
/var/tmp/pbs.5102264.sched01/tmpeif0x8wq/23vm_sbjim.sdf

>  <i_m_source_file_index>  (109) 
16

>  <i_lp_mmshare_version>  (109) 
48012

>  <i_f3d_flags>  (109) 
0

>  <s_epik_input>  (109) 
W2NIXTFbY0hdW2NIXWMoW0NIM10pYyhjMTIpYyg9TlxbSF0pXFtuSF1bbkhdMg==

>  <s_epik_cmdline>  (109) 
J2VwaWtfcHl0aG9uJywgJy1waHQnLCAnMi4wJywgJy1waCcsICc3LjAnLCAnLXRuJywgJzgnLCAnLW1hJywgJzIwMCcsICctaW1hZScsICc8aW5maWxlLm1hZT4nLCAnLW9tYWUnLCAnPG91dGZpbGUubWFlPic=

>  <r_lp_tautomer_probability>  (109) 
1

>  <r_epik_Ionization_Penalty>  (109) 
0.000118439

>  <r_epik_Ionization_Penalty_Charging>  (109) 
0

>  <r_epik_Ionization_Penalty_Neutral>  (109) 
0.000118439

>  <r_epik_State_Penalty>  (109) 
-0

>  <r_epik_Charging_Adjusted_Penalty>  (109) 
0

>  <i_epik_Tot_Q>  (109) 
0

>  <i_epik_Tot_abs_Q>  (109) 
0

>  <s_lp_Force_Field>  (109) 
OPLS3e

>  <r_lp_Energy>  (109) 
9.93374

>  <b_lp_Chiralities_Consistent>  (109) 
1

>  <s_lp_Variant>  (109) 
28:0-1

>  <s_i_glide_gridfile>  (109) 
pfpi4k_grid

>  <i_i_glide_lignum>  (109) 
16

>  <i_i_glide_rotatable_bonds>  (109) 
0

>  <r_i_docking_score>  (109) 
-4.14469

>  <r_i_glide_ligand_efficiency>  (109) 
-0.37679

>  <r_i_glide_ligand_efficiency_sa>  (109) 
-0.837973

>  <r_i_glide_ligand_efficiency_ln>  (109) 
-1.21978

>  <r_i_glide_gscore>  (109) 
-4.14469

>  <r_i_glide_lipo>  (109) 
-0.381808

>  <r_i_glide_hbond>  (109) 
-0.32

>  <r_i_glide_metal>  (109) 
-0

>  <r_i_glide_rewards>  (109) 
-2.25

>  <r_i_glide_evdw>  (109) 
-13.5057

>  <r_i_glide_ecoul>  (109) 
-3.44839

>  <r_i_glide_erotb>  (109) 
0

>  <r_i_glide_esite>  (109) 
-0.000339208

>  <r_i_glide_emodel>  (109) 
-22.4262

>  <r_i_glide_energy>  (109) 
-16.9541

>  <r_i_glide_einternal>  (109) 
0

>  <r_i_glide_intrahb_reward>  (109) 
-0

>  <i_i_glide_confnum>  (109) 
1

>  <i_i_glide_posenum>  (109) 
4

>  <r_i_glide_eff_state_penalty>  (109) 
0

>  <ligand_id>  (109) 
28

>  <original_smiles>  (109) 
Cc1cccc2[nH][nH]c(=N)c12

>  <smiles>  (109) 
[H]c1c([H])c([H])c2c(c(N([H])[H])nn2[H])c1C([H])([H])[H]

$$$$
28:0:2
     RDKit          3D

 20 21  0  0  1  0  0  0  0  0999 V2000
   -1.3791   -0.1020    6.1544 C   0  0  0  0  0  0  0  0  0  0  0  0
   -0.8123    0.3744    4.8317 C   0  0  0  0  0  0  0  0  0  0  0  0
    0.0224   -0.4938    4.0887 C   0  0  0  0  0  0  0  0  0  0  0  0
    0.5757   -0.0862    2.8569 C   0  0  0  0  0  0  0  0  0  0  0  0
    0.2831    1.1941    2.3562 C   0  0  0  0  0  0  0  0  0  0  0  0
   -0.5482    2.0520    3.0961 C   0  0  0  0  0  0  0  0  0  0  0  0
   -0.9939    3.3424    2.8892 N   0  0  0  0  0  0  0  0  0  0  0  0
   -1.7931    3.8187    3.8848 N   0  0  0  0  0  0  0  0  0  0  0  0
   -1.8618    2.8343    4.7503 C   0  0  0  0  0  0  0  0  0  0  0  0
   -2.5863    2.9442    5.9419 N   0  0  0  0  0  0  0  0  0  0  0  0
   -1.1131    1.6753    4.3456 C   0  0  0  0  0  0  0  0  0  0  0  0
   -0.7412    3.9032    2.0642 H   0  0  0  0  0  0  0  0  0  0  0  0
   -1.0537   -1.1178    6.3776 H   0  0  0  0  0  0  0  0  0  0  0  0
   -2.4679   -0.0977    6.1233 H   0  0  0  0  0  0  0  0  0  0  0  0
   -1.0427    0.5347    6.9727 H   0  0  0  0  0  0  0  0  0  0  0  0
    0.2402   -1.4865    4.4587 H   0  0  0  0  0  0  0  0  0  0  0  0
    1.2006   -0.7605    2.2858 H   0  0  0  0  0  0  0  0  0  0  0  0
    0.6822    1.5179    1.4052 H   0  0  0  0  0  0  0  0  0  0  0  0
   -2.6353    2.1718    6.5883 H   0  0  0  0  0  0  0  0  0  0  0  0
   -3.1155    3.7705    6.1714 H   0  0  0  0  0  0  0  0  0  0  0  0
  1  2  1  0
  1 13  1  0
  1 14  1  0
  1 15  1  0
  2 11  2  0
  2  3  1  0
  3  4  2  0
  3 16  1  0
  4  5  1  0
  4 17  1  0
  5  6  2  0
  5 18  1  0
  6 11  1  0
  6  7  1  0
  7 12  1  0
  7  8  1  0
  8  9  2  0
  9 10  1  0
  9 11  1  0
 10 19  1  0
 10 20  1  0
M  END
>  <i_m_ct_stereo_status>  (110) 
1

>  <s_m_source_file>  (110) 
/var/tmp/pbs.5102264.sched01/tmpeif0x8wq/23vm_sbjim.sdf

>  <i_m_source_file_index>  (110) 
16

>  <i_lp_mmshare_version>  (110) 
48012

>  <i_f3d_flags>  (110) 
0

>  <s_epik_input>  (110) 
W2NIXTFbY0hdW2NIXWMoW0NIM10pYyhjMTIpYyg9TlxbSF0pXFtuSF1bbkhdMg==

>  <s_epik_cmdline>  (110) 
J2VwaWtfcHl0aG9uJywgJy1waHQnLCAnMi4wJywgJy1waCcsICc3LjAnLCAnLXRuJywgJzgnLCAnLW1hJywgJzIwMCcsICctaW1hZScsICc8aW5maWxlLm1hZT4nLCAnLW9tYWUnLCAnPG91dGZpbGUubWFlPic=

>  <r_lp_tautomer_probability>  (110) 
1

>  <r_epik_Ionization_Penalty>  (110) 
0.000118439

>  <r_epik_Ionization_Penalty_Charging>  (110) 
0

>  <r_epik_Ionization_Penalty_Neutral>  (110) 
0.000118439

>  <r_epik_State_Penalty>  (110) 
-0

>  <r_epik_Charging_Adjusted_Penalty>  (110) 
0

>  <i_epik_Tot_Q>  (110) 
0

>  <i_epik_Tot_abs_Q>  (110) 
0

>  <s_lp_Force_Field>  (110) 
OPLS3e

>  <r_lp_Energy>  (110) 
9.93374

>  <b_lp_Chiralities_Consistent>  (110) 
1

>  <s_lp_Variant>  (110) 
28:0-1

>  <s_i_glide_gridfile>  (110) 
pfpi4k_grid

>  <i_i_glide_lignum>  (110) 
16

>  <i_i_glide_rotatable_bonds>  (110) 
0

>  <r_i_docking_score>  (110) 
-3.71477

>  <r_i_glide_ligand_efficiency>  (110) 
-0.337706

>  <r_i_glide_ligand_efficiency_sa>  (110) 
-0.751051

>  <r_i_glide_ligand_efficiency_ln>  (110) 
-1.09325

>  <r_i_glide_gscore>  (110) 
-3.71477

>  <r_i_glide_lipo>  (110) 
0

>  <r_i_glide_hbond>  (110) 
-0.16

>  <r_i_glide_metal>  (110) 
-0

>  <r_i_glide_rewards>  (110) 
-2.25

>  <r_i_glide_evdw>  (110) 
-12.1107

>  <r_i_glide_ecoul>  (110) 
-3.99486

>  <r_i_glide_erotb>  (110) 
0

>  <r_i_glide_esite>  (110) 
-0.1

>  <r_i_glide_emodel>  (110) 
-21.0085

>  <r_i_glide_energy>  (110) 
-16.1056

>  <r_i_glide_einternal>  (110) 
0

>  <r_i_glide_intrahb_reward>  (110) 
-0

>  <i_i_glide_confnum>  (110) 
1

>  <i_i_glide_posenum>  (110) 
2

>  <r_i_glide_eff_state_penalty>  (110) 
0

>  <ligand_id>  (110) 
28

>  <original_smiles>  (110) 
Cc1cccc2[nH][nH]c(=N)c12

>  <smiles>  (110) 
[H]c1c([H])c([H])c2c(c(N([H])[H])nn2[H])c1C([H])([H])[H]

$$$$
29:0:0
     RDKit          3D

 50 53  0  0  1  0  0  0  0  0999 V2000
    1.2602   -6.1314    2.8004 C   0  0  0  0  0  0  0  0  0  0  0  0
    2.5438   -5.7375    2.8147 C   0  0  0  0  0  0  0  0  0  0  0  0
    3.6606   -6.5292    2.2968 C   0  0  0  0  0  0  0  0  0  0  0  0
    3.5941   -7.5962    1.6832 O   0  0  0  0  0  0  0  0  0  0  0  0
    4.9843   -5.8001    2.5564 C   0  0  2  0  0  0  0  0  0  0  0  0
    5.9409   -6.7490    3.0112 O   0  0  0  0  0  0  0  0  0  0  0  0
    4.5509   -4.9481    3.7851 C   0  0  1  0  0  0  0  0  0  0  0  0
    5.3927   -3.9181    4.2502 O   0  0  0  0  0  0  0  0  0  0  0  0
    3.1173   -4.5024    3.4652 C   0  0  1  0  0  0  0  0  0  0  0  0
    2.9630   -3.2643    2.5423 C   0  0  0  0  0  0  0  0  0  0  0  0
    4.0507   -2.8873    1.4834 C   0  0  1  0  0  0  0  0  0  0  0  0
    5.0890   -2.1447    2.1119 O   0  0  0  0  0  0  0  0  0  0  0  0
    5.0057   -0.8313    2.3980 C   0  0  0  0  0  0  0  0  0  0  0  0
    3.7978   -0.0671    1.8401 C   0  0  0  0  0  0  0  0  0  0  0  0
    5.8580   -0.2591    3.0756 O   0  0  0  0  0  0  0  0  0  0  0  0
    4.6341   -3.9842    0.5491 C   0  0  1  0  0  0  0  0  0  0  0  0
    3.4559   -4.6513   -0.1896 C   0  0  0  0  0  0  0  0  0  0  0  0
    5.5204   -3.3605   -0.6044 C   0  0  1  0  0  0  0  0  0  0  0  0
    4.8840   -2.3658   -1.5652 C   0  0  0  0  0  0  0  0  0  0  0  0
    4.2872   -2.6559   -2.8436 C   0  0  0  0  0  0  0  0  0  0  0  0
    3.8639   -1.4606   -3.3572 C   0  0  0  0  0  0  0  0  0  0  0  0
    4.2099   -0.4363   -2.5376 O   0  0  0  0  0  0  0  0  0  0  0  0
    4.8230   -1.0096   -1.4652 C   0  0  0  0  0  0  0  0  0  0  0  0
    6.7867   -2.8804   -0.1913 O   0  0  0  0  0  0  0  0  0  0  0  0
    7.6206   -3.7108    0.4370 C   0  0  0  0  0  0  0  0  0  0  0  0
    8.8344   -3.7302    0.2601 O   0  0  0  0  0  0  0  0  0  0  0  0
    6.9734   -4.5534    1.5293 C   0  0  0  0  0  0  0  0  0  0  0  0
    5.5421   -5.0677    1.2693 C   0  0  1  0  0  0  0  0  0  0  0  0
    0.4849   -5.5359    3.2482 H   0  0  0  0  0  0  0  0  0  0  0  0
    0.9744   -7.0665    2.3519 H   0  0  0  0  0  0  0  0  0  0  0  0
    6.7717   -6.3197    3.1648 H   0  0  0  0  0  0  0  0  0  0  0  0
    4.4619   -5.6322    4.6344 H   0  0  0  0  0  0  0  0  0  0  0  0
    6.1439   -4.3247    4.6556 H   0  0  0  0  0  0  0  0  0  0  0  0
    2.5698   -4.3144    4.3899 H   0  0  0  0  0  0  0  0  0  0  0  0
    2.0066   -3.3363    2.0191 H   0  0  0  0  0  0  0  0  0  0  0  0
    2.8365   -2.4158    3.2158 H   0  0  0  0  0  0  0  0  0  0  0  0
    3.5399   -2.2394    0.7783 H   0  0  0  0  0  0  0  0  0  0  0  0
    3.7096   -0.1732    0.7584 H   0  0  0  0  0  0  0  0  0  0  0  0
    3.8673    0.9988    2.0438 H   0  0  0  0  0  0  0  0  0  0  0  0
    2.8686   -0.4186    2.2932 H   0  0  0  0  0  0  0  0  0  0  0  0
    3.8349   -5.5250   -0.7113 H   0  0  0  0  0  0  0  0  0  0  0  0
    2.9944   -3.9975   -0.9243 H   0  0  0  0  0  0  0  0  0  0  0  0
    2.6252   -4.9604    0.4322 H   0  0  0  0  0  0  0  0  0  0  0  0
    5.7682   -4.1822   -1.2691 H   0  0  0  0  0  0  0  0  0  0  0  0
    4.1985   -3.6131   -3.3289 H   0  0  0  0  0  0  0  0  0  0  0  0
    3.3629   -1.1543   -4.2655 H   0  0  0  0  0  0  0  0  0  0  0  0
    5.1816   -0.2841   -0.7396 H   0  0  0  0  0  0  0  0  0  0  0  0
    7.6594   -5.3709    1.7463 H   0  0  0  0  0  0  0  0  0  0  0  0
    6.9361   -3.9082    2.3918 H   0  0  0  0  0  0  0  0  0  0  0  0
    5.6914   -5.8576    0.5284 H   0  0  0  0  0  0  0  0  0  0  0  0
  1  2  2  0
  1 29  1  0
  1 30  1  0
  2  9  1  0
  2  3  1  0
  3  4  2  0
  3  5  1  0
  5 28  1  0
  5  6  1  1
  5  7  1  0
  6 31  1  0
  7  8  1  0
  7  9  1  0
  7 32  1  1
  8 33  1  0
  9 10  1  0
  9 34  1  1
 10 11  1  0
 10 35  1  0
 10 36  1  0
 11 12  1  0
 11 16  1  0
 11 37  1  6
 12 13  1  0
 13 14  1  0
 13 15  2  0
 14 38  1  0
 14 39  1  0
 14 40  1  0
 16 28  1  0
 16 17  1  6
 16 18  1  0
 17 41  1  0
 17 42  1  0
 17 43  1  0
 18 19  1  0
 18 24  1  0
 18 44  1  6
 19 23  2  0
 19 20  1  0
 20 21  2  0
 20 45  1  0
 21 22  1  0
 21 46  1  0
 22 23  1  0
 23 47  1  0
 24 25  1  0
 25 26  2  0
 25 27  1  0
 27 28  1  0
 27 48  1  0
 27 49  1  0
 28 50  1  6
M  END
>  <i_m_ct_stereo_status>  (111) 
1

>  <s_m_source_file>  (111) 
/var/tmp/pbs.5102264.sched01/tmpeif0x8wq/23vm_sbjim.sdf

>  <i_m_source_file_index>  (111) 
17

>  <i_lp_mmshare_version>  (111) 
48012

>  <i_f3d_flags>  (111) 
0

>  <s_epik_input>  (111) 
Tz1DMUMoPVtDSDJdKVtDQEBIXShbQ0BASF0yW09IXSlbQ0gyXVtDQEBIXShPQyg9TylbQ0gzXSlbQ0BdKFtDSDNdKShbQ0BASF0zW0NAXTEyW09IXSlbQ0BIXShPQyg9TylbQ0gyXTMpYzRbY0hdW2NIXW9bY0hdNA==

>  <s_epik_cmdline>  (111) 
J2VwaWtfcHl0aG9uJywgJy1waHQnLCAnMi4wJywgJy1waCcsICc3LjAnLCAnLXRuJywgJzgnLCAnLW1hJywgJzIwMCcsICctaW1hZScsICc8aW5maWxlLm1hZT4nLCAnLW9tYWUnLCAnPG91dGZpbGUubWFlPic=

>  <r_lp_tautomer_probability>  (111) 
1

>  <r_epik_Ionization_Penalty>  (111) 
5.57697e-06

>  <r_epik_Ionization_Penalty_Charging>  (111) 
0

>  <r_epik_Ionization_Penalty_Neutral>  (111) 
5.57697e-06

>  <r_epik_State_Penalty>  (111) 
-0

>  <r_epik_Charging_Adjusted_Penalty>  (111) 
0

>  <i_epik_Tot_Q>  (111) 
0

>  <i_epik_Tot_abs_Q>  (111) 
0

>  <s_epik_Chemistry_Notes>  (111) 
This compound has an ester and may undergo hydrolysis at high or low pH.

>  <s_lp_Force_Field>  (111) 
OPLS3e

>  <r_lp_Energy>  (111) 
36.7444

>  <b_lp_Chiralities_Consistent>  (111) 
1

>  <s_lp_Variant>  (111) 
29:0-1

>  <s_i_glide_gridfile>  (111) 
pfpi4k_grid

>  <i_i_glide_lignum>  (111) 
17

>  <i_i_glide_rotatable_bonds>  (111) 
5

>  <r_i_docking_score>  (111) 
-3.40407

>  <r_i_glide_ligand_efficiency>  (111) 
-0.121574

>  <r_i_glide_ligand_efficiency_sa>  (111) 
-0.36917

>  <r_i_glide_ligand_efficiency_ln>  (111) 
-0.78576

>  <r_i_glide_gscore>  (111) 
-3.40407

>  <r_i_glide_lipo>  (111) 
-0.521672

>  <r_i_glide_hbond>  (111) 
-0.0725984

>  <r_i_glide_metal>  (111) 
-0

>  <r_i_glide_rewards>  (111) 
-1.15387

>  <r_i_glide_evdw>  (111) 
-29.4227

>  <r_i_glide_ecoul>  (111) 
-2.93839

>  <r_i_glide_erotb>  (111) 
0.255958

>  <r_i_glide_esite>  (111) 
0

>  <r_i_glide_emodel>  (111) 
-35.8055

>  <r_i_glide_energy>  (111) 
-32.3611

>  <r_i_glide_einternal>  (111) 
5.92154

>  <r_i_glide_intrahb_reward>  (111) 
-0

>  <i_i_glide_confnum>  (111) 
5

>  <i_i_glide_posenum>  (111) 
13

>  <r_i_glide_eff_state_penalty>  (111) 
0

>  <ligand_id>  (111) 
29

>  <original_smiles>  (111) 
C=C1C(=O)C2(O)C(O)C1CC(OC(C)=O)C1(C)C(c3ccoc3)OC(=O)CC21

>  <smiles>  (111) 
[H]OC1([H])C2([H])C(=C([H])[H])C(=O)C1(O[H])C1([H])C([H])([H])C(=O)OC([H])(c3c([H])oc([H])c3[H])C1(C([H])([H])[H])C([H])(OC(=O)C([H])([H])[H])C2([H])[H]

$$$$
29:0:1
     RDKit          3D

 50 53  0  0  1  0  0  0  0  0999 V2000
    4.9041   -3.4468   -3.3612 C   0  0  0  0  0  0  0  0  0  0  0  0
    5.0395   -3.0097   -2.0924 C   0  0  0  0  0  0  0  0  0  0  0  0
    4.3205   -1.8815   -1.5225 C   0  0  0  0  0  0  0  0  0  0  0  0
    3.4873   -1.1727   -2.1094 O   0  0  0  0  0  0  0  0  0  0  0  0
    4.7402   -1.6664   -0.0658 C   0  0  2  0  0  0  0  0  0  0  0  0
    4.8550   -0.2769    0.1725 O   0  0  0  0  0  0  0  0  0  0  0  0
    6.1633   -2.3045   -0.1463 C   0  0  1  0  0  0  0  0  0  0  0  0
    6.8807   -2.5390    1.0380 O   0  0  0  0  0  0  0  0  0  0  0  0
    5.9954   -3.5238   -1.0466 C   0  0  1  0  0  0  0  0  0  0  0  0
    5.4503   -4.7924   -0.3391 C   0  0  0  0  0  0  0  0  0  0  0  0
    4.5197   -4.7205    0.8888 C   0  0  1  0  0  0  0  0  0  0  0  0
    5.3129   -4.5716    2.0763 O   0  0  0  0  0  0  0  0  0  0  0  0
    5.6533   -5.6107    2.8955 C   0  0  0  0  0  0  0  0  0  0  0  0
    5.3472   -7.0270    2.4157 C   0  0  0  0  0  0  0  0  0  0  0  0
    6.2082   -5.4409    3.9886 O   0  0  0  0  0  0  0  0  0  0  0  0
    3.2879   -3.7595    0.8922 C   0  0  1  0  0  0  0  0  0  0  0  0
    2.3790   -3.9854   -0.3625 C   0  0  0  0  0  0  0  0  0  0  0  0
    2.3799   -4.0626    2.1521 C   0  0  1  0  0  0  0  0  0  0  0  0
    1.8009   -5.4848    2.3108 C   0  0  0  0  0  0  0  0  0  0  0  0
    1.8216   -6.6234    1.4347 C   0  0  0  0  0  0  0  0  0  0  0  0
    1.0646   -7.5956    2.0146 C   0  0  0  0  0  0  0  0  0  0  0  0
    0.5731   -7.1740    3.2087 O   0  0  0  0  0  0  0  0  0  0  0  0
    1.0595   -5.9139    3.3848 C   0  0  0  0  0  0  0  0  0  0  0  0
    2.9008   -3.6010    3.3935 O   0  0  0  0  0  0  0  0  0  0  0  0
    3.2779   -2.3303    3.5509 C   0  0  0  0  0  0  0  0  0  0  0  0
    3.0700   -1.6737    4.5680 O   0  0  0  0  0  0  0  0  0  0  0  0
    4.1233   -1.7752    2.4057 C   0  0  0  0  0  0  0  0  0  0  0  0
    3.7045   -2.2360    0.9751 C   0  0  1  0  0  0  0  0  0  0  0  0
    5.4933   -4.2553   -3.7597 H   0  0  0  0  0  0  0  0  0  0  0  0
    4.2094   -2.9831   -4.0384 H   0  0  0  0  0  0  0  0  0  0  0  0
    3.9977    0.1033    0.0439 H   0  0  0  0  0  0  0  0  0  0  0  0
    6.7746   -1.5950   -0.6999 H   0  0  0  0  0  0  0  0  0  0  0  0
    6.3762   -3.1327    1.5742 H   0  0  0  0  0  0  0  0  0  0  0  0
    6.9436   -3.7586   -1.5288 H   0  0  0  0  0  0  0  0  0  0  0  0
    4.9409   -5.3939   -1.0854 H   0  0  0  0  0  0  0  0  0  0  0  0
    6.3066   -5.3967   -0.0446 H   0  0  0  0  0  0  0  0  0  0  0  0
    4.0797   -5.7019    0.9034 H   0  0  0  0  0  0  0  0  0  0  0  0
    4.2765   -7.1533    2.2271 H   0  0  0  0  0  0  0  0  0  0  0  0
    5.6682   -7.7735    3.1418 H   0  0  0  0  0  0  0  0  0  0  0  0
    5.8901   -7.2179    1.4912 H   0  0  0  0  0  0  0  0  0  0  0  0
    1.7186   -3.1139   -0.4855 H   0  0  0  0  0  0  0  0  0  0  0  0
    1.7940   -4.9003   -0.3386 H   0  0  0  0  0  0  0  0  0  0  0  0
    2.9408   -4.0515   -1.2873 H   0  0  0  0  0  0  0  0  0  0  0  0
    1.4998   -3.4254    2.0521 H   0  0  0  0  0  0  0  0  0  0  0  0
    2.3148   -6.7207    0.4733 H   0  0  0  0  0  0  0  0  0  0  0  0
    0.7708   -8.5943    1.7162 H   0  0  0  0  0  0  0  0  0  0  0  0
    0.7714   -5.4525    4.3196 H   0  0  0  0  0  0  0  0  0  0  0  0
    4.0762   -0.6860    2.4987 H   0  0  0  0  0  0  0  0  0  0  0  0
    5.1464   -2.0580    2.6569 H   0  0  0  0  0  0  0  0  0  0  0  0
    2.7747   -1.6728    0.8078 H   0  0  0  0  0  0  0  0  0  0  0  0
  1  2  2  0
  1 29  1  0
  1 30  1  0
  2  9  1  0
  2  3  1  0
  3  4  2  0
  3  5  1  0
  5 28  1  0
  5  6  1  1
  5  7  1  0
  6 31  1  0
  7  8  1  0
  7  9  1  0
  7 32  1  6
  8 33  1  0
  9 10  1  0
  9 34  1  6
 10 11  1  0
 10 35  1  0
 10 36  1  0
 11 12  1  0
 11 16  1  0
 11 37  1  1
 12 13  1  0
 13 14  1  0
 13 15  2  0
 14 38  1  0
 14 39  1  0
 14 40  1  0
 16 28  1  0
 16 17  1  6
 16 18  1  0
 17 41  1  0
 17 42  1  0
 17 43  1  0
 18 19  1  0
 18 24  1  0
 18 44  1  6
 19 23  2  0
 19 20  1  0
 20 21  2  0
 20 45  1  0
 21 22  1  0
 21 46  1  0
 22 23  1  0
 23 47  1  0
 24 25  1  0
 25 26  2  0
 25 27  1  0
 27 28  1  0
 27 48  1  0
 27 49  1  0
 28 50  1  6
M  END
>  <i_m_ct_stereo_status>  (112) 
1

>  <s_m_source_file>  (112) 
/var/tmp/pbs.5102264.sched01/tmpeif0x8wq/23vm_sbjim.sdf

>  <i_m_source_file_index>  (112) 
17

>  <i_lp_mmshare_version>  (112) 
48012

>  <i_f3d_flags>  (112) 
0

>  <s_epik_input>  (112) 
Tz1DMUMoPVtDSDJdKVtDQEBIXShbQ0BASF0yW09IXSlbQ0gyXVtDQEBIXShPQyg9TylbQ0gzXSlbQ0BdKFtDSDNdKShbQ0BASF0zW0NAXTEyW09IXSlbQ0BIXShPQyg9TylbQ0gyXTMpYzRbY0hdW2NIXW9bY0hdNA==

>  <s_epik_cmdline>  (112) 
J2VwaWtfcHl0aG9uJywgJy1waHQnLCAnMi4wJywgJy1waCcsICc3LjAnLCAnLXRuJywgJzgnLCAnLW1hJywgJzIwMCcsICctaW1hZScsICc8aW5maWxlLm1hZT4nLCAnLW9tYWUnLCAnPG91dGZpbGUubWFlPic=

>  <r_lp_tautomer_probability>  (112) 
1

>  <r_epik_Ionization_Penalty>  (112) 
5.57697e-06

>  <r_epik_Ionization_Penalty_Charging>  (112) 
0

>  <r_epik_Ionization_Penalty_Neutral>  (112) 
5.57697e-06

>  <r_epik_State_Penalty>  (112) 
-0

>  <r_epik_Charging_Adjusted_Penalty>  (112) 
0

>  <i_epik_Tot_Q>  (112) 
0

>  <i_epik_Tot_abs_Q>  (112) 
0

>  <s_epik_Chemistry_Notes>  (112) 
This compound has an ester and may undergo hydrolysis at high or low pH.

>  <s_lp_Force_Field>  (112) 
OPLS3e

>  <r_lp_Energy>  (112) 
36.7444

>  <b_lp_Chiralities_Consistent>  (112) 
1

>  <s_lp_Variant>  (112) 
29:0-1

>  <s_i_glide_gridfile>  (112) 
pfpi4k_grid

>  <i_i_glide_lignum>  (112) 
17

>  <i_i_glide_rotatable_bonds>  (112) 
5

>  <r_i_docking_score>  (112) 
-3.04791

>  <r_i_glide_ligand_efficiency>  (112) 
-0.108854

>  <r_i_glide_ligand_efficiency_sa>  (112) 
-0.330545

>  <r_i_glide_ligand_efficiency_ln>  (112) 
-0.703547

>  <r_i_glide_gscore>  (112) 
-3.04791

>  <r_i_glide_lipo>  (112) 
-0.482763

>  <r_i_glide_hbond>  (112) 
0

>  <r_i_glide_metal>  (112) 
-0

>  <r_i_glide_rewards>  (112) 
-1.26003

>  <r_i_glide_evdw>  (112) 
-27.5712

>  <r_i_glide_ecoul>  (112) 
-0.983542

>  <r_i_glide_erotb>  (112) 
0.255958

>  <r_i_glide_esite>  (112) 
-0.0349885

>  <r_i_glide_emodel>  (112) 
-34.9645

>  <r_i_glide_energy>  (112) 
-28.5547

>  <r_i_glide_einternal>  (112) 
8.41519

>  <r_i_glide_intrahb_reward>  (112) 
-0.5

>  <i_i_glide_confnum>  (112) 
5

>  <i_i_glide_posenum>  (112) 
27

>  <r_i_glide_eff_state_penalty>  (112) 
0

>  <ligand_id>  (112) 
29

>  <original_smiles>  (112) 
C=C1C(=O)C2(O)C(O)C1CC(OC(C)=O)C1(C)C(c3ccoc3)OC(=O)CC21

>  <smiles>  (112) 
[H]OC1([H])C2([H])C(=C([H])[H])C(=O)C1(O[H])C1([H])C([H])([H])C(=O)OC([H])(c3c([H])oc([H])c3[H])C1(C([H])([H])[H])C([H])(OC(=O)C([H])([H])[H])C2([H])[H]

$$$$
29:0:2
     RDKit          3D

 50 53  0  0  1  0  0  0  0  0999 V2000
    3.3411   -3.0559   -1.8077 C   0  0  0  0  0  0  0  0  0  0  0  0
    3.9904   -2.8653   -0.6470 C   0  0  0  0  0  0  0  0  0  0  0  0
    5.0374   -1.8607   -0.4651 C   0  0  0  0  0  0  0  0  0  0  0  0
    5.4449   -1.0539   -1.3010 O   0  0  0  0  0  0  0  0  0  0  0  0
    5.6020   -1.9582    0.9544 C   0  0  2  0  0  0  0  0  0  0  0  0
    7.0100   -1.7845    0.8693 O   0  0  0  0  0  0  0  0  0  0  0  0
    5.2849   -3.4502    1.2459 C   0  0  1  0  0  0  0  0  0  0  0  0
    5.4356   -3.9465    2.5566 O   0  0  0  0  0  0  0  0  0  0  0  0
    3.8972   -3.6792    0.6256 C   0  0  1  0  0  0  0  0  0  0  0  0
    2.6692   -3.2635    1.4903 C   0  0  0  0  0  0  0  0  0  0  0  0
    2.7668   -2.1334    2.5634 C   0  0  1  0  0  0  0  0  0  0  0  0
    3.3569   -2.6598    3.7509 O   0  0  0  0  0  0  0  0  0  0  0  0
    2.6088   -3.2008    4.7290 C   0  0  0  0  0  0  0  0  0  0  0  0
    3.4567   -3.6382    5.9168 C   0  0  0  0  0  0  0  0  0  0  0  0
    1.3870   -3.3450    4.7129 O   0  0  0  0  0  0  0  0  0  0  0  0
    3.4452   -0.7803    2.1718 C   0  0  1  0  0  0  0  0  0  0  0  0
    2.7757   -0.1993    0.9145 C   0  0  0  0  0  0  0  0  0  0  0  0
    3.2138    0.3284    3.2680 C   0  0  1  0  0  0  0  0  0  0  0  0
    1.7785    0.7001    3.6134 C   0  0  0  0  0  0  0  0  0  0  0  0
    0.9234    1.6035    2.9085 C   0  0  0  0  0  0  0  0  0  0  0  0
   -0.2569    1.6525    3.5937 C   0  0  0  0  0  0  0  0  0  0  0  0
   -0.1973    0.8721    4.7045 O   0  0  0  0  0  0  0  0  0  0  0  0
    1.0429    0.3066    4.6985 C   0  0  0  0  0  0  0  0  0  0  0  0
    3.9659    0.1386    4.4514 O   0  0  0  0  0  0  0  0  0  0  0  0
    5.2909    0.0451    4.3680 C   0  0  0  0  0  0  0  0  0  0  0  0
    6.0675    0.5352    5.1775 O   0  0  0  0  0  0  0  0  0  0  0  0
    5.7915   -0.8768    3.2648 C   0  0  0  0  0  0  0  0  0  0  0  0
    5.0085   -0.8702    1.9380 C   0  0  1  0  0  0  0  0  0  0  0  0
    2.6141   -3.8426   -1.9247 H   0  0  0  0  0  0  0  0  0  0  0  0
    3.5312   -2.4406   -2.6694 H   0  0  0  0  0  0  0  0  0  0  0  0
    7.3849   -2.5275    0.4192 H   0  0  0  0  0  0  0  0  0  0  0  0
    5.9821   -4.0507    0.6562 H   0  0  0  0  0  0  0  0  0  0  0  0
    4.8238   -3.4857    3.1156 H   0  0  0  0  0  0  0  0  0  0  0  0
    3.7896   -4.7272    0.3424 H   0  0  0  0  0  0  0  0  0  0  0  0
    1.8636   -3.0021    0.8026 H   0  0  0  0  0  0  0  0  0  0  0  0
    2.3168   -4.1607    2.0015 H   0  0  0  0  0  0  0  0  0  0  0  0
    1.7308   -1.8780    2.7975 H   0  0  0  0  0  0  0  0  0  0  0  0
    4.2540   -4.3055    5.5901 H   0  0  0  0  0  0  0  0  0  0  0  0
    2.8497   -4.1658    6.6517 H   0  0  0  0  0  0  0  0  0  0  0  0
    3.9099   -2.7741    6.4035 H   0  0  0  0  0  0  0  0  0  0  0  0
    3.3293    0.6776    0.5777 H   0  0  0  0  0  0  0  0  0  0  0  0
    1.7401    0.0891    1.0714 H   0  0  0  0  0  0  0  0  0  0  0  0
    2.6945   -0.8847    0.0844 H   0  0  0  0  0  0  0  0  0  0  0  0
    3.6074    1.2590    2.8599 H   0  0  0  0  0  0  0  0  0  0  0  0
    1.1320    2.1577    2.0039 H   0  0  0  0  0  0  0  0  0  0  0  0
   -1.1828    2.1818    3.4350 H   0  0  0  0  0  0  0  0  0  0  0  0
    1.2529   -0.3254    5.5504 H   0  0  0  0  0  0  0  0  0  0  0  0
    6.8299   -0.6130    3.0736 H   0  0  0  0  0  0  0  0  0  0  0  0
    5.7936   -1.8649    3.7125 H   0  0  0  0  0  0  0  0  0  0  0  0
    5.2899    0.0864    1.4912 H   0  0  0  0  0  0  0  0  0  0  0  0
  1  2  2  0
  1 29  1  0
  1 30  1  0
  2  9  1  0
  2  3  1  0
  3  4  2  0
  3  5  1  0
  5 28  1  0
  5  6  1  6
  5  7  1  0
  6 31  1  0
  7  8  1  0
  7  9  1  0
  7 32  1  6
  8 33  1  0
  9 10  1  0
  9 34  1  6
 10 11  1  0
 10 35  1  0
 10 36  1  0
 11 12  1  0
 11 16  1  0
 11 37  1  1
 12 13  1  0
 13 14  1  0
 13 15  2  0
 14 38  1  0
 14 39  1  0
 14 40  1  0
 16 28  1  0
 16 17  1  6
 16 18  1  0
 17 41  1  0
 17 42  1  0
 17 43  1  0
 18 19  1  0
 18 24  1  0
 18 44  1  6
 19 23  2  0
 19 20  1  0
 20 21  2  0
 20 45  1  0
 21 22  1  0
 21 46  1  0
 22 23  1  0
 23 47  1  0
 24 25  1  0
 25 26  2  0
 25 27  1  0
 27 28  1  0
 27 48  1  0
 27 49  1  0
 28 50  1  6
M  END
>  <i_m_ct_stereo_status>  (113) 
1

>  <s_m_source_file>  (113) 
/var/tmp/pbs.5102264.sched01/tmpeif0x8wq/23vm_sbjim.sdf

>  <i_m_source_file_index>  (113) 
17

>  <i_lp_mmshare_version>  (113) 
48012

>  <i_f3d_flags>  (113) 
0

>  <s_epik_input>  (113) 
Tz1DMUMoPVtDSDJdKVtDQEBIXShbQ0BASF0yW09IXSlbQ0gyXVtDQEBIXShPQyg9TylbQ0gzXSlbQ0BdKFtDSDNdKShbQ0BASF0zW0NAXTEyW09IXSlbQ0BIXShPQyg9TylbQ0gyXTMpYzRbY0hdW2NIXW9bY0hdNA==

>  <s_epik_cmdline>  (113) 
J2VwaWtfcHl0aG9uJywgJy1waHQnLCAnMi4wJywgJy1waCcsICc3LjAnLCAnLXRuJywgJzgnLCAnLW1hJywgJzIwMCcsICctaW1hZScsICc8aW5maWxlLm1hZT4nLCAnLW9tYWUnLCAnPG91dGZpbGUubWFlPic=

>  <r_lp_tautomer_probability>  (113) 
1

>  <r_epik_Ionization_Penalty>  (113) 
5.57697e-06

>  <r_epik_Ionization_Penalty_Charging>  (113) 
0

>  <r_epik_Ionization_Penalty_Neutral>  (113) 
5.57697e-06

>  <r_epik_State_Penalty>  (113) 
-0

>  <r_epik_Charging_Adjusted_Penalty>  (113) 
0

>  <i_epik_Tot_Q>  (113) 
0

>  <i_epik_Tot_abs_Q>  (113) 
0

>  <s_epik_Chemistry_Notes>  (113) 
This compound has an ester and may undergo hydrolysis at high or low pH.

>  <s_lp_Force_Field>  (113) 
OPLS3e

>  <r_lp_Energy>  (113) 
36.7444

>  <b_lp_Chiralities_Consistent>  (113) 
1

>  <s_lp_Variant>  (113) 
29:0-1

>  <s_i_glide_gridfile>  (113) 
pfpi4k_grid

>  <i_i_glide_lignum>  (113) 
17

>  <i_i_glide_rotatable_bonds>  (113) 
5

>  <r_i_docking_score>  (113) 
-3.04236

>  <r_i_glide_ligand_efficiency>  (113) 
-0.108656

>  <r_i_glide_ligand_efficiency_sa>  (113) 
-0.329943

>  <r_i_glide_ligand_efficiency_ln>  (113) 
-0.702266

>  <r_i_glide_gscore>  (113) 
-3.04236

>  <r_i_glide_lipo>  (113) 
-0.355304

>  <r_i_glide_hbond>  (113) 
-0.00956927

>  <r_i_glide_metal>  (113) 
-0

>  <r_i_glide_rewards>  (113) 
-1.37369

>  <r_i_glide_evdw>  (113) 
-23.2463

>  <r_i_glide_ecoul>  (113) 
-2.53416

>  <r_i_glide_erotb>  (113) 
0.255958

>  <r_i_glide_esite>  (113) 
-0.0173132

>  <r_i_glide_emodel>  (113) 
-35.5859

>  <r_i_glide_energy>  (113) 
-25.7805

>  <r_i_glide_einternal>  (113) 
1.90514

>  <r_i_glide_intrahb_reward>  (113) 
-0.5

>  <i_i_glide_confnum>  (113) 
2

>  <i_i_glide_posenum>  (113) 
15

>  <r_i_glide_eff_state_penalty>  (113) 
0

>  <ligand_id>  (113) 
29

>  <original_smiles>  (113) 
C=C1C(=O)C2(O)C(O)C1CC(OC(C)=O)C1(C)C(c3ccoc3)OC(=O)CC21

>  <smiles>  (113) 
[H]OC1([H])C2([H])C(=C([H])[H])C(=O)C1(O[H])C1([H])C([H])([H])C(=O)OC([H])(c3c([H])oc([H])c3[H])C1(C([H])([H])[H])C([H])(OC(=O)C([H])([H])[H])C2([H])[H]

$$$$
30:0:0
     RDKit          3D

 36 39  0  0  1  0  0  0  0  0999 V2000
    3.0194   -1.1273   -2.2797 N   0  0  0  0  0  0  0  0  0  0  0  0
    3.6456   -2.1522   -1.4139 C   0  0  1  0  0  0  0  0  0  0  0  0
    5.0057   -2.5555   -1.9758 C   0  0  0  0  0  0  0  0  0  0  0  0
    5.9195   -3.3572   -1.0155 C   0  0  1  0  0  0  0  0  0  0  0  0
    6.6971   -2.4657   -0.0366 C   0  0  0  0  0  0  0  0  0  0  0  0
    5.9234   -1.9544    1.1823 C   0  0  1  0  0  0  0  0  0  0  0  0
    4.6391   -1.1418    0.9035 C   0  0  0  0  0  0  0  0  0  0  0  0
    3.5204   -1.8124    0.0884 C   0  0  2  0  0  0  0  0  0  0  0  0
    3.1324   -3.2841    0.3113 C   0  0  1  0  0  0  0  0  0  0  0  0
    2.6585   -3.2938   -1.1432 C   0  0  0  0  0  0  0  0  0  0  0  0
    4.1925   -4.3048    0.7344 C   0  0  2  0  0  0  0  0  0  0  0  0
    4.7308   -4.0155    2.1420 C   0  0  0  0  0  0  0  0  0  0  0  0
    5.7976   -2.9936    2.2292 N   0  0  0  0  0  0  0  0  0  0  0  0
    5.2801   -4.5885   -0.3305 C   0  0  0  0  0  0  0  0  0  0  0  0
    2.9096   -1.4838   -3.2194 H   0  0  0  0  0  0  0  0  0  0  0  0
    3.5791   -0.2936   -2.2820 H   0  0  0  0  0  0  0  0  0  0  0  0
    4.8488   -3.1606   -2.8679 H   0  0  0  0  0  0  0  0  0  0  0  0
    5.5441   -1.6749   -2.3209 H   0  0  0  0  0  0  0  0  0  0  0  0
    6.6850   -3.7682   -1.6759 H   0  0  0  0  0  0  0  0  0  0  0  0
    7.5750   -3.0172    0.3083 H   0  0  0  0  0  0  0  0  0  0  0  0
    7.0969   -1.6095   -0.5756 H   0  0  0  0  0  0  0  0  0  0  0  0
    6.6029   -1.2358    1.6425 H   0  0  0  0  0  0  0  0  0  0  0  0
    4.2326   -0.8035    1.8580 H   0  0  0  0  0  0  0  0  0  0  0  0
    4.9329   -0.2247    0.3937 H   0  0  0  0  0  0  0  0  0  0  0  0
    2.6242   -1.2264    0.2342 H   0  0  0  0  0  0  0  0  0  0  0  0
    2.2687   -3.3226    0.9775 H   0  0  0  0  0  0  0  0  0  0  0  0
    1.5977   -3.0627   -1.2229 H   0  0  0  0  0  0  0  0  0  0  0  0
    2.8591   -4.2206   -1.6684 H   0  0  0  0  0  0  0  0  0  0  0  0
    3.6647   -5.2520    0.8485 H   0  0  0  0  0  0  0  0  0  0  0  0
    3.9139   -3.7135    2.7956 H   0  0  0  0  0  0  0  0  0  0  0  0
    5.1376   -4.9328    2.5678 H   0  0  0  0  0  0  0  0  0  0  0  0
    6.6794   -3.4805    2.2549 H   0  0  0  0  0  0  0  0  0  0  0  0
    4.8460   -5.2175   -1.1111 H   0  0  0  0  0  0  0  0  0  0  0  0
    6.0626   -5.1984    0.1224 H   0  0  0  0  0  0  0  0  0  0  0  0
    2.0907   -0.9201   -1.8844 H   0  0  0  0  0  0  0  0  0  0  0  0
    5.6834   -2.5207    3.1129 H   0  0  0  0  0  0  0  0  0  0  0  0
  2  1  1  6
  1 15  1  0
  1 16  1  0
  1 35  1  0
  2  8  1  0
  2 10  1  0
  2  3  1  0
  3  4  1  0
  3 17  1  0
  3 18  1  0
  4 14  1  0
  4  5  1  0
  4 19  1  6
  5  6  1  0
  5 20  1  0
  5 21  1  0
  6 13  1  0
  6  7  1  0
  6 22  1  1
  7  8  1  0
  7 23  1  0
  7 24  1  0
  8  9  1  0
  8 25  1  6
  9 10  1  0
  9 11  1  0
  9 26  1  1
 10 27  1  0
 10 28  1  0
 11 12  1  0
 11 14  1  0
 11 29  1  1
 12 13  1  0
 12 30  1  0
 12 31  1  0
 13 32  1  0
 13 36  1  0
 14 33  1  0
 14 34  1  0
M  CHG  2   1   1  13   1
M  END
>  <i_m_ct_stereo_status>  (114) 
1

>  <s_m_source_file>  (114) 
/var/tmp/pbs.5102264.sched01/tmpeif0x8wq/23vm_sbjim.sdf

>  <i_m_source_file_index>  (114) 
18

>  <i_lp_mmshare_version>  (114) 
48012

>  <i_f3d_flags>  (114) 
0

>  <s_epik_input>  (114) 
W05IMl1bQ0BdMTJbQ0BIXTNbQ0BASF0oW0NIMl0yKVtDQEBIXTRbQ0gyXVtOSF1bQ0BIXShbQ0gyXTMpW0NIMl1bQ0BIXShbQ0gyXTEpW0NIMl00

>  <s_epik_cmdline>  (114) 
J2VwaWtfcHl0aG9uJywgJy1waHQnLCAnMi4wJywgJy1waCcsICc3LjAnLCAnLXRuJywgJzgnLCAnLW1hJywgJzIwMCcsICctaW1hZScsICc8aW5maWxlLm1hZT4nLCAnLW9tYWUnLCAnPG91dGZpbGUubWFlPic=

>  <r_epik_Ionization_Penalty>  (114) 
0.000930711

>  <r_epik_Ionization_Penalty_Charging>  (114) 
0.000930711

>  <r_epik_Ionization_Penalty_Neutral>  (114) 
0

>  <r_epik_State_Penalty>  (114) 
0.000576124

>  <r_epik_Charging_Adjusted_Penalty>  (114) 
0.00150684

>  <i_epik_Tot_Q>  (114) 
2

>  <i_epik_Tot_abs_Q>  (114) 
2

>  <s_lp_Force_Field>  (114) 
OPLS3e

>  <r_lp_Energy>  (114) 
54.4495

>  <b_lp_Chiralities_Consistent>  (114) 
1

>  <s_lp_Variant>  (114) 
30:0-1

>  <s_i_glide_gridfile>  (114) 
pfpi4k_grid

>  <i_i_glide_lignum>  (114) 
18

>  <i_i_glide_rotatable_bonds>  (114) 
0

>  <r_i_docking_score>  (114) 
-4.41813

>  <r_i_glide_ligand_efficiency>  (114) 
-0.31558

>  <r_i_glide_ligand_efficiency_sa>  (114) 
-0.760594

>  <r_i_glide_ligand_efficiency_ln>  (114) 
-1.21409

>  <r_i_glide_gscore>  (114) 
-4.41813

>  <r_i_glide_lipo>  (114) 
-0.457373

>  <r_i_glide_hbond>  (114) 
-0.2

>  <r_i_glide_metal>  (114) 
-0

>  <r_i_glide_rewards>  (114) 
-2.08421

>  <r_i_glide_evdw>  (114) 
-14.5513

>  <r_i_glide_ecoul>  (114) 
-5.8175

>  <r_i_glide_erotb>  (114) 
0

>  <r_i_glide_esite>  (114) 
-0.0763587

>  <r_i_glide_emodel>  (114) 
-27.0944

>  <r_i_glide_energy>  (114) 
-20.3688

>  <r_i_glide_einternal>  (114) 
0

>  <r_i_glide_intrahb_reward>  (114) 
-0

>  <i_i_glide_confnum>  (114) 
2

>  <i_i_glide_posenum>  (114) 
2

>  <r_i_glide_eff_state_penalty>  (114) 
0

>  <ligand_id>  (114) 
30

>  <original_smiles>  (114) 
NC12CC3CC4CC1C(C2)C(CN4)C3

>  <smiles>  (114) 
[H]C1([H])C2([H])C([H])([H])C3([N+]([H])([H])[H])C([H])([H])C4([H])C3([H])C([H])([H])C([H])(C2([H])[H])[N+]([H])([H])C([H])([H])C14[H]

$$$$
30:0:1
     RDKit          3D

 36 39  0  0  1  0  0  0  0  0999 V2000
    3.0359   -3.4410   -3.3664 N   0  0  0  0  0  0  0  0  0  0  0  0
    3.4616   -2.7946   -2.1193 C   0  0  1  0  0  0  0  0  0  0  0  0
    2.6733   -3.3976   -0.9617 C   0  0  0  0  0  0  0  0  0  0  0  0
    3.2053   -3.0838    0.4557 C   0  0  1  0  0  0  0  0  0  0  0  0
    4.3347   -4.0283    0.8811 C   0  0  0  0  0  0  0  0  0  0  0  0
    5.7224   -3.7174    0.3125 C   0  0  1  0  0  0  0  0  0  0  0  0
    5.8552   -3.6552   -1.2241 C   0  0  0  0  0  0  0  0  0  0  0  0
    4.9972   -2.6574   -2.0089 C   0  0  2  0  0  0  0  0  0  0  0  0
    4.7560   -1.2436   -1.4723 C   0  0  1  0  0  0  0  0  0  0  0  0
    3.4557   -1.2677   -2.2789 C   0  0  0  0  0  0  0  0  0  0  0  0
    4.7188   -0.9723    0.0384 C   0  0  2  0  0  0  0  0  0  0  0  0
    6.0820   -1.2269    0.7099 C   0  0  0  0  0  0  0  0  0  0  0  0
    6.3864   -2.6274    1.0479 N   0  0  0  0  0  0  0  0  0  0  0  0
    3.5159   -1.6013    0.7692 C   0  0  0  0  0  0  0  0  0  0  0  0
    2.0456   -3.2996   -3.4929 H   0  0  0  0  0  0  0  0  0  0  0  0
    3.2077   -4.4374   -3.2915 H   0  0  0  0  0  0  0  0  0  0  0  0
    1.6408   -3.0641   -1.0290 H   0  0  0  0  0  0  0  0  0  0  0  0
    2.6039   -4.4847   -1.0779 H   0  0  0  0  0  0  0  0  0  0  0  0
    2.3747   -3.3372    1.1115 H   0  0  0  0  0  0  0  0  0  0  0  0
    4.3881   -4.0434    1.9712 H   0  0  0  0  0  0  0  0  0  0  0  0
    4.0667   -5.0471    0.6021 H   0  0  0  0  0  0  0  0  0  0  0  0
    6.3067   -4.5822    0.5938 H   0  0  0  0  0  0  0  0  0  0  0  0
    6.9067   -3.4993   -1.4753 H   0  0  0  0  0  0  0  0  0  0  0  0
    5.6149   -4.6540   -1.5915 H   0  0  0  0  0  0  0  0  0  0  0  0
    5.4010   -2.5436   -3.0180 H   0  0  0  0  0  0  0  0  0  0  0  0
    5.4382   -0.5619   -1.9697 H   0  0  0  0  0  0  0  0  0  0  0  0
    3.6009   -0.9039   -3.3091 H   0  0  0  0  0  0  0  0  0  0  0  0
    2.6217   -0.7702   -1.8004 H   0  0  0  0  0  0  0  0  0  0  0  0
    4.5783    0.1043    0.1441 H   0  0  0  0  0  0  0  0  0  0  0  0
    6.8711   -0.8399    0.0766 H   0  0  0  0  0  0  0  0  0  0  0  0
    6.1400   -0.6494    1.6192 H   0  0  0  0  0  0  0  0  0  0  0  0
    6.1616   -2.7551    2.0263 H   0  0  0  0  0  0  0  0  0  0  0  0
    2.6227   -1.0130    0.5414 H   0  0  0  0  0  0  0  0  0  0  0  0
    3.6597   -1.4814    1.8437 H   0  0  0  0  0  0  0  0  0  0  0  0
    3.5255   -3.0415   -4.1467 H   0  0  0  0  0  0  0  0  0  0  0  0
    7.3841   -2.7503    0.9495 H   0  0  0  0  0  0  0  0  0  0  0  0
  2  1  1  6
  1 15  1  0
  1 16  1  0
  1 35  1  0
  2  8  1  0
  2 10  1  0
  2  3  1  0
  3  4  1  0
  3 17  1  0
  3 18  1  0
  4 14  1  0
  4  5  1  0
  4 19  1  1
  5  6  1  0
  5 20  1  0
  5 21  1  0
  6 13  1  0
  6  7  1  0
  6 22  1  1
  7  8  1  0
  7 23  1  0
  7 24  1  0
  8  9  1  0
  8 25  1  6
  9 10  1  0
  9 11  1  0
  9 26  1  6
 10 27  1  0
 10 28  1  0
 11 12  1  0
 11 14  1  0
 11 29  1  6
 12 13  1  0
 12 30  1  0
 12 31  1  0
 13 32  1  0
 13 36  1  0
 14 33  1  0
 14 34  1  0
M  CHG  2   1   1  13   1
M  END
>  <i_m_ct_stereo_status>  (115) 
1

>  <s_m_source_file>  (115) 
/var/tmp/pbs.5102264.sched01/tmpeif0x8wq/23vm_sbjim.sdf

>  <i_m_source_file_index>  (115) 
18

>  <i_lp_mmshare_version>  (115) 
48012

>  <i_f3d_flags>  (115) 
0

>  <s_epik_input>  (115) 
W05IMl1bQ0BdMTJbQ0BIXTNbQ0BASF0oW0NIMl0yKVtDQEBIXTRbQ0gyXVtOSF1bQ0BIXShbQ0gyXTMpW0NIMl1bQ0BIXShbQ0gyXTEpW0NIMl00

>  <s_epik_cmdline>  (115) 
J2VwaWtfcHl0aG9uJywgJy1waHQnLCAnMi4wJywgJy1waCcsICc3LjAnLCAnLXRuJywgJzgnLCAnLW1hJywgJzIwMCcsICctaW1hZScsICc8aW5maWxlLm1hZT4nLCAnLW9tYWUnLCAnPG91dGZpbGUubWFlPic=

>  <r_epik_Ionization_Penalty>  (115) 
0.000930711

>  <r_epik_Ionization_Penalty_Charging>  (115) 
0.000930711

>  <r_epik_Ionization_Penalty_Neutral>  (115) 
0

>  <r_epik_State_Penalty>  (115) 
0.000576124

>  <r_epik_Charging_Adjusted_Penalty>  (115) 
0.00150684

>  <i_epik_Tot_Q>  (115) 
2

>  <i_epik_Tot_abs_Q>  (115) 
2

>  <s_lp_Force_Field>  (115) 
OPLS3e

>  <r_lp_Energy>  (115) 
54.4495

>  <b_lp_Chiralities_Consistent>  (115) 
1

>  <s_lp_Variant>  (115) 
30:0-1

>  <s_i_glide_gridfile>  (115) 
pfpi4k_grid

>  <i_i_glide_lignum>  (115) 
18

>  <i_i_glide_rotatable_bonds>  (115) 
0

>  <r_i_docking_score>  (115) 
-4.38703

>  <r_i_glide_ligand_efficiency>  (115) 
-0.313359

>  <r_i_glide_ligand_efficiency_sa>  (115) 
-0.755241

>  <r_i_glide_ligand_efficiency_ln>  (115) 
-1.20554

>  <r_i_glide_gscore>  (115) 
-4.38703

>  <r_i_glide_lipo>  (115) 
-0.363774

>  <r_i_glide_hbond>  (115) 
0

>  <r_i_glide_metal>  (115) 
-0

>  <r_i_glide_rewards>  (115) 
-2.08421

>  <r_i_glide_evdw>  (115) 
-17.1725

>  <r_i_glide_ecoul>  (115) 
-7.20285

>  <r_i_glide_erotb>  (115) 
0

>  <r_i_glide_esite>  (115) 
0

>  <r_i_glide_emodel>  (115) 
-31.0688

>  <r_i_glide_energy>  (115) 
-24.3754

>  <r_i_glide_einternal>  (115) 
0

>  <r_i_glide_intrahb_reward>  (115) 
-0

>  <i_i_glide_confnum>  (115) 
2

>  <i_i_glide_posenum>  (115) 
24

>  <r_i_glide_eff_state_penalty>  (115) 
0

>  <ligand_id>  (115) 
30

>  <original_smiles>  (115) 
NC12CC3CC4CC1C(C2)C(CN4)C3

>  <smiles>  (115) 
[H]C1([H])C2([H])C([H])([H])C3([N+]([H])([H])[H])C([H])([H])C4([H])C3([H])C([H])([H])C([H])(C2([H])[H])[N+]([H])([H])C([H])([H])C14[H]

$$$$
30:0:2
     RDKit          3D

 36 39  0  0  1  0  0  0  0  0999 V2000
    7.5632   -3.7799    0.5252 N   0  0  0  0  0  0  0  0  0  0  0  0
    6.1625   -3.3573    0.3898 C   0  0  1  0  0  0  0  0  0  0  0  0
    6.0854   -1.8347    0.3034 C   0  0  0  0  0  0  0  0  0  0  0  0
    4.7413   -1.2536   -0.1941 C   0  0  1  0  0  0  0  0  0  0  0  0
    4.6023   -1.2629   -1.7247 C   0  0  0  0  0  0  0  0  0  0  0  0
    4.2277   -2.5994   -2.3767 C   0  0  1  0  0  0  0  0  0  0  0  0
    5.1588   -3.7980   -2.0887 C   0  0  0  0  0  0  0  0  0  0  0  0
    5.3851   -4.2240   -0.6255 C   0  0  2  0  0  0  0  0  0  0  0  0
    4.2374   -4.2383    0.3871 C   0  0  1  0  0  0  0  0  0  0  0  0
    5.2995   -4.0271    1.4678 C   0  0  0  0  0  0  0  0  0  0  0  0
    3.0841   -3.2405    0.2628 C   0  0  2  0  0  0  0  0  0  0  0  0
    2.2685   -3.4829   -1.0194 C   0  0  0  0  0  0  0  0  0  0  0  0
    2.7872   -2.8865   -2.2572 N   0  0  0  0  0  0  0  0  0  0  0  0
    3.4779   -1.7715    0.5264 C   0  0  0  0  0  0  0  0  0  0  0  0
    7.9652   -3.3470    1.3415 H   0  0  0  0  0  0  0  0  0  0  0  0
    8.0865   -3.4973   -0.2886 H   0  0  0  0  0  0  0  0  0  0  0  0
    6.2904   -1.4141    1.2876 H   0  0  0  0  0  0  0  0  0  0  0  0
    6.8904   -1.4568   -0.3341 H   0  0  0  0  0  0  0  0  0  0  0  0
    4.7971   -0.1987    0.0684 H   0  0  0  0  0  0  0  0  0  0  0  0
    3.8620   -0.5123   -2.0108 H   0  0  0  0  0  0  0  0  0  0  0  0
    5.5317   -0.9086   -2.1659 H   0  0  0  0  0  0  0  0  0  0  0  0
    4.3436   -2.4134   -3.4314 H   0  0  0  0  0  0  0  0  0  0  0  0
    4.8025   -4.6538   -2.6609 H   0  0  0  0  0  0  0  0  0  0  0  0
    6.1277   -3.5649   -2.5306 H   0  0  0  0  0  0  0  0  0  0  0  0
    5.8067   -5.2299   -0.6059 H   0  0  0  0  0  0  0  0  0  0  0  0
    3.8620   -5.2544    0.4647 H   0  0  0  0  0  0  0  0  0  0  0  0
    5.7006   -4.9825    1.8488 H   0  0  0  0  0  0  0  0  0  0  0  0
    4.9926   -3.3706    2.2778 H   0  0  0  0  0  0  0  0  0  0  0  0
    2.3882   -3.4885    1.0662 H   0  0  0  0  0  0  0  0  0  0  0  0
    2.1153   -4.5481   -1.1447 H   0  0  0  0  0  0  0  0  0  0  0  0
    1.2908   -3.0646   -0.8954 H   0  0  0  0  0  0  0  0  0  0  0  0
    2.2821   -2.0115   -2.3717 H   0  0  0  0  0  0  0  0  0  0  0  0
    3.6151   -1.6300    1.5989 H   0  0  0  0  0  0  0  0  0  0  0  0
    2.6297   -1.1349    0.2757 H   0  0  0  0  0  0  0  0  0  0  0  0
    7.6207   -4.7805    0.6329 H   0  0  0  0  0  0  0  0  0  0  0  0
    2.5122   -3.5104   -3.0063 H   0  0  0  0  0  0  0  0  0  0  0  0
  2  1  1  1
  1 15  1  0
  1 16  1  0
  1 35  1  0
  2  8  1  0
  2 10  1  0
  2  3  1  0
  3  4  1  0
  3 17  1  0
  3 18  1  0
  4 14  1  0
  4  5  1  0
  4 19  1  1
  5  6  1  0
  5 20  1  0
  5 21  1  0
  6 13  1  0
  6  7  1  0
  6 22  1  6
  7  8  1  0
  7 23  1  0
  7 24  1  0
  8  9  1  0
  8 25  1  6
  9 10  1  0
  9 11  1  0
  9 26  1  1
 10 27  1  0
 10 28  1  0
 11 12  1  0
 11 14  1  0
 11 29  1  1
 12 13  1  0
 12 30  1  0
 12 31  1  0
 13 32  1  0
 13 36  1  0
 14 33  1  0
 14 34  1  0
M  CHG  2   1   1  13   1
M  END
>  <i_m_ct_stereo_status>  (116) 
1

>  <s_m_source_file>  (116) 
/var/tmp/pbs.5102264.sched01/tmpeif0x8wq/23vm_sbjim.sdf

>  <i_m_source_file_index>  (116) 
18

>  <i_lp_mmshare_version>  (116) 
48012

>  <i_f3d_flags>  (116) 
0

>  <s_epik_input>  (116) 
W05IMl1bQ0BdMTJbQ0BIXTNbQ0BASF0oW0NIMl0yKVtDQEBIXTRbQ0gyXVtOSF1bQ0BIXShbQ0gyXTMpW0NIMl1bQ0BIXShbQ0gyXTEpW0NIMl00

>  <s_epik_cmdline>  (116) 
J2VwaWtfcHl0aG9uJywgJy1waHQnLCAnMi4wJywgJy1waCcsICc3LjAnLCAnLXRuJywgJzgnLCAnLW1hJywgJzIwMCcsICctaW1hZScsICc8aW5maWxlLm1hZT4nLCAnLW9tYWUnLCAnPG91dGZpbGUubWFlPic=

>  <r_epik_Ionization_Penalty>  (116) 
0.000930711

>  <r_epik_Ionization_Penalty_Charging>  (116) 
0.000930711

>  <r_epik_Ionization_Penalty_Neutral>  (116) 
0

>  <r_epik_State_Penalty>  (116) 
0.000576124

>  <r_epik_Charging_Adjusted_Penalty>  (116) 
0.00150684

>  <i_epik_Tot_Q>  (116) 
2

>  <i_epik_Tot_abs_Q>  (116) 
2

>  <s_lp_Force_Field>  (116) 
OPLS3e

>  <r_lp_Energy>  (116) 
54.4495

>  <b_lp_Chiralities_Consistent>  (116) 
1

>  <s_lp_Variant>  (116) 
30:0-1

>  <s_i_glide_gridfile>  (116) 
pfpi4k_grid

>  <i_i_glide_lignum>  (116) 
18

>  <i_i_glide_rotatable_bonds>  (116) 
0

>  <r_i_docking_score>  (116) 
-3.91117

>  <r_i_glide_ligand_efficiency>  (116) 
-0.279369

>  <r_i_glide_ligand_efficiency_sa>  (116) 
-0.673319

>  <r_i_glide_ligand_efficiency_ln>  (116) 
-1.07477

>  <r_i_glide_gscore>  (116) 
-3.91117

>  <r_i_glide_lipo>  (116) 
-0.324964

>  <r_i_glide_hbond>  (116) 
-0.0093007

>  <r_i_glide_metal>  (116) 
-0

>  <r_i_glide_rewards>  (116) 
-2.08421

>  <r_i_glide_evdw>  (116) 
-16.2627

>  <r_i_glide_ecoul>  (116) 
-4.39542

>  <r_i_glide_erotb>  (116) 
0

>  <r_i_glide_esite>  (116) 
-0.0202498

>  <r_i_glide_emodel>  (116) 
-26.638

>  <r_i_glide_energy>  (116) 
-20.6581

>  <r_i_glide_einternal>  (116) 
0

>  <r_i_glide_intrahb_reward>  (116) 
-0

>  <i_i_glide_confnum>  (116) 
2

>  <i_i_glide_posenum>  (116) 
6

>  <r_i_glide_eff_state_penalty>  (116) 
0

>  <ligand_id>  (116) 
30

>  <original_smiles>  (116) 
NC12CC3CC4CC1C(C2)C(CN4)C3

>  <smiles>  (116) 
[H]C1([H])C2([H])C([H])([H])C3([N+]([H])([H])[H])C([H])([H])C4([H])C3([H])C([H])([H])C([H])(C2([H])[H])[N+]([H])([H])C([H])([H])C14[H]

$$$$
31:0:0
     RDKit          3D

 36 41  0  0  1  0  0  0  0  0999 V2000
    4.2006   -3.2825   -3.4041 C   0  0  0  0  0  0  0  0  0  0  0  0
    5.3735   -3.3392   -2.7570 C   0  0  0  0  0  0  0  0  0  0  0  0
    5.5929   -2.4449   -1.5592 C   0  0  2  0  0  0  0  0  0  0  0  0
    6.1084   -2.9810   -0.2146 C   0  0  1  0  0  0  0  0  0  0  0  0
    6.7674   -1.8509    0.6004 C   0  0  0  0  0  0  0  0  0  0  0  0
    5.8390   -0.6174    0.6351 C   0  0  2  0  0  0  0  0  0  0  0  0
    4.5152   -0.5492    1.3785 C   0  0  2  0  0  0  0  0  0  0  0  0
    3.9081   -1.6754    2.1793 C   0  0  0  0  0  0  0  0  0  0  0  0
    4.3505   -3.0834    1.7326 C   0  0  0  0  0  0  0  0  0  0  0  0
    4.6318   -3.2427    0.2068 C   0  0  2  0  0  0  0  0  0  0  0  0
    3.7857   -4.3913   -0.3158 C   0  0  0  0  0  0  0  0  0  0  0  0
    2.5574   -3.6475   -0.8632 C   0  0  0  0  0  0  0  0  0  0  0  0
    3.0287   -2.3511   -1.4175 N   0  0  2  0  0  0  0  0  0  0  0  0
    3.0911   -2.3613   -2.9093 C   0  0  0  0  0  0  0  0  0  0  0  0
    4.3355   -2.0585   -0.7432 C   0  0  2  0  0  0  0  0  0  0  0  0
    4.5018   -0.7065   -0.1092 C   0  0  2  0  0  0  0  0  0  0  0  0
    4.0274   -3.8600   -4.3013 H   0  0  0  0  0  0  0  0  0  0  0  0
    6.1984   -3.9449   -3.1095 H   0  0  0  0  0  0  0  0  0  0  0  0
    6.1641   -1.5787   -1.8998 H   0  0  0  0  0  0  0  0  0  0  0  0
    6.7112   -3.8863   -0.3065 H   0  0  0  0  0  0  0  0  0  0  0  0
    6.9943   -2.1591    1.6190 H   0  0  0  0  0  0  0  0  0  0  0  0
    7.7215   -1.5656    0.1582 H   0  0  0  0  0  0  0  0  0  0  0  0
    6.3588    0.3215    0.4824 H   0  0  0  0  0  0  0  0  0  0  0  0
    4.2466    0.4378    1.7479 H   0  0  0  0  0  0  0  0  0  0  0  0
    4.1217   -1.5181    3.2378 H   0  0  0  0  0  0  0  0  0  0  0  0
    2.8259   -1.5916    2.0695 H   0  0  0  0  0  0  0  0  0  0  0  0
    5.2417   -3.3534    2.2991 H   0  0  0  0  0  0  0  0  0  0  0  0
    3.5979   -3.7837    2.0945 H   0  0  0  0  0  0  0  0  0  0  0  0
    4.2940   -4.9512   -1.1007 H   0  0  0  0  0  0  0  0  0  0  0  0
    3.5174   -5.1326    0.4363 H   0  0  0  0  0  0  0  0  0  0  0  0
    1.9742   -4.2435   -1.5652 H   0  0  0  0  0  0  0  0  0  0  0  0
    1.9036   -3.4035   -0.0278 H   0  0  0  0  0  0  0  0  0  0  0  0
    3.2801   -1.3499   -3.2741 H   0  0  0  0  0  0  0  0  0  0  0  0
    2.1367   -2.6810   -3.3298 H   0  0  0  0  0  0  0  0  0  0  0  0
    4.2334    0.1433   -0.7221 H   0  0  0  0  0  0  0  0  0  0  0  0
    2.3352   -1.6549   -1.1388 H   0  0  0  0  0  0  0  0  0  0  0  0
  1 14  1  0
  1  2  2  0
  1 17  1  0
  2  3  1  0
  2 18  1  0
  3 15  1  0
  3  4  1  0
  3 19  1  6
  4 10  1  0
  4  5  1  0
  4 20  1  6
  5  6  1  0
  5 21  1  0
  5 22  1  0
  6 16  1  0
  6  7  1  0
  6 23  1  6
  7 16  1  0
  7  8  1  0
  7 24  1  6
  8  9  1  0
  8 25  1  0
  8 26  1  0
 10  9  1  1
  9 27  1  0
  9 28  1  0
 15 10  1  1
 10 11  1  0
 11 12  1  0
 11 29  1  0
 11 30  1  0
 12 13  1  0
 12 31  1  0
 12 32  1  0
 13 14  1  0
 13 15  1  0
 13 36  1  6
 14 33  1  0
 14 34  1  0
 15 16  1  0
 16 35  1  6
M  CHG  1  13   1
M  END
>  <i_m_ct_stereo_status>  (117) 
1

>  <s_m_source_file>  (117) 
/var/tmp/pbs.5102264.sched01/tmpeif0x8wq/23vm_sbjim.sdf

>  <i_m_source_file_index>  (117) 
19

>  <i_lp_mmshare_version>  (117) 
48012

>  <i_f3d_flags>  (117) 
0

>  <s_epik_input>  (117) 
W0NIMl0xW0NIMl1OMltDSDJdW0NIXT1bQ0hdW0NAQEhdKFtDQF0yM1tDQEBdMTQ1KVtDQEhdNFtDSDJdW0NAQEhdNltDQEBIXShbQ0BIXTM2KVtDSDJdW0NIMl01

>  <s_epik_cmdline>  (117) 
J2VwaWtfcHl0aG9uJywgJy1waHQnLCAnMi4wJywgJy1waCcsICc3LjAnLCAnLXRuJywgJzgnLCAnLW1hJywgJzIwMCcsICctaW1hZScsICc8aW5maWxlLm1hZT4nLCAnLW9tYWUnLCAnPG91dGZpbGUubWFlPic=

>  <r_lp_tautomer_probability>  (117) 
1

>  <r_epik_Ionization_Penalty>  (117) 
0.000271096

>  <r_epik_Ionization_Penalty_Charging>  (117) 
0.000271096

>  <r_epik_Ionization_Penalty_Neutral>  (117) 
0

>  <r_epik_State_Penalty>  (117) 
-0

>  <r_epik_Charging_Adjusted_Penalty>  (117) 
0.000271096

>  <i_epik_Tot_Q>  (117) 
1

>  <i_epik_Tot_abs_Q>  (117) 
1

>  <s_lp_Force_Field>  (117) 
OPLS3e

>  <r_lp_Energy>  (117) 
74.1989

>  <b_lp_Chiralities_Consistent>  (117) 
1

>  <s_lp_Variant>  (117) 
31:0-1

>  <s_i_glide_gridfile>  (117) 
pfpi4k_grid

>  <i_i_glide_lignum>  (117) 
19

>  <i_i_glide_rotatable_bonds>  (117) 
0

>  <r_i_docking_score>  (117) 
-4.82672

>  <r_i_glide_ligand_efficiency>  (117) 
-0.30167

>  <r_i_glide_ligand_efficiency_sa>  (117) 
-0.760161

>  <r_i_glide_ligand_efficiency_ln>  (117) 
-1.27942

>  <r_i_glide_gscore>  (117) 
-4.82672

>  <r_i_glide_lipo>  (117) 
-0.740207

>  <r_i_glide_hbond>  (117) 
-0.2

>  <r_i_glide_metal>  (117) 
-0

>  <r_i_glide_rewards>  (117) 
-1.94778

>  <r_i_glide_evdw>  (117) 
-20.674

>  <r_i_glide_ecoul>  (117) 
-5.53955

>  <r_i_glide_erotb>  (117) 
0

>  <r_i_glide_esite>  (117) 
-0.0741071

>  <r_i_glide_emodel>  (117) 
-35.2312

>  <r_i_glide_energy>  (117) 
-26.2135

>  <r_i_glide_einternal>  (117) 
0

>  <r_i_glide_intrahb_reward>  (117) 
-0

>  <i_i_glide_confnum>  (117) 
1

>  <i_i_glide_posenum>  (117) 
40

>  <r_i_glide_eff_state_penalty>  (117) 
0

>  <ligand_id>  (117) 
31

>  <original_smiles>  (117) 
C1=CC2C3CC4C5CCC36CCN(C1)C26C54

>  <smiles>  (117) 
[H]C1=C([H])C([H])([H])[N+]2([H])C([H])([H])C([H])([H])C34C([H])([H])C([H])([H])C5([H])C6([H])C([H])([H])C3([H])C1([H])C42C56[H]

$$$$
31:0:1
     RDKit          3D

 36 41  0  0  1  0  0  0  0  0999 V2000
    3.5780   -1.3097   -3.3971 C   0  0  0  0  0  0  0  0  0  0  0  0
    4.1940   -0.6565   -2.4031 C   0  0  0  0  0  0  0  0  0  0  0  0
    4.1126   -1.2171   -0.9928 C   0  0  2  0  0  0  0  0  0  0  0  0
    5.3503   -1.4052   -0.1075 C   0  0  1  0  0  0  0  0  0  0  0  0
    4.9541   -1.4380    1.3860 C   0  0  0  0  0  0  0  0  0  0  0  0
    3.7761   -2.4168    1.6065 C   0  0  2  0  0  0  0  0  0  0  0  0
    3.8740   -3.9249    1.4523 C   0  0  2  0  0  0  0  0  0  0  0  0
    5.1264   -4.6875    1.0703 C   0  0  0  0  0  0  0  0  0  0  0  0
    6.1417   -3.8774    0.2388 C   0  0  0  0  0  0  0  0  0  0  0  0
    5.5229   -2.8243   -0.7234 C   0  0  2  0  0  0  0  0  0  0  0  0
    6.0500   -3.0865   -2.1257 C   0  0  0  0  0  0  0  0  0  0  0  0
    4.9203   -3.9271   -2.7297 C   0  0  0  0  0  0  0  0  0  0  0  0
    3.6350   -3.4484   -2.1517 N   0  0  2  0  0  0  0  0  0  0  0  0
    2.8608   -2.6243   -3.1251 C   0  0  0  0  0  0  0  0  0  0  0  0
    3.9781   -2.7506   -0.8721 C   0  0  2  0  0  0  0  0  0  0  0  0
    3.2133   -3.1326    0.3709 C   0  0  2  0  0  0  0  0  0  0  0  0
    3.5172   -0.8899   -4.3932 H   0  0  0  0  0  0  0  0  0  0  0  0
    4.6456    0.3157   -2.5505 H   0  0  0  0  0  0  0  0  0  0  0  0
    3.3128   -0.6844   -0.4728 H   0  0  0  0  0  0  0  0  0  0  0  0
    6.1580   -0.7116   -0.3451 H   0  0  0  0  0  0  0  0  0  0  0  0
    5.7895   -1.7270    2.0240 H   0  0  0  0  0  0  0  0  0  0  0  0
    4.6534   -0.4445    1.7206 H   0  0  0  0  0  0  0  0  0  0  0  0
    3.0345   -2.0559    2.3151 H   0  0  0  0  0  0  0  0  0  0  0  0
    3.2090   -4.4925    2.0984 H   0  0  0  0  0  0  0  0  0  0  0  0
    5.5971   -5.0820    1.9724 H   0  0  0  0  0  0  0  0  0  0  0  0
    4.8057   -5.5545    0.4899 H   0  0  0  0  0  0  0  0  0  0  0  0
    6.8253   -3.3815    0.9270 H   0  0  0  0  0  0  0  0  0  0  0  0
    6.7753   -4.5940   -0.2836 H   0  0  0  0  0  0  0  0  0  0  0  0
    6.1879   -2.1786   -2.7015 H   0  0  0  0  0  0  0  0  0  0  0  0
    7.0143   -3.5911   -2.1585 H   0  0  0  0  0  0  0  0  0  0  0  0
    4.9394   -3.9622   -3.8193 H   0  0  0  0  0  0  0  0  0  0  0  0
    5.0177   -4.9534   -2.3751 H   0  0  0  0  0  0  0  0  0  0  0  0
    1.8664   -2.4142   -2.7236 H   0  0  0  0  0  0  0  0  0  0  0  0
    2.7254   -3.1667   -4.0611 H   0  0  0  0  0  0  0  0  0  0  0  0
    2.1291   -3.1674    0.2833 H   0  0  0  0  0  0  0  0  0  0  0  0
    3.0875   -4.2838   -1.9500 H   0  0  0  0  0  0  0  0  0  0  0  0
  1 14  1  0
  1  2  2  0
  1 17  1  0
  2  3  1  0
  2 18  1  0
  3 15  1  0
  3  4  1  0
  3 19  1  1
  4 10  1  0
  4  5  1  0
  4 20  1  1
  5  6  1  0
  5 21  1  0
  5 22  1  0
  6 16  1  0
  6  7  1  0
  6 23  1  1
  7 16  1  0
  7  8  1  0
  7 24  1  1
  8  9  1  0
  8 25  1  0
  8 26  1  0
 10  9  1  1
  9 27  1  0
  9 28  1  0
 15 10  1  1
 10 11  1  0
 11 12  1  0
 11 29  1  0
 11 30  1  0
 12 13  1  0
 12 31  1  0
 12 32  1  0
 13 14  1  0
 13 15  1  0
 13 36  1  1
 14 33  1  0
 14 34  1  0
 15 16  1  0
 16 35  1  6
M  CHG  1  13   1
M  END
>  <i_m_ct_stereo_status>  (118) 
1

>  <s_m_source_file>  (118) 
/var/tmp/pbs.5102264.sched01/tmpeif0x8wq/23vm_sbjim.sdf

>  <i_m_source_file_index>  (118) 
19

>  <i_lp_mmshare_version>  (118) 
48012

>  <i_f3d_flags>  (118) 
0

>  <s_epik_input>  (118) 
W0NIMl0xW0NIMl1OMltDSDJdW0NIXT1bQ0hdW0NAQEhdKFtDQF0yM1tDQEBdMTQ1KVtDQEhdNFtDSDJdW0NAQEhdNltDQEBIXShbQ0BIXTM2KVtDSDJdW0NIMl01

>  <s_epik_cmdline>  (118) 
J2VwaWtfcHl0aG9uJywgJy1waHQnLCAnMi4wJywgJy1waCcsICc3LjAnLCAnLXRuJywgJzgnLCAnLW1hJywgJzIwMCcsICctaW1hZScsICc8aW5maWxlLm1hZT4nLCAnLW9tYWUnLCAnPG91dGZpbGUubWFlPic=

>  <r_lp_tautomer_probability>  (118) 
1

>  <r_epik_Ionization_Penalty>  (118) 
0.000271096

>  <r_epik_Ionization_Penalty_Charging>  (118) 
0.000271096

>  <r_epik_Ionization_Penalty_Neutral>  (118) 
0

>  <r_epik_State_Penalty>  (118) 
-0

>  <r_epik_Charging_Adjusted_Penalty>  (118) 
0.000271096

>  <i_epik_Tot_Q>  (118) 
1

>  <i_epik_Tot_abs_Q>  (118) 
1

>  <s_lp_Force_Field>  (118) 
OPLS3e

>  <r_lp_Energy>  (118) 
74.1989

>  <b_lp_Chiralities_Consistent>  (118) 
1

>  <s_lp_Variant>  (118) 
31:0-1

>  <s_i_glide_gridfile>  (118) 
pfpi4k_grid

>  <i_i_glide_lignum>  (118) 
19

>  <i_i_glide_rotatable_bonds>  (118) 
0

>  <r_i_docking_score>  (118) 
-4.41527

>  <r_i_glide_ligand_efficiency>  (118) 
-0.275955

>  <r_i_glide_ligand_efficiency_sa>  (118) 
-0.695362

>  <r_i_glide_ligand_efficiency_ln>  (118) 
-1.17036

>  <r_i_glide_gscore>  (118) 
-4.41527

>  <r_i_glide_lipo>  (118) 
-0.630227

>  <r_i_glide_hbond>  (118) 
0

>  <r_i_glide_metal>  (118) 
-0

>  <r_i_glide_rewards>  (118) 
-1.94778

>  <r_i_glide_evdw>  (118) 
-21.9714

>  <r_i_glide_ecoul>  (118) 
-4.78842

>  <r_i_glide_erotb>  (118) 
0

>  <r_i_glide_esite>  (118) 
-0.0204368

>  <r_i_glide_emodel>  (118) 
-35.0161

>  <r_i_glide_energy>  (118) 
-26.7598

>  <r_i_glide_einternal>  (118) 
0

>  <r_i_glide_intrahb_reward>  (118) 
-0

>  <i_i_glide_confnum>  (118) 
1

>  <i_i_glide_posenum>  (118) 
4

>  <r_i_glide_eff_state_penalty>  (118) 
0

>  <ligand_id>  (118) 
31

>  <original_smiles>  (118) 
C1=CC2C3CC4C5CCC36CCN(C1)C26C54

>  <smiles>  (118) 
[H]C1=C([H])C([H])([H])[N+]2([H])C([H])([H])C([H])([H])C34C([H])([H])C([H])([H])C5([H])C6([H])C([H])([H])C3([H])C1([H])C42C56[H]

$$$$
32:0:0
     RDKit          3D

 51 54  0  0  1  0  0  0  0  0999 V2000
    4.0677   -1.4017   -2.6725 C   0  0  0  0  0  0  0  0  0  0  0  0
    4.2729   -2.5288   -1.6462 C   0  0  2  0  0  0  0  0  0  0  0  0
    2.9474   -3.2117   -1.2616 C   0  0  0  0  0  0  0  0  0  0  0  0
    3.0806   -4.2619   -0.1440 C   0  0  0  0  0  0  0  0  0  0  0  0
    4.5457   -4.5821    0.2018 C   0  0  2  0  0  0  0  0  0  0  0  0
    4.7351   -5.7098    1.2211 C   0  0  1  0  0  0  0  0  0  0  0  0
    6.2135   -6.1161    1.4547 C   0  0  0  0  0  0  0  0  0  0  0  0
    7.2934   -5.0365    1.1859 C   0  0  0  0  0  0  0  0  0  0  0  0
    6.9011   -3.8722    0.2443 C   0  0  2  0  0  0  0  0  0  0  0  0
    7.7932   -2.8896    0.3798 F   0  0  0  0  0  0  0  0  0  0  0  0
    5.4632   -3.3627    0.4886 C   0  0  2  0  0  0  0  0  0  0  0  0
    5.5178   -2.9943    1.8662 O   0  0  0  0  0  0  0  0  0  0  0  0
    4.4128   -2.4582    2.5268 C   0  0  1  0  0  0  0  0  0  0  0  0
    4.9559   -1.6903    3.7498 C   0  0  0  0  0  0  0  0  0  0  0  0
    3.6417   -1.4645    1.6152 C   0  0  0  0  0  0  0  0  0  0  0  0
    4.5141   -0.9781    0.4556 C   0  0  0  0  0  0  0  0  0  0  0  0
    5.1087   -2.1231   -0.3984 C   0  0  2  0  0  0  0  0  0  0  0  0
    3.4666   -3.4066    2.9626 O   0  0  0  0  0  0  0  0  0  0  0  0
    3.8589   -4.6999    3.3741 C   0  0  0  0  0  0  0  0  0  0  0  0
    5.1362   -4.7744    4.2436 C   0  0  0  0  0  0  0  0  0  0  0  0
    2.6816   -5.1372    4.2525 C   0  0  0  0  0  0  0  0  0  0  0  0
    3.8736   -5.6764    2.3622 O   0  0  0  0  0  0  0  0  0  0  0  0
    3.3786   -0.6385   -2.3074 H   0  0  0  0  0  0  0  0  0  0  0  0
    3.6408   -1.7975   -3.5949 H   0  0  0  0  0  0  0  0  0  0  0  0
    5.0098   -0.9191   -2.9272 H   0  0  0  0  0  0  0  0  0  0  0  0
    4.8630   -3.2726   -2.1802 H   0  0  0  0  0  0  0  0  0  0  0  0
    2.2321   -2.4599   -0.9431 H   0  0  0  0  0  0  0  0  0  0  0  0
    2.5134   -3.6758   -2.1467 H   0  0  0  0  0  0  0  0  0  0  0  0
    2.5259   -3.9600    0.7373 H   0  0  0  0  0  0  0  0  0  0  0  0
    2.5868   -5.1761   -0.4702 H   0  0  0  0  0  0  0  0  0  0  0  0
    4.9175   -5.0183   -0.7299 H   0  0  0  0  0  0  0  0  0  0  0  0
    4.3221   -6.5838    0.7164 H   0  0  0  0  0  0  0  0  0  0  0  0
    6.3331   -6.5204    2.4606 H   0  0  0  0  0  0  0  0  0  0  0  0
    6.4359   -6.9627    0.8097 H   0  0  0  0  0  0  0  0  0  0  0  0
    7.6098   -4.6336    2.1415 H   0  0  0  0  0  0  0  0  0  0  0  0
    8.1816   -5.5242    0.7811 H   0  0  0  0  0  0  0  0  0  0  0  0
    6.9840   -4.1805   -0.7935 H   0  0  0  0  0  0  0  0  0  0  0  0
    5.7313   -2.2577    4.2591 H   0  0  0  0  0  0  0  0  0  0  0  0
    4.1492   -1.4731    4.4506 H   0  0  0  0  0  0  0  0  0  0  0  0
    5.4122   -0.7523    3.4264 H   0  0  0  0  0  0  0  0  0  0  0  0
    2.7336   -1.9187    1.2365 H   0  0  0  0  0  0  0  0  0  0  0  0
    3.2950   -0.6219    2.2148 H   0  0  0  0  0  0  0  0  0  0  0  0
    3.9148   -0.3077   -0.1506 H   0  0  0  0  0  0  0  0  0  0  0  0
    5.3222   -0.3686    0.8598 H   0  0  0  0  0  0  0  0  0  0  0  0
    6.0340   -1.7112   -0.8019 H   0  0  0  0  0  0  0  0  0  0  0  0
    6.0221   -4.4613    3.7046 H   0  0  0  0  0  0  0  0  0  0  0  0
    5.2923   -5.8028    4.5678 H   0  0  0  0  0  0  0  0  0  0  0  0
    5.0190   -4.1619    5.1372 H   0  0  0  0  0  0  0  0  0  0  0  0
    1.7686   -5.1488    3.6552 H   0  0  0  0  0  0  0  0  0  0  0  0
    2.5536   -4.4384    5.0801 H   0  0  0  0  0  0  0  0  0  0  0  0
    2.8575   -6.1382    4.6483 H   0  0  0  0  0  0  0  0  0  0  0  0
  1  2  1  0
  1 23  1  0
  1 24  1  0
  1 25  1  0
  2 17  1  0
  2  3  1  0
  2 26  1  6
  3  4  1  0
  3 27  1  0
  3 28  1  0
  4  5  1  0
  4 29  1  0
  4 30  1  0
  5 11  1  0
  5  6  1  0
  5 31  1  6
  6 22  1  0
  6  7  1  0
  6 32  1  6
  7  8  1  0
  7 33  1  0
  7 34  1  0
  8  9  1  0
  8 35  1  0
  8 36  1  0
  9 10  1  0
  9 11  1  0
  9 37  1  6
 11 17  1  0
 11 12  1  1
 12 13  1  0
 13 14  1  1
 13 15  1  0
 13 18  1  0
 14 38  1  0
 14 39  1  0
 14 40  1  0
 15 16  1  0
 15 41  1  0
 15 42  1  0
 16 17  1  0
 16 43  1  0
 16 44  1  0
 17 45  1  6
 18 19  1  0
 19 20  1  0
 19 21  1  0
 19 22  1  0
 20 46  1  0
 20 47  1  0
 20 48  1  0
 21 49  1  0
 21 50  1  0
 21 51  1  0
M  END
>  <i_m_ct_stereo_status>  (119) 
1

>  <s_m_source_file>  (119) 
/var/tmp/pbs.5102264.sched01/tmpeif0x8wq/23vm_sbjim.sdf

>  <i_m_source_file_index>  (119) 
20

>  <i_lp_mmshare_version>  (119) 
48012

>  <i_f3d_flags>  (119) 
0

>  <s_epik_input>  (119) 
W0NIMl0xW0NIMl1bQ0BASF0oW0NIM10pW0NASF0yW0NIMl1bQ0gyXVtDQEBdKE8zKShbQ0gzXSlPQyhbQ0gzXSkoW0NIM10pT1tDQEBIXShbQ0BASF0xW0NAQF0yMzQpW0NIMl1bQ0gyXVtDQEBIXTRG

>  <s_epik_cmdline>  (119) 
J2VwaWtfcHl0aG9uJywgJy1waHQnLCAnMi4wJywgJy1waCcsICc3LjAnLCAnLXRuJywgJzgnLCAnLW1hJywgJzIwMCcsICctaW1hZScsICc8aW5maWxlLm1hZT4nLCAnLW9tYWUnLCAnPG91dGZpbGUubWFlPic=

>  <r_lp_tautomer_probability>  (119) 
1

>  <r_epik_Ionization_Penalty>  (119) 
3.21923e-13

>  <r_epik_Ionization_Penalty_Charging>  (119) 
0

>  <r_epik_Ionization_Penalty_Neutral>  (119) 
3.21923e-13

>  <r_epik_State_Penalty>  (119) 
-0

>  <r_epik_Charging_Adjusted_Penalty>  (119) 
0

>  <i_epik_Tot_Q>  (119) 
0

>  <i_epik_Tot_abs_Q>  (119) 
0

>  <s_lp_Force_Field>  (119) 
OPLS3e

>  <r_lp_Energy>  (119) 
56.6127

>  <b_lp_Chiralities_Consistent>  (119) 
1

>  <s_lp_Variant>  (119) 
32:0-1

>  <s_i_glide_gridfile>  (119) 
pfpi4k_grid

>  <i_i_glide_lignum>  (119) 
20

>  <i_i_glide_rotatable_bonds>  (119) 
0

>  <r_i_docking_score>  (119) 
-3.32357

>  <r_i_glide_ligand_efficiency>  (119) 
-0.151071

>  <r_i_glide_ligand_efficiency_sa>  (119) 
-0.423308

>  <r_i_glide_ligand_efficiency_ln>  (119) 
-0.812402

>  <r_i_glide_gscore>  (119) 
-3.32357

>  <r_i_glide_lipo>  (119) 
-0.616429

>  <r_i_glide_hbond>  (119) 
0

>  <r_i_glide_metal>  (119) 
-0

>  <r_i_glide_rewards>  (119) 
-1.59549

>  <r_i_glide_evdw>  (119) 
-21.6533

>  <r_i_glide_ecoul>  (119) 
-0.193286

>  <r_i_glide_erotb>  (119) 
0

>  <r_i_glide_esite>  (119) 
0

>  <r_i_glide_emodel>  (119) 
-26.0573

>  <r_i_glide_energy>  (119) 
-21.8466

>  <r_i_glide_einternal>  (119) 
0

>  <r_i_glide_intrahb_reward>  (119) 
-0

>  <i_i_glide_confnum>  (119) 
2

>  <i_i_glide_posenum>  (119) 
30

>  <r_i_glide_eff_state_penalty>  (119) 
0

>  <ligand_id>  (119) 
32

>  <original_smiles>  (119) 
CC1CCC2C3CCC(F)C24OC(C)(CCC14)OC(C)(C)O3

>  <smiles>  (119) 
[H]C([H])([H])C1(C([H])([H])[H])OC2([H])C([H])([H])C([H])([H])C([H])(F)C34OC(C([H])([H])[H])(O1)C([H])([H])C([H])([H])C3([H])C([H])(C([H])([H])[H])C([H])([H])C([H])([H])C24[H]

$$$$
32:0:1
     RDKit          3D

 51 54  0  0  1  0  0  0  0  0999 V2000
    3.5729   -1.9214   -3.9472 C   0  0  0  0  0  0  0  0  0  0  0  0
    3.8835   -2.7762   -2.7140 C   0  0  2  0  0  0  0  0  0  0  0  0
    2.5901   -3.2101   -2.0264 C   0  0  0  0  0  0  0  0  0  0  0  0
    2.8186   -3.9348   -0.6730 C   0  0  0  0  0  0  0  0  0  0  0  0
    4.3132   -4.2329   -0.4025 C   0  0  2  0  0  0  0  0  0  0  0  0
    4.5980   -5.0706    0.8488 C   0  0  1  0  0  0  0  0  0  0  0  0
    6.0900   -5.4545    1.0223 C   0  0  0  0  0  0  0  0  0  0  0  0
    7.1476   -4.4840    0.4184 C   0  0  0  0  0  0  0  0  0  0  0  0
    6.6552   -3.5741   -0.7443 C   0  0  2  0  0  0  0  0  0  0  0  0
    7.5501   -2.6243   -1.0052 F   0  0  0  0  0  0  0  0  0  0  0  0
    5.2691   -3.0257   -0.5307 C   0  0  2  0  0  0  0  0  0  0  0  0
    5.4863   -2.3354    0.6859 O   0  0  0  0  0  0  0  0  0  0  0  0
    4.4884   -1.5999    1.2760 C   0  0  1  0  0  0  0  0  0  0  0  0
    5.1805   -0.5595    2.1784 C   0  0  0  0  0  0  0  0  0  0  0  0
    3.6431   -0.8728    0.1929 C   0  0  0  0  0  0  0  0  0  0  0  0
    4.4110   -0.7676   -1.1372 C   0  0  0  0  0  0  0  0  0  0  0  0
    4.8448   -2.1081   -1.7066 C   0  0  2  0  0  0  0  0  0  0  0  0
    3.5765   -2.3320    2.0497 O   0  0  0  0  0  0  0  0  0  0  0  0
    3.9980   -3.4970    2.7286 C   0  0  0  0  0  0  0  0  0  0  0  0
    5.3620   -3.3974    3.4405 C   0  0  0  0  0  0  0  0  0  0  0  0
    2.9344   -3.6344    3.8254 C   0  0  0  0  0  0  0  0  0  0  0  0
    3.8714   -4.7043    2.0267 O   0  0  0  0  0  0  0  0  0  0  0  0
    2.9352   -1.0629   -3.7321 H   0  0  0  0  0  0  0  0  0  0  0  0
    3.0214   -2.5236   -4.6759 H   0  0  0  0  0  0  0  0  0  0  0  0
    4.4826   -1.5557   -4.4198 H   0  0  0  0  0  0  0  0  0  0  0  0
    4.3675   -3.6765   -3.1003 H   0  0  0  0  0  0  0  0  0  0  0  0
    1.9380   -2.3448   -1.9461 H   0  0  0  0  0  0  0  0  0  0  0  0
    2.0542   -3.8857   -2.7045 H   0  0  0  0  0  0  0  0  0  0  0  0
    2.3648   -3.3984    0.1514 H   0  0  0  0  0  0  0  0  0  0  0  0
    2.2892   -4.8836   -0.7079 H   0  0  0  0  0  0  0  0  0  0  0  0
    4.5888   -4.9148   -1.2061 H   0  0  0  0  0  0  0  0  0  0  0  0
    4.1289   -6.0306    0.6286 H   0  0  0  0  0  0  0  0  0  0  0  0
    6.3189   -5.6425    2.0711 H   0  0  0  0  0  0  0  0  0  0  0  0
    6.2409   -6.4121    0.5251 H   0  0  0  0  0  0  0  0  0  0  0  0
    7.5687   -3.8589    1.2040 H   0  0  0  0  0  0  0  0  0  0  0  0
    7.9857   -5.0848    0.0469 H   0  0  0  0  0  0  0  0  0  0  0  0
    6.5961   -4.1138   -1.6999 H   0  0  0  0  0  0  0  0  0  0  0  0
    6.0088   -0.9986    2.7304 H   0  0  0  0  0  0  0  0  0  0  0  0
    4.4726   -0.1049    2.8682 H   0  0  0  0  0  0  0  0  0  0  0  0
    5.6211    0.1953    1.5305 H   0  0  0  0  0  0  0  0  0  0  0  0
    2.6905   -1.3666    0.0654 H   0  0  0  0  0  0  0  0  0  0  0  0
    3.3974    0.1206    0.5548 H   0  0  0  0  0  0  0  0  0  0  0  0
    3.8506   -0.2119   -1.8803 H   0  0  0  0  0  0  0  0  0  0  0  0
    5.3252   -0.2342   -0.9673 H   0  0  0  0  0  0  0  0  0  0  0  0
    5.7289   -1.8849   -2.3037 H   0  0  0  0  0  0  0  0  0  0  0  0
    6.1787   -3.2695    2.7392 H   0  0  0  0  0  0  0  0  0  0  0  0
    5.5445   -4.3128    4.0014 H   0  0  0  0  0  0  0  0  0  0  0  0
    5.3606   -2.5645    4.1464 H   0  0  0  0  0  0  0  0  0  0  0  0
    1.9632   -3.7584    3.3543 H   0  0  0  0  0  0  0  0  0  0  0  0
    2.9288   -2.7341    4.4368 H   0  0  0  0  0  0  0  0  0  0  0  0
    3.1551   -4.5039    4.4445 H   0  0  0  0  0  0  0  0  0  0  0  0
  1  2  1  0
  1 23  1  0
  1 24  1  0
  1 25  1  0
  2 17  1  0
  2  3  1  0
  2 26  1  6
  3  4  1  0
  3 27  1  0
  3 28  1  0
  4  5  1  0
  4 29  1  0
  4 30  1  0
  5 11  1  0
  5  6  1  0
  5 31  1  6
  6 22  1  0
  6  7  1  0
  6 32  1  6
  7  8  1  0
  7 33  1  0
  7 34  1  0
  8  9  1  0
  8 35  1  0
  8 36  1  0
  9 10  1  0
  9 11  1  0
  9 37  1  6
 11 17  1  0
 11 12  1  1
 12 13  1  0
 13 14  1  1
 13 15  1  0
 13 18  1  0
 14 38  1  0
 14 39  1  0
 14 40  1  0
 15 16  1  0
 15 41  1  0
 15 42  1  0
 16 17  1  0
 16 43  1  0
 16 44  1  0
 17 45  1  6
 18 19  1  0
 19 20  1  0
 19 21  1  0
 19 22  1  0
 20 46  1  0
 20 47  1  0
 20 48  1  0
 21 49  1  0
 21 50  1  0
 21 51  1  0
M  END
>  <i_m_ct_stereo_status>  (120) 
1

>  <s_m_source_file>  (120) 
/var/tmp/pbs.5102264.sched01/tmpeif0x8wq/23vm_sbjim.sdf

>  <i_m_source_file_index>  (120) 
20

>  <i_lp_mmshare_version>  (120) 
48012

>  <i_f3d_flags>  (120) 
0

>  <s_epik_input>  (120) 
W0NIMl0xW0NIMl1bQ0BASF0oW0NIM10pW0NASF0yW0NIMl1bQ0gyXVtDQEBdKE8zKShbQ0gzXSlPQyhbQ0gzXSkoW0NIM10pT1tDQEBIXShbQ0BASF0xW0NAQF0yMzQpW0NIMl1bQ0gyXVtDQEBIXTRG

>  <s_epik_cmdline>  (120) 
J2VwaWtfcHl0aG9uJywgJy1waHQnLCAnMi4wJywgJy1waCcsICc3LjAnLCAnLXRuJywgJzgnLCAnLW1hJywgJzIwMCcsICctaW1hZScsICc8aW5maWxlLm1hZT4nLCAnLW9tYWUnLCAnPG91dGZpbGUubWFlPic=

>  <r_lp_tautomer_probability>  (120) 
1

>  <r_epik_Ionization_Penalty>  (120) 
3.21923e-13

>  <r_epik_Ionization_Penalty_Charging>  (120) 
0

>  <r_epik_Ionization_Penalty_Neutral>  (120) 
3.21923e-13

>  <r_epik_State_Penalty>  (120) 
-0

>  <r_epik_Charging_Adjusted_Penalty>  (120) 
0

>  <i_epik_Tot_Q>  (120) 
0

>  <i_epik_Tot_abs_Q>  (120) 
0

>  <s_lp_Force_Field>  (120) 
OPLS3e

>  <r_lp_Energy>  (120) 
56.6127

>  <b_lp_Chiralities_Consistent>  (120) 
1

>  <s_lp_Variant>  (120) 
32:0-1

>  <s_i_glide_gridfile>  (120) 
pfpi4k_grid

>  <i_i_glide_lignum>  (120) 
20

>  <i_i_glide_rotatable_bonds>  (120) 
0

>  <r_i_docking_score>  (120) 
-3.17822

>  <r_i_glide_ligand_efficiency>  (120) 
-0.144464

>  <r_i_glide_ligand_efficiency_sa>  (120) 
-0.404795

>  <r_i_glide_ligand_efficiency_ln>  (120) 
-0.776872

>  <r_i_glide_gscore>  (120) 
-3.17822

>  <r_i_glide_lipo>  (120) 
-0.727896

>  <r_i_glide_hbond>  (120) 
0

>  <r_i_glide_metal>  (120) 
-0

>  <r_i_glide_rewards>  (120) 
-1.29942

>  <r_i_glide_evdw>  (120) 
-19.6464

>  <r_i_glide_ecoul>  (120) 
-0.794067

>  <r_i_glide_erotb>  (120) 
0

>  <r_i_glide_esite>  (120) 
-0.0494719

>  <r_i_glide_emodel>  (120) 
-24.1439

>  <r_i_glide_energy>  (120) 
-20.4405

>  <r_i_glide_einternal>  (120) 
0

>  <r_i_glide_intrahb_reward>  (120) 
-0

>  <i_i_glide_confnum>  (120) 
1

>  <i_i_glide_posenum>  (120) 
1

>  <r_i_glide_eff_state_penalty>  (120) 
0

>  <ligand_id>  (120) 
32

>  <original_smiles>  (120) 
CC1CCC2C3CCC(F)C24OC(C)(CCC14)OC(C)(C)O3

>  <smiles>  (120) 
[H]C([H])([H])C1(C([H])([H])[H])OC2([H])C([H])([H])C([H])([H])C([H])(F)C34OC(C([H])([H])[H])(O1)C([H])([H])C([H])([H])C3([H])C([H])(C([H])([H])[H])C([H])([H])C([H])([H])C24[H]

$$$$
33:0:0
     RDKit          3D

 27 30  0  0  1  0  0  0  0  0999 V2000
    7.8186   -2.2417   -0.8437 F   0  0  0  0  0  0  0  0  0  0  0  0
    6.7230   -2.9600   -0.5102 C   0  0  0  0  0  0  0  0  0  0  0  0
    6.8680   -4.1923    0.1584 C   0  0  0  0  0  0  0  0  0  0  0  0
    5.7322   -4.9564    0.4902 C   0  0  0  0  0  0  0  0  0  0  0  0
    4.4302   -4.5070    0.1591 C   0  0  0  0  0  0  0  0  0  0  0  0
    3.0697   -4.9498    0.2993 C   0  0  0  0  0  0  0  0  0  0  0  0
    2.5874   -6.1792    0.9402 C   0  0  0  0  0  0  0  0  0  0  0  0
    1.3025   -6.3447    1.2996 N   0  0  0  0  0  0  0  0  0  0  0  0
    1.1210   -7.5991    1.8761 C   0  0  0  0  0  0  0  0  0  0  0  0
   -0.0938   -8.1163    2.3791 C   0  0  0  0  0  0  0  0  0  0  0  0
   -0.1687   -9.4131    2.9296 C   0  0  0  0  0  0  0  0  0  0  0  0
    0.9830  -10.2165    2.9934 C   0  0  0  0  0  0  0  0  0  0  0  0
    0.9168  -11.4575    3.5184 F   0  0  0  0  0  0  0  0  0  0  0  0
    2.2090   -9.7229    2.5053 C   0  0  0  0  0  0  0  0  0  0  0  0
    2.2794   -8.4255    1.9578 C   0  0  0  0  0  0  0  0  0  0  0  0
    3.6660   -7.5524    1.2907 S   0  0  0  0  0  0  0  0  0  0  0  0
    2.2150   -4.1057   -0.2254 N   0  0  0  0  0  0  0  0  0  0  0  0
    2.9524   -3.0755   -0.6801 N   0  0  0  0  0  0  0  0  0  0  0  0
    4.3164   -3.2519   -0.5042 C   0  0  0  0  0  0  0  0  0  0  0  0
    5.4420   -2.4803   -0.8348 C   0  0  0  0  0  0  0  0  0  0  0  0
    2.4753   -2.2724   -1.0863 H   0  0  0  0  0  0  0  0  0  0  0  0
    7.8479   -4.5655    0.4093 H   0  0  0  0  0  0  0  0  0  0  0  0
    5.8584   -5.8999    0.9943 H   0  0  0  0  0  0  0  0  0  0  0  0
   -0.9766   -7.5048    2.3119 H   0  0  0  0  0  0  0  0  0  0  0  0
   -1.1129   -9.7868    3.2953 H   0  0  0  0  0  0  0  0  0  0  0  0
    3.0911  -10.3389    2.5473 H   0  0  0  0  0  0  0  0  0  0  0  0
    5.2913   -1.5362   -1.3381 H   0  0  0  0  0  0  0  0  0  0  0  0
  1  2  1  0
  2 20  2  0
  2  3  1  0
  3 22  1  0
  3  4  2  0
  4 23  1  0
  4  5  1  0
  5 19  2  0
  5  6  1  0
  6 17  2  0
  6  7  1  0
  7 16  1  0
  7  8  2  0
  8  9  1  0
  9 15  2  0
  9 10  1  0
 10 11  2  0
 10 24  1  0
 11 12  1  0
 11 25  1  0
 12 13  1  0
 12 14  2  0
 14 15  1  0
 14 26  1  0
 15 16  1  0
 17 18  1  0
 18 21  1  0
 18 19  1  0
 19 20  1  0
 20 27  1  0
M  END
>  <i_m_ct_stereo_status>  (121) 
1

>  <s_m_source_file>  (121) 
/var/tmp/pbs.5102264.sched01/tmpeif0x8wq/23vm_sbjim.sdf

>  <i_m_source_file_index>  (121) 
21

>  <i_lp_mmshare_version>  (121) 
48012

>  <i_f3d_flags>  (121) 
0

>  <s_epik_input>  (121) 
W2NIXTFbY0hdYyhGKVtjSF1jKGMxMiluW25IXWMyLWMobjMpc2MoYzM0KVtjSF1jKEYpW2NIXVtjSF00

>  <s_epik_cmdline>  (121) 
J2VwaWtfcHl0aG9uJywgJy1waHQnLCAnMi4wJywgJy1waCcsICc3LjAnLCAnLXRuJywgJzgnLCAnLW1hJywgJzIwMCcsICctaW1hZScsICc8aW5maWxlLm1hZT4nLCAnLW9tYWUnLCAnPG91dGZpbGUubWFlPic=

>  <r_lp_tautomer_probability>  (121) 
0.980392

>  <r_epik_Ionization_Penalty>  (121) 
4.26071e-06

>  <r_epik_Ionization_Penalty_Charging>  (121) 
0

>  <r_epik_Ionization_Penalty_Neutral>  (121) 
4.26071e-06

>  <r_epik_State_Penalty>  (121) 
0.00904526

>  <r_epik_Charging_Adjusted_Penalty>  (121) 
0.00904526

>  <i_epik_Tot_Q>  (121) 
0

>  <i_epik_Tot_abs_Q>  (121) 
0

>  <s_lp_Force_Field>  (121) 
OPLS3e

>  <r_lp_Energy>  (121) 
18.3409

>  <b_lp_Chiralities_Consistent>  (121) 
1

>  <s_lp_Variant>  (121) 
33:0-1

>  <s_i_glide_gridfile>  (121) 
pfpi4k_grid

>  <i_i_glide_lignum>  (121) 
21

>  <i_i_glide_rotatable_bonds>  (121) 
1

>  <r_i_docking_score>  (121) 
-4.0613

>  <r_i_glide_ligand_efficiency>  (121) 
-0.203065

>  <r_i_glide_ligand_efficiency_sa>  (121) 
-0.551203

>  <r_i_glide_ligand_efficiency_ln>  (121) 
-1.01641

>  <r_i_glide_gscore>  (121) 
-4.0613

>  <r_i_glide_lipo>  (121) 
-0.532663

>  <r_i_glide_hbond>  (121) 
-0.155635

>  <r_i_glide_metal>  (121) 
-0

>  <r_i_glide_rewards>  (121) 
-1.66902

>  <r_i_glide_evdw>  (121) 
-24.9173

>  <r_i_glide_ecoul>  (121) 
-3.89603

>  <r_i_glide_erotb>  (121) 
0.220198

>  <r_i_glide_esite>  (121) 
-0.0939078

>  <r_i_glide_emodel>  (121) 
-34.7067

>  <r_i_glide_energy>  (121) 
-28.8133

>  <r_i_glide_einternal>  (121) 
5.09846

>  <r_i_glide_intrahb_reward>  (121) 
-0

>  <i_i_glide_confnum>  (121) 
2

>  <i_i_glide_posenum>  (121) 
26

>  <r_i_glide_eff_state_penalty>  (121) 
0

>  <ligand_id>  (121) 
33

>  <original_smiles>  (121) 
Fc1ccc2c(-c3nc4ccc(F)cc4s3)[nH]nc2c1

>  <smiles>  (121) 
[H]c1c(F)c([H])c2sc(-c3nn([H])c4c([H])c(F)c([H])c([H])c34)nc2c1[H]

$$$$
33:0:1
     RDKit          3D

 27 30  0  0  1  0  0  0  0  0999 V2000
    5.7712   -9.5118    2.7631 F   0  0  0  0  0  0  0  0  0  0  0  0
    5.8280   -8.3150    2.1362 C   0  0  0  0  0  0  0  0  0  0  0  0
    4.7865   -7.9099    1.2809 C   0  0  0  0  0  0  0  0  0  0  0  0
    4.8497   -6.6564    0.6348 C   0  0  0  0  0  0  0  0  0  0  0  0
    5.9576   -5.7884    0.8260 C   0  0  0  0  0  0  0  0  0  0  0  0
    6.4068   -4.4974    0.3783 C   0  0  0  0  0  0  0  0  0  0  0  0
    5.6776   -3.6273   -0.5472 C   0  0  0  0  0  0  0  0  0  0  0  0
    4.6023   -4.0274   -1.2310 N   0  0  0  0  0  0  0  0  0  0  0  0
    4.1306   -3.0047   -2.0391 C   0  0  0  0  0  0  0  0  0  0  0  0
    3.0289   -3.0597   -2.9157 C   0  0  0  0  0  0  0  0  0  0  0  0
    2.6477   -1.9540   -3.6866 C   0  0  0  0  0  0  0  0  0  0  0  0
    3.3728   -0.7532   -3.6049 C   0  0  0  0  0  0  0  0  0  0  0  0
    3.0237    0.3015   -4.3745 F   0  0  0  0  0  0  0  0  0  0  0  0
    4.4563   -0.6586   -2.7195 C   0  0  0  0  0  0  0  0  0  0  0  0
    4.8415   -1.7752   -1.9566 C   0  0  0  0  0  0  0  0  0  0  0  0
    6.1745   -1.9477   -0.8136 S   0  0  0  0  0  0  0  0  0  0  0  0
    7.5643   -4.1574    0.8951 N   0  0  0  0  0  0  0  0  0  0  0  0
    7.9182   -5.2020    1.6798 N   0  0  0  0  0  0  0  0  0  0  0  0
    6.9913   -6.2326    1.6923 C   0  0  0  0  0  0  0  0  0  0  0  0
    6.9341   -7.4728    2.3426 C   0  0  0  0  0  0  0  0  0  0  0  0
    8.7842   -5.1713    2.2101 H   0  0  0  0  0  0  0  0  0  0  0  0
    3.9419   -8.5673    1.1210 H   0  0  0  0  0  0  0  0  0  0  0  0
    4.0517   -6.3632   -0.0276 H   0  0  0  0  0  0  0  0  0  0  0  0
    2.4533   -3.9676   -2.9974 H   0  0  0  0  0  0  0  0  0  0  0  0
    1.7831   -2.0333   -4.3248 H   0  0  0  0  0  0  0  0  0  0  0  0
    4.9996    0.2648   -2.6472 H   0  0  0  0  0  0  0  0  0  0  0  0
    7.7342   -7.7750    2.9930 H   0  0  0  0  0  0  0  0  0  0  0  0
  1  2  1  0
  2 20  2  0
  2  3  1  0
  3 22  1  0
  3  4  2  0
  4 23  1  0
  4  5  1  0
  5 19  2  0
  5  6  1  0
  6 17  2  0
  6  7  1  0
  7 16  1  0
  7  8  2  0
  8  9  1  0
  9 15  2  0
  9 10  1  0
 10 11  2  0
 10 24  1  0
 11 12  1  0
 11 25  1  0
 12 13  1  0
 12 14  2  0
 14 15  1  0
 14 26  1  0
 15 16  1  0
 17 18  1  0
 18 21  1  0
 18 19  1  0
 19 20  1  0
 20 27  1  0
M  END
>  <i_m_ct_stereo_status>  (122) 
1

>  <s_m_source_file>  (122) 
/var/tmp/pbs.5102264.sched01/tmpeif0x8wq/23vm_sbjim.sdf

>  <i_m_source_file_index>  (122) 
21

>  <i_lp_mmshare_version>  (122) 
48012

>  <i_f3d_flags>  (122) 
0

>  <s_epik_input>  (122) 
W2NIXTFbY0hdYyhGKVtjSF1jKGMxMiluW25IXWMyLWMobjMpc2MoYzM0KVtjSF1jKEYpW2NIXVtjSF00

>  <s_epik_cmdline>  (122) 
J2VwaWtfcHl0aG9uJywgJy1waHQnLCAnMi4wJywgJy1waCcsICc3LjAnLCAnLXRuJywgJzgnLCAnLW1hJywgJzIwMCcsICctaW1hZScsICc8aW5maWxlLm1hZT4nLCAnLW9tYWUnLCAnPG91dGZpbGUubWFlPic=

>  <r_lp_tautomer_probability>  (122) 
0.980392

>  <r_epik_Ionization_Penalty>  (122) 
4.26071e-06

>  <r_epik_Ionization_Penalty_Charging>  (122) 
0

>  <r_epik_Ionization_Penalty_Neutral>  (122) 
4.26071e-06

>  <r_epik_State_Penalty>  (122) 
0.00904526

>  <r_epik_Charging_Adjusted_Penalty>  (122) 
0.00904526

>  <i_epik_Tot_Q>  (122) 
0

>  <i_epik_Tot_abs_Q>  (122) 
0

>  <s_lp_Force_Field>  (122) 
OPLS3e

>  <r_lp_Energy>  (122) 
18.3409

>  <b_lp_Chiralities_Consistent>  (122) 
1

>  <s_lp_Variant>  (122) 
33:0-1

>  <s_i_glide_gridfile>  (122) 
pfpi4k_grid

>  <i_i_glide_lignum>  (122) 
21

>  <i_i_glide_rotatable_bonds>  (122) 
1

>  <r_i_docking_score>  (122) 
-3.93113

>  <r_i_glide_ligand_efficiency>  (122) 
-0.196557

>  <r_i_glide_ligand_efficiency_sa>  (122) 
-0.533537

>  <r_i_glide_ligand_efficiency_ln>  (122) 
-0.983833

>  <r_i_glide_gscore>  (122) 
-3.93113

>  <r_i_glide_lipo>  (122) 
-1.0581

>  <r_i_glide_hbond>  (122) 
0

>  <r_i_glide_metal>  (122) 
-0

>  <r_i_glide_rewards>  (122) 
-1.45031

>  <r_i_glide_evdw>  (122) 
-25.9796

>  <r_i_glide_ecoul>  (122) 
-2.13332

>  <r_i_glide_erotb>  (122) 
0.220198

>  <r_i_glide_esite>  (122) 
-0.0239417

>  <r_i_glide_emodel>  (122) 
-36.152

>  <r_i_glide_energy>  (122) 
-28.1129

>  <r_i_glide_einternal>  (122) 
0.324148

>  <r_i_glide_intrahb_reward>  (122) 
-0

>  <i_i_glide_confnum>  (122) 
4

>  <i_i_glide_posenum>  (122) 
7

>  <r_i_glide_eff_state_penalty>  (122) 
0

>  <ligand_id>  (122) 
33

>  <original_smiles>  (122) 
Fc1ccc2c(-c3nc4ccc(F)cc4s3)[nH]nc2c1

>  <smiles>  (122) 
[H]c1c(F)c([H])c2sc(-c3nn([H])c4c([H])c(F)c([H])c([H])c34)nc2c1[H]

$$$$
33:0:2
     RDKit          3D

 27 30  0  0  1  0  0  0  0  0999 V2000
    1.2613  -11.8727    4.0534 F   0  0  0  0  0  0  0  0  0  0  0  0
    1.4401  -10.7036    3.4083 C   0  0  0  0  0  0  0  0  0  0  0  0
    2.7284  -10.2903    3.0219 C   0  0  0  0  0  0  0  0  0  0  0  0
    2.9082   -9.0538    2.3707 C   0  0  0  0  0  0  0  0  0  0  0  0
    1.8073   -8.2079    2.0891 C   0  0  0  0  0  0  0  0  0  0  0  0
    1.5478   -6.9323    1.4749 C   0  0  0  0  0  0  0  0  0  0  0  0
    2.5469   -6.0239    0.8823 C   0  0  0  0  0  0  0  0  0  0  0  0
    2.1837   -4.9416    0.1923 N   0  0  0  0  0  0  0  0  0  0  0  0
    3.2898   -4.2432   -0.2549 C   0  0  0  0  0  0  0  0  0  0  0  0
    3.2648   -3.0480   -0.9952 C   0  0  0  0  0  0  0  0  0  0  0  0
    4.4527   -2.4157   -1.4002 C   0  0  0  0  0  0  0  0  0  0  0  0
    5.6994   -2.9796   -1.0634 C   0  0  0  0  0  0  0  0  0  0  0  0
    6.8416   -2.3648   -1.4550 F   0  0  0  0  0  0  0  0  0  0  0  0
    5.7491   -4.1722   -0.3179 C   0  0  0  0  0  0  0  0  0  0  0  0
    4.5552   -4.7988    0.0813 C   0  0  0  0  0  0  0  0  0  0  0  0
    4.3014   -6.2855    1.0077 S   0  0  0  0  0  0  0  0  0  0  0  0
    0.2641   -6.6332    1.4670 N   0  0  0  0  0  0  0  0  0  0  0  0
   -0.3498   -7.6706    2.0837 N   0  0  0  0  0  0  0  0  0  0  0  0
    0.5195   -8.6681    2.4851 C   0  0  0  0  0  0  0  0  0  0  0  0
    0.3277   -9.8931    3.1362 C   0  0  0  0  0  0  0  0  0  0  0  0
   -1.3546   -7.6878    2.1921 H   0  0  0  0  0  0  0  0  0  0  0  0
    3.5826  -10.9198    3.2227 H   0  0  0  0  0  0  0  0  0  0  0  0
    3.9058   -8.7675    2.0870 H   0  0  0  0  0  0  0  0  0  0  0  0
    2.3022   -2.6227   -1.2407 H   0  0  0  0  0  0  0  0  0  0  0  0
    4.3952   -1.4972   -1.9694 H   0  0  0  0  0  0  0  0  0  0  0  0
    6.6949   -4.6161   -0.0519 H   0  0  0  0  0  0  0  0  0  0  0  0
   -0.6560  -10.2162    3.4296 H   0  0  0  0  0  0  0  0  0  0  0  0
  1  2  1  0
  2 20  2  0
  2  3  1  0
  3 22  1  0
  3  4  2  0
  4 23  1  0
  4  5  1  0
  5 19  2  0
  5  6  1  0
  6 17  2  0
  6  7  1  0
  7 16  1  0
  7  8  2  0
  8  9  1  0
  9 15  2  0
  9 10  1  0
 10 11  2  0
 10 24  1  0
 11 12  1  0
 11 25  1  0
 12 13  1  0
 12 14  2  0
 14 15  1  0
 14 26  1  0
 15 16  1  0
 17 18  1  0
 18 21  1  0
 18 19  1  0
 19 20  1  0
 20 27  1  0
M  END
>  <i_m_ct_stereo_status>  (123) 
1

>  <s_m_source_file>  (123) 
/var/tmp/pbs.5102264.sched01/tmpeif0x8wq/23vm_sbjim.sdf

>  <i_m_source_file_index>  (123) 
21

>  <i_lp_mmshare_version>  (123) 
48012

>  <i_f3d_flags>  (123) 
0

>  <s_epik_input>  (123) 
W2NIXTFbY0hdYyhGKVtjSF1jKGMxMiluW25IXWMyLWMobjMpc2MoYzM0KVtjSF1jKEYpW2NIXVtjSF00

>  <s_epik_cmdline>  (123) 
J2VwaWtfcHl0aG9uJywgJy1waHQnLCAnMi4wJywgJy1waCcsICc3LjAnLCAnLXRuJywgJzgnLCAnLW1hJywgJzIwMCcsICctaW1hZScsICc8aW5maWxlLm1hZT4nLCAnLW9tYWUnLCAnPG91dGZpbGUubWFlPic=

>  <r_lp_tautomer_probability>  (123) 
0.980392

>  <r_epik_Ionization_Penalty>  (123) 
4.26071e-06

>  <r_epik_Ionization_Penalty_Charging>  (123) 
0

>  <r_epik_Ionization_Penalty_Neutral>  (123) 
4.26071e-06

>  <r_epik_State_Penalty>  (123) 
0.00904526

>  <r_epik_Charging_Adjusted_Penalty>  (123) 
0.00904526

>  <i_epik_Tot_Q>  (123) 
0

>  <i_epik_Tot_abs_Q>  (123) 
0

>  <s_lp_Force_Field>  (123) 
OPLS3e

>  <r_lp_Energy>  (123) 
18.3409

>  <b_lp_Chiralities_Consistent>  (123) 
1

>  <s_lp_Variant>  (123) 
33:0-1

>  <s_i_glide_gridfile>  (123) 
pfpi4k_grid

>  <i_i_glide_lignum>  (123) 
21

>  <i_i_glide_rotatable_bonds>  (123) 
1

>  <r_i_docking_score>  (123) 
-3.75209

>  <r_i_glide_ligand_efficiency>  (123) 
-0.187604

>  <r_i_glide_ligand_efficiency_sa>  (123) 
-0.509236

>  <r_i_glide_ligand_efficiency_ln>  (123) 
-0.939023

>  <r_i_glide_gscore>  (123) 
-3.75209

>  <r_i_glide_lipo>  (123) 
-0.332512

>  <r_i_glide_hbond>  (123) 
-0.13461

>  <r_i_glide_metal>  (123) 
-0

>  <r_i_glide_rewards>  (123) 
-1.45124

>  <r_i_glide_evdw>  (123) 
-26.5876

>  <r_i_glide_ecoul>  (123) 
-3.82871

>  <r_i_glide_erotb>  (123) 
0.220198

>  <r_i_glide_esite>  (123) 
-0.150234

>  <r_i_glide_emodel>  (123) 
-35.6774

>  <r_i_glide_energy>  (123) 
-30.4163

>  <r_i_glide_einternal>  (123) 
5.09049

>  <r_i_glide_intrahb_reward>  (123) 
-0

>  <i_i_glide_confnum>  (123) 
6

>  <i_i_glide_posenum>  (123) 
12

>  <r_i_glide_eff_state_penalty>  (123) 
0

>  <ligand_id>  (123) 
33

>  <original_smiles>  (123) 
Fc1ccc2c(-c3nc4ccc(F)cc4s3)[nH]nc2c1

>  <smiles>  (123) 
[H]c1c(F)c([H])c2sc(-c3nn([H])c4c([H])c(F)c([H])c([H])c34)nc2c1[H]

$$$$
33:1:0
     RDKit          3D

 27 30  0  0  1  0  0  0  0  0999 V2000
    3.3313   -0.2857   -4.7295 F   0  0  0  0  0  0  0  0  0  0  0  0
    3.4270   -1.0774   -3.6341 C   0  0  0  0  0  0  0  0  0  0  0  0
    2.6151   -2.2349   -3.5195 C   0  0  0  0  0  0  0  0  0  0  0  0
    2.6995   -3.0582   -2.3762 C   0  0  0  0  0  0  0  0  0  0  0  0
    3.6429   -2.7260   -1.3784 C   0  0  0  0  0  0  0  0  0  0  0  0
    4.0200   -3.2983   -0.1681 C   0  0  0  0  0  0  0  0  0  0  0  0
    3.5167   -4.4997    0.5048 C   0  0  0  0  0  0  0  0  0  0  0  0
    2.3039   -5.0481    0.3330 N   0  0  0  0  0  0  0  0  0  0  0  0
    2.1516   -6.1514    1.1686 C   0  0  0  0  0  0  0  0  0  0  0  0
    1.0000   -6.9607    1.2724 C   0  0  0  0  0  0  0  0  0  0  0  0
    0.9567   -8.0712    2.1347 C   0  0  0  0  0  0  0  0  0  0  0  0
    2.0693   -8.3887    2.9326 C   0  0  0  0  0  0  0  0  0  0  0  0
    2.0261   -9.4571    3.7605 F   0  0  0  0  0  0  0  0  0  0  0  0
    3.2262   -7.5909    2.8603 C   0  0  0  0  0  0  0  0  0  0  0  0
    3.2662   -6.4835    1.9871 C   0  0  0  0  0  0  0  0  0  0  0  0
    4.5604   -5.3245    1.6825 S   0  0  0  0  0  0  0  0  0  0  0  0
    5.0216   -2.4927    0.3528 N   0  0  0  0  0  0  0  0  0  0  0  0
    5.3028   -1.4295   -0.4685 N   0  0  0  0  0  0  0  0  0  0  0  0
    4.4444   -1.6014   -1.4998 C   0  0  0  0  0  0  0  0  0  0  0  0
    4.3431   -0.7568   -2.6132 C   0  0  0  0  0  0  0  0  0  0  0  0
    5.4854   -2.6207    1.2381 H   0  0  0  0  0  0  0  0  0  0  0  0
    1.9039   -2.4678   -4.3072 H   0  0  0  0  0  0  0  0  0  0  0  0
    2.0671   -3.9260   -2.2844 H   0  0  0  0  0  0  0  0  0  0  0  0
    0.1553   -6.7422    0.6425 H   0  0  0  0  0  0  0  0  0  0  0  0
    0.0709   -8.6872    2.1642 H   0  0  0  0  0  0  0  0  0  0  0  0
    4.0744   -7.8427    3.4742 H   0  0  0  0  0  0  0  0  0  0  0  0
    4.9609    0.1191   -2.6856 H   0  0  0  0  0  0  0  0  0  0  0  0
  1  2  1  0
  2 20  2  0
  2  3  1  0
  3  4  2  0
  3 22  1  0
  4  5  1  0
  4 23  1  0
  5 19  1  0
  5  6  2  0
  6  7  1  0
  6 17  1  0
  7 16  1  0
  7  8  2  0
  8  9  1  0
  9 15  2  0
  9 10  1  0
 10 11  2  0
 10 24  1  0
 11 12  1  0
 11 25  1  0
 12 13  1  0
 12 14  2  0
 14 15  1  0
 14 26  1  0
 15 16  1  0
 17 21  1  0
 17 18  1  0
 18 19  2  0
 19 20  1  0
 20 27  1  0
M  END
>  <i_m_ct_stereo_status>  (124) 
1

>  <s_m_source_file>  (124) 
/var/tmp/pbs.5102264.sched01/tmpeif0x8wq/23vm_sbjim.sdf

>  <i_m_source_file_index>  (124) 
22

>  <i_lp_mmshare_version>  (124) 
48012

>  <i_f3d_flags>  (124) 
0

>  <s_epik_input>  (124) 
W2NIXTFbY0hdYyhGKVtjSF1jKGMxMiluW25IXWMyLWMobjMpc2MoYzM0KVtjSF1jKEYpW2NIXVtjSF00

>  <s_epik_cmdline>  (124) 
J2VwaWtfcHl0aG9uJywgJy1waHQnLCAnMi4wJywgJy1waCcsICc3LjAnLCAnLXRuJywgJzgnLCAnLW1hJywgJzIwMCcsICctaW1hZScsICc8aW5maWxlLm1hZT4nLCAnLW9tYWUnLCAnPG91dGZpbGUubWFlPic=

>  <r_lp_tautomer_probability>  (124) 
0.0196078

>  <r_epik_Ionization_Penalty>  (124) 
1.40198e-05

>  <r_epik_Ionization_Penalty_Charging>  (124) 
0

>  <r_epik_Ionization_Penalty_Neutral>  (124) 
1.40198e-05

>  <r_epik_State_Penalty>  (124) 
2.48234

>  <r_epik_Charging_Adjusted_Penalty>  (124) 
2.48234

>  <i_epik_Tot_Q>  (124) 
0

>  <i_epik_Tot_abs_Q>  (124) 
0

>  <s_lp_Force_Field>  (124) 
OPLS3e

>  <r_lp_Energy>  (124) 
18.8834

>  <b_lp_Chiralities_Consistent>  (124) 
1

>  <s_lp_Variant>  (124) 
33:0-2

>  <s_i_glide_gridfile>  (124) 
pfpi4k_grid

>  <i_i_glide_lignum>  (124) 
22

>  <i_i_glide_rotatable_bonds>  (124) 
1

>  <r_i_docking_score>  (124) 
-3.67064

>  <r_i_glide_ligand_efficiency>  (124) 
-0.183532

>  <r_i_glide_ligand_efficiency_sa>  (124) 
-0.498183

>  <r_i_glide_ligand_efficiency_ln>  (124) 
-0.91864

>  <r_i_glide_gscore>  (124) 
-3.67064

>  <r_i_glide_lipo>  (124) 
-0.563826

>  <r_i_glide_hbond>  (124) 
-0.00177466

>  <r_i_glide_metal>  (124) 
-0

>  <r_i_glide_rewards>  (124) 
-1.84989

>  <r_i_glide_evdw>  (124) 
-27.4081

>  <r_i_glide_ecoul>  (124) 
-0.635484

>  <r_i_glide_erotb>  (124) 
0.220198

>  <r_i_glide_esite>  (124) 
-0.00961896

>  <r_i_glide_emodel>  (124) 
-33.5651

>  <r_i_glide_energy>  (124) 
-28.0436

>  <r_i_glide_einternal>  (124) 
1.46647

>  <r_i_glide_intrahb_reward>  (124) 
-0

>  <i_i_glide_confnum>  (124) 
4

>  <i_i_glide_posenum>  (124) 
1

>  <r_i_glide_eff_state_penalty>  (124) 
0

>  <ligand_id>  (124) 
33

>  <original_smiles>  (124) 
Fc1ccc2c(-c3nc4ccc(F)cc4s3)[nH]nc2c1

>  <smiles>  (124) 
[H]c1c(F)c([H])c2sc(-c3c4c([H])c([H])c(F)c([H])c4nn3[H])nc2c1[H]

$$$$
33:1:1
     RDKit          3D

 27 30  0  0  1  0  0  0  0  0999 V2000
    8.8743   -7.3187    4.0263 F   0  0  0  0  0  0  0  0  0  0  0  0
    7.9867   -6.5808    3.3156 C   0  0  0  0  0  0  0  0  0  0  0  0
    8.3936   -5.9397    2.1191 C   0  0  0  0  0  0  0  0  0  0  0  0
    7.4838   -5.1539    1.3729 C   0  0  0  0  0  0  0  0  0  0  0  0
    6.1652   -5.0287    1.8633 C   0  0  0  0  0  0  0  0  0  0  0  0
    5.0238   -4.3688    1.4225 C   0  0  0  0  0  0  0  0  0  0  0  0
    4.8007   -3.5748    0.2212 C   0  0  0  0  0  0  0  0  0  0  0  0
    3.8659   -3.9028   -0.6764 N   0  0  0  0  0  0  0  0  0  0  0  0
    3.7797   -2.9386   -1.6726 C   0  0  0  0  0  0  0  0  0  0  0  0
    2.9581   -2.9813   -2.8229 C   0  0  0  0  0  0  0  0  0  0  0  0
    2.9654   -1.9355   -3.7633 C   0  0  0  0  0  0  0  0  0  0  0  0
    3.7860   -0.8146   -3.5705 C   0  0  0  0  0  0  0  0  0  0  0  0
    3.7976    0.1891   -4.4785 F   0  0  0  0  0  0  0  0  0  0  0  0
    4.6035   -0.7429   -2.4300 C   0  0  0  0  0  0  0  0  0  0  0  0
    4.6187   -1.8016   -1.4994 C   0  0  0  0  0  0  0  0  0  0  0  0
    5.5828   -2.0007   -0.0258 S   0  0  0  0  0  0  0  0  0  0  0  0
    4.0198   -4.6603    2.3249 N   0  0  0  0  0  0  0  0  0  0  0  0
    4.4671   -5.4639    3.3421 N   0  0  0  0  0  0  0  0  0  0  0  0
    5.7655   -5.6689    3.0311 C   0  0  0  0  0  0  0  0  0  0  0  0
    6.6593   -6.4513    3.7776 C   0  0  0  0  0  0  0  0  0  0  0  0
    3.0664   -4.3390    2.2672 H   0  0  0  0  0  0  0  0  0  0  0  0
    9.4167   -6.0635    1.7855 H   0  0  0  0  0  0  0  0  0  0  0  0
    7.7856   -4.6704    0.4575 H   0  0  0  0  0  0  0  0  0  0  0  0
    2.3168   -3.8378   -2.9782 H   0  0  0  0  0  0  0  0  0  0  0  0
    2.3219   -1.9861   -4.6256 H   0  0  0  0  0  0  0  0  0  0  0  0
    5.2156    0.1273   -2.2843 H   0  0  0  0  0  0  0  0  0  0  0  0
    6.3371   -6.9386    4.6833 H   0  0  0  0  0  0  0  0  0  0  0  0
  1  2  1  0
  2 20  2  0
  2  3  1  0
  3  4  2  0
  3 22  1  0
  4  5  1  0
  4 23  1  0
  5 19  1  0
  5  6  2  0
  6  7  1  0
  6 17  1  0
  7 16  1  0
  7  8  2  0
  8  9  1  0
  9 15  2  0
  9 10  1  0
 10 11  2  0
 10 24  1  0
 11 12  1  0
 11 25  1  0
 12 13  1  0
 12 14  2  0
 14 15  1  0
 14 26  1  0
 15 16  1  0
 17 21  1  0
 17 18  1  0
 18 19  2  0
 19 20  1  0
 20 27  1  0
M  END
>  <i_m_ct_stereo_status>  (125) 
1

>  <s_m_source_file>  (125) 
/var/tmp/pbs.5102264.sched01/tmpeif0x8wq/23vm_sbjim.sdf

>  <i_m_source_file_index>  (125) 
22

>  <i_lp_mmshare_version>  (125) 
48012

>  <i_f3d_flags>  (125) 
0

>  <s_epik_input>  (125) 
W2NIXTFbY0hdYyhGKVtjSF1jKGMxMiluW25IXWMyLWMobjMpc2MoYzM0KVtjSF1jKEYpW2NIXVtjSF00

>  <s_epik_cmdline>  (125) 
J2VwaWtfcHl0aG9uJywgJy1waHQnLCAnMi4wJywgJy1waCcsICc3LjAnLCAnLXRuJywgJzgnLCAnLW1hJywgJzIwMCcsICctaW1hZScsICc8aW5maWxlLm1hZT4nLCAnLW9tYWUnLCAnPG91dGZpbGUubWFlPic=

>  <r_lp_tautomer_probability>  (125) 
0.0196078

>  <r_epik_Ionization_Penalty>  (125) 
1.40198e-05

>  <r_epik_Ionization_Penalty_Charging>  (125) 
0

>  <r_epik_Ionization_Penalty_Neutral>  (125) 
1.40198e-05

>  <r_epik_State_Penalty>  (125) 
2.48234

>  <r_epik_Charging_Adjusted_Penalty>  (125) 
2.48234

>  <i_epik_Tot_Q>  (125) 
0

>  <i_epik_Tot_abs_Q>  (125) 
0

>  <s_lp_Force_Field>  (125) 
OPLS3e

>  <r_lp_Energy>  (125) 
18.8834

>  <b_lp_Chiralities_Consistent>  (125) 
1

>  <s_lp_Variant>  (125) 
33:0-2

>  <s_i_glide_gridfile>  (125) 
pfpi4k_grid

>  <i_i_glide_lignum>  (125) 
22

>  <i_i_glide_rotatable_bonds>  (125) 
1

>  <r_i_docking_score>  (125) 
-3.66537

>  <r_i_glide_ligand_efficiency>  (125) 
-0.183268

>  <r_i_glide_ligand_efficiency_sa>  (125) 
-0.497467

>  <r_i_glide_ligand_efficiency_ln>  (125) 
-0.91732

>  <r_i_glide_gscore>  (125) 
-3.66537

>  <r_i_glide_lipo>  (125) 
-0.660286

>  <r_i_glide_hbond>  (125) 
0

>  <r_i_glide_metal>  (125) 
-0

>  <r_i_glide_rewards>  (125) 
-1.70559

>  <r_i_glide_evdw>  (125) 
-24.05

>  <r_i_glide_ecoul>  (125) 
-1.95573

>  <r_i_glide_erotb>  (125) 
0.220198

>  <r_i_glide_esite>  (125) 
-0.0238301

>  <r_i_glide_emodel>  (125) 
-30.5444

>  <r_i_glide_energy>  (125) 
-26.0057

>  <r_i_glide_einternal>  (125) 
3.0731

>  <r_i_glide_intrahb_reward>  (125) 
-0

>  <i_i_glide_confnum>  (125) 
3

>  <i_i_glide_posenum>  (125) 
6

>  <r_i_glide_eff_state_penalty>  (125) 
0

>  <ligand_id>  (125) 
33

>  <original_smiles>  (125) 
Fc1ccc2c(-c3nc4ccc(F)cc4s3)[nH]nc2c1

>  <smiles>  (125) 
[H]c1c(F)c([H])c2sc(-c3c4c([H])c([H])c(F)c([H])c4nn3[H])nc2c1[H]

$$$$
33:1:2
     RDKit          3D

 27 30  0  0  1  0  0  0  0  0999 V2000
    0.5749   -8.8560    4.0433 F   0  0  0  0  0  0  0  0  0  0  0  0
    1.1298   -7.7771    3.4337 C   0  0  0  0  0  0  0  0  0  0  0  0
    0.9109   -7.5509    2.0504 C   0  0  0  0  0  0  0  0  0  0  0  0
    1.4928   -6.4295    1.4056 C   0  0  0  0  0  0  0  0  0  0  0  0
    2.2811   -5.5504    2.1858 C   0  0  0  0  0  0  0  0  0  0  0  0
    2.9936   -4.3836    1.9223 C   0  0  0  0  0  0  0  0  0  0  0  0
    3.1447   -3.6439    0.6723 C   0  0  0  0  0  0  0  0  0  0  0  0
    2.5401   -3.9472   -0.4782 N   0  0  0  0  0  0  0  0  0  0  0  0
    2.9331   -3.0521   -1.4679 C   0  0  0  0  0  0  0  0  0  0  0  0
    2.5105   -3.0610   -2.8118 C   0  0  0  0  0  0  0  0  0  0  0  0
    2.9481   -2.0849   -3.7229 C   0  0  0  0  0  0  0  0  0  0  0  0
    3.8192   -1.0607   -3.3257 C   0  0  0  0  0  0  0  0  0  0  0  0
    4.2063   -0.1167   -4.2193 F   0  0  0  0  0  0  0  0  0  0  0  0
    4.2751   -1.0396   -1.9903 C   0  0  0  0  0  0  0  0  0  0  0  0
    3.8296   -2.0214   -1.0802 C   0  0  0  0  0  0  0  0  0  0  0  0
    4.1994   -2.2151    0.6292 S   0  0  0  0  0  0  0  0  0  0  0  0
    3.5730   -3.9818    3.1131 N   0  0  0  0  0  0  0  0  0  0  0  0
    3.2623   -4.8437    4.1346 N   0  0  0  0  0  0  0  0  0  0  0  0
    2.4900   -5.7725    3.5373 C   0  0  0  0  0  0  0  0  0  0  0  0
    1.9237   -6.8839    4.1822 C   0  0  0  0  0  0  0  0  0  0  0  0
    4.1496   -3.1638    3.2506 H   0  0  0  0  0  0  0  0  0  0  0  0
    0.3031   -8.2547    1.4937 H   0  0  0  0  0  0  0  0  0  0  0  0
    1.3402   -6.2672    0.3466 H   0  0  0  0  0  0  0  0  0  0  0  0
    1.8255   -3.8283   -3.1274 H   0  0  0  0  0  0  0  0  0  0  0  0
    2.5721   -2.1061   -4.7209 H   0  0  0  0  0  0  0  0  0  0  0  0
    4.9314   -0.2515   -1.6739 H   0  0  0  0  0  0  0  0  0  0  0  0
    2.1019   -7.0436    5.2319 H   0  0  0  0  0  0  0  0  0  0  0  0
  1  2  1  0
  2 20  2  0
  2  3  1  0
  3  4  2  0
  3 22  1  0
  4  5  1  0
  4 23  1  0
  5 19  1  0
  5  6  2  0
  6  7  1  0
  6 17  1  0
  7 16  1  0
  7  8  2  0
  8  9  1  0
  9 15  2  0
  9 10  1  0
 10 11  2  0
 10 24  1  0
 11 12  1  0
 11 25  1  0
 12 13  1  0
 12 14  2  0
 14 15  1  0
 14 26  1  0
 15 16  1  0
 17 21  1  0
 17 18  1  0
 18 19  2  0
 19 20  1  0
 20 27  1  0
M  END
>  <i_m_ct_stereo_status>  (126) 
1

>  <s_m_source_file>  (126) 
/var/tmp/pbs.5102264.sched01/tmpeif0x8wq/23vm_sbjim.sdf

>  <i_m_source_file_index>  (126) 
22

>  <i_lp_mmshare_version>  (126) 
48012

>  <i_f3d_flags>  (126) 
0

>  <s_epik_input>  (126) 
W2NIXTFbY0hdYyhGKVtjSF1jKGMxMiluW25IXWMyLWMobjMpc2MoYzM0KVtjSF1jKEYpW2NIXVtjSF00

>  <s_epik_cmdline>  (126) 
J2VwaWtfcHl0aG9uJywgJy1waHQnLCAnMi4wJywgJy1waCcsICc3LjAnLCAnLXRuJywgJzgnLCAnLW1hJywgJzIwMCcsICctaW1hZScsICc8aW5maWxlLm1hZT4nLCAnLW9tYWUnLCAnPG91dGZpbGUubWFlPic=

>  <r_lp_tautomer_probability>  (126) 
0.0196078

>  <r_epik_Ionization_Penalty>  (126) 
1.40198e-05

>  <r_epik_Ionization_Penalty_Charging>  (126) 
0

>  <r_epik_Ionization_Penalty_Neutral>  (126) 
1.40198e-05

>  <r_epik_State_Penalty>  (126) 
2.48234

>  <r_epik_Charging_Adjusted_Penalty>  (126) 
2.48234

>  <i_epik_Tot_Q>  (126) 
0

>  <i_epik_Tot_abs_Q>  (126) 
0

>  <s_lp_Force_Field>  (126) 
OPLS3e

>  <r_lp_Energy>  (126) 
18.8834

>  <b_lp_Chiralities_Consistent>  (126) 
1

>  <s_lp_Variant>  (126) 
33:0-2

>  <s_i_glide_gridfile>  (126) 
pfpi4k_grid

>  <i_i_glide_lignum>  (126) 
22

>  <i_i_glide_rotatable_bonds>  (126) 
1

>  <r_i_docking_score>  (126) 
-3.55687

>  <r_i_glide_ligand_efficiency>  (126) 
-0.177844

>  <r_i_glide_ligand_efficiency_sa>  (126) 
-0.482742

>  <r_i_glide_ligand_efficiency_ln>  (126) 
-0.890168

>  <r_i_glide_gscore>  (126) 
-3.55687

>  <r_i_glide_lipo>  (126) 
-0.431403

>  <r_i_glide_hbond>  (126) 
0

>  <r_i_glide_metal>  (126) 
-0

>  <r_i_glide_rewards>  (126) 
-1.75497

>  <r_i_glide_evdw>  (126) 
-23.4891

>  <r_i_glide_ecoul>  (126) 
-2.56616

>  <r_i_glide_erotb>  (126) 
0.220198

>  <r_i_glide_esite>  (126) 
-0.0313145

>  <r_i_glide_emodel>  (126) 
-31.6513

>  <r_i_glide_energy>  (126) 
-26.0553

>  <r_i_glide_einternal>  (126) 
0.989217

>  <r_i_glide_intrahb_reward>  (126) 
-0

>  <i_i_glide_confnum>  (126) 
4

>  <i_i_glide_posenum>  (126) 
21

>  <r_i_glide_eff_state_penalty>  (126) 
0

>  <ligand_id>  (126) 
33

>  <original_smiles>  (126) 
Fc1ccc2c(-c3nc4ccc(F)cc4s3)[nH]nc2c1

>  <smiles>  (126) 
[H]c1c(F)c([H])c2sc(-c3c4c([H])c([H])c(F)c([H])c4nn3[H])nc2c1[H]

$$$$
35:0:0
     RDKit          3D

 51 55  0  0  1  0  0  0  0  0999 V2000
    1.9911   -3.2902   -4.0232 C   0  0  0  0  0  0  0  0  0  0  0  0
    2.8444   -2.1939   -3.5145 C   0  0  0  0  0  0  0  0  0  0  0  0
    3.0344   -1.2160   -4.3148 N   0  0  0  0  0  0  0  0  0  0  0  0
    3.7887   -0.1172   -3.9396 C   0  0  0  0  0  0  0  0  0  0  0  0
    3.8963    0.8626   -4.6722 O   0  0  0  0  0  0  0  0  0  0  0  0
    4.4168   -0.1789   -2.7203 N   0  0  0  0  0  0  0  0  0  0  0  0
    4.2283   -1.2315   -1.8285 C   0  0  0  0  0  0  0  0  0  0  0  0
    3.4375   -2.2646   -2.1557 C   0  0  0  0  0  0  0  0  0  0  0  0
    3.1705   -3.4227   -1.2058 C   0  0  0  0  0  0  0  0  0  0  0  0
    3.5161   -3.0847    0.1793 N   0  0  0  0  0  0  0  0  0  0  0  0
    3.1761   -4.0540    1.1326 C   0  0  0  0  0  0  0  0  0  0  0  0
    3.3574   -5.3628    0.7907 N   0  0  0  0  0  0  0  0  0  0  0  0
    2.9133   -6.3064    1.6644 C   0  0  0  0  0  0  0  0  0  0  0  0
    2.2708   -6.1223    2.8546 N   0  0  0  0  0  0  0  0  0  0  0  0
    2.1243   -4.8470    3.1552 N   0  0  0  0  0  0  0  0  0  0  0  0
    1.4883   -4.3695    4.2550 C   0  0  0  0  0  0  0  0  0  0  0  0
    0.8799   -5.1417    5.3661 C   0  0  0  0  0  0  0  0  0  0  0  0
    1.5217   -3.0358    4.1721 N   0  0  0  0  0  0  0  0  0  0  0  0
    2.2160   -2.6081    3.0467 C   0  0  0  0  0  0  0  0  0  0  0  0
    2.4443   -1.1088    2.8574 C   0  0  0  0  0  0  0  0  0  0  0  0
    3.2973   -0.5214    4.0063 C   0  0  0  0  0  0  0  0  0  0  0  0
    2.5186   -0.3628    5.3411 C   0  0  0  0  0  0  0  0  0  0  0  0
    1.3147    0.3819    5.1222 O   0  0  0  0  0  0  0  0  0  0  0  0
    0.4162   -0.1659    4.1485 C   0  0  0  0  0  0  0  0  0  0  0  0
    1.1277   -0.3096    2.7772 C   0  0  0  0  0  0  0  0  0  0  0  0
    2.5619   -3.7656    2.3787 C   0  0  0  0  0  0  0  0  0  0  0  0
    4.8305   -2.4434    0.3197 C   0  0  0  0  0  0  0  0  0  0  0  0
    4.9229   -1.1211   -0.4800 C   0  0  0  0  0  0  0  0  0  0  0  0
    4.9321    0.6126   -2.3572 H   0  0  0  0  0  0  0  0  0  0  0  0
    0.9597   -2.9524   -3.9776 H   0  0  0  0  0  0  0  0  0  0  0  0
    2.1497   -4.2264   -3.4853 H   0  0  0  0  0  0  0  0  0  0  0  0
    2.2238   -3.4500   -5.0758 H   0  0  0  0  0  0  0  0  0  0  0  0
    2.1305   -3.7400   -1.2715 H   0  0  0  0  0  0  0  0  0  0  0  0
    3.7814   -4.2551   -1.5507 H   0  0  0  0  0  0  0  0  0  0  0  0
    3.0897   -7.3423    1.4042 H   0  0  0  0  0  0  0  0  0  0  0  0
    0.4869   -4.4332    6.0686 H   0  0  0  0  0  0  0  0  0  0  0  0
    1.6273   -5.7328    5.8745 H   0  0  0  0  0  0  0  0  0  0  0  0
    0.0688   -5.7624    5.0160 H   0  0  0  0  0  0  0  0  0  0  0  0
    2.9811   -0.9308    1.9159 H   0  0  0  0  0  0  0  0  0  0  0  0
    4.2131   -1.1018    4.1419 H   0  0  0  0  0  0  0  0  0  0  0  0
    3.6297    0.4691    3.7022 H   0  0  0  0  0  0  0  0  0  0  0  0
    2.3078   -1.3106    5.8370 H   0  0  0  0  0  0  0  0  0  0  0  0
    3.1427    0.1624    6.0721 H   0  0  0  0  0  0  0  0  0  0  0  0
   -0.0230   -1.0974    4.5048 H   0  0  0  0  0  0  0  0  0  0  0  0
   -0.4521    0.4924    4.0488 H   0  0  0  0  0  0  0  0  0  0  0  0
    1.3651    0.6927    2.4255 H   0  0  0  0  0  0  0  0  0  0  0  0
    0.4714   -0.7272    2.0119 H   0  0  0  0  0  0  0  0  0  0  0  0
    5.1253   -2.3289    1.3719 H   0  0  0  0  0  0  0  0  0  0  0  0
    5.5490   -3.1293   -0.1203 H   0  0  0  0  0  0  0  0  0  0  0  0
    5.9566   -0.7949   -0.6195 H   0  0  0  0  0  0  0  0  0  0  0  0
    4.4093   -0.3539    0.0872 H   0  0  0  0  0  0  0  0  0  0  0  0
  1  2  1  0
  1 30  1  0
  1 31  1  0
  1 32  1  0
  2  8  1  0
  2  3  2  0
  3  4  1  0
  4  5  2  0
  4  6  1  0
  6 29  1  0
  6  7  1  0
  7 28  1  0
  7  8  2  0
  8  9  1  0
  9 10  1  0
  9 33  1  0
  9 34  1  0
 10 11  1  0
 10 27  1  0
 11 26  1  0
 11 12  2  0
 12 13  1  0
 13 14  2  0
 13 35  1  0
 14 15  1  0
 15 26  1  0
 15 16  1  0
 16 17  1  0
 16 18  2  0
 17 36  1  0
 17 37  1  0
 17 38  1  0
 18 19  1  0
 19 20  1  0
 19 26  2  0
 20 25  1  0
 20 21  1  0
 20 39  1  0
 21 22  1  0
 21 40  1  0
 21 41  1  0
 22 23  1  0
 22 42  1  0
 22 43  1  0
 23 24  1  0
 24 25  1  0
 24 44  1  0
 24 45  1  0
 25 46  1  0
 25 47  1  0
 27 28  1  0
 27 48  1  0
 27 49  1  0
 28 50  1  0
 28 51  1  0
M  END
>  <i_m_ct_stereo_status>  (127) 
1

>  <s_m_source_file>  (127) 
/var/tmp/pbs.5102264.sched01/tmp6iaxk4q8/46_x9h2b30.sdf

>  <i_m_source_file_index>  (127) 
1

>  <i_lp_mmshare_version>  (127) 
48012

>  <i_f3d_flags>  (127) 
0

>  <s_epik_input>  (127) 
Tz1jKFtuSF0xKW5jKFtDSDNdKWMoYzEyKVtDSDJdTihbQ0gyXVtDSDJdMiljKG5bY0hdbjMpYyhuMzQpYyhuYzRbQ0gzXSlbQ0hdNVtDSDJdW0NIMl1PW0NIMl1bQ0gyXTU=

>  <s_epik_cmdline>  (127) 
J2VwaWtfcHl0aG9uJywgJy1waHQnLCAnMi4wJywgJy1waCcsICc3LjAnLCAnLXRuJywgJzgnLCAnLW1hJywgJzIwMCcsICctaW1hZScsICc8aW5maWxlLm1hZT4nLCAnLW9tYWUnLCAnPG91dGZpbGUubWFlPic=

>  <r_lp_tautomer_probability>  (127) 
0.515088

>  <r_epik_Ionization_Penalty>  (127) 
0.050923

>  <r_epik_Ionization_Penalty_Charging>  (127) 
8.90146e-06

>  <r_epik_Ionization_Penalty_Neutral>  (127) 
0.0509141

>  <r_epik_State_Penalty>  (127) 
0.402582

>  <r_epik_Charging_Adjusted_Penalty>  (127) 
0.402591

>  <i_epik_Tot_Q>  (127) 
0

>  <i_epik_Tot_abs_Q>  (127) 
0

>  <s_lp_Force_Field>  (127) 
OPLS3e

>  <r_lp_Energy>  (127) 
43.9756

>  <b_lp_Chiralities_Consistent>  (127) 
1

>  <s_lp_Variant>  (127) 
35:0-1

>  <s_i_glide_gridfile>  (127) 
pfpi4k_grid

>  <i_i_glide_lignum>  (127) 
1

>  <i_i_glide_rotatable_bonds>  (127) 
2

>  <r_i_docking_score>  (127) 
-3.27073

>  <r_i_glide_ligand_efficiency>  (127) 
-0.116812

>  <r_i_glide_ligand_efficiency_sa>  (127) 
-0.35471

>  <r_i_glide_ligand_efficiency_ln>  (127) 
-0.754981

>  <r_i_glide_gscore>  (127) 
-3.27073

>  <r_i_glide_lipo>  (127) 
-0.394914

>  <r_i_glide_hbond>  (127) 
-0.32

>  <r_i_glide_metal>  (127) 
-0

>  <r_i_glide_rewards>  (127) 
-1.08383

>  <r_i_glide_evdw>  (127) 
-27.3136

>  <r_i_glide_ecoul>  (127) 
-2.40111

>  <r_i_glide_erotb>  (127) 
0.266836

>  <r_i_glide_esite>  (127) 
-0.0129827

>  <r_i_glide_emodel>  (127) 
-32.3074

>  <r_i_glide_energy>  (127) 
-29.7147

>  <r_i_glide_einternal>  (127) 
4.35593

>  <r_i_glide_intrahb_reward>  (127) 
-0

>  <i_i_glide_confnum>  (127) 
4

>  <i_i_glide_posenum>  (127) 
28

>  <r_i_glide_eff_state_penalty>  (127) 
0

>  <ligand_id>  (127) 
35

>  <original_smiles>  (127) 
Cc1nc(=O)[nH]c2c1CN(c1ncnn3c(C)nc(C4CCOCC4)c13)CC2

>  <smiles>  (127) 
[H]c1nc(N2C([H])([H])c3c(C([H])([H])[H])nc(=O)n([H])c3C([H])([H])C2([H])[H])c2c(C3([H])C([H])([H])C([H])([H])OC([H])([H])C3([H])[H])nc(C([H])([H])[H])n2n1

$$$$
35:0:1
     RDKit          3D

 51 55  0  0  1  0  0  0  0  0999 V2000
    2.1111   -3.3080   -3.8913 C   0  0  0  0  0  0  0  0  0  0  0  0
    3.0132   -2.2532   -3.3160 C   0  0  0  0  0  0  0  0  0  0  0  0
    3.1860   -1.1979   -4.0149 N   0  0  0  0  0  0  0  0  0  0  0  0
    3.9639   -0.1446   -3.5468 C   0  0  0  0  0  0  0  0  0  0  0  0
    4.1056    0.8900   -4.1935 O   0  0  0  0  0  0  0  0  0  0  0  0
    4.6031   -0.3034   -2.3535 N   0  0  0  0  0  0  0  0  0  0  0  0
    4.4597   -1.4489   -1.5709 C   0  0  0  0  0  0  0  0  0  0  0  0
    3.6689   -2.4502   -1.9864 C   0  0  0  0  0  0  0  0  0  0  0  0
    3.4574   -3.6972   -1.1342 C   0  0  0  0  0  0  0  0  0  0  0  0
    3.8737   -3.5006    0.2644 N   0  0  0  0  0  0  0  0  0  0  0  0
    3.5436   -4.5379    1.1604 C   0  0  0  0  0  0  0  0  0  0  0  0
    3.4250   -5.7912    0.6422 N   0  0  0  0  0  0  0  0  0  0  0  0
    3.0133   -6.7921    1.4660 C   0  0  0  0  0  0  0  0  0  0  0  0
    2.6632   -6.7256    2.7729 N   0  0  0  0  0  0  0  0  0  0  0  0
    2.8105   -5.4915    3.2466 N   0  0  0  0  0  0  0  0  0  0  0  0
    2.5391   -5.1176    4.5313 C   0  0  0  0  0  0  0  0  0  0  0  0
    2.0375   -6.0009    5.6181 C   0  0  0  0  0  0  0  0  0  0  0  0
    2.8140   -3.8133    4.6582 N   0  0  0  0  0  0  0  0  0  0  0  0
    3.2786   -3.3115    3.4338 C   0  0  0  0  0  0  0  0  0  0  0  0
    3.7250   -1.8769    3.3786 C   0  0  0  0  0  0  0  0  0  0  0  0
    4.9724   -1.6625    4.2585 C   0  0  0  0  0  0  0  0  0  0  0  0
    5.3681   -0.1821    4.3139 C   0  0  0  0  0  0  0  0  0  0  0  0
    4.2651    0.5914    4.7681 O   0  0  0  0  0  0  0  0  0  0  0  0
    3.1482    0.5294    3.8874 C   0  0  0  0  0  0  0  0  0  0  0  0
    2.6155   -0.9082    3.8160 C   0  0  0  0  0  0  0  0  0  0  0  0
    3.2504   -4.3740    2.5480 C   0  0  0  0  0  0  0  0  0  0  0  0
    5.1945   -2.8845    0.3987 C   0  0  0  0  0  0  0  0  0  0  0  0
    5.2269   -1.4781   -0.2558 C   0  0  0  0  0  0  0  0  0  0  0  0
    5.1446    0.4557   -1.9556 H   0  0  0  0  0  0  0  0  0  0  0  0
    1.0680   -2.9898   -3.7878 H   0  0  0  0  0  0  0  0  0  0  0  0
    2.2396   -4.2584   -3.4009 H   0  0  0  0  0  0  0  0  0  0  0  0
    2.3218   -3.4516   -4.9496 H   0  0  0  0  0  0  0  0  0  0  0  0
    2.4160   -4.0208   -1.1834 H   0  0  0  0  0  0  0  0  0  0  0  0
    4.0806   -4.4859   -1.5616 H   0  0  0  0  0  0  0  0  0  0  0  0
    2.9574   -7.7668    1.0199 H   0  0  0  0  0  0  0  0  0  0  0  0
    1.9005   -5.4177    6.5262 H   0  0  0  0  0  0  0  0  0  0  0  0
    2.7624   -6.7902    5.8197 H   0  0  0  0  0  0  0  0  0  0  0  0
    1.0806   -6.4420    5.3380 H   0  0  0  0  0  0  0  0  0  0  0  0
    3.9790   -1.5970    2.3575 H   0  0  0  0  0  0  0  0  0  0  0  0
    4.7728   -2.0008    5.2760 H   0  0  0  0  0  0  0  0  0  0  0  0
    5.8046   -2.2657    3.8959 H   0  0  0  0  0  0  0  0  0  0  0  0
    6.1998   -0.0408    5.0033 H   0  0  0  0  0  0  0  0  0  0  0  0
    5.6988    0.1700    3.3378 H   0  0  0  0  0  0  0  0  0  0  0  0
    2.3711    1.1931    4.2653 H   0  0  0  0  0  0  0  0  0  0  0  0
    3.4283    0.8942    2.8997 H   0  0  0  0  0  0  0  0  0  0  0  0
    1.7673   -0.9683    3.1313 H   0  0  0  0  0  0  0  0  0  0  0  0
    2.2437   -1.1856    4.8027 H   0  0  0  0  0  0  0  0  0  0  0  0
    5.5519   -2.8707    1.4325 H   0  0  0  0  0  0  0  0  0  0  0  0
    5.8926   -3.5178   -0.1475 H   0  0  0  0  0  0  0  0  0  0  0  0
    6.2544   -1.1368   -0.4007 H   0  0  0  0  0  0  0  0  0  0  0  0
    4.7461   -0.7667    0.4128 H   0  0  0  0  0  0  0  0  0  0  0  0
  1  2  1  0
  1 30  1  0
  1 31  1  0
  1 32  1  0
  2  8  1  0
  2  3  2  0
  3  4  1  0
  4  5  2  0
  4  6  1  0
  6 29  1  0
  6  7  1  0
  7 28  1  0
  7  8  2  0
  8  9  1  0
  9 10  1  0
  9 33  1  0
  9 34  1  0
 10 11  1  0
 10 27  1  0
 11 26  1  0
 11 12  2  0
 12 13  1  0
 13 14  2  0
 13 35  1  0
 14 15  1  0
 15 26  1  0
 15 16  1  0
 16 17  1  0
 16 18  2  0
 17 36  1  0
 17 37  1  0
 17 38  1  0
 18 19  1  0
 19 20  1  0
 19 26  2  0
 20 25  1  0
 20 21  1  0
 20 39  1  0
 21 22  1  0
 21 40  1  0
 21 41  1  0
 22 23  1  0
 22 42  1  0
 22 43  1  0
 23 24  1  0
 24 25  1  0
 24 44  1  0
 24 45  1  0
 25 46  1  0
 25 47  1  0
 27 28  1  0
 27 48  1  0
 27 49  1  0
 28 50  1  0
 28 51  1  0
M  END
>  <i_m_ct_stereo_status>  (128) 
1

>  <s_m_source_file>  (128) 
/var/tmp/pbs.5102264.sched01/tmp6iaxk4q8/46_x9h2b30.sdf

>  <i_m_source_file_index>  (128) 
1

>  <i_lp_mmshare_version>  (128) 
48012

>  <i_f3d_flags>  (128) 
0

>  <s_epik_input>  (128) 
Tz1jKFtuSF0xKW5jKFtDSDNdKWMoYzEyKVtDSDJdTihbQ0gyXVtDSDJdMiljKG5bY0hdbjMpYyhuMzQpYyhuYzRbQ0gzXSlbQ0hdNVtDSDJdW0NIMl1PW0NIMl1bQ0gyXTU=

>  <s_epik_cmdline>  (128) 
J2VwaWtfcHl0aG9uJywgJy1waHQnLCAnMi4wJywgJy1waCcsICc3LjAnLCAnLXRuJywgJzgnLCAnLW1hJywgJzIwMCcsICctaW1hZScsICc8aW5maWxlLm1hZT4nLCAnLW9tYWUnLCAnPG91dGZpbGUubWFlPic=

>  <r_lp_tautomer_probability>  (128) 
0.515088

>  <r_epik_Ionization_Penalty>  (128) 
0.050923

>  <r_epik_Ionization_Penalty_Charging>  (128) 
8.90146e-06

>  <r_epik_Ionization_Penalty_Neutral>  (128) 
0.0509141

>  <r_epik_State_Penalty>  (128) 
0.402582

>  <r_epik_Charging_Adjusted_Penalty>  (128) 
0.402591

>  <i_epik_Tot_Q>  (128) 
0

>  <i_epik_Tot_abs_Q>  (128) 
0

>  <s_lp_Force_Field>  (128) 
OPLS3e

>  <r_lp_Energy>  (128) 
43.9756

>  <b_lp_Chiralities_Consistent>  (128) 
1

>  <s_lp_Variant>  (128) 
35:0-1

>  <s_i_glide_gridfile>  (128) 
pfpi4k_grid

>  <i_i_glide_lignum>  (128) 
1

>  <i_i_glide_rotatable_bonds>  (128) 
2

>  <r_i_docking_score>  (128) 
-3.23205

>  <r_i_glide_ligand_efficiency>  (128) 
-0.11543

>  <r_i_glide_ligand_efficiency_sa>  (128) 
-0.350515

>  <r_i_glide_ligand_efficiency_ln>  (128) 
-0.746053

>  <r_i_glide_gscore>  (128) 
-3.23205

>  <r_i_glide_lipo>  (128) 
-0.433384

>  <r_i_glide_hbond>  (128) 
-0.32

>  <r_i_glide_metal>  (128) 
-0

>  <r_i_glide_rewards>  (128) 
-1.09043

>  <r_i_glide_evdw>  (128) 
-24.1074

>  <r_i_glide_ecoul>  (128) 
-2.9669

>  <r_i_glide_erotb>  (128) 
0.266836

>  <r_i_glide_esite>  (128) 
-0.00467428

>  <r_i_glide_emodel>  (128) 
-31.9981

>  <r_i_glide_energy>  (128) 
-27.0743

>  <r_i_glide_einternal>  (128) 
2.04141

>  <r_i_glide_intrahb_reward>  (128) 
-0

>  <i_i_glide_confnum>  (128) 
1

>  <i_i_glide_posenum>  (128) 
20

>  <r_i_glide_eff_state_penalty>  (128) 
0

>  <ligand_id>  (128) 
35

>  <original_smiles>  (128) 
Cc1nc(=O)[nH]c2c1CN(c1ncnn3c(C)nc(C4CCOCC4)c13)CC2

>  <smiles>  (128) 
[H]c1nc(N2C([H])([H])c3c(C([H])([H])[H])nc(=O)n([H])c3C([H])([H])C2([H])[H])c2c(C3([H])C([H])([H])C([H])([H])OC([H])([H])C3([H])[H])nc(C([H])([H])[H])n2n1

$$$$
35:0:2
     RDKit          3D

 51 55  0  0  1  0  0  0  0  0999 V2000
    3.3001    2.0149    6.2960 C   0  0  0  0  0  0  0  0  0  0  0  0
    2.8214    2.4419    4.9243 C   0  0  0  0  0  0  0  0  0  0  0  0
    3.0271    3.6640    4.5724 N   0  0  0  0  0  0  0  0  0  0  0  0
    2.6137    4.1432    3.3147 C   0  0  0  0  0  0  0  0  0  0  0  0
    2.8046    5.3020    2.9483 O   0  0  0  0  0  0  0  0  0  0  0  0
    1.9798    3.2760    2.4900 N   0  0  0  0  0  0  0  0  0  0  0  0
    1.7371    1.9480    2.8331 C   0  0  0  0  0  0  0  0  0  0  0  0
    2.1369    1.4654    4.0210 C   0  0  0  0  0  0  0  0  0  0  0  0
    1.9063    0.0006    4.4098 C   0  0  0  0  0  0  0  0  0  0  0  0
    1.6124   -0.8282    3.2352 N   0  0  0  0  0  0  0  0  0  0  0  0
    1.5517   -2.2093    3.4800 C   0  0  0  0  0  0  0  0  0  0  0  0
    0.6485   -2.6545    4.3942 N   0  0  0  0  0  0  0  0  0  0  0  0
    0.6768   -3.9783    4.7150 C   0  0  0  0  0  0  0  0  0  0  0  0
    1.5005   -4.9534    4.2515 N   0  0  0  0  0  0  0  0  0  0  0  0
    2.3506   -4.4780    3.3480 N   0  0  0  0  0  0  0  0  0  0  0  0
    3.3155   -5.2110    2.7116 C   0  0  0  0  0  0  0  0  0  0  0  0
    3.5927   -6.6623    2.9041 C   0  0  0  0  0  0  0  0  0  0  0  0
    3.9692   -4.4037    1.8685 N   0  0  0  0  0  0  0  0  0  0  0  0
    3.4212   -3.1154    1.9315 C   0  0  0  0  0  0  0  0  0  0  0  0
    3.9491   -2.0600    0.9972 C   0  0  0  0  0  0  0  0  0  0  0  0
    3.7731   -2.5005   -0.4710 C   0  0  0  0  0  0  0  0  0  0  0  0
    4.4360   -1.5106   -1.4365 C   0  0  0  0  0  0  0  0  0  0  0  0
    5.8131   -1.3553   -1.1054 O   0  0  0  0  0  0  0  0  0  0  0  0
    5.9990   -0.8212    0.2024 C   0  0  0  0  0  0  0  0  0  0  0  0
    5.4371   -1.7737    1.2609 C   0  0  0  0  0  0  0  0  0  0  0  0
    2.4339   -3.1668    2.8960 C   0  0  0  0  0  0  0  0  0  0  0  0
    0.5619   -0.2565    2.3882 C   0  0  0  0  0  0  0  0  0  0  0  0
    0.9880    1.1105    1.8058 C   0  0  0  0  0  0  0  0  0  0  0  0
    1.5869    3.6043    1.6074 H   0  0  0  0  0  0  0  0  0  0  0  0
    4.3808    1.8715    6.2843 H   0  0  0  0  0  0  0  0  0  0  0  0
    2.8256    1.0985    6.6382 H   0  0  0  0  0  0  0  0  0  0  0  0
    3.0784    2.7908    7.0298 H   0  0  0  0  0  0  0  0  0  0  0  0
    2.7704   -0.3970    4.9349 H   0  0  0  0  0  0  0  0  0  0  0  0
    1.0601   -0.0315    5.0966 H   0  0  0  0  0  0  0  0  0  0  0  0
   -0.0556   -4.3137    5.4271 H   0  0  0  0  0  0  0  0  0  0  0  0
    4.4238   -6.9639    2.2707 H   0  0  0  0  0  0  0  0  0  0  0  0
    2.7208   -7.2507    2.6250 H   0  0  0  0  0  0  0  0  0  0  0  0
    3.8574   -6.8668    3.9393 H   0  0  0  0  0  0  0  0  0  0  0  0
    3.3945   -1.1279    1.1321 H   0  0  0  0  0  0  0  0  0  0  0  0
    4.2325   -3.4787   -0.6331 H   0  0  0  0  0  0  0  0  0  0  0  0
    2.7158   -2.6194   -0.7125 H   0  0  0  0  0  0  0  0  0  0  0  0
    4.3587   -1.8754   -2.4599 H   0  0  0  0  0  0  0  0  0  0  0  0
    3.9259   -0.5504   -1.4042 H   0  0  0  0  0  0  0  0  0  0  0  0
    7.0643   -0.6659    0.3683 H   0  0  0  0  0  0  0  0  0  0  0  0
    5.5147    0.1443    0.2827 H   0  0  0  0  0  0  0  0  0  0  0  0
    5.5799   -1.3562    2.2587 H   0  0  0  0  0  0  0  0  0  0  0  0
    6.0166   -2.6980    1.2247 H   0  0  0  0  0  0  0  0  0  0  0  0
    0.2512   -0.9440    1.5969 H   0  0  0  0  0  0  0  0  0  0  0  0
   -0.3163   -0.0897    3.0131 H   0  0  0  0  0  0  0  0  0  0  0  0
    0.1319    1.6598    1.4008 H   0  0  0  0  0  0  0  0  0  0  0  0
    1.6618    0.9154    0.9759 H   0  0  0  0  0  0  0  0  0  0  0  0
  1  2  1  0
  1 30  1  0
  1 31  1  0
  1 32  1  0
  2  8  1  0
  2  3  2  0
  3  4  1  0
  4  5  2  0
  4  6  1  0
  6 29  1  0
  6  7  1  0
  7 28  1  0
  7  8  2  0
  8  9  1  0
  9 10  1  0
  9 33  1  0
  9 34  1  0
 10 11  1  0
 10 27  1  0
 11 26  1  0
 11 12  2  0
 12 13  1  0
 13 14  2  0
 13 35  1  0
 14 15  1  0
 15 26  1  0
 15 16  1  0
 16 17  1  0
 16 18  2  0
 17 36  1  0
 17 37  1  0
 17 38  1  0
 18 19  1  0
 19 20  1  0
 19 26  2  0
 20 25  1  0
 20 21  1  0
 20 39  1  0
 21 22  1  0
 21 40  1  0
 21 41  1  0
 22 23  1  0
 22 42  1  0
 22 43  1  0
 23 24  1  0
 24 25  1  0
 24 44  1  0
 24 45  1  0
 25 46  1  0
 25 47  1  0
 27 28  1  0
 27 48  1  0
 27 49  1  0
 28 50  1  0
 28 51  1  0
M  END
>  <i_m_ct_stereo_status>  (129) 
1

>  <s_m_source_file>  (129) 
/var/tmp/pbs.5102264.sched01/tmp6iaxk4q8/46_x9h2b30.sdf

>  <i_m_source_file_index>  (129) 
1

>  <i_lp_mmshare_version>  (129) 
48012

>  <i_f3d_flags>  (129) 
0

>  <s_epik_input>  (129) 
Tz1jKFtuSF0xKW5jKFtDSDNdKWMoYzEyKVtDSDJdTihbQ0gyXVtDSDJdMiljKG5bY0hdbjMpYyhuMzQpYyhuYzRbQ0gzXSlbQ0hdNVtDSDJdW0NIMl1PW0NIMl1bQ0gyXTU=

>  <s_epik_cmdline>  (129) 
J2VwaWtfcHl0aG9uJywgJy1waHQnLCAnMi4wJywgJy1waCcsICc3LjAnLCAnLXRuJywgJzgnLCAnLW1hJywgJzIwMCcsICctaW1hZScsICc8aW5maWxlLm1hZT4nLCAnLW9tYWUnLCAnPG91dGZpbGUubWFlPic=

>  <r_lp_tautomer_probability>  (129) 
0.515088

>  <r_epik_Ionization_Penalty>  (129) 
0.050923

>  <r_epik_Ionization_Penalty_Charging>  (129) 
8.90146e-06

>  <r_epik_Ionization_Penalty_Neutral>  (129) 
0.0509141

>  <r_epik_State_Penalty>  (129) 
0.402582

>  <r_epik_Charging_Adjusted_Penalty>  (129) 
0.402591

>  <i_epik_Tot_Q>  (129) 
0

>  <i_epik_Tot_abs_Q>  (129) 
0

>  <s_lp_Force_Field>  (129) 
OPLS3e

>  <r_lp_Energy>  (129) 
43.9756

>  <b_lp_Chiralities_Consistent>  (129) 
1

>  <s_lp_Variant>  (129) 
35:0-1

>  <s_i_glide_gridfile>  (129) 
pfpi4k_grid

>  <i_i_glide_lignum>  (129) 
1

>  <i_i_glide_rotatable_bonds>  (129) 
2

>  <r_i_docking_score>  (129) 
-2.78867

>  <r_i_glide_ligand_efficiency>  (129) 
-0.0995955

>  <r_i_glide_ligand_efficiency_sa>  (129) 
-0.302431

>  <r_i_glide_ligand_efficiency_ln>  (129) 
-0.643708

>  <r_i_glide_gscore>  (129) 
-2.78867

>  <r_i_glide_lipo>  (129) 
-0.187144

>  <r_i_glide_hbond>  (129) 
-0.216941

>  <r_i_glide_metal>  (129) 
-0

>  <r_i_glide_rewards>  (129) 
-0.810603

>  <r_i_glide_evdw>  (129) 
-25.9523

>  <r_i_glide_ecoul>  (129) 
-2.82344

>  <r_i_glide_erotb>  (129) 
0.266836

>  <r_i_glide_esite>  (129) 
-0.119691

>  <r_i_glide_emodel>  (129) 
-32.0163

>  <r_i_glide_energy>  (129) 
-28.7757

>  <r_i_glide_einternal>  (129) 
3.25729

>  <r_i_glide_intrahb_reward>  (129) 
-0

>  <i_i_glide_confnum>  (129) 
2

>  <i_i_glide_posenum>  (129) 
2

>  <r_i_glide_eff_state_penalty>  (129) 
0

>  <ligand_id>  (129) 
35

>  <original_smiles>  (129) 
Cc1nc(=O)[nH]c2c1CN(c1ncnn3c(C)nc(C4CCOCC4)c13)CC2

>  <smiles>  (129) 
[H]c1nc(N2C([H])([H])c3c(C([H])([H])[H])nc(=O)n([H])c3C([H])([H])C2([H])[H])c2c(C3([H])C([H])([H])C([H])([H])OC([H])([H])C3([H])[H])nc(C([H])([H])[H])n2n1

$$$$
35:1:0
     RDKit          3D

 51 55  0  0  1  0  0  0  0  0999 V2000
    1.9178   -3.4560   -3.7419 C   0  0  0  0  0  0  0  0  0  0  0  0
    2.8261   -2.3870   -3.2535 C   0  0  0  0  0  0  0  0  0  0  0  0
    3.0706   -1.4062   -4.2185 N   0  0  0  0  0  0  0  0  0  0  0  0
    3.8046   -0.3158   -3.9563 C   0  0  0  0  0  0  0  0  0  0  0  0
    3.9041    0.5788   -4.8039 O   0  0  0  0  0  0  0  0  0  0  0  0
    4.4622   -0.2548   -2.7128 N   0  0  0  0  0  0  0  0  0  0  0  0
    4.2400   -1.1180   -1.7934 C   0  0  0  0  0  0  0  0  0  0  0  0
    3.3560   -2.2826   -2.0199 C   0  0  0  0  0  0  0  0  0  0  0  0
    3.0976   -3.2412   -0.8636 C   0  0  0  0  0  0  0  0  0  0  0  0
    3.3471   -2.6762    0.4654 N   0  0  0  0  0  0  0  0  0  0  0  0
    3.0007   -3.4750    1.5501 C   0  0  0  0  0  0  0  0  0  0  0  0
    3.1395   -4.8235    1.4316 N   0  0  0  0  0  0  0  0  0  0  0  0
    2.8336   -5.5849    2.5145 C   0  0  0  0  0  0  0  0  0  0  0  0
    2.4030   -5.1815    3.7490 N   0  0  0  0  0  0  0  0  0  0  0  0
    2.2831   -3.8679    3.8151 N   0  0  0  0  0  0  0  0  0  0  0  0
    1.8819   -3.1683    4.9292 C   0  0  0  0  0  0  0  0  0  0  0  0
    1.5233   -3.7123    6.2659 C   0  0  0  0  0  0  0  0  0  0  0  0
    1.8397   -1.8791    4.5940 N   0  0  0  0  0  0  0  0  0  0  0  0
    2.1969   -1.6926    3.2480 C   0  0  0  0  0  0  0  0  0  0  0  0
    2.0990   -0.2889    2.6657 C   0  0  0  0  0  0  0  0  0  0  0  0
    3.0925    0.6853    3.3233 C   0  0  0  0  0  0  0  0  0  0  0  0
    2.6666    1.1049    4.7559 C   0  0  0  0  0  0  0  0  0  0  0  0
    1.3344    1.6398    4.7529 O   0  0  0  0  0  0  0  0  0  0  0  0
    0.3178    0.7610    4.2598 C   0  0  0  0  0  0  0  0  0  0  0  0
    0.6776    0.3045    2.8155 C   0  0  0  0  0  0  0  0  0  0  0  0
    2.5248   -2.9553    2.8092 C   0  0  0  0  0  0  0  0  0  0  0  0
    4.6848   -2.1014    0.5537 C   0  0  0  0  0  0  0  0  0  0  0  0
    4.8929   -0.9269   -0.4219 C   0  0  0  0  0  0  0  0  0  0  0  0
    2.5437   -1.5215   -5.0884 H   0  0  0  0  0  0  0  0  0  0  0  0
    1.8143   -4.2510   -3.0121 H   0  0  0  0  0  0  0  0  0  0  0  0
    2.2409   -3.8526   -4.7003 H   0  0  0  0  0  0  0  0  0  0  0  0
    0.9475   -2.9797   -3.8903 H   0  0  0  0  0  0  0  0  0  0  0  0
    3.7471   -4.0955   -1.0304 H   0  0  0  0  0  0  0  0  0  0  0  0
    2.0765   -3.6156   -0.8971 H   0  0  0  0  0  0  0  0  0  0  0  0
    2.9301   -6.6598    2.4274 H   0  0  0  0  0  0  0  0  0  0  0  0
    1.2583   -2.8693    6.8694 H   0  0  0  0  0  0  0  0  0  0  0  0
    2.3586   -4.2109    6.7364 H   0  0  0  0  0  0  0  0  0  0  0  0
    0.6640   -4.3653    6.2125 H   0  0  0  0  0  0  0  0  0  0  0  0
    2.3260   -0.3144    1.5748 H   0  0  0  0  0  0  0  0  0  0  0  0
    4.1097    0.2849    3.3016 H   0  0  0  0  0  0  0  0  0  0  0  0
    3.1216    1.5841    2.7165 H   0  0  0  0  0  0  0  0  0  0  0  0
    2.7662    0.2979    5.4838 H   0  0  0  0  0  0  0  0  0  0  0  0
    3.3540    1.8702    5.1320 H   0  0  0  0  0  0  0  0  0  0  0  0
    0.1488   -0.0674    4.9551 H   0  0  0  0  0  0  0  0  0  0  0  0
   -0.6440    1.2946    4.2449 H   0  0  0  0  0  0  0  0  0  0  0  0
    0.6192    1.1753    2.1714 H   0  0  0  0  0  0  0  0  0  0  0  0
   -0.0727   -0.3800    2.4190 H   0  0  0  0  0  0  0  0  0  0  0  0
    4.9321   -1.7907    1.5711 H   0  0  0  0  0  0  0  0  0  0  0  0
    5.3987   -2.8745    0.2880 H   0  0  0  0  0  0  0  0  0  0  0  0
    4.4678   -0.0230    0.0132 H   0  0  0  0  0  0  0  0  0  0  0  0
    5.9572   -0.7234   -0.5759 H   0  0  0  0  0  0  0  0  0  0  0  0
  1 30  1  0
  1 31  1  0
  1 32  1  0
  1  2  1  0
  2  3  1  0
  2  8  2  0
  3  4  1  0
  3 29  1  0
  4  5  2  0
  4  6  1  0
  6  7  2  0
  7  8  1  0
  7 28  1  0
  8  9  1  0
  9 10  1  0
  9 33  1  0
  9 34  1  0
 10 11  1  0
 10 27  1  0
 11 26  1  0
 11 12  2  0
 12 13  1  0
 13 14  2  0
 13 35  1  0
 14 15  1  0
 15 26  1  0
 15 16  1  0
 16 17  1  0
 16 18  2  0
 17 36  1  0
 17 37  1  0
 17 38  1  0
 18 19  1  0
 19 20  1  0
 19 26  2  0
 20 25  1  0
 20 21  1  0
 20 39  1  0
 21 22  1  0
 21 40  1  0
 21 41  1  0
 22 23  1  0
 22 42  1  0
 22 43  1  0
 23 24  1  0
 24 25  1  0
 24 44  1  0
 24 45  1  0
 25 46  1  0
 25 47  1  0
 27 28  1  0
 27 48  1  0
 27 49  1  0
 28 50  1  0
 28 51  1  0
M  END
>  <i_m_ct_stereo_status>  (130) 
1

>  <s_m_source_file>  (130) 
/var/tmp/pbs.5102264.sched01/tmp6iaxk4q8/46_x9h2b30.sdf

>  <i_m_source_file_index>  (130) 
2

>  <i_lp_mmshare_version>  (130) 
48012

>  <i_f3d_flags>  (130) 
0

>  <s_epik_input>  (130) 
Tz1jKFtuSF0xKW5jKFtDSDNdKWMoYzEyKVtDSDJdTihbQ0gyXVtDSDJdMiljKG5bY0hdbjMpYyhuMzQpYyhuYzRbQ0gzXSlbQ0hdNVtDSDJdW0NIMl1PW0NIMl1bQ0gyXTU=

>  <s_epik_cmdline>  (130) 
J2VwaWtfcHl0aG9uJywgJy1waHQnLCAnMi4wJywgJy1waCcsICc3LjAnLCAnLXRuJywgJzgnLCAnLW1hJywgJzIwMCcsICctaW1hZScsICc8aW5maWxlLm1hZT4nLCAnLW9tYWUnLCAnPG91dGZpbGUubWFlPic=

>  <r_lp_tautomer_probability>  (130) 
0.482988

>  <r_epik_Ionization_Penalty>  (130) 
0.0576586

>  <r_epik_Ionization_Penalty_Charging>  (130) 
3.46375e-05

>  <r_epik_Ionization_Penalty_Neutral>  (130) 
0.057624

>  <r_epik_State_Penalty>  (130) 
0.455035

>  <r_epik_Charging_Adjusted_Penalty>  (130) 
0.45507

>  <i_epik_Tot_Q>  (130) 
0

>  <i_epik_Tot_abs_Q>  (130) 
0

>  <s_lp_Force_Field>  (130) 
OPLS3e

>  <r_lp_Energy>  (130) 
42.6516

>  <b_lp_Chiralities_Consistent>  (130) 
1

>  <s_lp_Variant>  (130) 
35:0-2

>  <s_i_glide_gridfile>  (130) 
pfpi4k_grid

>  <i_i_glide_lignum>  (130) 
2

>  <i_i_glide_rotatable_bonds>  (130) 
2

>  <r_i_docking_score>  (130) 
-3.38577

>  <r_i_glide_ligand_efficiency>  (130) 
-0.12092

>  <r_i_glide_ligand_efficiency_sa>  (130) 
-0.367186

>  <r_i_glide_ligand_efficiency_ln>  (130) 
-0.781536

>  <r_i_glide_gscore>  (130) 
-3.38577

>  <r_i_glide_lipo>  (130) 
-0.294947

>  <r_i_glide_hbond>  (130) 
-0.32

>  <r_i_glide_metal>  (130) 
-0

>  <r_i_glide_rewards>  (130) 
-1.18435

>  <r_i_glide_evdw>  (130) 
-27.2153

>  <r_i_glide_ecoul>  (130) 
-3.03438

>  <r_i_glide_erotb>  (130) 
0.266836

>  <r_i_glide_esite>  (130) 
-0.0373879

>  <r_i_glide_emodel>  (130) 
-32.9839

>  <r_i_glide_energy>  (130) 
-30.2497

>  <r_i_glide_einternal>  (130) 
4.1034

>  <r_i_glide_intrahb_reward>  (130) 
-0

>  <i_i_glide_confnum>  (130) 
3

>  <i_i_glide_posenum>  (130) 
34

>  <r_i_glide_eff_state_penalty>  (130) 
0

>  <ligand_id>  (130) 
35

>  <original_smiles>  (130) 
Cc1nc(=O)[nH]c2c1CN(c1ncnn3c(C)nc(C4CCOCC4)c13)CC2

>  <smiles>  (130) 
[H]c1nc(N2C([H])([H])c3c(nc(=O)n([H])c3C([H])([H])[H])C([H])([H])C2([H])[H])c2c(C3([H])C([H])([H])C([H])([H])OC([H])([H])C3([H])[H])nc(C([H])([H])[H])n2n1

$$$$
35:1:1
     RDKit          3D

 51 55  0  0  1  0  0  0  0  0999 V2000
    8.2542   -2.2527   -0.4574 C   0  0  0  0  0  0  0  0  0  0  0  0
    6.7772   -2.3149   -0.8009 C   0  0  0  0  0  0  0  0  0  0  0  0
    6.4846   -3.0203   -1.9700 N   0  0  0  0  0  0  0  0  0  0  0  0
    5.2153   -3.1705   -2.4420 C   0  0  0  0  0  0  0  0  0  0  0  0
    5.0157   -3.8215   -3.4687 O   0  0  0  0  0  0  0  0  0  0  0  0
    4.1817   -2.5539   -1.7191 N   0  0  0  0  0  0  0  0  0  0  0  0
    4.4157   -1.8804   -0.6495 C   0  0  0  0  0  0  0  0  0  0  0  0
    5.7873   -1.7296   -0.0972 C   0  0  0  0  0  0  0  0  0  0  0  0
    5.9720   -0.9348    1.1986 C   0  0  0  0  0  0  0  0  0  0  0  0
    4.7622   -0.7639    1.9961 N   0  0  0  0  0  0  0  0  0  0  0  0
    4.9019   -0.2564    3.3209 C   0  0  0  0  0  0  0  0  0  0  0  0
    6.1588    0.0226    3.7509 N   0  0  0  0  0  0  0  0  0  0  0  0
    6.3152    0.5514    4.9915 C   0  0  0  0  0  0  0  0  0  0  0  0
    5.3812    0.9430    5.8860 N   0  0  0  0  0  0  0  0  0  0  0  0
    4.1618    0.6579    5.4271 N   0  0  0  0  0  0  0  0  0  0  0  0
    2.9963    0.9333    6.0777 C   0  0  0  0  0  0  0  0  0  0  0  0
    2.8447    1.5985    7.4027 C   0  0  0  0  0  0  0  0  0  0  0  0
    1.9769    0.4631    5.3652 N   0  0  0  0  0  0  0  0  0  0  0  0
    2.4541   -0.1654    4.2026 C   0  0  0  0  0  0  0  0  0  0  0  0
    1.4279   -0.8445    3.3047 C   0  0  0  0  0  0  0  0  0  0  0  0
    0.3817    0.1626    2.7580 C   0  0  0  0  0  0  0  0  0  0  0  0
   -0.6541    0.5676    3.8410 C   0  0  0  0  0  0  0  0  0  0  0  0
   -1.2439   -0.6094    4.4275 O   0  0  0  0  0  0  0  0  0  0  0  0
   -0.3079   -1.5232    5.0370 C   0  0  0  0  0  0  0  0  0  0  0  0
    0.7222   -2.0054    3.9980 C   0  0  0  0  0  0  0  0  0  0  0  0
    3.8238    0.0362    4.2270 C   0  0  0  0  0  0  0  0  0  0  0  0
    3.7266   -0.1780    1.1554 C   0  0  0  0  0  0  0  0  0  0  0  0
    3.2757   -1.2003    0.0958 C   0  0  0  0  0  0  0  0  0  0  0  0
    7.2726   -3.4318   -2.4437 H   0  0  0  0  0  0  0  0  0  0  0  0
    8.4764   -1.5415    0.3479 H   0  0  0  0  0  0  0  0  0  0  0  0
    8.8317   -1.9465   -1.3308 H   0  0  0  0  0  0  0  0  0  0  0  0
    8.6008   -3.2397   -0.1508 H   0  0  0  0  0  0  0  0  0  0  0  0
    6.2687    0.0714    0.8962 H   0  0  0  0  0  0  0  0  0  0  0  0
    6.7958   -1.3635    1.7676 H   0  0  0  0  0  0  0  0  0  0  0  0
    7.3176    0.7344    5.3226 H   0  0  0  0  0  0  0  0  0  0  0  0
    1.7764    1.6536    7.6254 H   0  0  0  0  0  0  0  0  0  0  0  0
    3.2412    2.6188    7.3788 H   0  0  0  0  0  0  0  0  0  0  0  0
    3.3222    1.0052    8.1903 H   0  0  0  0  0  0  0  0  0  0  0  0
    1.8946   -1.3884    2.4688 H   0  0  0  0  0  0  0  0  0  0  0  0
    0.8659    1.0447    2.3329 H   0  0  0  0  0  0  0  0  0  0  0  0
   -0.1610   -0.2604    1.9196 H   0  0  0  0  0  0  0  0  0  0  0  0
   -0.2092    1.2051    4.6131 H   0  0  0  0  0  0  0  0  0  0  0  0
   -1.4327    1.2058    3.4097 H   0  0  0  0  0  0  0  0  0  0  0  0
    0.1879   -1.0688    5.9028 H   0  0  0  0  0  0  0  0  0  0  0  0
   -0.8345   -2.3937    5.4462 H   0  0  0  0  0  0  0  0  0  0  0  0
    0.2053   -2.5866    3.2356 H   0  0  0  0  0  0  0  0  0  0  0  0
    1.4713   -2.6782    4.4230 H   0  0  0  0  0  0  0  0  0  0  0  0
    2.8584    0.2037    1.7162 H   0  0  0  0  0  0  0  0  0  0  0  0
    4.1406    0.7000    0.6725 H   0  0  0  0  0  0  0  0  0  0  0  0
    2.6448   -2.0044    0.4900 H   0  0  0  0  0  0  0  0  0  0  0  0
    2.6755   -0.6634   -0.6319 H   0  0  0  0  0  0  0  0  0  0  0  0
  1 30  1  0
  1 31  1  0
  1 32  1  0
  1  2  1  0
  2  3  1  0
  2  8  2  0
  3  4  1  0
  3 29  1  0
  4  5  2  0
  4  6  1  0
  6  7  2  0
  7  8  1  0
  7 28  1  0
  8  9  1  0
  9 10  1  0
  9 33  1  0
  9 34  1  0
 10 11  1  0
 10 27  1  0
 11 26  1  0
 11 12  2  0
 12 13  1  0
 13 14  2  0
 13 35  1  0
 14 15  1  0
 15 26  1  0
 15 16  1  0
 16 17  1  0
 16 18  2  0
 17 36  1  0
 17 37  1  0
 17 38  1  0
 18 19  1  0
 19 20  1  0
 19 26  2  0
 20 25  1  0
 20 21  1  0
 20 39  1  0
 21 22  1  0
 21 40  1  0
 21 41  1  0
 22 23  1  0
 22 42  1  0
 22 43  1  0
 23 24  1  0
 24 25  1  0
 24 44  1  0
 24 45  1  0
 25 46  1  0
 25 47  1  0
 27 28  1  0
 27 48  1  0
 27 49  1  0
 28 50  1  0
 28 51  1  0
M  END
>  <i_m_ct_stereo_status>  (131) 
1

>  <s_m_source_file>  (131) 
/var/tmp/pbs.5102264.sched01/tmp6iaxk4q8/46_x9h2b30.sdf

>  <i_m_source_file_index>  (131) 
2

>  <i_lp_mmshare_version>  (131) 
48012

>  <i_f3d_flags>  (131) 
0

>  <s_epik_input>  (131) 
Tz1jKFtuSF0xKW5jKFtDSDNdKWMoYzEyKVtDSDJdTihbQ0gyXVtDSDJdMiljKG5bY0hdbjMpYyhuMzQpYyhuYzRbQ0gzXSlbQ0hdNVtDSDJdW0NIMl1PW0NIMl1bQ0gyXTU=

>  <s_epik_cmdline>  (131) 
J2VwaWtfcHl0aG9uJywgJy1waHQnLCAnMi4wJywgJy1waCcsICc3LjAnLCAnLXRuJywgJzgnLCAnLW1hJywgJzIwMCcsICctaW1hZScsICc8aW5maWxlLm1hZT4nLCAnLW9tYWUnLCAnPG91dGZpbGUubWFlPic=

>  <r_lp_tautomer_probability>  (131) 
0.482988

>  <r_epik_Ionization_Penalty>  (131) 
0.0576586

>  <r_epik_Ionization_Penalty_Charging>  (131) 
3.46375e-05

>  <r_epik_Ionization_Penalty_Neutral>  (131) 
0.057624

>  <r_epik_State_Penalty>  (131) 
0.455035

>  <r_epik_Charging_Adjusted_Penalty>  (131) 
0.45507

>  <i_epik_Tot_Q>  (131) 
0

>  <i_epik_Tot_abs_Q>  (131) 
0

>  <s_lp_Force_Field>  (131) 
OPLS3e

>  <r_lp_Energy>  (131) 
42.6516

>  <b_lp_Chiralities_Consistent>  (131) 
1

>  <s_lp_Variant>  (131) 
35:0-2

>  <s_i_glide_gridfile>  (131) 
pfpi4k_grid

>  <i_i_glide_lignum>  (131) 
2

>  <i_i_glide_rotatable_bonds>  (131) 
2

>  <r_i_docking_score>  (131) 
-3.25183

>  <r_i_glide_ligand_efficiency>  (131) 
-0.116137

>  <r_i_glide_ligand_efficiency_sa>  (131) 
-0.35266

>  <r_i_glide_ligand_efficiency_ln>  (131) 
-0.750618

>  <r_i_glide_gscore>  (131) 
-3.25183

>  <r_i_glide_lipo>  (131) 
-0.263052

>  <r_i_glide_hbond>  (131) 
-0.016097

>  <r_i_glide_metal>  (131) 
-0

>  <r_i_glide_rewards>  (131) 
-1.44898

>  <r_i_glide_evdw>  (131) 
-28.9719

>  <r_i_glide_ecoul>  (131) 
-2.27962

>  <r_i_glide_erotb>  (131) 
0.266836

>  <r_i_glide_esite>  (131) 
0

>  <r_i_glide_emodel>  (131) 
-34.2674

>  <r_i_glide_energy>  (131) 
-31.2515

>  <r_i_glide_einternal>  (131) 
2.81399

>  <r_i_glide_intrahb_reward>  (131) 
-0

>  <i_i_glide_confnum>  (131) 
3

>  <i_i_glide_posenum>  (131) 
6

>  <r_i_glide_eff_state_penalty>  (131) 
0

>  <ligand_id>  (131) 
35

>  <original_smiles>  (131) 
Cc1nc(=O)[nH]c2c1CN(c1ncnn3c(C)nc(C4CCOCC4)c13)CC2

>  <smiles>  (131) 
[H]c1nc(N2C([H])([H])c3c(nc(=O)n([H])c3C([H])([H])[H])C([H])([H])C2([H])[H])c2c(C3([H])C([H])([H])C([H])([H])OC([H])([H])C3([H])[H])nc(C([H])([H])[H])n2n1

$$$$
35:1:2
     RDKit          3D

 51 55  0  0  1  0  0  0  0  0999 V2000
    8.3168   -2.2525   -0.2932 C   0  0  0  0  0  0  0  0  0  0  0  0
    6.8354   -2.2757   -0.6185 C   0  0  0  0  0  0  0  0  0  0  0  0
    6.5318   -2.8908   -1.8475 N   0  0  0  0  0  0  0  0  0  0  0  0
    5.2735   -3.0114   -2.3142 C   0  0  0  0  0  0  0  0  0  0  0  0
    5.0529   -3.5831   -3.3886 O   0  0  0  0  0  0  0  0  0  0  0  0
    4.2278   -2.4547   -1.5506 N   0  0  0  0  0  0  0  0  0  0  0  0
    4.4660   -1.8764   -0.4287 C   0  0  0  0  0  0  0  0  0  0  0  0
    5.8414   -1.7642    0.1270 C   0  0  0  0  0  0  0  0  0  0  0  0
    6.0248   -1.0734    1.4770 C   0  0  0  0  0  0  0  0  0  0  0  0
    4.8293   -1.0428    2.3280 N   0  0  0  0  0  0  0  0  0  0  0  0
    4.9990   -0.5848    3.6433 C   0  0  0  0  0  0  0  0  0  0  0  0
    6.1059    0.1381    3.9508 N   0  0  0  0  0  0  0  0  0  0  0  0
    6.2406    0.6252    5.2226 C   0  0  0  0  0  0  0  0  0  0  0  0
    5.3939    0.4924    6.2751 N   0  0  0  0  0  0  0  0  0  0  0  0
    4.3451   -0.2321    5.9422 N   0  0  0  0  0  0  0  0  0  0  0  0
    3.3121   -0.5430    6.7968 C   0  0  0  0  0  0  0  0  0  0  0  0
    3.1506   -0.1361    8.2122 C   0  0  0  0  0  0  0  0  0  0  0  0
    2.4663   -1.3139    6.1249 N   0  0  0  0  0  0  0  0  0  0  0  0
    2.9201   -1.5576    4.8192 C   0  0  0  0  0  0  0  0  0  0  0  0
    2.1305   -2.5178    3.9525 C   0  0  0  0  0  0  0  0  0  0  0  0
    0.6959   -2.0141    3.6829 C   0  0  0  0  0  0  0  0  0  0  0  0
   -0.2252   -2.1409    4.9197 C   0  0  0  0  0  0  0  0  0  0  0  0
   -0.2144   -3.4865    5.4105 O   0  0  0  0  0  0  0  0  0  0  0  0
    1.0646   -4.0001    5.7886 C   0  0  0  0  0  0  0  0  0  0  0  0
    2.0360   -3.9296    4.5826 C   0  0  0  0  0  0  0  0  0  0  0  0
    4.0655   -0.8125    4.7156 C   0  0  0  0  0  0  0  0  0  0  0  0
    3.7043   -0.4577    1.6136 C   0  0  0  0  0  0  0  0  0  0  0  0
    3.3096   -1.2891    0.3758 C   0  0  0  0  0  0  0  0  0  0  0  0
    7.3197   -3.2822   -2.3619 H   0  0  0  0  0  0  0  0  0  0  0  0
    8.5444   -1.6062    0.5553 H   0  0  0  0  0  0  0  0  0  0  0  0
    8.8957   -1.8865   -1.1404 H   0  0  0  0  0  0  0  0  0  0  0  0
    8.6636   -3.2588   -0.0626 H   0  0  0  0  0  0  0  0  0  0  0  0
    6.2804   -0.0460    1.2416 H   0  0  0  0  0  0  0  0  0  0  0  0
    6.8523   -1.5207    2.0187 H   0  0  0  0  0  0  0  0  0  0  0  0
    7.1227    1.2036    5.4410 H   0  0  0  0  0  0  0  0  0  0  0  0
    2.2236   -0.5681    8.5707 H   0  0  0  0  0  0  0  0  0  0  0  0
    3.0803    0.9428    8.2974 H   0  0  0  0  0  0  0  0  0  0  0  0
    3.9611   -0.5248    8.8192 H   0  0  0  0  0  0  0  0  0  0  0  0
    2.6307   -2.6473    2.9818 H   0  0  0  0  0  0  0  0  0  0  0  0
    0.7070   -0.9932    3.2957 H   0  0  0  0  0  0  0  0  0  0  0  0
    0.2678   -2.6244    2.8929 H   0  0  0  0  0  0  0  0  0  0  0  0
    0.0263   -1.4372    5.7138 H   0  0  0  0  0  0  0  0  0  0  0  0
   -1.2471   -1.8599    4.6552 H   0  0  0  0  0  0  0  0  0  0  0  0
    1.4360   -3.4874    6.6777 H   0  0  0  0  0  0  0  0  0  0  0  0
    0.9548   -5.0354    6.1245 H   0  0  0  0  0  0  0  0  0  0  0  0
    1.6659   -4.6195    3.8263 H   0  0  0  0  0  0  0  0  0  0  0  0
    3.0278   -4.2968    4.8512 H   0  0  0  0  0  0  0  0  0  0  0  0
    2.8388   -0.3156    2.2617 H   0  0  0  0  0  0  0  0  0  0  0  0
    3.9879    0.5411    1.2798 H   0  0  0  0  0  0  0  0  0  0  0  0
    2.6680   -2.1158    0.6792 H   0  0  0  0  0  0  0  0  0  0  0  0
    2.7174   -0.6566   -0.2840 H   0  0  0  0  0  0  0  0  0  0  0  0
  1 30  1  0
  1 31  1  0
  1 32  1  0
  1  2  1  0
  2  3  1  0
  2  8  2  0
  3  4  1  0
  3 29  1  0
  4  5  2  0
  4  6  1  0
  6  7  2  0
  7  8  1  0
  7 28  1  0
  8  9  1  0
  9 10  1  0
  9 33  1  0
  9 34  1  0
 10 11  1  0
 10 27  1  0
 11 26  1  0
 11 12  2  0
 12 13  1  0
 13 14  2  0
 13 35  1  0
 14 15  1  0
 15 26  1  0
 15 16  1  0
 16 17  1  0
 16 18  2  0
 17 36  1  0
 17 37  1  0
 17 38  1  0
 18 19  1  0
 19 20  1  0
 19 26  2  0
 20 25  1  0
 20 21  1  0
 20 39  1  0
 21 22  1  0
 21 40  1  0
 21 41  1  0
 22 23  1  0
 22 42  1  0
 22 43  1  0
 23 24  1  0
 24 25  1  0
 24 44  1  0
 24 45  1  0
 25 46  1  0
 25 47  1  0
 27 28  1  0
 27 48  1  0
 27 49  1  0
 28 50  1  0
 28 51  1  0
M  END
>  <i_m_ct_stereo_status>  (132) 
1

>  <s_m_source_file>  (132) 
/var/tmp/pbs.5102264.sched01/tmp6iaxk4q8/46_x9h2b30.sdf

>  <i_m_source_file_index>  (132) 
2

>  <i_lp_mmshare_version>  (132) 
48012

>  <i_f3d_flags>  (132) 
0

>  <s_epik_input>  (132) 
Tz1jKFtuSF0xKW5jKFtDSDNdKWMoYzEyKVtDSDJdTihbQ0gyXVtDSDJdMiljKG5bY0hdbjMpYyhuMzQpYyhuYzRbQ0gzXSlbQ0hdNVtDSDJdW0NIMl1PW0NIMl1bQ0gyXTU=

>  <s_epik_cmdline>  (132) 
J2VwaWtfcHl0aG9uJywgJy1waHQnLCAnMi4wJywgJy1waCcsICc3LjAnLCAnLXRuJywgJzgnLCAnLW1hJywgJzIwMCcsICctaW1hZScsICc8aW5maWxlLm1hZT4nLCAnLW9tYWUnLCAnPG91dGZpbGUubWFlPic=

>  <r_lp_tautomer_probability>  (132) 
0.482988

>  <r_epik_Ionization_Penalty>  (132) 
0.0576586

>  <r_epik_Ionization_Penalty_Charging>  (132) 
3.46375e-05

>  <r_epik_Ionization_Penalty_Neutral>  (132) 
0.057624

>  <r_epik_State_Penalty>  (132) 
0.455035

>  <r_epik_Charging_Adjusted_Penalty>  (132) 
0.45507

>  <i_epik_Tot_Q>  (132) 
0

>  <i_epik_Tot_abs_Q>  (132) 
0

>  <s_lp_Force_Field>  (132) 
OPLS3e

>  <r_lp_Energy>  (132) 
42.6516

>  <b_lp_Chiralities_Consistent>  (132) 
1

>  <s_lp_Variant>  (132) 
35:0-2

>  <s_i_glide_gridfile>  (132) 
pfpi4k_grid

>  <i_i_glide_lignum>  (132) 
2

>  <i_i_glide_rotatable_bonds>  (132) 
2

>  <r_i_docking_score>  (132) 
-3.12576

>  <r_i_glide_ligand_efficiency>  (132) 
-0.111634

>  <r_i_glide_ligand_efficiency_sa>  (132) 
-0.338987

>  <r_i_glide_ligand_efficiency_ln>  (132) 
-0.721517

>  <r_i_glide_gscore>  (132) 
-3.12576

>  <r_i_glide_lipo>  (132) 
-0.300673

>  <r_i_glide_hbond>  (132) 
-0.00150076

>  <r_i_glide_metal>  (132) 
-0

>  <r_i_glide_rewards>  (132) 
-1.38504

>  <r_i_glide_evdw>  (132) 
-27.0098

>  <r_i_glide_ecoul>  (132) 
-2.33638

>  <r_i_glide_erotb>  (132) 
0.266836

>  <r_i_glide_esite>  (132) 
-0.00443312

>  <r_i_glide_emodel>  (132) 
-32.6647

>  <r_i_glide_energy>  (132) 
-29.3462

>  <r_i_glide_einternal>  (132) 
2.69704

>  <r_i_glide_intrahb_reward>  (132) 
-0

>  <i_i_glide_confnum>  (132) 
3

>  <i_i_glide_posenum>  (132) 
27

>  <r_i_glide_eff_state_penalty>  (132) 
0

>  <ligand_id>  (132) 
35

>  <original_smiles>  (132) 
Cc1nc(=O)[nH]c2c1CN(c1ncnn3c(C)nc(C4CCOCC4)c13)CC2

>  <smiles>  (132) 
[H]c1nc(N2C([H])([H])c3c(nc(=O)n([H])c3C([H])([H])[H])C([H])([H])C2([H])[H])c2c(C3([H])C([H])([H])C([H])([H])OC([H])([H])C3([H])[H])nc(C([H])([H])[H])n2n1

$$$$
35:2:0
     RDKit          3D

 52 56  0  0  1  0  0  0  0  0999 V2000
    1.8834   -3.3196   -3.7360 C   0  0  0  0  0  0  0  0  0  0  0  0
    2.7838   -2.1887   -3.4115 C   0  0  0  0  0  0  0  0  0  0  0  0
    2.9741   -1.2982   -4.3187 N   0  0  0  0  0  0  0  0  0  0  0  0
    3.8157   -0.0540   -3.9714 C   0  0  0  0  0  0  0  0  0  0  0  0
    3.8390    0.8411   -4.8233 O   0  0  0  0  0  0  0  0  0  0  0  0
    4.3996   -0.0726   -2.7330 N   0  0  0  0  0  0  0  0  0  0  0  0
    4.1792   -1.1025   -1.8149 C   0  0  0  0  0  0  0  0  0  0  0  0
    3.3636   -2.1341   -2.0920 C   0  0  0  0  0  0  0  0  0  0  0  0
    3.0448   -3.1897   -1.0231 C   0  0  0  0  0  0  0  0  0  0  0  0
    3.4176   -2.7674    0.3465 N   0  0  0  0  0  0  0  0  0  0  0  0
    3.0550   -3.6489    1.3767 C   0  0  0  0  0  0  0  0  0  0  0  0
    3.3072   -4.9743    1.2208 N   0  0  0  0  0  0  0  0  0  0  0  0
    2.8596   -5.8190    2.1874 C   0  0  0  0  0  0  0  0  0  0  0  0
    2.1419   -5.5651    3.3117 N   0  0  0  0  0  0  0  0  0  0  0  0
    1.9318   -4.2653    3.4241 N   0  0  0  0  0  0  0  0  0  0  0  0
    1.2073   -3.6754    4.4332 C   0  0  0  0  0  0  0  0  0  0  0  0
    0.5730   -4.3393    5.6072 C   0  0  0  0  0  0  0  0  0  0  0  0
    1.1747   -2.3652    4.2064 N   0  0  0  0  0  0  0  0  0  0  0  0
    1.9245   -2.0381    3.0631 C   0  0  0  0  0  0  0  0  0  0  0  0
    2.1055   -0.5739    2.6994 C   0  0  0  0  0  0  0  0  0  0  0  0
    2.8274    0.2054    3.8264 C   0  0  0  0  0  0  0  0  0  0  0  0
    1.9336    0.4880    5.0698 C   0  0  0  0  0  0  0  0  0  0  0  0
    0.7151    1.1268    4.6682 O   0  0  0  0  0  0  0  0  0  0  0  0
   -0.0697    0.4064    3.7060 C   0  0  0  0  0  0  0  0  0  0  0  0
    0.7668    0.1400    2.4202 C   0  0  0  0  0  0  0  0  0  0  0  0
    2.3461   -3.2550    2.5698 C   0  0  0  0  0  0  0  0  0  0  0  0
    4.7685   -2.1999    0.4344 C   0  0  0  0  0  0  0  0  0  0  0  0
    4.9049   -0.9415   -0.4604 C   0  0  0  0  0  0  0  0  0  0  0  0
    4.9727    0.6786   -2.3763 H   0  0  0  0  0  0  0  0  0  0  0  0
    2.1762   -4.2317   -3.2212 H   0  0  0  0  0  0  0  0  0  0  0  0
    1.8956   -3.5130   -4.8068 H   0  0  0  0  0  0  0  0  0  0  0  0
    0.8812   -3.0551   -3.4474 H   0  0  0  0  0  0  0  0  0  0  0  0
    1.9823   -3.4563   -1.0221 H   0  0  0  0  0  0  0  0  0  0  0  0
    3.5975   -4.0992   -1.2797 H   0  0  0  0  0  0  0  0  0  0  0  0
    3.0904   -6.8502    2.0820 H   0  0  0  0  0  0  0  0  0  0  0  0
    0.1319   -3.5565    6.2318 H   0  0  0  0  0  0  0  0  0  0  0  0
    1.3162   -4.8642    6.2155 H   0  0  0  0  0  0  0  0  0  0  0  0
   -0.2286   -5.0151    5.2975 H   0  0  0  0  0  0  0  0  0  0  0  0
    2.7092   -0.4732    1.7824 H   0  0  0  0  0  0  0  0  0  0  0  0
    3.7545   -0.2983    4.1069 H   0  0  0  0  0  0  0  0  0  0  0  0
    3.1352    1.1707    3.4264 H   0  0  0  0  0  0  0  0  0  0  0  0
    1.7252   -0.4002    5.6677 H   0  0  0  0  0  0  0  0  0  0  0  0
    2.4678    1.1275    5.7794 H   0  0  0  0  0  0  0  0  0  0  0  0
   -0.4852   -0.5010    4.1453 H   0  0  0  0  0  0  0  0  0  0  0  0
   -0.9680    0.9819    3.4638 H   0  0  0  0  0  0  0  0  0  0  0  0
    0.9720    1.1091    1.9647 H   0  0  0  0  0  0  0  0  0  0  0  0
    0.2139   -0.4118    1.6622 H   0  0  0  0  0  0  0  0  0  0  0  0
    5.0936   -2.0448    1.4761 H   0  0  0  0  0  0  0  0  0  0  0  0
    5.4324   -2.9547    0.0185 H   0  0  0  0  0  0  0  0  0  0  0  0
    5.9588   -0.6769   -0.6187 H   0  0  0  0  0  0  0  0  0  0  0  0
    4.4253   -0.1324    0.0883 H   0  0  0  0  0  0  0  0  0  0  0  0
    2.4279   -1.3263   -5.1990 H   0  0  0  0  0  0  0  0  0  0  0  0
  1  2  1  0
  1 30  1  0
  1 31  1  0
  1 32  1  0
  2  8  1  0
  2  3  2  0
  3  4  1  0
  3 52  1  0
  4  5  2  0
  4  6  1  0
  6 29  1  0
  6  7  1  0
  7 28  1  0
  7  8  2  0
  8  9  1  0
  9 10  1  0
  9 33  1  0
  9 34  1  0
 10 11  1  0
 10 27  1  0
 11 26  1  0
 11 12  2  0
 12 13  1  0
 13 14  2  0
 13 35  1  0
 14 15  1  0
 15 26  1  0
 15 16  1  0
 16 17  1  0
 16 18  2  0
 17 36  1  0
 17 37  1  0
 17 38  1  0
 18 19  1  0
 19 20  1  0
 19 26  2  0
 20 25  1  0
 20 21  1  0
 20 39  1  0
 21 22  1  0
 21 40  1  0
 21 41  1  0
 22 23  1  0
 22 42  1  0
 22 43  1  0
 23 24  1  0
 24 25  1  0
 24 44  1  0
 24 45  1  0
 25 46  1  0
 25 47  1  0
 27 28  1  0
 27 48  1  0
 27 49  1  0
 28 50  1  0
 28 51  1  0
M  CHG  1   3   1
M  END
>  <i_m_ct_stereo_status>  (133) 
1

>  <s_m_source_file>  (133) 
/var/tmp/pbs.5102264.sched01/tmp6iaxk4q8/46_x9h2b30.sdf

>  <i_m_source_file_index>  (133) 
3

>  <i_lp_mmshare_version>  (133) 
48012

>  <i_f3d_flags>  (133) 
0

>  <s_epik_input>  (133) 
Tz1jKFtuSF0xKW5jKFtDSDNdKWMoYzEyKVtDSDJdTihbQ0gyXVtDSDJdMiljKG5bY0hdbjMpYyhuMzQpYyhuYzRbQ0gzXSlbQ0hdNVtDSDJdW0NIMl1PW0NIMl1bQ0gyXTU=

>  <s_epik_cmdline>  (133) 
J2VwaWtfcHl0aG9uJywgJy1waHQnLCAnMi4wJywgJy1waCcsICc3LjAnLCAnLXRuJywgJzgnLCAnLW1hJywgJzIwMCcsICctaW1hZScsICc8aW5maWxlLm1hZT4nLCAnLW9tYWUnLCAnPG91dGZpbGUubWFlPic=

>  <r_lp_tautomer_probability>  (133) 
0.999985

>  <r_epik_Ionization_Penalty>  (133) 
3.59771

>  <r_epik_Ionization_Penalty_Charging>  (133) 
3.54696

>  <r_epik_Ionization_Penalty_Neutral>  (133) 
0.0507481

>  <r_epik_State_Penalty>  (133) 
2.28867

>  <r_epik_Charging_Adjusted_Penalty>  (133) 
5.83564

>  <i_epik_Tot_Q>  (133) 
1

>  <i_epik_Tot_abs_Q>  (133) 
1

>  <s_lp_Force_Field>  (133) 
OPLS3e

>  <r_lp_Energy>  (133) 
44.3876

>  <b_lp_Chiralities_Consistent>  (133) 
1

>  <s_lp_Variant>  (133) 
35:0-3

>  <s_i_glide_gridfile>  (133) 
pfpi4k_grid

>  <i_i_glide_lignum>  (133) 
3

>  <i_i_glide_rotatable_bonds>  (133) 
2

>  <r_i_docking_score>  (133) 
-4.00512

>  <r_i_glide_ligand_efficiency>  (133) 
-0.14304

>  <r_i_glide_ligand_efficiency_sa>  (133) 
-0.434354

>  <r_i_glide_ligand_efficiency_ln>  (133) 
-0.9245

>  <r_i_glide_gscore>  (133) 
-4.00512

>  <r_i_glide_lipo>  (133) 
-0.349881

>  <r_i_glide_hbond>  (133) 
0

>  <r_i_glide_metal>  (133) 
-0

>  <r_i_glide_rewards>  (133) 
-1.05174

>  <r_i_glide_evdw>  (133) 
-25.4746

>  <r_i_glide_ecoul>  (133) 
-10.3592

>  <r_i_glide_erotb>  (133) 
0.265577

>  <r_i_glide_esite>  (133) 
-0.0414656

>  <r_i_glide_emodel>  (133) 
-39.9097

>  <r_i_glide_energy>  (133) 
-35.8338

>  <r_i_glide_einternal>  (133) 
4.43164

>  <r_i_glide_intrahb_reward>  (133) 
-0

>  <i_i_glide_confnum>  (133) 
6

>  <i_i_glide_posenum>  (133) 
19

>  <r_i_glide_eff_state_penalty>  (133) 
0

>  <ligand_id>  (133) 
35

>  <original_smiles>  (133) 
Cc1nc(=O)[nH]c2c1CN(c1ncnn3c(C)nc(C4CCOCC4)c13)CC2

>  <smiles>  (133) 
[H]c1nc(N2C([H])([H])c3c(n([H])c(=O)[n+]([H])c3C([H])([H])[H])C([H])([H])C2([H])[H])c2c(C3([H])C([H])([H])C([H])([H])OC([H])([H])C3([H])[H])nc(C([H])([H])[H])n2n1

$$$$
35:2:1
     RDKit          3D

 52 56  0  0  1  0  0  0  0  0999 V2000
    2.0771   -3.2995   -3.8780 C   0  0  0  0  0  0  0  0  0  0  0  0
    2.8959   -2.1239   -3.5001 C   0  0  0  0  0  0  0  0  0  0  0  0
    3.0105   -1.2044   -4.3889 N   0  0  0  0  0  0  0  0  0  0  0  0
    3.7546    0.0963   -4.0473 C   0  0  0  0  0  0  0  0  0  0  0  0
    3.8217    0.9301   -4.9534 O   0  0  0  0  0  0  0  0  0  0  0  0
    4.2681    0.1374   -2.8029 N   0  0  0  0  0  0  0  0  0  0  0  0
    4.1531   -0.9322   -1.8868 C   0  0  0  0  0  0  0  0  0  0  0  0
    3.4479   -2.0357   -2.1923 C   0  0  0  0  0  0  0  0  0  0  0  0
    3.2263   -3.1190   -1.1524 C   0  0  0  0  0  0  0  0  0  0  0  0
    3.6006   -2.7000    0.2099 N   0  0  0  0  0  0  0  0  0  0  0  0
    3.2471   -3.5745    1.2607 C   0  0  0  0  0  0  0  0  0  0  0  0
    2.9741   -4.8601    0.9310 N   0  0  0  0  0  0  0  0  0  0  0  0
    2.5966   -5.7156    1.9164 C   0  0  0  0  0  0  0  0  0  0  0  0
    2.3887   -5.4783    3.2308 N   0  0  0  0  0  0  0  0  0  0  0  0
    2.6526   -4.2121    3.5155 N   0  0  0  0  0  0  0  0  0  0  0  0
    2.5236   -3.6636    4.7586 C   0  0  0  0  0  0  0  0  0  0  0  0
    2.0987   -4.3407    6.0266 C   0  0  0  0  0  0  0  0  0  0  0  0
    2.8615   -2.3852    4.6654 N   0  0  0  0  0  0  0  0  0  0  0  0
    3.2469   -2.0484    3.3765 C   0  0  0  0  0  0  0  0  0  0  0  0
    3.7571   -0.6302    3.1372 C   0  0  0  0  0  0  0  0  0  0  0  0
    5.0787   -0.3676    3.8967 C   0  0  0  0  0  0  0  0  0  0  0  0
    4.8353   -0.1379    5.4113 C   0  0  0  0  0  0  0  0  0  0  0  0
    3.8625    0.9020    5.5953 O   0  0  0  0  0  0  0  0  0  0  0  0
    2.5807    0.6601    4.9907 C   0  0  0  0  0  0  0  0  0  0  0  0
    2.7415    0.4603    3.4708 C   0  0  0  0  0  0  0  0  0  0  0  0
    3.0897   -3.2198    2.6410 C   0  0  0  0  0  0  0  0  0  0  0  0
    4.8944   -2.0075    0.2749 C   0  0  0  0  0  0  0  0  0  0  0  0
    4.8503   -0.7053   -0.5572 C   0  0  0  0  0  0  0  0  0  0  0  0
    4.7852    0.9311   -2.4598 H   0  0  0  0  0  0  0  0  0  0  0  0
    2.4054   -4.2098   -3.4073 H   0  0  0  0  0  0  0  0  0  0  0  0
    2.1373   -3.4554   -4.9426 H   0  0  0  0  0  0  0  0  0  0  0  0
    1.0624   -3.0249   -3.6215 H   0  0  0  0  0  0  0  0  0  0  0  0
    2.1831   -3.4683   -1.1680 H   0  0  0  0  0  0  0  0  0  0  0  0
    3.8645   -3.9665   -1.4235 H   0  0  0  0  0  0  0  0  0  0  0  0
    2.4341   -6.7433    1.6234 H   0  0  0  0  0  0  0  0  0  0  0  0
    2.1541   -3.6077    6.8179 H   0  0  0  0  0  0  0  0  0  0  0  0
    2.7799   -5.1553    6.2582 H   0  0  0  0  0  0  0  0  0  0  0  0
    1.0732   -4.6876    5.9377 H   0  0  0  0  0  0  0  0  0  0  0  0
    3.9133   -0.4199    2.0651 H   0  0  0  0  0  0  0  0  0  0  0  0
    5.8069   -1.1678    3.7271 H   0  0  0  0  0  0  0  0  0  0  0  0
    5.5506    0.5307    3.5045 H   0  0  0  0  0  0  0  0  0  0  0  0
    4.5431   -1.0473    5.9394 H   0  0  0  0  0  0  0  0  0  0  0  0
    5.7697    0.1388    5.9136 H   0  0  0  0  0  0  0  0  0  0  0  0
    2.0662   -0.1751    5.4666 H   0  0  0  0  0  0  0  0  0  0  0  0
    1.9089    1.5044    5.1758 H   0  0  0  0  0  0  0  0  0  0  0  0
    3.1056    1.3941    3.0431 H   0  0  0  0  0  0  0  0  0  0  0  0
    1.7955    0.2516    2.9644 H   0  0  0  0  0  0  0  0  0  0  0  0
    5.2898   -1.8759    1.2990 H   0  0  0  0  0  0  0  0  0  0  0  0
    5.6031   -2.6788   -0.1961 H   0  0  0  0  0  0  0  0  0  0  0  0
    5.8610   -0.3102   -0.7173 H   0  0  0  0  0  0  0  0  0  0  0  0
    4.2801    0.0592   -0.0412 H   0  0  0  0  0  0  0  0  0  0  0  0
    2.4822   -1.2807   -5.2780 H   0  0  0  0  0  0  0  0  0  0  0  0
  1  2  1  0
  1 30  1  0
  1 31  1  0
  1 32  1  0
  2  8  1  0
  2  3  2  0
  3  4  1  0
  3 52  1  0
  4  5  2  0
  4  6  1  0
  6 29  1  0
  6  7  1  0
  7 28  1  0
  7  8  2  0
  8  9  1  0
  9 10  1  0
  9 33  1  0
  9 34  1  0
 10 11  1  0
 10 27  1  0
 11 26  1  0
 11 12  2  0
 12 13  1  0
 13 14  2  0
 13 35  1  0
 14 15  1  0
 15 26  1  0
 15 16  1  0
 16 17  1  0
 16 18  2  0
 17 36  1  0
 17 37  1  0
 17 38  1  0
 18 19  1  0
 19 20  1  0
 19 26  2  0
 20 25  1  0
 20 21  1  0
 20 39  1  0
 21 22  1  0
 21 40  1  0
 21 41  1  0
 22 23  1  0
 22 42  1  0
 22 43  1  0
 23 24  1  0
 24 25  1  0
 24 44  1  0
 24 45  1  0
 25 46  1  0
 25 47  1  0
 27 28  1  0
 27 48  1  0
 27 49  1  0
 28 50  1  0
 28 51  1  0
M  CHG  1   3   1
M  END
>  <i_m_ct_stereo_status>  (134) 
1

>  <s_m_source_file>  (134) 
/var/tmp/pbs.5102264.sched01/tmp6iaxk4q8/46_x9h2b30.sdf

>  <i_m_source_file_index>  (134) 
3

>  <i_lp_mmshare_version>  (134) 
48012

>  <i_f3d_flags>  (134) 
0

>  <s_epik_input>  (134) 
Tz1jKFtuSF0xKW5jKFtDSDNdKWMoYzEyKVtDSDJdTihbQ0gyXVtDSDJdMiljKG5bY0hdbjMpYyhuMzQpYyhuYzRbQ0gzXSlbQ0hdNVtDSDJdW0NIMl1PW0NIMl1bQ0gyXTU=

>  <s_epik_cmdline>  (134) 
J2VwaWtfcHl0aG9uJywgJy1waHQnLCAnMi4wJywgJy1waCcsICc3LjAnLCAnLXRuJywgJzgnLCAnLW1hJywgJzIwMCcsICctaW1hZScsICc8aW5maWxlLm1hZT4nLCAnLW9tYWUnLCAnPG91dGZpbGUubWFlPic=

>  <r_lp_tautomer_probability>  (134) 
0.999985

>  <r_epik_Ionization_Penalty>  (134) 
3.59771

>  <r_epik_Ionization_Penalty_Charging>  (134) 
3.54696

>  <r_epik_Ionization_Penalty_Neutral>  (134) 
0.0507481

>  <r_epik_State_Penalty>  (134) 
2.28867

>  <r_epik_Charging_Adjusted_Penalty>  (134) 
5.83564

>  <i_epik_Tot_Q>  (134) 
1

>  <i_epik_Tot_abs_Q>  (134) 
1

>  <s_lp_Force_Field>  (134) 
OPLS3e

>  <r_lp_Energy>  (134) 
44.3876

>  <b_lp_Chiralities_Consistent>  (134) 
1

>  <s_lp_Variant>  (134) 
35:0-3

>  <s_i_glide_gridfile>  (134) 
pfpi4k_grid

>  <i_i_glide_lignum>  (134) 
3

>  <i_i_glide_rotatable_bonds>  (134) 
2

>  <r_i_docking_score>  (134) 
-3.98259

>  <r_i_glide_ligand_efficiency>  (134) 
-0.142235

>  <r_i_glide_ligand_efficiency_sa>  (134) 
-0.431911

>  <r_i_glide_ligand_efficiency_ln>  (134) 
-0.919299

>  <r_i_glide_gscore>  (134) 
-3.98259

>  <r_i_glide_lipo>  (134) 
-0.521998

>  <r_i_glide_hbond>  (134) 
0

>  <r_i_glide_metal>  (134) 
-0

>  <r_i_glide_rewards>  (134) 
-0.961025

>  <r_i_glide_evdw>  (134) 
-24.0404

>  <r_i_glide_ecoul>  (134) 
-10.1498

>  <r_i_glide_erotb>  (134) 
0.265577

>  <r_i_glide_esite>  (134) 
-0.0406505

>  <r_i_glide_emodel>  (134) 
-39.3598

>  <r_i_glide_energy>  (134) 
-34.1902

>  <r_i_glide_einternal>  (134) 
2.6932

>  <r_i_glide_intrahb_reward>  (134) 
-0

>  <i_i_glide_confnum>  (134) 
6

>  <i_i_glide_posenum>  (134) 
33

>  <r_i_glide_eff_state_penalty>  (134) 
0

>  <ligand_id>  (134) 
35

>  <original_smiles>  (134) 
Cc1nc(=O)[nH]c2c1CN(c1ncnn3c(C)nc(C4CCOCC4)c13)CC2

>  <smiles>  (134) 
[H]c1nc(N2C([H])([H])c3c(n([H])c(=O)[n+]([H])c3C([H])([H])[H])C([H])([H])C2([H])[H])c2c(C3([H])C([H])([H])C([H])([H])OC([H])([H])C3([H])[H])nc(C([H])([H])[H])n2n1

$$$$
35:2:2
     RDKit          3D

 52 56  0  0  1  0  0  0  0  0999 V2000
    1.8568   -3.4121   -3.0637 C   0  0  0  0  0  0  0  0  0  0  0  0
    2.7855   -2.2741   -2.9567 C   0  0  0  0  0  0  0  0  0  0  0  0
    2.9467   -1.5411   -4.0003 N   0  0  0  0  0  0  0  0  0  0  0  0
    3.8074   -0.2640   -3.8949 C   0  0  0  0  0  0  0  0  0  0  0  0
    3.8121    0.4613   -4.9027 O   0  0  0  0  0  0  0  0  0  0  0  0
    4.4468   -0.1179   -2.7264 N   0  0  0  0  0  0  0  0  0  0  0  0
    4.2722   -0.9812   -1.6298 C   0  0  0  0  0  0  0  0  0  0  0  0
    3.4220   -2.0156   -1.6926 C   0  0  0  0  0  0  0  0  0  0  0  0
    3.1354   -2.8507   -0.4404 C   0  0  0  0  0  0  0  0  0  0  0  0
    3.5588   -2.1925    0.8143 N   0  0  0  0  0  0  0  0  0  0  0  0
    3.2174   -2.8761    1.9922 C   0  0  0  0  0  0  0  0  0  0  0  0
    3.7270   -4.1231    2.1840 N   0  0  0  0  0  0  0  0  0  0  0  0
    3.3131   -4.7972    3.2933 C   0  0  0  0  0  0  0  0  0  0  0  0
    2.4331   -4.4297    4.2581 N   0  0  0  0  0  0  0  0  0  0  0  0
    1.9816   -3.2051    4.0336 N   0  0  0  0  0  0  0  0  0  0  0  0
    1.0693   -2.5426    4.8108 C   0  0  0  0  0  0  0  0  0  0  0  0
    0.4191   -3.0288    6.0615 C   0  0  0  0  0  0  0  0  0  0  0  0
    0.8534   -1.3408    4.2745 N   0  0  0  0  0  0  0  0  0  0  0  0
    1.6506   -1.1604    3.1400 C   0  0  0  0  0  0  0  0  0  0  0  0
    1.6460    0.1894    2.4395 C   0  0  0  0  0  0  0  0  0  0  0  0
    2.1554    1.3119    3.3761 C   0  0  0  0  0  0  0  0  0  0  0  0
    1.1373    1.7078    4.4824 C   0  0  0  0  0  0  0  0  0  0  0  0
   -0.1306    2.0363    3.9014 O   0  0  0  0  0  0  0  0  0  0  0  0
   -0.7257    1.0036    3.1050 C   0  0  0  0  0  0  0  0  0  0  0  0
    0.2348    0.5887    1.9555 C   0  0  0  0  0  0  0  0  0  0  0  0
    2.3172   -2.3644    2.9765 C   0  0  0  0  0  0  0  0  0  0  0  0
    4.9269   -1.6703    0.7491 C   0  0  0  0  0  0  0  0  0  0  0  0
    5.0357   -0.5964   -0.3499 C   0  0  0  0  0  0  0  0  0  0  0  0
    5.0331    0.6864   -2.5202 H   0  0  0  0  0  0  0  0  0  0  0  0
    2.1147   -4.2315   -2.4232 H   0  0  0  0  0  0  0  0  0  0  0  0
    1.8158   -3.7380   -4.0988 H   0  0  0  0  0  0  0  0  0  0  0  0
    0.8756   -3.0829   -2.7637 H   0  0  0  0  0  0  0  0  0  0  0  0
    2.0741   -3.0872   -0.3606 H   0  0  0  0  0  0  0  0  0  0  0  0
    3.6714   -3.7980   -0.5442 H   0  0  0  0  0  0  0  0  0  0  0  0
    3.7195   -5.7663    3.4632 H   0  0  0  0  0  0  0  0  0  0  0  0
   -0.2153   -2.2246    6.4416 H   0  0  0  0  0  0  0  0  0  0  0  0
    1.1574   -3.2548    6.8347 H   0  0  0  0  0  0  0  0  0  0  0  0
   -0.2188   -3.8937    5.8693 H   0  0  0  0  0  0  0  0  0  0  0  0
    2.2993    0.1681    1.5538 H   0  0  0  0  0  0  0  0  0  0  0  0
    3.1247    1.0482    3.8037 H   0  0  0  0  0  0  0  0  0  0  0  0
    2.3402    2.1996    2.7726 H   0  0  0  0  0  0  0  0  0  0  0  0
    1.0230    0.9417    5.2509 H   0  0  0  0  0  0  0  0  0  0  0  0
    1.5110    2.5677    5.0456 H   0  0  0  0  0  0  0  0  0  0  0  0
   -1.0319    0.1638    3.7306 H   0  0  0  0  0  0  0  0  0  0  0  0
   -1.6740    1.3600    2.6920 H   0  0  0  0  0  0  0  0  0  0  0  0
    0.3274    1.4438    1.2853 H   0  0  0  0  0  0  0  0  0  0  0  0
   -0.1854   -0.2053    1.3397 H   0  0  0  0  0  0  0  0  0  0  0  0
    5.2914   -1.3258    1.7302 H   0  0  0  0  0  0  0  0  0  0  0  0
    5.5725   -2.4941    0.4517 H   0  0  0  0  0  0  0  0  0  0  0  0
    6.0857   -0.3608   -0.5694 H   0  0  0  0  0  0  0  0  0  0  0  0
    4.5782    0.2851    0.1041 H   0  0  0  0  0  0  0  0  0  0  0  0
    2.3795   -1.6879   -4.8507 H   0  0  0  0  0  0  0  0  0  0  0  0
  1  2  1  0
  1 30  1  0
  1 31  1  0
  1 32  1  0
  2  8  1  0
  2  3  2  0
  3  4  1  0
  3 52  1  0
  4  5  2  0
  4  6  1  0
  6 29  1  0
  6  7  1  0
  7 28  1  0
  7  8  2  0
  8  9  1  0
  9 10  1  0
  9 33  1  0
  9 34  1  0
 10 11  1  0
 10 27  1  0
 11 26  1  0
 11 12  2  0
 12 13  1  0
 13 14  2  0
 13 35  1  0
 14 15  1  0
 15 26  1  0
 15 16  1  0
 16 17  1  0
 16 18  2  0
 17 36  1  0
 17 37  1  0
 17 38  1  0
 18 19  1  0
 19 20  1  0
 19 26  2  0
 20 25  1  0
 20 21  1  0
 20 39  1  0
 21 22  1  0
 21 40  1  0
 21 41  1  0
 22 23  1  0
 22 42  1  0
 22 43  1  0
 23 24  1  0
 24 25  1  0
 24 44  1  0
 24 45  1  0
 25 46  1  0
 25 47  1  0
 27 28  1  0
 27 48  1  0
 27 49  1  0
 28 50  1  0
 28 51  1  0
M  CHG  1   3   1
M  END
>  <i_m_ct_stereo_status>  (135) 
1

>  <s_m_source_file>  (135) 
/var/tmp/pbs.5102264.sched01/tmp6iaxk4q8/46_x9h2b30.sdf

>  <i_m_source_file_index>  (135) 
3

>  <i_lp_mmshare_version>  (135) 
48012

>  <i_f3d_flags>  (135) 
0

>  <s_epik_input>  (135) 
Tz1jKFtuSF0xKW5jKFtDSDNdKWMoYzEyKVtDSDJdTihbQ0gyXVtDSDJdMiljKG5bY0hdbjMpYyhuMzQpYyhuYzRbQ0gzXSlbQ0hdNVtDSDJdW0NIMl1PW0NIMl1bQ0gyXTU=

>  <s_epik_cmdline>  (135) 
J2VwaWtfcHl0aG9uJywgJy1waHQnLCAnMi4wJywgJy1waCcsICc3LjAnLCAnLXRuJywgJzgnLCAnLW1hJywgJzIwMCcsICctaW1hZScsICc8aW5maWxlLm1hZT4nLCAnLW9tYWUnLCAnPG91dGZpbGUubWFlPic=

>  <r_lp_tautomer_probability>  (135) 
0.999985

>  <r_epik_Ionization_Penalty>  (135) 
3.59771

>  <r_epik_Ionization_Penalty_Charging>  (135) 
3.54696

>  <r_epik_Ionization_Penalty_Neutral>  (135) 
0.0507481

>  <r_epik_State_Penalty>  (135) 
2.28867

>  <r_epik_Charging_Adjusted_Penalty>  (135) 
5.83564

>  <i_epik_Tot_Q>  (135) 
1

>  <i_epik_Tot_abs_Q>  (135) 
1

>  <s_lp_Force_Field>  (135) 
OPLS3e

>  <r_lp_Energy>  (135) 
44.3876

>  <b_lp_Chiralities_Consistent>  (135) 
1

>  <s_lp_Variant>  (135) 
35:0-3

>  <s_i_glide_gridfile>  (135) 
pfpi4k_grid

>  <i_i_glide_lignum>  (135) 
3

>  <i_i_glide_rotatable_bonds>  (135) 
2

>  <r_i_docking_score>  (135) 
-3.83227

>  <r_i_glide_ligand_efficiency>  (135) 
-0.136867

>  <r_i_glide_ligand_efficiency_sa>  (135) 
-0.415608

>  <r_i_glide_ligand_efficiency_ln>  (135) 
-0.884601

>  <r_i_glide_gscore>  (135) 
-3.83227

>  <r_i_glide_lipo>  (135) 
-0.218828

>  <r_i_glide_hbond>  (135) 
0

>  <r_i_glide_metal>  (135) 
-0

>  <r_i_glide_rewards>  (135) 
-1.14758

>  <r_i_glide_evdw>  (135) 
-26.3391

>  <r_i_glide_ecoul>  (135) 
-9.25758

>  <r_i_glide_erotb>  (135) 
0.265577

>  <r_i_glide_esite>  (135) 
-0.0258446

>  <r_i_glide_emodel>  (135) 
-39.2983

>  <r_i_glide_energy>  (135) 
-35.5967

>  <r_i_glide_einternal>  (135) 
4.5047

>  <r_i_glide_intrahb_reward>  (135) 
-0

>  <i_i_glide_confnum>  (135) 
6

>  <i_i_glide_posenum>  (135) 
16

>  <r_i_glide_eff_state_penalty>  (135) 
0

>  <ligand_id>  (135) 
35

>  <original_smiles>  (135) 
Cc1nc(=O)[nH]c2c1CN(c1ncnn3c(C)nc(C4CCOCC4)c13)CC2

>  <smiles>  (135) 
[H]c1nc(N2C([H])([H])c3c(n([H])c(=O)[n+]([H])c3C([H])([H])[H])C([H])([H])C2([H])[H])c2c(C3([H])C([H])([H])C([H])([H])OC([H])([H])C3([H])[H])nc(C([H])([H])[H])n2n1

$$$$
36:0:0
     RDKit          3D

 49 51  0  0  1  0  0  0  0  0999 V2000
   -2.0864   -8.5451    4.0867 C   0  0  0  0  0  0  0  0  0  0  0  0
   -0.6136   -8.3239    3.7627 C   0  0  2  0  0  0  0  0  0  0  0  0
   -0.4081   -8.1262    2.2570 C   0  0  0  0  0  0  0  0  0  0  0  0
    1.0209   -7.9137    1.9940 N   0  0  0  0  0  0  0  0  0  0  0  0
    1.4244   -6.8853    1.2287 C   0  0  0  0  0  0  0  0  0  0  0  0
    0.6189   -6.2420    0.5487 O   0  0  0  0  0  0  0  0  0  0  0  0
    2.9291   -6.5133    1.1800 C   0  0  0  0  0  0  0  0  0  0  0  0
    3.2870   -5.0104    1.0203 C   0  0  2  0  0  0  0  0  0  0  0  0
    4.7014   -4.7512    0.4522 C   0  0  0  0  0  0  0  0  0  0  0  0
    5.4222   -5.6815    0.0919 O   0  0  0  0  0  0  0  0  0  0  0  0
    5.0874   -3.4248    0.3617 N   0  0  0  0  0  0  0  0  0  0  0  0
    4.3874   -2.4964    0.9037 C   0  0  0  0  0  0  0  0  0  0  0  0
    3.1067   -2.6865    1.7379 C   0  0  0  0  0  0  0  0  0  0  0  0
    2.9834   -4.0971    2.1595 N   0  0  0  0  0  0  0  0  0  0  0  0
    3.4761   -4.4041    3.8029 S   0  0  0  0  0  0  0  0  0  0  0  0
    4.0236   -5.7469    3.9253 O   0  0  0  0  0  0  0  0  0  0  0  0
    4.3200   -3.2875    4.2592 O   0  0  0  0  0  0  0  0  0  0  0  0
    1.9625   -4.3540    4.7494 C   0  0  0  0  0  0  0  0  0  0  0  0
    1.3136   -3.1255    4.9801 C   0  0  0  0  0  0  0  0  0  0  0  0
    0.1302   -3.0811    5.7735 C   0  0  0  0  0  0  0  0  0  0  0  0
   -0.3873   -4.2781    6.3194 C   0  0  0  0  0  0  0  0  0  0  0  0
   -1.8090   -4.2343    7.2920 Cl  0  0  0  0  0  0  0  0  0  0  0  0
    0.2532   -5.5048    6.0747 C   0  0  0  0  0  0  0  0  0  0  0  0
    1.4531   -5.5377    5.3130 C   0  0  0  0  0  0  0  0  0  0  0  0
    1.8783   -9.0160    2.4518 C   0  0  0  0  0  0  0  0  0  0  0  0
    1.6923   -9.2461    3.9660 C   0  0  0  0  0  0  0  0  0  0  0  0
    0.2397   -9.4313    4.2733 N   0  0  0  0  0  0  0  0  0  0  0  0
   -2.6909   -7.6934    3.7648 H   0  0  0  0  0  0  0  0  0  0  0  0
   -2.1786   -8.6564    5.1643 H   0  0  0  0  0  0  0  0  0  0  0  0
   -2.4732   -9.4389    3.6241 H   0  0  0  0  0  0  0  0  0  0  0  0
   -0.3070   -7.3853    4.2378 H   0  0  0  0  0  0  0  0  0  0  0  0
   -0.7571   -8.9783    1.6756 H   0  0  0  0  0  0  0  0  0  0  0  0
   -1.0404   -7.2934    1.9380 H   0  0  0  0  0  0  0  0  0  0  0  0
    3.4102   -6.8705    2.0532 H   0  0  0  0  0  0  0  0  0  0  0  0
    3.3640   -7.0729    0.3310 H   0  0  0  0  0  0  0  0  0  0  0  0
    2.6645   -4.6320    0.2095 H   0  0  0  0  0  0  0  0  0  0  0  0
    4.6764   -1.4335    0.8251 H   0  0  0  0  0  0  0  0  0  0  0  0
    3.1494   -1.9982    2.5784 H   0  0  0  0  0  0  0  0  0  0  0  0
    2.2611   -2.3870    1.1246 H   0  0  0  0  0  0  0  0  0  0  0  0
    1.7254   -2.2172    4.5735 H   0  0  0  0  0  0  0  0  0  0  0  0
   -0.3404   -2.1329    5.9939 H   0  0  0  0  0  0  0  0  0  0  0  0
   -0.1352   -6.4116    6.5073 H   0  0  0  0  0  0  0  0  0  0  0  0
    1.9780   -6.4593    5.1794 H   0  0  0  0  0  0  0  0  0  0  0  0
    1.5894   -9.8986    1.8871 H   0  0  0  0  0  0  0  0  0  0  0  0
    2.9423   -8.9042    2.2583 H   0  0  0  0  0  0  0  0  0  0  0  0
    2.2621  -10.1233    4.3066 H   0  0  0  0  0  0  0  0  0  0  0  0
    2.0855   -8.3840    4.5027 H   0  0  0  0  0  0  0  0  0  0  0  0
    0.1000   -9.5185    5.2734 H   0  0  0  0  0  0  0  0  0  0  0  0
   -0.0956  -10.2943    3.8456 H   0  0  0  0  0  0  0  0  0  0  0  0
  1  2  1  0
  1 28  1  0
  1 29  1  0
  1 30  1  0
  2 27  1  0
  2  3  1  0
  2 31  1  1
  3  4  1  0
  3 32  1  0
  3 33  1  0
  4  5  1  0
  4 25  1  0
  5  6  2  0
  5  7  1  0
  7  8  1  0
  7 34  1  0
  7 35  1  0
  8 14  1  0
  8  9  1  0
  8 36  1  6
  9 10  2  0
  9 11  1  0
 11 12  2  0
 12 13  1  0
 12 37  1  0
 13 14  1  0
 13 38  1  0
 13 39  1  0
 14 15  1  0
 15 16  2  0
 15 17  2  0
 15 18  1  0
 18 24  1  0
 18 19  2  0
 19 20  1  0
 19 40  1  0
 20 21  2  0
 20 41  1  0
 21 22  1  0
 21 23  1  0
 23 24  2  0
 23 42  1  0
 24 43  1  0
 25 26  1  0
 25 44  1  0
 25 45  1  0
 26 27  1  0
 26 46  1  0
 26 47  1  0
 27 48  1  0
 27 49  1  0
M  CHG  1  27   1
M  END
>  <i_m_ct_stereo_status>  (136) 
1

>  <s_m_source_file>  (136) 
/var/tmp/pbs.5102264.sched01/tmp6iaxk4q8/46_x9h2b30.sdf

>  <i_m_source_file_index>  (136) 
4

>  <i_lp_mmshare_version>  (136) 
48012

>  <i_f3d_flags>  (136) 
0

>  <s_epik_input>  (136) 
W0NIM11bQ0BASF0xW0NIMl1OKFtDSDJdW0NIMl1bTkhdMSlDKD1PKVtDSDJdW0NAQEhdMkMoPU8pTj1bQ0hdW0NIMl1OMlMoPU8pKD1PKWMzW2NIXVtjSF1jKENsKVtjSF1bY0hdMw==

>  <s_epik_cmdline>  (136) 
J2VwaWtfcHl0aG9uJywgJy1waHQnLCAnMi4wJywgJy1waCcsICc3LjAnLCAnLXRuJywgJzgnLCAnLW1hJywgJzIwMCcsICctaW1hZScsICc8aW5maWxlLm1hZT4nLCAnLW9tYWUnLCAnPG91dGZpbGUubWFlPic=

>  <r_epik_Ionization_Penalty>  (136) 
0.0239031

>  <r_epik_Ionization_Penalty_Charging>  (136) 
0.0239031

>  <r_epik_Ionization_Penalty_Neutral>  (136) 
8.88808e-13

>  <r_epik_State_Penalty>  (136) 
0.0193727

>  <r_epik_Charging_Adjusted_Penalty>  (136) 
0.0432757

>  <i_epik_Tot_Q>  (136) 
1

>  <i_epik_Tot_abs_Q>  (136) 
1

>  <s_epik_Chemistry_Notes>  (136) 
This compound has an imine and may undergo hydrolysis.

>  <s_lp_Force_Field>  (136) 
OPLS3e

>  <r_lp_Energy>  (136) 
41.0524

>  <b_lp_Chiralities_Consistent>  (136) 
1

>  <s_lp_Variant>  (136) 
36:0-1

>  <s_i_glide_gridfile>  (136) 
pfpi4k_grid

>  <i_i_glide_lignum>  (136) 
4

>  <i_i_glide_rotatable_bonds>  (136) 
5

>  <r_i_docking_score>  (136) 
-3.10319

>  <r_i_glide_ligand_efficiency>  (136) 
-0.114933

>  <r_i_glide_ligand_efficiency_sa>  (136) 
-0.344798

>  <r_i_glide_ligand_efficiency_ln>  (136) 
-0.72237

>  <r_i_glide_gscore>  (136) 
-3.10319

>  <r_i_glide_lipo>  (136) 
-0.130607

>  <r_i_glide_hbond>  (136) 
-0.200084

>  <r_i_glide_metal>  (136) 
-0

>  <r_i_glide_rewards>  (136) 
-0.662812

>  <r_i_glide_evdw>  (136) 
-25.1012

>  <r_i_glide_ecoul>  (136) 
-8.51922

>  <r_i_glide_erotb>  (136) 
0.575921

>  <r_i_glide_esite>  (136) 
-0.152661

>  <r_i_glide_emodel>  (136) 
-38.0537

>  <r_i_glide_energy>  (136) 
-33.6204

>  <r_i_glide_einternal>  (136) 
6.55666

>  <r_i_glide_intrahb_reward>  (136) 
-0

>  <i_i_glide_confnum>  (136) 
2

>  <i_i_glide_posenum>  (136) 
34

>  <r_i_glide_eff_state_penalty>  (136) 
0

>  <ligand_id>  (136) 
36

>  <original_smiles>  (136) 
CC1CN(C(=O)CC2C(=O)N=CCN2S(=O)(=O)c2ccc(Cl)cc2)CCN1

>  <smiles>  (136) 
[H]C1=NC(=O)C([H])(C([H])([H])C(=O)N2C([H])([H])C([H])([H])[N+]([H])([H])C([H])(C([H])([H])[H])C2([H])[H])N(S(=O)(=O)c2c([H])c([H])c(Cl)c([H])c2[H])C1([H])[H]

$$$$
36:0:1
     RDKit          3D

 49 51  0  0  1  0  0  0  0  0999 V2000
    0.5798  -10.4324    4.4349 C   0  0  0  0  0  0  0  0  0  0  0  0
    1.6553   -9.6865    3.6487 C   0  0  2  0  0  0  0  0  0  0  0  0
    1.0611   -8.8639    2.4862 C   0  0  0  0  0  0  0  0  0  0  0  0
    2.1313   -8.2062    1.7154 N   0  0  0  0  0  0  0  0  0  0  0  0
    2.0790   -6.8865    1.4015 C   0  0  0  0  0  0  0  0  0  0  0  0
    1.0434   -6.2231    1.5355 O   0  0  0  0  0  0  0  0  0  0  0  0
    3.3736   -6.2027    0.9048 C   0  0  0  0  0  0  0  0  0  0  0  0
    3.3146   -4.6665    0.7150 C   0  0  2  0  0  0  0  0  0  0  0  0
    4.6105   -4.0641    0.1173 C   0  0  0  0  0  0  0  0  0  0  0  0
    5.5200   -4.8123   -0.2424 O   0  0  0  0  0  0  0  0  0  0  0  0
    4.6522   -2.6783   -0.0162 N   0  0  0  0  0  0  0  0  0  0  0  0
    3.7641   -1.9566    0.5525 C   0  0  0  0  0  0  0  0  0  0  0  0
    2.6152   -2.4453    1.4421 C   0  0  0  0  0  0  0  0  0  0  0  0
    2.8380   -3.8546    1.8641 N   0  0  0  0  0  0  0  0  0  0  0  0
    3.4683   -4.0814    3.4869 S   0  0  0  0  0  0  0  0  0  0  0  0
    4.1143   -5.3970    3.5905 O   0  0  0  0  0  0  0  0  0  0  0  0
    4.2300   -2.8697    3.8329 O   0  0  0  0  0  0  0  0  0  0  0  0
    2.0009   -4.1467    4.5134 C   0  0  0  0  0  0  0  0  0  0  0  0
    1.2861   -2.9651    4.7823 C   0  0  0  0  0  0  0  0  0  0  0  0
    0.1761   -3.0036    5.6500 C   0  0  0  0  0  0  0  0  0  0  0  0
   -0.2110   -4.2176    6.2473 C   0  0  0  0  0  0  0  0  0  0  0  0
   -1.5742   -4.2588    7.3030 Cl  0  0  0  0  0  0  0  0  0  0  0  0
    0.4978   -5.4013    5.9724 C   0  0  0  0  0  0  0  0  0  0  0  0
    1.6066   -5.3666    5.1011 C   0  0  0  0  0  0  0  0  0  0  0  0
    3.1798   -9.1319    1.2459 C   0  0  0  0  0  0  0  0  0  0  0  0
    3.7545   -9.9415    2.4186 C   0  0  0  0  0  0  0  0  0  0  0  0
    2.6691  -10.6329    3.1423 N   0  0  0  0  0  0  0  0  0  0  0  0
   -0.1543   -9.7429    4.8533 H   0  0  0  0  0  0  0  0  0  0  0  0
    1.0065  -10.9964    5.2653 H   0  0  0  0  0  0  0  0  0  0  0  0
    0.0421  -11.1341    3.7985 H   0  0  0  0  0  0  0  0  0  0  0  0
    2.1559   -8.9975    4.3315 H   0  0  0  0  0  0  0  0  0  0  0  0
    0.4885   -9.5095    1.8234 H   0  0  0  0  0  0  0  0  0  0  0  0
    0.3449   -8.1466    2.8945 H   0  0  0  0  0  0  0  0  0  0  0  0
    4.1976   -6.4816    1.5608 H   0  0  0  0  0  0  0  0  0  0  0  0
    3.6345   -6.6238   -0.0679 H   0  0  0  0  0  0  0  0  0  0  0  0
    2.5815   -4.5206   -0.0774 H   0  0  0  0  0  0  0  0  0  0  0  0
    3.7716   -0.8719    0.4250 H   0  0  0  0  0  0  0  0  0  0  0  0
    2.5170   -1.7768    2.2948 H   0  0  0  0  0  0  0  0  0  0  0  0
    1.6926   -2.3578    0.8767 H   0  0  0  0  0  0  0  0  0  0  0  0
    1.6011   -2.0297    4.3505 H   0  0  0  0  0  0  0  0  0  0  0  0
   -0.3633   -2.0939    5.8670 H   0  0  0  0  0  0  0  0  0  0  0  0
    0.2089   -6.3318    6.4414 H   0  0  0  0  0  0  0  0  0  0  0  0
    2.1608   -6.2725    4.9154 H   0  0  0  0  0  0  0  0  0  0  0  0
    2.7371   -9.8058    0.5119 H   0  0  0  0  0  0  0  0  0  0  0  0
    4.0147   -8.6555    0.7315 H   0  0  0  0  0  0  0  0  0  0  0  0
    4.4908  -10.6675    2.0757 H   0  0  0  0  0  0  0  0  0  0  0  0
    4.2759   -9.2699    3.1049 H   0  0  0  0  0  0  0  0  0  0  0  0
    3.0578  -11.1621    3.9117 H   0  0  0  0  0  0  0  0  0  0  0  0
    2.2284  -11.2780    2.5009 H   0  0  0  0  0  0  0  0  0  0  0  0
  1  2  1  0
  1 28  1  0
  1 29  1  0
  1 30  1  0
  2 27  1  0
  2  3  1  0
  2 31  1  1
  3  4  1  0
  3 32  1  0
  3 33  1  0
  4  5  1  0
  4 25  1  0
  5  6  2  0
  5  7  1  0
  7  8  1  0
  7 34  1  0
  7 35  1  0
  8 14  1  0
  8  9  1  0
  8 36  1  6
  9 10  2  0
  9 11  1  0
 11 12  2  0
 12 13  1  0
 12 37  1  0
 13 14  1  0
 13 38  1  0
 13 39  1  0
 14 15  1  0
 15 16  2  0
 15 17  2  0
 15 18  1  0
 18 24  1  0
 18 19  2  0
 19 20  1  0
 19 40  1  0
 20 21  2  0
 20 41  1  0
 21 22  1  0
 21 23  1  0
 23 24  2  0
 23 42  1  0
 24 43  1  0
 25 26  1  0
 25 44  1  0
 25 45  1  0
 26 27  1  0
 26 46  1  0
 26 47  1  0
 27 48  1  0
 27 49  1  0
M  CHG  1  27   1
M  END
>  <i_m_ct_stereo_status>  (137) 
1

>  <s_m_source_file>  (137) 
/var/tmp/pbs.5102264.sched01/tmp6iaxk4q8/46_x9h2b30.sdf

>  <i_m_source_file_index>  (137) 
4

>  <i_lp_mmshare_version>  (137) 
48012

>  <i_f3d_flags>  (137) 
0

>  <s_epik_input>  (137) 
W0NIM11bQ0BASF0xW0NIMl1OKFtDSDJdW0NIMl1bTkhdMSlDKD1PKVtDSDJdW0NAQEhdMkMoPU8pTj1bQ0hdW0NIMl1OMlMoPU8pKD1PKWMzW2NIXVtjSF1jKENsKVtjSF1bY0hdMw==

>  <s_epik_cmdline>  (137) 
J2VwaWtfcHl0aG9uJywgJy1waHQnLCAnMi4wJywgJy1waCcsICc3LjAnLCAnLXRuJywgJzgnLCAnLW1hJywgJzIwMCcsICctaW1hZScsICc8aW5maWxlLm1hZT4nLCAnLW9tYWUnLCAnPG91dGZpbGUubWFlPic=

>  <r_epik_Ionization_Penalty>  (137) 
0.0239031

>  <r_epik_Ionization_Penalty_Charging>  (137) 
0.0239031

>  <r_epik_Ionization_Penalty_Neutral>  (137) 
8.88808e-13

>  <r_epik_State_Penalty>  (137) 
0.0193727

>  <r_epik_Charging_Adjusted_Penalty>  (137) 
0.0432757

>  <i_epik_Tot_Q>  (137) 
1

>  <i_epik_Tot_abs_Q>  (137) 
1

>  <s_epik_Chemistry_Notes>  (137) 
This compound has an imine and may undergo hydrolysis.

>  <s_lp_Force_Field>  (137) 
OPLS3e

>  <r_lp_Energy>  (137) 
41.0524

>  <b_lp_Chiralities_Consistent>  (137) 
1

>  <s_lp_Variant>  (137) 
36:0-1

>  <s_i_glide_gridfile>  (137) 
pfpi4k_grid

>  <i_i_glide_lignum>  (137) 
4

>  <i_i_glide_rotatable_bonds>  (137) 
5

>  <r_i_docking_score>  (137) 
-2.84976

>  <r_i_glide_ligand_efficiency>  (137) 
-0.105547

>  <r_i_glide_ligand_efficiency_sa>  (137) 
-0.31664

>  <r_i_glide_ligand_efficiency_ln>  (137) 
-0.663377

>  <r_i_glide_gscore>  (137) 
-2.84976

>  <r_i_glide_lipo>  (137) 
-0.0802646

>  <r_i_glide_hbond>  (137) 
-0.13588

>  <r_i_glide_metal>  (137) 
-0

>  <r_i_glide_rewards>  (137) 
-0.624923

>  <r_i_glide_evdw>  (137) 
-26.5971

>  <r_i_glide_ecoul>  (137) 
-7.77509

>  <r_i_glide_erotb>  (137) 
0.575921

>  <r_i_glide_esite>  (137) 
-0.0884907

>  <r_i_glide_emodel>  (137) 
-40.2315

>  <r_i_glide_energy>  (137) 
-34.3722

>  <r_i_glide_einternal>  (137) 
4.62443

>  <r_i_glide_intrahb_reward>  (137) 
-0

>  <i_i_glide_confnum>  (137) 
2

>  <i_i_glide_posenum>  (137) 
27

>  <r_i_glide_eff_state_penalty>  (137) 
0

>  <ligand_id>  (137) 
36

>  <original_smiles>  (137) 
CC1CN(C(=O)CC2C(=O)N=CCN2S(=O)(=O)c2ccc(Cl)cc2)CCN1

>  <smiles>  (137) 
[H]C1=NC(=O)C([H])(C([H])([H])C(=O)N2C([H])([H])C([H])([H])[N+]([H])([H])C([H])(C([H])([H])[H])C2([H])[H])N(S(=O)(=O)c2c([H])c([H])c(Cl)c([H])c2[H])C1([H])[H]

$$$$
36:0:2
     RDKit          3D

 49 51  0  0  1  0  0  0  0  0999 V2000
    1.4292    3.2657    4.3365 C   0  0  0  0  0  0  0  0  0  0  0  0
    1.5345    1.9023    3.6462 C   0  0  2  0  0  0  0  0  0  0  0  0
    2.9162    1.6704    3.0005 C   0  0  0  0  0  0  0  0  0  0  0  0
    2.9612    0.3699    2.3018 N   0  0  0  0  0  0  0  0  0  0  0  0
    3.9750   -0.5264    2.4829 C   0  0  0  0  0  0  0  0  0  0  0  0
    4.9454   -0.2795    3.1999 O   0  0  0  0  0  0  0  0  0  0  0  0
    3.8874   -1.8985    1.7784 C   0  0  0  0  0  0  0  0  0  0  0  0
    5.1419   -2.8008    1.8527 C   0  0  2  0  0  0  0  0  0  0  0  0
    6.2323   -2.4504    0.7982 C   0  0  0  0  0  0  0  0  0  0  0  0
    6.1431   -1.4101    0.1452 O   0  0  0  0  0  0  0  0  0  0  0  0
    7.2948   -3.3398    0.6762 N   0  0  0  0  0  0  0  0  0  0  0  0
    7.2405   -4.4841    1.2574 C   0  0  0  0  0  0  0  0  0  0  0  0
    6.0703   -5.0483    2.0694 C   0  0  0  0  0  0  0  0  0  0  0  0
    4.8479   -4.2549    1.8007 N   0  0  0  0  0  0  0  0  0  0  0  0
    3.6976   -4.9505    0.6699 S   0  0  0  0  0  0  0  0  0  0  0  0
    3.1245   -3.8897   -0.1656 O   0  0  0  0  0  0  0  0  0  0  0  0
    4.3541   -6.1025    0.0364 O   0  0  0  0  0  0  0  0  0  0  0  0
    2.3695   -5.5897    1.6968 C   0  0  0  0  0  0  0  0  0  0  0  0
    2.3024   -5.2994    3.0732 C   0  0  0  0  0  0  0  0  0  0  0  0
    1.2569   -5.8361    3.8504 C   0  0  0  0  0  0  0  0  0  0  0  0
    0.2804   -6.6594    3.2569 C   0  0  0  0  0  0  0  0  0  0  0  0
   -1.0045   -7.2975    4.2106 Cl  0  0  0  0  0  0  0  0  0  0  0  0
    0.3423   -6.9465    1.8803 C   0  0  0  0  0  0  0  0  0  0  0  0
    1.3868   -6.4075    1.1002 C   0  0  0  0  0  0  0  0  0  0  0  0
    1.8610    0.1919    1.3391 C   0  0  0  0  0  0  0  0  0  0  0  0
    0.5008    0.4204    1.9999 C   0  0  0  0  0  0  0  0  0  0  0  0
    0.4641    1.7505    2.6357 N   0  0  0  0  0  0  0  0  0  0  0  0
    2.1859    3.3698    5.1124 H   0  0  0  0  0  0  0  0  0  0  0  0
    0.4544    3.3882    4.8060 H   0  0  0  0  0  0  0  0  0  0  0  0
    1.5618    4.0754    3.6213 H   0  0  0  0  0  0  0  0  0  0  0  0
    1.3891    1.1251    4.3987 H   0  0  0  0  0  0  0  0  0  0  0  0
    3.0992    2.4656    2.2805 H   0  0  0  0  0  0  0  0  0  0  0  0
    3.6908    1.7678    3.7650 H   0  0  0  0  0  0  0  0  0  0  0  0
    3.0387   -2.4094    2.2239 H   0  0  0  0  0  0  0  0  0  0  0  0
    3.6780   -1.7263    0.7231 H   0  0  0  0  0  0  0  0  0  0  0  0
    5.6090   -2.6540    2.8249 H   0  0  0  0  0  0  0  0  0  0  0  0
    8.0904   -5.1666    1.2115 H   0  0  0  0  0  0  0  0  0  0  0  0
    5.9496   -6.1039    1.8271 H   0  0  0  0  0  0  0  0  0  0  0  0
    6.3220   -5.0110    3.1320 H   0  0  0  0  0  0  0  0  0  0  0  0
    3.0424   -4.6720    3.5444 H   0  0  0  0  0  0  0  0  0  0  0  0
    1.2087   -5.6130    4.9044 H   0  0  0  0  0  0  0  0  0  0  0  0
   -0.4062   -7.5861    1.4225 H   0  0  0  0  0  0  0  0  0  0  0  0
    1.4391   -6.6270    0.0441 H   0  0  0  0  0  0  0  0  0  0  0  0
    1.9836    0.8782    0.5073 H   0  0  0  0  0  0  0  0  0  0  0  0
    1.8137   -0.7953    0.8894 H   0  0  0  0  0  0  0  0  0  0  0  0
   -0.3041    0.3485    1.2829 H   0  0  0  0  0  0  0  0  0  0  0  0
    0.3316   -0.3551    2.7505 H   0  0  0  0  0  0  0  0  0  0  0  0
   -0.4420    1.8846    3.0643 H   0  0  0  0  0  0  0  0  0  0  0  0
    0.5772    2.4612    1.9184 H   0  0  0  0  0  0  0  0  0  0  0  0
  1  2  1  0
  1 28  1  0
  1 29  1  0
  1 30  1  0
  2 27  1  0
  2  3  1  0
  2 31  1  1
  3  4  1  0
  3 32  1  0
  3 33  1  0
  4  5  1  0
  4 25  1  0
  5  6  2  0
  5  7  1  0
  7  8  1  0
  7 34  1  0
  7 35  1  0
  8 14  1  0
  8  9  1  0
  8 36  1  1
  9 10  2  0
  9 11  1  0
 11 12  2  0
 12 13  1  0
 12 37  1  0
 13 14  1  0
 13 38  1  0
 13 39  1  0
 14 15  1  0
 15 16  2  0
 15 17  2  0
 15 18  1  0
 18 24  1  0
 18 19  2  0
 19 20  1  0
 19 40  1  0
 20 21  2  0
 20 41  1  0
 21 22  1  0
 21 23  1  0
 23 24  2  0
 23 42  1  0
 24 43  1  0
 25 26  1  0
 25 44  1  0
 25 45  1  0
 26 27  1  0
 26 46  1  0
 26 47  1  0
 27 48  1  0
 27 49  1  0
M  CHG  1  27   1
M  END
>  <i_m_ct_stereo_status>  (138) 
1

>  <s_m_source_file>  (138) 
/var/tmp/pbs.5102264.sched01/tmp6iaxk4q8/46_x9h2b30.sdf

>  <i_m_source_file_index>  (138) 
4

>  <i_lp_mmshare_version>  (138) 
48012

>  <i_f3d_flags>  (138) 
0

>  <s_epik_input>  (138) 
W0NIM11bQ0BASF0xW0NIMl1OKFtDSDJdW0NIMl1bTkhdMSlDKD1PKVtDSDJdW0NAQEhdMkMoPU8pTj1bQ0hdW0NIMl1OMlMoPU8pKD1PKWMzW2NIXVtjSF1jKENsKVtjSF1bY0hdMw==

>  <s_epik_cmdline>  (138) 
J2VwaWtfcHl0aG9uJywgJy1waHQnLCAnMi4wJywgJy1waCcsICc3LjAnLCAnLXRuJywgJzgnLCAnLW1hJywgJzIwMCcsICctaW1hZScsICc8aW5maWxlLm1hZT4nLCAnLW9tYWUnLCAnPG91dGZpbGUubWFlPic=

>  <r_epik_Ionization_Penalty>  (138) 
0.0239031

>  <r_epik_Ionization_Penalty_Charging>  (138) 
0.0239031

>  <r_epik_Ionization_Penalty_Neutral>  (138) 
8.88808e-13

>  <r_epik_State_Penalty>  (138) 
0.0193727

>  <r_epik_Charging_Adjusted_Penalty>  (138) 
0.0432757

>  <i_epik_Tot_Q>  (138) 
1

>  <i_epik_Tot_abs_Q>  (138) 
1

>  <s_epik_Chemistry_Notes>  (138) 
This compound has an imine and may undergo hydrolysis.

>  <s_lp_Force_Field>  (138) 
OPLS3e

>  <r_lp_Energy>  (138) 
41.0524

>  <b_lp_Chiralities_Consistent>  (138) 
1

>  <s_lp_Variant>  (138) 
36:0-1

>  <s_i_glide_gridfile>  (138) 
pfpi4k_grid

>  <i_i_glide_lignum>  (138) 
4

>  <i_i_glide_rotatable_bonds>  (138) 
5

>  <r_i_docking_score>  (138) 
-2.74907

>  <r_i_glide_ligand_efficiency>  (138) 
-0.101817

>  <r_i_glide_ligand_efficiency_sa>  (138) 
-0.305452

>  <r_i_glide_ligand_efficiency_ln>  (138) 
-0.639938

>  <r_i_glide_gscore>  (138) 
-2.74907

>  <r_i_glide_lipo>  (138) 
-0.092016

>  <r_i_glide_hbond>  (138) 
-0.0917962

>  <r_i_glide_metal>  (138) 
-0

>  <r_i_glide_rewards>  (138) 
-1.02049

>  <r_i_glide_evdw>  (138) 
-27.897

>  <r_i_glide_ecoul>  (138) 
-4.34385

>  <r_i_glide_erotb>  (138) 
0.575921

>  <r_i_glide_esite>  (138) 
-0.0742604

>  <r_i_glide_emodel>  (138) 
-33.083

>  <r_i_glide_energy>  (138) 
-32.2409

>  <r_i_glide_einternal>  (138) 
13.8815

>  <r_i_glide_intrahb_reward>  (138) 
-0

>  <i_i_glide_confnum>  (138) 
1

>  <i_i_glide_posenum>  (138) 
5

>  <r_i_glide_eff_state_penalty>  (138) 
0

>  <ligand_id>  (138) 
36

>  <original_smiles>  (138) 
CC1CN(C(=O)CC2C(=O)N=CCN2S(=O)(=O)c2ccc(Cl)cc2)CCN1

>  <smiles>  (138) 
[H]C1=NC(=O)C([H])(C([H])([H])C(=O)N2C([H])([H])C([H])([H])[N+]([H])([H])C([H])(C([H])([H])[H])C2([H])[H])N(S(=O)(=O)c2c([H])c([H])c(Cl)c([H])c2[H])C1([H])[H]

$$$$
36:1:0
     RDKit          3D

 48 50  0  0  1  0  0  0  0  0999 V2000
    0.6152   -9.6345    6.0063 C   0  0  0  0  0  0  0  0  0  0  0  0
    0.2587   -8.9708    4.6694 C   0  0  2  0  0  0  0  0  0  0  0  0
    1.0987   -7.6906    4.4351 C   0  0  0  0  0  0  0  0  0  0  0  0
    0.6968   -7.0389    3.1734 N   0  0  0  0  0  0  0  0  0  0  0  0
    1.5275   -6.6567    2.1670 C   0  0  0  0  0  0  0  0  0  0  0  0
    1.0836   -6.1797    1.1181 O   0  0  0  0  0  0  0  0  0  0  0  0
    3.0510   -6.7741    2.3842 C   0  0  0  0  0  0  0  0  0  0  0  0
    3.9654   -6.3161    1.1978 C   0  0  2  0  0  0  0  0  0  0  0  0
    5.0189   -7.4212    0.9449 C   0  0  0  0  0  0  0  0  0  0  0  0
    4.6118   -8.4830    0.4790 O   0  0  0  0  0  0  0  0  0  0  0  0
    6.3530   -7.1709    1.2796 N   0  0  0  0  0  0  0  0  0  0  0  0
    6.7092   -6.0309    1.7286 C   0  0  0  0  0  0  0  0  0  0  0  0
    5.8259   -4.8474    2.0522 C   0  0  0  0  0  0  0  0  0  0  0  0
    4.5161   -4.9504    1.3672 N   0  0  0  0  0  0  0  0  0  0  0  0
    3.6165   -3.5077    0.9621 S   0  0  0  0  0  0  0  0  0  0  0  0
    4.5817   -2.4615    0.6237 O   0  0  0  0  0  0  0  0  0  0  0  0
    2.5846   -3.8690   -0.0164 O   0  0  0  0  0  0  0  0  0  0  0  0
    2.8097   -3.0381    2.5090 C   0  0  0  0  0  0  0  0  0  0  0  0
    3.2077   -3.6207    3.7361 C   0  0  0  0  0  0  0  0  0  0  0  0
    2.5644   -3.2875    4.9319 C   0  0  0  0  0  0  0  0  0  0  0  0
    1.5247   -2.3411    4.9403 C   0  0  0  0  0  0  0  0  0  0  0  0
    0.7449   -1.9421    6.4288 Cl  0  0  0  0  0  0  0  0  0  0  0  0
    1.1343   -1.7285    3.7183 C   0  0  0  0  0  0  0  0  0  0  0  0
    1.7724   -2.0697    2.4945 C   0  0  0  0  0  0  0  0  0  0  0  0
   -0.7473   -6.8081    3.1204 C   0  0  0  0  0  0  0  0  0  0  0  0
   -1.5339   -8.1006    3.3733 C   0  0  0  0  0  0  0  0  0  0  0  0
   -1.1633   -8.6557    4.6731 N   0  0  0  0  0  0  0  0  0  0  0  0
    1.6509   -9.9672    6.0040 H   0  0  0  0  0  0  0  0  0  0  0  0
   -0.0011  -10.5089    6.2030 H   0  0  0  0  0  0  0  0  0  0  0  0
    0.4937   -8.9419    6.8357 H   0  0  0  0  0  0  0  0  0  0  0  0
    0.4472   -9.6847    3.8589 H   0  0  0  0  0  0  0  0  0  0  0  0
    0.9582   -6.9889    5.2618 H   0  0  0  0  0  0  0  0  0  0  0  0
    2.1477   -7.9874    4.4675 H   0  0  0  0  0  0  0  0  0  0  0  0
    3.2944   -6.2214    3.2881 H   0  0  0  0  0  0  0  0  0  0  0  0
    3.3030   -7.8014    2.6483 H   0  0  0  0  0  0  0  0  0  0  0  0
    3.4032   -6.3068    0.2579 H   0  0  0  0  0  0  0  0  0  0  0  0
    7.7465   -5.8403    2.0162 H   0  0  0  0  0  0  0  0  0  0  0  0
    5.7247   -4.9219    3.1328 H   0  0  0  0  0  0  0  0  0  0  0  0
    6.3423   -3.9093    1.8308 H   0  0  0  0  0  0  0  0  0  0  0  0
    4.0018   -4.3326    3.8265 H   0  0  0  0  0  0  0  0  0  0  0  0
    2.8920   -3.7746    5.8323 H   0  0  0  0  0  0  0  0  0  0  0  0
    0.3351   -0.9908    3.7177 H   0  0  0  0  0  0  0  0  0  0  0  0
    1.4747   -1.6104    1.5568 H   0  0  0  0  0  0  0  0  0  0  0  0
   -0.9918   -6.0582    3.8749 H   0  0  0  0  0  0  0  0  0  0  0  0
   -1.0660   -6.4324    2.1497 H   0  0  0  0  0  0  0  0  0  0  0  0
   -2.5978   -7.8792    3.3768 H   0  0  0  0  0  0  0  0  0  0  0  0
   -1.3573   -8.8222    2.5753 H   0  0  0  0  0  0  0  0  0  0  0  0
   -1.6507   -9.5436    4.8419 H   0  0  0  0  0  0  0  0  0  0  0  0
  1  2  1  0
  1 28  1  0
  1 29  1  0
  1 30  1  0
  2 27  1  0
  2  3  1  0
  2 31  1  6
  3  4  1  0
  3 32  1  0
  3 33  1  0
  4  5  1  0
  4 25  1  0
  5  6  2  0
  5  7  1  0
  7  8  1  0
  7 34  1  0
  7 35  1  0
  8 14  1  0
  8  9  1  0
  8 36  1  6
  9 10  2  0
  9 11  1  0
 11 12  2  0
 12 13  1  0
 12 37  1  0
 13 14  1  0
 13 38  1  0
 13 39  1  0
 14 15  1  0
 15 16  2  0
 15 17  2  0
 15 18  1  0
 18 24  1  0
 18 19  2  0
 19 20  1  0
 19 40  1  0
 20 21  2  0
 20 41  1  0
 21 22  1  0
 21 23  1  0
 23 24  2  0
 23 42  1  0
 24 43  1  0
 25 26  1  0
 25 44  1  0
 25 45  1  0
 26 27  1  0
 26 46  1  0
 26 47  1  0
 27 48  1  0
M  END
>  <i_m_ct_stereo_status>  (139) 
1

>  <s_m_source_file>  (139) 
/var/tmp/pbs.5102264.sched01/tmp6iaxk4q8/46_x9h2b30.sdf

>  <i_m_source_file_index>  (139) 
5

>  <i_lp_mmshare_version>  (139) 
48012

>  <i_f3d_flags>  (139) 
0

>  <s_epik_input>  (139) 
W0NIM11bQ0BASF0xW0NIMl1OKFtDSDJdW0NIMl1bTkhdMSlDKD1PKVtDSDJdW0NAQEhdMkMoPU8pTj1bQ0hdW0NIMl1OMlMoPU8pKD1PKWMzW2NIXVtjSF1jKENsKVtjSF1bY0hdMw==

>  <s_epik_cmdline>  (139) 
J2VwaWtfcHl0aG9uJywgJy1waHQnLCAnMi4wJywgJy1waCcsICc3LjAnLCAnLXRuJywgJzgnLCAnLW1hJywgJzIwMCcsICctaW1hZScsICc8aW5maWxlLm1hZT4nLCAnLW9tYWUnLCAnPG91dGZpbGUubWFlPic=

>  <r_epik_Ionization_Penalty>  (139) 
1.91398

>  <r_epik_Ionization_Penalty_Charging>  (139) 
0

>  <r_epik_Ionization_Penalty_Neutral>  (139) 
1.91398

>  <r_epik_State_Penalty>  (139) 
2.03624

>  <r_epik_Charging_Adjusted_Penalty>  (139) 
2.03624

>  <i_epik_Tot_Q>  (139) 
0

>  <i_epik_Tot_abs_Q>  (139) 
0

>  <s_epik_Chemistry_Notes>  (139) 
This compound has an imine and may undergo hydrolysis.

>  <s_lp_Force_Field>  (139) 
OPLS3e

>  <r_lp_Energy>  (139) 
44.1551

>  <b_lp_Chiralities_Consistent>  (139) 
1

>  <s_lp_Variant>  (139) 
36:0-2

>  <s_i_glide_gridfile>  (139) 
pfpi4k_grid

>  <i_i_glide_lignum>  (139) 
5

>  <i_i_glide_rotatable_bonds>  (139) 
5

>  <r_i_docking_score>  (139) 
-3.04041

>  <r_i_glide_ligand_efficiency>  (139) 
-0.112608

>  <r_i_glide_ligand_efficiency_sa>  (139) 
-0.337823

>  <r_i_glide_ligand_efficiency_ln>  (139) 
-0.707757

>  <r_i_glide_gscore>  (139) 
-3.04041

>  <r_i_glide_lipo>  (139) 
-0.116294

>  <r_i_glide_hbond>  (139) 
-0.32

>  <r_i_glide_metal>  (139) 
-0

>  <r_i_glide_rewards>  (139) 
-0.810635

>  <r_i_glide_evdw>  (139) 
-24.1655

>  <r_i_glide_ecoul>  (139) 
-7.02746

>  <r_i_glide_erotb>  (139) 
0.578461

>  <r_i_glide_esite>  (139) 
-0.109548

>  <r_i_glide_emodel>  (139) 
-34.3146

>  <r_i_glide_energy>  (139) 
-31.193

>  <r_i_glide_einternal>  (139) 
5.53394

>  <r_i_glide_intrahb_reward>  (139) 
-0

>  <i_i_glide_confnum>  (139) 
1

>  <i_i_glide_posenum>  (139) 
1

>  <r_i_glide_eff_state_penalty>  (139) 
0

>  <ligand_id>  (139) 
36

>  <original_smiles>  (139) 
CC1CN(C(=O)CC2C(=O)N=CCN2S(=O)(=O)c2ccc(Cl)cc2)CCN1

>  <smiles>  (139) 
[H]C1=NC(=O)C([H])(C([H])([H])C(=O)N2C([H])([H])C([H])([H])N([H])C([H])(C([H])([H])[H])C2([H])[H])N(S(=O)(=O)c2c([H])c([H])c(Cl)c([H])c2[H])C1([H])[H]

$$$$
36:1:1
     RDKit          3D

 48 50  0  0  1  0  0  0  0  0999 V2000
    6.2330   -0.7862    0.7374 C   0  0  0  0  0  0  0  0  0  0  0  0
    4.9534   -1.5515    0.3951 C   0  0  2  0  0  0  0  0  0  0  0  0
    4.9684   -2.9232    1.0898 C   0  0  0  0  0  0  0  0  0  0  0  0
    3.7652   -3.6432    0.6730 N   0  0  0  0  0  0  0  0  0  0  0  0
    2.8862   -4.2480    1.5131 C   0  0  0  0  0  0  0  0  0  0  0  0
    2.1482   -5.1422    1.0940 O   0  0  0  0  0  0  0  0  0  0  0  0
    2.7816   -3.7914    3.0002 C   0  0  0  0  0  0  0  0  0  0  0  0
    1.4277   -4.0926    3.7142 C   0  0  2  0  0  0  0  0  0  0  0  0
    1.1334   -2.9953    4.7740 C   0  0  0  0  0  0  0  0  0  0  0  0
    0.8293   -1.8705    4.3739 O   0  0  0  0  0  0  0  0  0  0  0  0
    1.1914   -3.3275    6.1335 N   0  0  0  0  0  0  0  0  0  0  0  0
    1.4757   -4.5182    6.5031 C   0  0  0  0  0  0  0  0  0  0  0  0
    1.7680   -5.6962    5.6188 C   0  0  0  0  0  0  0  0  0  0  0  0
    1.2892   -5.4747    4.2315 N   0  0  0  0  0  0  0  0  0  0  0  0
    0.8147   -6.8650    3.2759 S   0  0  0  0  0  0  0  0  0  0  0  0
    0.1870   -7.8263    4.1886 O   0  0  0  0  0  0  0  0  0  0  0  0
    0.0158   -6.3840    2.1413 O   0  0  0  0  0  0  0  0  0  0  0  0
    2.4091   -7.5521    2.6863 C   0  0  0  0  0  0  0  0  0  0  0  0
    3.6420   -7.0827    3.2230 C   0  0  0  0  0  0  0  0  0  0  0  0
    4.8898   -7.6449    2.8301 C   0  0  0  0  0  0  0  0  0  0  0  0
    4.9340   -8.6350    1.8481 C   0  0  0  0  0  0  0  0  0  0  0  0
    6.4541   -9.2530    1.3289 Cl  0  0  0  0  0  0  0  0  0  0  0  0
    3.7147   -9.0819    1.2673 C   0  0  0  0  0  0  0  0  0  0  0  0
    2.4622   -8.5393    1.6843 C   0  0  0  0  0  0  0  0  0  0  0  0
    3.6379   -3.7825   -0.7727 C   0  0  0  0  0  0  0  0  0  0  0  0
    3.6400   -2.3995   -1.4110 C   0  0  0  0  0  0  0  0  0  0  0  0
    4.8749   -1.7019   -1.0595 N   0  0  0  0  0  0  0  0  0  0  0  0
    6.2813   -0.6043    1.8104 H   0  0  0  0  0  0  0  0  0  0  0  0
    6.2653    0.1668    0.2140 H   0  0  0  0  0  0  0  0  0  0  0  0
    7.1174   -1.3645    0.4595 H   0  0  0  0  0  0  0  0  0  0  0  0
    4.0730   -0.9872    0.7345 H   0  0  0  0  0  0  0  0  0  0  0  0
    5.8245   -3.5180    0.7761 H   0  0  0  0  0  0  0  0  0  0  0  0
    5.0656   -2.7929    2.1728 H   0  0  0  0  0  0  0  0  0  0  0  0
    3.6341   -4.1597    3.5688 H   0  0  0  0  0  0  0  0  0  0  0  0
    2.8992   -2.7157    3.0045 H   0  0  0  0  0  0  0  0  0  0  0  0
    0.6380   -3.9445    2.9802 H   0  0  0  0  0  0  0  0  0  0  0  0
    1.5967   -4.7783    7.5510 H   0  0  0  0  0  0  0  0  0  0  0  0
    2.8556   -5.7630    5.6519 H   0  0  0  0  0  0  0  0  0  0  0  0
    1.3540   -6.6101    6.0698 H   0  0  0  0  0  0  0  0  0  0  0  0
    3.7357   -6.2698    3.9502 H   0  0  0  0  0  0  0  0  0  0  0  0
    5.7868   -7.2577    3.2783 H   0  0  0  0  0  0  0  0  0  0  0  0
    3.7559   -9.8130    0.4682 H   0  0  0  0  0  0  0  0  0  0  0  0
    1.5454   -8.8707    1.2341 H   0  0  0  0  0  0  0  0  0  0  0  0
    4.4064   -4.4462   -1.1526 H   0  0  0  0  0  0  0  0  0  0  0  0
    2.6882   -4.2289   -1.0642 H   0  0  0  0  0  0  0  0  0  0  0  0
    3.5424   -2.5059   -2.4910 H   0  0  0  0  0  0  0  0  0  0  0  0
    2.7614   -1.8454   -1.0597 H   0  0  0  0  0  0  0  0  0  0  0  0
    4.8156   -0.7885   -1.4901 H   0  0  0  0  0  0  0  0  0  0  0  0
  1  2  1  0
  1 28  1  0
  1 29  1  0
  1 30  1  0
  2 27  1  0
  2  3  1  0
  2 31  1  1
  3  4  1  0
  3 32  1  0
  3 33  1  0
  4  5  1  0
  4 25  1  0
  5  6  2  0
  5  7  1  0
  7  8  1  0
  7 34  1  0
  7 35  1  0
  8 14  1  0
  8  9  1  0
  8 36  1  6
  9 10  2  0
  9 11  1  0
 11 12  2  0
 12 13  1  0
 12 37  1  0
 13 14  1  0
 13 38  1  0
 13 39  1  0
 14 15  1  0
 15 16  2  0
 15 17  2  0
 15 18  1  0
 18 24  1  0
 18 19  2  0
 19 20  1  0
 19 40  1  0
 20 21  2  0
 20 41  1  0
 21 22  1  0
 21 23  1  0
 23 24  2  0
 23 42  1  0
 24 43  1  0
 25 26  1  0
 25 44  1  0
 25 45  1  0
 26 27  1  0
 26 46  1  0
 26 47  1  0
 27 48  1  0
M  END
>  <i_m_ct_stereo_status>  (140) 
1

>  <s_m_source_file>  (140) 
/var/tmp/pbs.5102264.sched01/tmp6iaxk4q8/46_x9h2b30.sdf

>  <i_m_source_file_index>  (140) 
5

>  <i_lp_mmshare_version>  (140) 
48012

>  <i_f3d_flags>  (140) 
0

>  <s_epik_input>  (140) 
W0NIM11bQ0BASF0xW0NIMl1OKFtDSDJdW0NIMl1bTkhdMSlDKD1PKVtDSDJdW0NAQEhdMkMoPU8pTj1bQ0hdW0NIMl1OMlMoPU8pKD1PKWMzW2NIXVtjSF1jKENsKVtjSF1bY0hdMw==

>  <s_epik_cmdline>  (140) 
J2VwaWtfcHl0aG9uJywgJy1waHQnLCAnMi4wJywgJy1waCcsICc3LjAnLCAnLXRuJywgJzgnLCAnLW1hJywgJzIwMCcsICctaW1hZScsICc8aW5maWxlLm1hZT4nLCAnLW9tYWUnLCAnPG91dGZpbGUubWFlPic=

>  <r_epik_Ionization_Penalty>  (140) 
1.91398

>  <r_epik_Ionization_Penalty_Charging>  (140) 
0

>  <r_epik_Ionization_Penalty_Neutral>  (140) 
1.91398

>  <r_epik_State_Penalty>  (140) 
2.03624

>  <r_epik_Charging_Adjusted_Penalty>  (140) 
2.03624

>  <i_epik_Tot_Q>  (140) 
0

>  <i_epik_Tot_abs_Q>  (140) 
0

>  <s_epik_Chemistry_Notes>  (140) 
This compound has an imine and may undergo hydrolysis.

>  <s_lp_Force_Field>  (140) 
OPLS3e

>  <r_lp_Energy>  (140) 
44.1551

>  <b_lp_Chiralities_Consistent>  (140) 
1

>  <s_lp_Variant>  (140) 
36:0-2

>  <s_i_glide_gridfile>  (140) 
pfpi4k_grid

>  <i_i_glide_lignum>  (140) 
5

>  <i_i_glide_rotatable_bonds>  (140) 
5

>  <r_i_docking_score>  (140) 
-2.80636

>  <r_i_glide_ligand_efficiency>  (140) 
-0.103939

>  <r_i_glide_ligand_efficiency_sa>  (140) 
-0.311817

>  <r_i_glide_ligand_efficiency_ln>  (140) 
-0.653274

>  <r_i_glide_gscore>  (140) 
-2.80636

>  <r_i_glide_lipo>  (140) 
-0.221838

>  <r_i_glide_hbond>  (140) 
-0.025213

>  <r_i_glide_metal>  (140) 
-0

>  <r_i_glide_rewards>  (140) 
-0.611874

>  <r_i_glide_evdw>  (140) 
-25.7687

>  <r_i_glide_ecoul>  (140) 
-7.0764

>  <r_i_glide_erotb>  (140) 
0.578461

>  <r_i_glide_esite>  (140) 
-0.175999

>  <r_i_glide_emodel>  (140) 
-34.6404

>  <r_i_glide_energy>  (140) 
-32.8451

>  <r_i_glide_einternal>  (140) 
5.60549

>  <r_i_glide_intrahb_reward>  (140) 
-0

>  <i_i_glide_confnum>  (140) 
1

>  <i_i_glide_posenum>  (140) 
15

>  <r_i_glide_eff_state_penalty>  (140) 
0

>  <ligand_id>  (140) 
36

>  <original_smiles>  (140) 
CC1CN(C(=O)CC2C(=O)N=CCN2S(=O)(=O)c2ccc(Cl)cc2)CCN1

>  <smiles>  (140) 
[H]C1=NC(=O)C([H])(C([H])([H])C(=O)N2C([H])([H])C([H])([H])N([H])C([H])(C([H])([H])[H])C2([H])[H])N(S(=O)(=O)c2c([H])c([H])c(Cl)c([H])c2[H])C1([H])[H]

$$$$
36:1:2
     RDKit          3D

 48 50  0  0  1  0  0  0  0  0999 V2000
    4.2061   -3.5749   -4.0316 C   0  0  0  0  0  0  0  0  0  0  0  0
    4.6132   -3.7110   -2.5528 C   0  0  2  0  0  0  0  0  0  0  0  0
    3.4783   -3.2333   -1.6215 C   0  0  0  0  0  0  0  0  0  0  0  0
    3.9070   -3.2636   -0.2111 N   0  0  0  0  0  0  0  0  0  0  0  0
    3.1946   -3.9140    0.7411 C   0  0  0  0  0  0  0  0  0  0  0  0
    2.4013   -4.8057    0.4347 O   0  0  0  0  0  0  0  0  0  0  0  0
    3.3575   -3.4996    2.2298 C   0  0  0  0  0  0  0  0  0  0  0  0
    2.0883   -3.5722    3.1396 C   0  0  2  0  0  0  0  0  0  0  0  0
    2.0251   -2.3360    4.0931 C   0  0  0  0  0  0  0  0  0  0  0  0
    1.7516   -1.2484    3.5905 O   0  0  0  0  0  0  0  0  0  0  0  0
    2.2676   -2.5054    5.4582 N   0  0  0  0  0  0  0  0  0  0  0  0
    2.5189   -3.6630    5.9252 C   0  0  0  0  0  0  0  0  0  0  0  0
    2.6392   -4.9662    5.1629 C   0  0  0  0  0  0  0  0  0  0  0  0
    1.9574   -4.8774    3.8362 N   0  0  0  0  0  0  0  0  0  0  0  0
    1.3026   -6.3182    3.0935 S   0  0  0  0  0  0  0  0  0  0  0  0
    0.6580   -7.0930    4.1628 O   0  0  0  0  0  0  0  0  0  0  0  0
    0.4874   -5.9389    1.9355 O   0  0  0  0  0  0  0  0  0  0  0  0
    2.7530   -7.2369    2.5226 C   0  0  0  0  0  0  0  0  0  0  0  0
    4.0602   -6.8401    2.9780 C   0  0  0  0  0  0  0  0  0  0  0  0
    5.1830   -7.6142    2.5871 C   0  0  0  0  0  0  0  0  0  0  0  0
    5.0535   -8.7138    1.7283 C   0  0  0  0  0  0  0  0  0  0  0  0
    6.4583   -9.5795    1.2290 Cl  0  0  0  0  0  0  0  0  0  0  0  0
    3.7605   -9.0676    1.2534 C   0  0  0  0  0  0  0  0  0  0  0  0
    2.6034   -8.3426    1.6565 C   0  0  0  0  0  0  0  0  0  0  0  0
    5.1572   -2.5497    0.0289 C   0  0  0  0  0  0  0  0  0  0  0  0
    6.2379   -3.0762   -0.9343 C   0  0  0  0  0  0  0  0  0  0  0  0
    5.8219   -2.9213   -2.3217 N   0  0  0  0  0  0  0  0  0  0  0  0
    3.3565   -4.2159   -4.2525 H   0  0  0  0  0  0  0  0  0  0  0  0
    5.0121   -3.8710   -4.6975 H   0  0  0  0  0  0  0  0  0  0  0  0
    3.9180   -2.5547   -4.2731 H   0  0  0  0  0  0  0  0  0  0  0  0
    4.8384   -4.7532   -2.3405 H   0  0  0  0  0  0  0  0  0  0  0  0
    3.1814   -2.2159   -1.8645 H   0  0  0  0  0  0  0  0  0  0  0  0
    2.5868   -3.8263   -1.7959 H   0  0  0  0  0  0  0  0  0  0  0  0
    4.1592   -4.0790    2.6530 H   0  0  0  0  0  0  0  0  0  0  0  0
    3.7166   -2.4609    2.2661 H   0  0  0  0  0  0  0  0  0  0  0  0
    1.2169   -3.4553    2.5173 H   0  0  0  0  0  0  0  0  0  0  0  0
    2.7830   -3.8017    6.9743 H   0  0  0  0  0  0  0  0  0  0  0  0
    3.6907   -5.0694    5.0788 H   0  0  0  0  0  0  0  0  0  0  0  0
    2.2531   -5.8021    5.7561 H   0  0  0  0  0  0  0  0  0  0  0  0
    4.2686   -6.0168    3.5659 H   0  0  0  0  0  0  0  0  0  0  0  0
    6.1487   -7.3072    2.9670 H   0  0  0  0  0  0  0  0  0  0  0  0
    3.6587   -9.8827    0.5507 H   0  0  0  0  0  0  0  0  0  0  0  0
    1.6229   -8.6255    1.2950 H   0  0  0  0  0  0  0  0  0  0  0  0
    4.9939   -1.4715   -0.0979 H   0  0  0  0  0  0  0  0  0  0  0  0
    5.5460   -2.7061    1.0393 H   0  0  0  0  0  0  0  0  0  0  0  0
    7.1630   -2.5209   -0.7760 H   0  0  0  0  0  0  0  0  0  0  0  0
    6.4572   -4.1259   -0.7198 H   0  0  0  0  0  0  0  0  0  0  0  0
    6.5523   -3.2509   -2.9333 H   0  0  0  0  0  0  0  0  0  0  0  0
  1  2  1  0
  1 28  1  0
  1 29  1  0
  1 30  1  0
  2 27  1  0
  2  3  1  0
  2 31  1  1
  3  4  1  0
  3 32  1  0
  3 33  1  0
  4  5  1  0
  4 25  1  0
  5  6  2  0
  5  7  1  0
  7  8  1  0
  7 34  1  0
  7 35  1  0
  8 14  1  0
  8  9  1  0
  8 36  1  6
  9 10  2  0
  9 11  1  0
 11 12  2  0
 12 13  1  0
 12 37  1  0
 13 14  1  0
 13 38  1  0
 13 39  1  0
 14 15  1  0
 15 16  2  0
 15 17  2  0
 15 18  1  0
 18 24  1  0
 18 19  2  0
 19 20  1  0
 19 40  1  0
 20 21  2  0
 20 41  1  0
 21 22  1  0
 21 23  1  0
 23 24  2  0
 23 42  1  0
 24 43  1  0
 25 26  1  0
 25 44  1  0
 25 45  1  0
 26 27  1  0
 26 46  1  0
 26 47  1  0
 27 48  1  0
M  END
>  <i_m_ct_stereo_status>  (141) 
1

>  <s_m_source_file>  (141) 
/var/tmp/pbs.5102264.sched01/tmp6iaxk4q8/46_x9h2b30.sdf

>  <i_m_source_file_index>  (141) 
5

>  <i_lp_mmshare_version>  (141) 
48012

>  <i_f3d_flags>  (141) 
0

>  <s_epik_input>  (141) 
W0NIM11bQ0BASF0xW0NIMl1OKFtDSDJdW0NIMl1bTkhdMSlDKD1PKVtDSDJdW0NAQEhdMkMoPU8pTj1bQ0hdW0NIMl1OMlMoPU8pKD1PKWMzW2NIXVtjSF1jKENsKVtjSF1bY0hdMw==

>  <s_epik_cmdline>  (141) 
J2VwaWtfcHl0aG9uJywgJy1waHQnLCAnMi4wJywgJy1waCcsICc3LjAnLCAnLXRuJywgJzgnLCAnLW1hJywgJzIwMCcsICctaW1hZScsICc8aW5maWxlLm1hZT4nLCAnLW9tYWUnLCAnPG91dGZpbGUubWFlPic=

>  <r_epik_Ionization_Penalty>  (141) 
1.91398

>  <r_epik_Ionization_Penalty_Charging>  (141) 
0

>  <r_epik_Ionization_Penalty_Neutral>  (141) 
1.91398

>  <r_epik_State_Penalty>  (141) 
2.03624

>  <r_epik_Charging_Adjusted_Penalty>  (141) 
2.03624

>  <i_epik_Tot_Q>  (141) 
0

>  <i_epik_Tot_abs_Q>  (141) 
0

>  <s_epik_Chemistry_Notes>  (141) 
This compound has an imine and may undergo hydrolysis.

>  <s_lp_Force_Field>  (141) 
OPLS3e

>  <r_lp_Energy>  (141) 
44.1551

>  <b_lp_Chiralities_Consistent>  (141) 
1

>  <s_lp_Variant>  (141) 
36:0-2

>  <s_i_glide_gridfile>  (141) 
pfpi4k_grid

>  <i_i_glide_lignum>  (141) 
5

>  <i_i_glide_rotatable_bonds>  (141) 
5

>  <r_i_docking_score>  (141) 
-2.58451

>  <r_i_glide_ligand_efficiency>  (141) 
-0.0957227

>  <r_i_glide_ligand_efficiency_sa>  (141) 
-0.287168

>  <r_i_glide_ligand_efficiency_ln>  (141) 
-0.601632

>  <r_i_glide_gscore>  (141) 
-2.58451

>  <r_i_glide_lipo>  (141) 
-0.097541

>  <r_i_glide_hbond>  (141) 
0

>  <r_i_glide_metal>  (141) 
-0

>  <r_i_glide_rewards>  (141) 
-0.631222

>  <r_i_glide_evdw>  (141) 
-26.4297

>  <r_i_glide_ecoul>  (141) 
-6.45077

>  <r_i_glide_erotb>  (141) 
0.578461

>  <r_i_glide_esite>  (141) 
-0.145109

>  <r_i_glide_emodel>  (141) 
-33.4288

>  <r_i_glide_energy>  (141) 
-32.8805

>  <r_i_glide_einternal>  (141) 
7.12238

>  <r_i_glide_intrahb_reward>  (141) 
-0

>  <i_i_glide_confnum>  (141) 
1

>  <i_i_glide_posenum>  (141) 
21

>  <r_i_glide_eff_state_penalty>  (141) 
0

>  <ligand_id>  (141) 
36

>  <original_smiles>  (141) 
CC1CN(C(=O)CC2C(=O)N=CCN2S(=O)(=O)c2ccc(Cl)cc2)CCN1

>  <smiles>  (141) 
[H]C1=NC(=O)C([H])(C([H])([H])C(=O)N2C([H])([H])C([H])([H])N([H])C([H])(C([H])([H])[H])C2([H])[H])N(S(=O)(=O)c2c([H])c([H])c(Cl)c([H])c2[H])C1([H])[H]

$$$$
37:0:0
     RDKit          3D

 41 43  0  0  1  0  0  0  0  0999 V2000
    4.4090   -2.7604   -2.6338 C   0  0  0  0  0  0  0  0  0  0  0  0
    3.4312   -2.5172   -1.4721 C   0  0  0  0  0  0  0  0  0  0  0  0
    3.9026   -1.4038   -0.5305 C   0  0  0  0  0  0  0  0  0  0  0  0
    3.1424   -3.7602   -0.6975 C   0  0  0  0  0  0  0  0  0  0  0  0
    3.9747   -4.4664    0.0721 N   0  0  0  0  0  0  0  0  0  0  0  0
    3.1661   -5.4873    0.4632 C   0  0  0  0  0  0  0  0  0  0  0  0
    3.6748   -6.6056    1.3262 C   0  0  2  0  0  0  0  0  0  0  0  0
    4.7808   -7.4156    0.6355 C   0  0  0  0  0  0  0  0  0  0  0  0
    4.6442   -8.8285    1.1847 C   0  0  0  0  0  0  0  0  0  0  0  0
    3.1589   -8.9685    1.4820 C   0  0  0  0  0  0  0  0  0  0  0  0
    2.6592   -7.6073    1.7033 N   0  0  0  0  0  0  0  0  0  0  0  0
    1.4715   -7.3163    2.2900 C   0  0  0  0  0  0  0  0  0  0  0  0
    1.1742   -6.1661    2.6359 O   0  0  0  0  0  0  0  0  0  0  0  0
    0.4538   -8.4524    2.5236 C   0  0  0  0  0  0  0  0  0  0  0  0
   -0.9836   -8.0606    2.0873 C   0  0  0  0  0  0  0  0  0  0  0  0
   -1.7815   -8.1461    3.3567 C   0  0  0  0  0  0  0  0  0  0  0  0
   -1.0365   -8.5081    4.3994 C   0  0  0  0  0  0  0  0  0  0  0  0
    0.3939   -8.7492    4.0427 C   0  0  0  0  0  0  0  0  0  0  0  0
    1.9193   -5.4404    0.0055 N   0  0  0  0  0  0  0  0  0  0  0  0
    1.8937   -4.2685   -0.7568 O   0  0  0  0  0  0  0  0  0  0  0  0
    4.0186   -3.5160   -3.3177 H   0  0  0  0  0  0  0  0  0  0  0  0
    5.3745   -3.1142   -2.2704 H   0  0  0  0  0  0  0  0  0  0  0  0
    4.5705   -1.8437   -3.2032 H   0  0  0  0  0  0  0  0  0  0  0  0
    2.4864   -2.1913   -1.9275 H   0  0  0  0  0  0  0  0  0  0  0  0
    3.1421   -1.2132    0.2296 H   0  0  0  0  0  0  0  0  0  0  0  0
    4.0899   -0.4792   -1.0730 H   0  0  0  0  0  0  0  0  0  0  0  0
    4.8185   -1.6963   -0.0163 H   0  0  0  0  0  0  0  0  0  0  0  0
    4.0643   -6.1678    2.2463 H   0  0  0  0  0  0  0  0  0  0  0  0
    4.6111   -7.4422   -0.4428 H   0  0  0  0  0  0  0  0  0  0  0  0
    5.7670   -6.9865    0.8032 H   0  0  0  0  0  0  0  0  0  0  0  0
    5.0044   -9.5833    0.4893 H   0  0  0  0  0  0  0  0  0  0  0  0
    5.2262   -8.9282    2.1046 H   0  0  0  0  0  0  0  0  0  0  0  0
    2.6484   -9.3993    0.6251 H   0  0  0  0  0  0  0  0  0  0  0  0
    3.0114   -9.6326    2.3352 H   0  0  0  0  0  0  0  0  0  0  0  0
    0.7121   -9.3670    1.9879 H   0  0  0  0  0  0  0  0  0  0  0  0
   -1.0696   -7.0535    1.6829 H   0  0  0  0  0  0  0  0  0  0  0  0
   -1.3930   -8.7541    1.3505 H   0  0  0  0  0  0  0  0  0  0  0  0
   -2.8433   -7.9546    3.3915 H   0  0  0  0  0  0  0  0  0  0  0  0
   -1.3968   -8.6625    5.3989 H   0  0  0  0  0  0  0  0  0  0  0  0
    0.6907   -9.7758    4.2602 H   0  0  0  0  0  0  0  0  0  0  0  0
    1.0272   -8.0953    4.6465 H   0  0  0  0  0  0  0  0  0  0  0  0
  1  2  1  0
  1 21  1  0
  1 22  1  0
  1 23  1  0
  2  3  1  0
  2  4  1  0
  2 24  1  0
  3 25  1  0
  3 26  1  0
  3 27  1  0
  4 20  1  0
  4  5  2  0
  5  6  1  0
  6  7  1  0
  6 19  2  0
  7 11  1  0
  7  8  1  0
  7 28  1  1
  8  9  1  0
  8 29  1  0
  8 30  1  0
  9 10  1  0
  9 31  1  0
  9 32  1  0
 10 11  1  0
 10 33  1  0
 10 34  1  0
 11 12  1  0
 12 13  2  0
 12 14  1  0
 14 18  1  0
 14 15  1  0
 14 35  1  0
 15 16  1  0
 15 36  1  0
 15 37  1  0
 16 17  2  0
 16 38  1  0
 17 18  1  0
 17 39  1  0
 18 40  1  0
 18 41  1  0
 19 20  1  0
M  END
>  <i_m_ct_stereo_status>  (142) 
1

>  <s_m_source_file>  (142) 
/var/tmp/pbs.5102264.sched01/tmp6iaxk4q8/46_x9h2b30.sdf

>  <i_m_source_file_index>  (142) 
6

>  <i_lp_mmshare_version>  (142) 
48012

>  <i_f3d_flags>  (142) 
0

>  <s_epik_input>  (142) 
W0NIM11bQ0hdKFtDSDNdKWMxbmMobm8xKVtDQEBIXTJbQ0gyXVtDSDJdW0NIMl1OMkMoPU8pW0NIXTNbQ0gyXVtDSF09W0NIXVtDSDJdMw==

>  <s_epik_cmdline>  (142) 
J2VwaWtfcHl0aG9uJywgJy1waHQnLCAnMi4wJywgJy1waCcsICc3LjAnLCAnLXRuJywgJzgnLCAnLW1hJywgJzIwMCcsICctaW1hZScsICc8aW5maWxlLm1hZT4nLCAnLW9tYWUnLCAnPG91dGZpbGUubWFlPic=

>  <r_lp_tautomer_probability>  (142) 
1

>  <r_epik_Ionization_Penalty>  (142) 
9.52171e-10

>  <r_epik_Ionization_Penalty_Charging>  (142) 
0

>  <r_epik_Ionization_Penalty_Neutral>  (142) 
9.52171e-10

>  <r_epik_State_Penalty>  (142) 
-0

>  <r_epik_Charging_Adjusted_Penalty>  (142) 
0

>  <i_epik_Tot_Q>  (142) 
0

>  <i_epik_Tot_abs_Q>  (142) 
0

>  <s_lp_Force_Field>  (142) 
OPLS3e

>  <r_lp_Energy>  (142) 
17.7957

>  <b_lp_Chiralities_Consistent>  (142) 
1

>  <s_lp_Variant>  (142) 
37:0-1

>  <s_i_glide_gridfile>  (142) 
pfpi4k_grid

>  <i_i_glide_lignum>  (142) 
6

>  <i_i_glide_rotatable_bonds>  (142) 
4

>  <r_i_docking_score>  (142) 
-2.76951

>  <r_i_glide_ligand_efficiency>  (142) 
-0.138475

>  <r_i_glide_ligand_efficiency_sa>  (142) 
-0.37588

>  <r_i_glide_ligand_efficiency_ln>  (142) 
-0.693116

>  <r_i_glide_gscore>  (142) 
-2.76951

>  <r_i_glide_lipo>  (142) 
-0.202816

>  <r_i_glide_hbond>  (142) 
0

>  <r_i_glide_metal>  (142) 
-0

>  <r_i_glide_rewards>  (142) 
-1.53173

>  <r_i_glide_evdw>  (142) 
-23.2829

>  <r_i_glide_ecoul>  (142) 
-2.4575

>  <r_i_glide_erotb>  (142) 
0.711175

>  <r_i_glide_esite>  (142) 
-0.213364

>  <r_i_glide_emodel>  (142) 
-27.6756

>  <r_i_glide_energy>  (142) 
-25.7404

>  <r_i_glide_einternal>  (142) 
4.15972

>  <r_i_glide_intrahb_reward>  (142) 
-0

>  <i_i_glide_confnum>  (142) 
2

>  <i_i_glide_posenum>  (142) 
25

>  <r_i_glide_eff_state_penalty>  (142) 
0

>  <ligand_id>  (142) 
37

>  <original_smiles>  (142) 
CC(C)c1nc(C2CCCN2C(=O)C2CC=CC2)no1

>  <smiles>  (142) 
[H]C1=C([H])C([H])([H])C([H])(C(=O)N2C([H])([H])C([H])([H])C([H])([H])C2([H])c2noc(C([H])(C([H])([H])[H])C([H])([H])[H])n2)C1([H])[H]

$$$$
37:0:1
     RDKit          3D

 41 43  0  0  1  0  0  0  0  0999 V2000
   -0.6750   -8.6114    4.9286 C   0  0  0  0  0  0  0  0  0  0  0  0
   -0.8259   -8.0311    3.5177 C   0  0  0  0  0  0  0  0  0  0  0  0
   -1.2985   -9.0784    2.4983 C   0  0  0  0  0  0  0  0  0  0  0  0
    0.4290   -7.3760    3.0583 C   0  0  0  0  0  0  0  0  0  0  0  0
    1.4874   -7.9386    2.4802 N   0  0  0  0  0  0  0  0  0  0  0  0
    2.3213   -6.8709    2.3679 C   0  0  0  0  0  0  0  0  0  0  0  0
    3.6603   -6.9831    1.6905 C   0  0  2  0  0  0  0  0  0  0  0  0
    4.7256   -7.5232    2.6488 C   0  0  0  0  0  0  0  0  0  0  0  0
    6.0285   -6.8902    2.1830 C   0  0  0  0  0  0  0  0  0  0  0  0
    5.6031   -5.5571    1.5757 C   0  0  0  0  0  0  0  0  0  0  0  0
    4.2088   -5.7211    1.1580 N   0  0  0  0  0  0  0  0  0  0  0  0
    3.5291   -4.8762    0.3503 C   0  0  0  0  0  0  0  0  0  0  0  0
    2.3616   -5.0849    0.0174 O   0  0  0  0  0  0  0  0  0  0  0  0
    4.2354   -3.6013   -0.1608 C   0  0  0  0  0  0  0  0  0  0  0  0
    3.2678   -2.4050   -0.3852 C   0  0  0  0  0  0  0  0  0  0  0  0
    3.4147   -2.0768   -1.8454 C   0  0  0  0  0  0  0  0  0  0  0  0
    4.3040   -2.8574   -2.4579 C   0  0  0  0  0  0  0  0  0  0  0  0
    4.9227   -3.8637   -1.5277 C   0  0  0  0  0  0  0  0  0  0  0  0
    1.8904   -5.7443    2.9308 N   0  0  0  0  0  0  0  0  0  0  0  0
    0.5980   -6.0661    3.3603 O   0  0  0  0  0  0  0  0  0  0  0  0
   -0.3994   -7.8453    5.6511 H   0  0  0  0  0  0  0  0  0  0  0  0
    0.0784   -9.3972    4.9687 H   0  0  0  0  0  0  0  0  0  0  0  0
   -1.6150   -9.0430    5.2565 H   0  0  0  0  0  0  0  0  0  0  0  0
   -1.5982   -7.2550    3.5662 H   0  0  0  0  0  0  0  0  0  0  0  0
   -1.4426   -8.6224    1.5187 H   0  0  0  0  0  0  0  0  0  0  0  0
   -2.2364   -9.5351    2.8133 H   0  0  0  0  0  0  0  0  0  0  0  0
   -0.5556   -9.8711    2.3825 H   0  0  0  0  0  0  0  0  0  0  0  0
    3.5718   -7.6701    0.8406 H   0  0  0  0  0  0  0  0  0  0  0  0
    4.5088   -7.1788    3.6640 H   0  0  0  0  0  0  0  0  0  0  0  0
    4.7518   -8.6147    2.6613 H   0  0  0  0  0  0  0  0  0  0  0  0
    6.7383   -6.7732    3.0017 H   0  0  0  0  0  0  0  0  0  0  0  0
    6.4938   -7.5166    1.4200 H   0  0  0  0  0  0  0  0  0  0  0  0
    5.6314   -4.7764    2.3334 H   0  0  0  0  0  0  0  0  0  0  0  0
    6.2765   -5.2755    0.7639 H   0  0  0  0  0  0  0  0  0  0  0  0
    4.9770   -3.2624    0.5561 H   0  0  0  0  0  0  0  0  0  0  0  0
    2.2216   -2.6311   -0.1775 H   0  0  0  0  0  0  0  0  0  0  0  0
    3.5360   -1.5355    0.2176 H   0  0  0  0  0  0  0  0  0  0  0  0
    2.8392   -1.2924   -2.3167 H   0  0  0  0  0  0  0  0  0  0  0  0
    4.5621   -2.8117   -3.5025 H   0  0  0  0  0  0  0  0  0  0  0  0
    6.0027   -3.7325   -1.4694 H   0  0  0  0  0  0  0  0  0  0  0  0
    4.7443   -4.8677   -1.9097 H   0  0  0  0  0  0  0  0  0  0  0  0
  1  2  1  0
  1 21  1  0
  1 22  1  0
  1 23  1  0
  2  3  1  0
  2  4  1  0
  2 24  1  0
  3 25  1  0
  3 26  1  0
  3 27  1  0
  4 20  1  0
  4  5  2  0
  5  6  1  0
  6  7  1  0
  6 19  2  0
  7 11  1  0
  7  8  1  0
  7 28  1  6
  8  9  1  0
  8 29  1  0
  8 30  1  0
  9 10  1  0
  9 31  1  0
  9 32  1  0
 10 11  1  0
 10 33  1  0
 10 34  1  0
 11 12  1  0
 12 13  2  0
 12 14  1  0
 14 18  1  0
 14 15  1  0
 14 35  1  0
 15 16  1  0
 15 36  1  0
 15 37  1  0
 16 17  2  0
 16 38  1  0
 17 18  1  0
 17 39  1  0
 18 40  1  0
 18 41  1  0
 19 20  1  0
M  END
>  <i_m_ct_stereo_status>  (143) 
1

>  <s_m_source_file>  (143) 
/var/tmp/pbs.5102264.sched01/tmp6iaxk4q8/46_x9h2b30.sdf

>  <i_m_source_file_index>  (143) 
6

>  <i_lp_mmshare_version>  (143) 
48012

>  <i_f3d_flags>  (143) 
0

>  <s_epik_input>  (143) 
W0NIM11bQ0hdKFtDSDNdKWMxbmMobm8xKVtDQEBIXTJbQ0gyXVtDSDJdW0NIMl1OMkMoPU8pW0NIXTNbQ0gyXVtDSF09W0NIXVtDSDJdMw==

>  <s_epik_cmdline>  (143) 
J2VwaWtfcHl0aG9uJywgJy1waHQnLCAnMi4wJywgJy1waCcsICc3LjAnLCAnLXRuJywgJzgnLCAnLW1hJywgJzIwMCcsICctaW1hZScsICc8aW5maWxlLm1hZT4nLCAnLW9tYWUnLCAnPG91dGZpbGUubWFlPic=

>  <r_lp_tautomer_probability>  (143) 
1

>  <r_epik_Ionization_Penalty>  (143) 
9.52171e-10

>  <r_epik_Ionization_Penalty_Charging>  (143) 
0

>  <r_epik_Ionization_Penalty_Neutral>  (143) 
9.52171e-10

>  <r_epik_State_Penalty>  (143) 
-0

>  <r_epik_Charging_Adjusted_Penalty>  (143) 
0

>  <i_epik_Tot_Q>  (143) 
0

>  <i_epik_Tot_abs_Q>  (143) 
0

>  <s_lp_Force_Field>  (143) 
OPLS3e

>  <r_lp_Energy>  (143) 
17.7957

>  <b_lp_Chiralities_Consistent>  (143) 
1

>  <s_lp_Variant>  (143) 
37:0-1

>  <s_i_glide_gridfile>  (143) 
pfpi4k_grid

>  <i_i_glide_lignum>  (143) 
6

>  <i_i_glide_rotatable_bonds>  (143) 
4

>  <r_i_docking_score>  (143) 
-2.29525

>  <r_i_glide_ligand_efficiency>  (143) 
-0.114762

>  <r_i_glide_ligand_efficiency_sa>  (143) 
-0.311513

>  <r_i_glide_ligand_efficiency_ln>  (143) 
-0.574424

>  <r_i_glide_gscore>  (143) 
-2.29525

>  <r_i_glide_lipo>  (143) 
-0.33867

>  <r_i_glide_hbond>  (143) 
0

>  <r_i_glide_metal>  (143) 
-0

>  <r_i_glide_rewards>  (143) 
-1.60267

>  <r_i_glide_evdw>  (143) 
-22.1386

>  <r_i_glide_ecoul>  (143) 
0.797753

>  <r_i_glide_erotb>  (143) 
0.711175

>  <r_i_glide_esite>  (143) 
-0.0778106

>  <r_i_glide_emodel>  (143) 
-23.9943

>  <r_i_glide_energy>  (143) 
-21.3409

>  <r_i_glide_einternal>  (143) 
2.87778

>  <r_i_glide_intrahb_reward>  (143) 
-0

>  <i_i_glide_confnum>  (143) 
2

>  <i_i_glide_posenum>  (143) 
2

>  <r_i_glide_eff_state_penalty>  (143) 
0

>  <ligand_id>  (143) 
37

>  <original_smiles>  (143) 
CC(C)c1nc(C2CCCN2C(=O)C2CC=CC2)no1

>  <smiles>  (143) 
[H]C1=C([H])C([H])([H])C([H])(C(=O)N2C([H])([H])C([H])([H])C([H])([H])C2([H])c2noc(C([H])(C([H])([H])[H])C([H])([H])[H])n2)C1([H])[H]

$$$$
37:0:2
     RDKit          3D

 41 43  0  0  1  0  0  0  0  0999 V2000
   -0.4976   -8.8121    5.2573 C   0  0  0  0  0  0  0  0  0  0  0  0
   -0.6200   -7.6540    4.2575 C   0  0  0  0  0  0  0  0  0  0  0  0
   -1.6230   -7.9548    3.1356 C   0  0  0  0  0  0  0  0  0  0  0  0
    0.7041   -7.2716    3.6891 C   0  0  0  0  0  0  0  0  0  0  0  0
    1.4365   -7.9419    2.8079 N   0  0  0  0  0  0  0  0  0  0  0  0
    2.5147   -7.1230    2.6839 C   0  0  0  0  0  0  0  0  0  0  0  0
    3.6529   -7.4334    1.7451 C   0  0  2  0  0  0  0  0  0  0  0  0
    4.7294   -8.2807    2.4390 C   0  0  0  0  0  0  0  0  0  0  0  0
    6.0311   -7.8751    1.7667 C   0  0  0  0  0  0  0  0  0  0  0  0
    5.8021   -6.4269    1.3502 C   0  0  0  0  0  0  0  0  0  0  0  0
    4.3579   -6.2608    1.2004 N   0  0  0  0  0  0  0  0  0  0  0  0
    3.7403   -5.1960    0.6309 C   0  0  0  0  0  0  0  0  0  0  0  0
    2.5199   -5.1594    0.4727 O   0  0  0  0  0  0  0  0  0  0  0  0
    4.5788   -3.9752    0.1959 C   0  0  0  0  0  0  0  0  0  0  0  0
    4.2457   -2.7052    1.0274 C   0  0  0  0  0  0  0  0  0  0  0  0
    3.8139   -1.6944   -0.0007 C   0  0  0  0  0  0  0  0  0  0  0  0
    3.8438   -2.1825   -1.2402 C   0  0  0  0  0  0  0  0  0  0  0  0
    4.3049   -3.6121   -1.2876 C   0  0  0  0  0  0  0  0  0  0  0  0
    2.5214   -6.0559    3.4789 N   0  0  0  0  0  0  0  0  0  0  0  0
    1.2854   -6.1303    4.1360 O   0  0  0  0  0  0  0  0  0  0  0  0
    0.1738   -8.5637    6.0798 H   0  0  0  0  0  0  0  0  0  0  0  0
   -0.1212   -9.7153    4.7764 H   0  0  0  0  0  0  0  0  0  0  0  0
   -1.4667   -9.0577    5.6831 H   0  0  0  0  0  0  0  0  0  0  0  0
   -0.9947   -6.7881    4.8080 H   0  0  0  0  0  0  0  0  0  0  0  0
   -1.7451   -7.0932    2.4801 H   0  0  0  0  0  0  0  0  0  0  0  0
   -2.5947   -8.2128    3.5473 H   0  0  0  0  0  0  0  0  0  0  0  0
   -1.2867   -8.7936    2.5242 H   0  0  0  0  0  0  0  0  0  0  0  0
    3.2612   -7.9984    0.8915 H   0  0  0  0  0  0  0  0  0  0  0  0
    4.7903   -8.0114    3.4972 H   0  0  0  0  0  0  0  0  0  0  0  0
    4.5278   -9.3521    2.3777 H   0  0  0  0  0  0  0  0  0  0  0  0
    6.8965   -7.9913    2.4209 H   0  0  0  0  0  0  0  0  0  0  0  0
    6.1946   -8.4926    0.8831 H   0  0  0  0  0  0  0  0  0  0  0  0
    6.1420   -5.7473    2.1295 H   0  0  0  0  0  0  0  0  0  0  0  0
    6.3573   -6.2193    0.4361 H   0  0  0  0  0  0  0  0  0  0  0  0
    5.6484   -4.1368    0.2925 H   0  0  0  0  0  0  0  0  0  0  0  0
    3.4549   -2.8497    1.7654 H   0  0  0  0  0  0  0  0  0  0  0  0
    5.1259   -2.3352    1.5539 H   0  0  0  0  0  0  0  0  0  0  0  0
    3.5004   -0.6951    0.2607 H   0  0  0  0  0  0  0  0  0  0  0  0
    3.5483   -1.6454   -2.1289 H   0  0  0  0  0  0  0  0  0  0  0  0
    5.2044   -3.7175   -1.8956 H   0  0  0  0  0  0  0  0  0  0  0  0
    3.5271   -4.2237   -1.7451 H   0  0  0  0  0  0  0  0  0  0  0  0
  1  2  1  0
  1 21  1  0
  1 22  1  0
  1 23  1  0
  2  3  1  0
  2  4  1  0
  2 24  1  0
  3 25  1  0
  3 26  1  0
  3 27  1  0
  4 20  1  0
  4  5  2  0
  5  6  1  0
  6  7  1  0
  6 19  2  0
  7 11  1  0
  7  8  1  0
  7 28  1  6
  8  9  1  0
  8 29  1  0
  8 30  1  0
  9 10  1  0
  9 31  1  0
  9 32  1  0
 10 11  1  0
 10 33  1  0
 10 34  1  0
 11 12  1  0
 12 13  2  0
 12 14  1  0
 14 18  1  0
 14 15  1  0
 14 35  1  0
 15 16  1  0
 15 36  1  0
 15 37  1  0
 16 17  2  0
 16 38  1  0
 17 18  1  0
 17 39  1  0
 18 40  1  0
 18 41  1  0
 19 20  1  0
M  END
>  <i_m_ct_stereo_status>  (144) 
1

>  <s_m_source_file>  (144) 
/var/tmp/pbs.5102264.sched01/tmp6iaxk4q8/46_x9h2b30.sdf

>  <i_m_source_file_index>  (144) 
6

>  <i_lp_mmshare_version>  (144) 
48012

>  <i_f3d_flags>  (144) 
0

>  <s_epik_input>  (144) 
W0NIM11bQ0hdKFtDSDNdKWMxbmMobm8xKVtDQEBIXTJbQ0gyXVtDSDJdW0NIMl1OMkMoPU8pW0NIXTNbQ0gyXVtDSF09W0NIXVtDSDJdMw==

>  <s_epik_cmdline>  (144) 
J2VwaWtfcHl0aG9uJywgJy1waHQnLCAnMi4wJywgJy1waCcsICc3LjAnLCAnLXRuJywgJzgnLCAnLW1hJywgJzIwMCcsICctaW1hZScsICc8aW5maWxlLm1hZT4nLCAnLW9tYWUnLCAnPG91dGZpbGUubWFlPic=

>  <r_lp_tautomer_probability>  (144) 
1

>  <r_epik_Ionization_Penalty>  (144) 
9.52171e-10

>  <r_epik_Ionization_Penalty_Charging>  (144) 
0

>  <r_epik_Ionization_Penalty_Neutral>  (144) 
9.52171e-10

>  <r_epik_State_Penalty>  (144) 
-0

>  <r_epik_Charging_Adjusted_Penalty>  (144) 
0

>  <i_epik_Tot_Q>  (144) 
0

>  <i_epik_Tot_abs_Q>  (144) 
0

>  <s_lp_Force_Field>  (144) 
OPLS3e

>  <r_lp_Energy>  (144) 
17.7957

>  <b_lp_Chiralities_Consistent>  (144) 
1

>  <s_lp_Variant>  (144) 
37:0-1

>  <s_i_glide_gridfile>  (144) 
pfpi4k_grid

>  <i_i_glide_lignum>  (144) 
6

>  <i_i_glide_rotatable_bonds>  (144) 
4

>  <r_i_docking_score>  (144) 
-2.1186

>  <r_i_glide_ligand_efficiency>  (144) 
-0.10593

>  <r_i_glide_ligand_efficiency_sa>  (144) 
-0.287539

>  <r_i_glide_ligand_efficiency_ln>  (144) 
-0.530216

>  <r_i_glide_gscore>  (144) 
-2.1186

>  <r_i_glide_lipo>  (144) 
-0.252416

>  <r_i_glide_hbond>  (144) 
0

>  <r_i_glide_metal>  (144) 
-0

>  <r_i_glide_rewards>  (144) 
-1.64143

>  <r_i_glide_evdw>  (144) 
-20.0513

>  <r_i_glide_ecoul>  (144) 
0.54092

>  <r_i_glide_erotb>  (144) 
0.711175

>  <r_i_glide_esite>  (144) 
-0.014507

>  <r_i_glide_emodel>  (144) 
-22.925

>  <r_i_glide_energy>  (144) 
-19.5104

>  <r_i_glide_einternal>  (144) 
1.09951

>  <r_i_glide_intrahb_reward>  (144) 
-0

>  <i_i_glide_confnum>  (144) 
1

>  <i_i_glide_posenum>  (144) 
5

>  <r_i_glide_eff_state_penalty>  (144) 
0

>  <ligand_id>  (144) 
37

>  <original_smiles>  (144) 
CC(C)c1nc(C2CCCN2C(=O)C2CC=CC2)no1

>  <smiles>  (144) 
[H]C1=C([H])C([H])([H])C([H])(C(=O)N2C([H])([H])C([H])([H])C([H])([H])C2([H])c2noc(C([H])(C([H])([H])[H])C([H])([H])[H])n2)C1([H])[H]

$$$$
38:0:0
     RDKit          3D

 26 27  0  0  1  0  0  0  0  0999 V2000
    4.6287   -3.7069   -3.6564 C   0  0  0  0  0  0  0  0  0  0  0  0
    3.5339   -2.9434   -2.8991 C   0  0  0  0  0  0  0  0  0  0  0  0
    3.3926   -1.4951   -3.4017 C   0  0  0  0  0  0  0  0  0  0  0  0
    3.7746   -2.9922   -1.3957 C   0  0  0  0  0  0  0  0  0  0  0  0
    4.7807   -2.1983   -0.8084 C   0  0  0  0  0  0  0  0  0  0  0  0
    4.9949   -2.2290    0.5828 C   0  0  0  0  0  0  0  0  0  0  0  0
    6.0375   -1.3891    1.1856 N   0  0  0  0  0  0  0  0  0  0  0  0
    6.9888   -1.0657    0.4823 O   0  0  0  0  0  0  0  0  0  0  0  0
    5.9029   -1.0548    2.3555 O   0  0  0  0  0  0  0  0  0  0  0  0
    4.1934   -3.0811    1.3727 C   0  0  0  0  0  0  0  0  0  0  0  0
    4.1278   -3.3750    2.7254 N   0  0  0  0  0  0  0  0  0  0  0  0
    3.1816   -4.2928    3.0474 N   0  0  0  0  0  0  0  0  0  0  0  0
    2.6143   -4.6220    1.9131 C   0  0  0  0  0  0  0  0  0  0  0  0
    3.1837   -3.9051    0.8105 C   0  0  0  0  0  0  0  0  0  0  0  0
    2.9880   -3.8409   -0.5874 C   0  0  0  0  0  0  0  0  0  0  0  0
    4.7086   -2.9719    3.4487 H   0  0  0  0  0  0  0  0  0  0  0  0
    4.6970   -4.7359   -3.3124 H   0  0  0  0  0  0  0  0  0  0  0  0
    5.6082   -3.2510   -3.5187 H   0  0  0  0  0  0  0  0  0  0  0  0
    4.4086   -3.7422   -4.7187 H   0  0  0  0  0  0  0  0  0  0  0  0
    2.5854   -3.4451   -3.1011 H   0  0  0  0  0  0  0  0  0  0  0  0
    2.6119   -0.9734   -2.8466 H   0  0  0  0  0  0  0  0  0  0  0  0
    3.1308   -1.4633   -4.4587 H   0  0  0  0  0  0  0  0  0  0  0  0
    4.3151   -0.9271   -3.2802 H   0  0  0  0  0  0  0  0  0  0  0  0
    5.3858   -1.5526   -1.4249 H   0  0  0  0  0  0  0  0  0  0  0  0
    1.8175   -5.3532    1.9094 H   0  0  0  0  0  0  0  0  0  0  0  0
    2.2283   -4.4566   -1.0402 H   0  0  0  0  0  0  0  0  0  0  0  0
  1  2  1  0
  1 17  1  0
  1 18  1  0
  1 19  1  0
  2  3  1  0
  2 20  1  0
  2  4  1  0
  3 21  1  0
  3 22  1  0
  3 23  1  0
  4  5  2  0
  4 15  1  0
  5  6  1  0
  5 24  1  0
  6 10  2  0
  6  7  1  0
  7  8  2  0
  7  9  1  0
 10 11  1  0
 10 14  1  0
 11 12  1  0
 11 16  1  0
 12 13  2  0
 13 14  1  0
 13 25  1  0
 14 15  2  0
 15 26  1  0
M  CHG  2   7   1   9  -1
M  END
>  <i_m_ct_stereo_status>  (145) 
1

>  <s_m_source_file>  (145) 
/var/tmp/pbs.5102264.sched01/tmp6iaxk4q8/46_x9h2b30.sdf

>  <i_m_source_file_index>  (145) 
7

>  <i_lp_mmshare_version>  (145) 
48012

>  <i_f3d_flags>  (145) 
0

>  <s_epik_input>  (145) 
Tz1bTitdKFtPLV0pYzFbY0hdYyhbQ0hdKFtDSDNdKVtDSDNdKVtjSF1jKGMxMilbY0hdW25IXW4y

>  <s_epik_cmdline>  (145) 
J2VwaWtfcHl0aG9uJywgJy1waHQnLCAnMi4wJywgJy1waCcsICc3LjAnLCAnLXRuJywgJzgnLCAnLW1hJywgJzIwMCcsICctaW1hZScsICc8aW5maWxlLm1hZT4nLCAnLW9tYWUnLCAnPG91dGZpbGUubWFlPic=

>  <r_lp_tautomer_probability>  (145) 
0.980392

>  <r_epik_Ionization_Penalty>  (145) 
0.00320879

>  <r_epik_Ionization_Penalty_Charging>  (145) 
0

>  <r_epik_Ionization_Penalty_Neutral>  (145) 
0.00320879

>  <r_epik_State_Penalty>  (145) 
0.0277659

>  <r_epik_Charging_Adjusted_Penalty>  (145) 
0.0277659

>  <i_epik_Tot_Q>  (145) 
0

>  <i_epik_Tot_abs_Q>  (145) 
2

>  <s_lp_Force_Field>  (145) 
OPLS3e

>  <r_lp_Energy>  (145) 
12.9238

>  <b_lp_Chiralities_Consistent>  (145) 
1

>  <s_lp_Variant>  (145) 
38:0-1

>  <s_i_glide_gridfile>  (145) 
pfpi4k_grid

>  <i_i_glide_lignum>  (145) 
7

>  <i_i_glide_rotatable_bonds>  (145) 
2

>  <r_i_docking_score>  (145) 
-3.53583

>  <r_i_glide_ligand_efficiency>  (145) 
-0.235722

>  <r_i_glide_ligand_efficiency_sa>  (145) 
-0.581341

>  <r_i_glide_ligand_efficiency_ln>  (145) 
-0.953555

>  <r_i_glide_gscore>  (145) 
-3.53583

>  <r_i_glide_lipo>  (145) 
-0.267612

>  <r_i_glide_hbond>  (145) 
0

>  <r_i_glide_metal>  (145) 
-0

>  <r_i_glide_rewards>  (145) 
-2.26564

>  <r_i_glide_evdw>  (145) 
-19.2712

>  <r_i_glide_ecoul>  (145) 
0.0262558

>  <r_i_glide_erotb>  (145) 
0

>  <r_i_glide_esite>  (145) 
-0.0429576

>  <r_i_glide_emodel>  (145) 
-22.9916

>  <r_i_glide_energy>  (145) 
-19.245

>  <r_i_glide_einternal>  (145) 
0.775772

>  <r_i_glide_intrahb_reward>  (145) 
-0

>  <i_i_glide_confnum>  (145) 
2

>  <i_i_glide_posenum>  (145) 
4

>  <r_i_glide_eff_state_penalty>  (145) 
0

>  <ligand_id>  (145) 
38

>  <original_smiles>  (145) 
CC(C)c1cc([N+](=O)[O-])c2n[nH]cc2c1

>  <smiles>  (145) 
[H]c1c(C([H])(C([H])([H])[H])C([H])([H])[H])c([H])c2c([H])nn([H])c2c1[N+](=O)[O-]

$$$$
38:0:1
     RDKit          3D

 26 27  0  0  1  0  0  0  0  0999 V2000
    4.2023   -1.3306   -5.0213 C   0  0  0  0  0  0  0  0  0  0  0  0
    3.0004   -1.0981   -4.1868 C   0  0  0  0  0  0  0  0  0  0  0  0
    2.6703    0.3835   -4.2817 C   0  0  0  0  0  0  0  0  0  0  0  0
    3.2524   -1.5996   -2.7764 C   0  0  0  0  0  0  0  0  0  0  0  0
    4.0739   -0.8800   -1.8829 C   0  0  0  0  0  0  0  0  0  0  0  0
    4.2063   -1.3363   -0.5580 C   0  0  0  0  0  0  0  0  0  0  0  0
    5.0093   -0.5804    0.3840 N   0  0  0  0  0  0  0  0  0  0  0  0
    4.4366   -0.0135    1.3077 O   0  0  0  0  0  0  0  0  0  0  0  0
    6.2156   -0.5792    0.1794 O   0  0  0  0  0  0  0  0  0  0  0  0
    3.5830   -2.5272   -0.1599 C   0  0  0  0  0  0  0  0  0  0  0  0
    3.5300   -3.2518    1.0205 N   0  0  0  0  0  0  0  0  0  0  0  0
    2.7938   -4.3868    0.9367 N   0  0  0  0  0  0  0  0  0  0  0  0
    2.3564   -4.4223   -0.3038 C   0  0  0  0  0  0  0  0  0  0  0  0
    2.8023   -3.3007   -1.0561 C   0  0  0  0  0  0  0  0  0  0  0  0
    2.6492   -2.8051   -2.3691 C   0  0  0  0  0  0  0  0  0  0  0  0
    3.9970   -3.0122    1.8881 H   0  0  0  0  0  0  0  0  0  0  0  0
    4.4857   -2.3765   -4.9243 H   0  0  0  0  0  0  0  0  0  0  0  0
    5.0054   -0.7060   -4.6540 H   0  0  0  0  0  0  0  0  0  0  0  0
    3.9726   -1.0161   -6.0329 H   0  0  0  0  0  0  0  0  0  0  0  0
    2.1664   -1.6566   -4.6103 H   0  0  0  0  0  0  0  0  0  0  0  0
    1.8145    0.5440   -3.6305 H   0  0  0  0  0  0  0  0  0  0  0  0
    2.4031    0.7176   -5.2927 H   0  0  0  0  0  0  0  0  0  0  0  0
    3.5060    0.9984   -3.9280 H   0  0  0  0  0  0  0  0  0  0  0  0
    4.5390    0.0554   -2.1748 H   0  0  0  0  0  0  0  0  0  0  0  0
    1.7333   -5.2394   -0.6343 H   0  0  0  0  0  0  0  0  0  0  0  0
    2.0248   -3.3607   -3.0503 H   0  0  0  0  0  0  0  0  0  0  0  0
  1  2  1  0
  1 17  1  0
  1 18  1  0
  1 19  1  0
  2  3  1  0
  2 20  1  0
  2  4  1  0
  3 21  1  0
  3 22  1  0
  3 23  1  0
  4  5  2  0
  4 15  1  0
  5  6  1  0
  5 24  1  0
  6 10  2  0
  6  7  1  0
  7  8  2  0
  7  9  1  0
 10 11  1  0
 10 14  1  0
 11 12  1  0
 11 16  1  0
 12 13  2  0
 13 14  1  0
 13 25  1  0
 14 15  2  0
 15 26  1  0
M  CHG  2   7   1   9  -1
M  END
>  <i_m_ct_stereo_status>  (146) 
1

>  <s_m_source_file>  (146) 
/var/tmp/pbs.5102264.sched01/tmp6iaxk4q8/46_x9h2b30.sdf

>  <i_m_source_file_index>  (146) 
7

>  <i_lp_mmshare_version>  (146) 
48012

>  <i_f3d_flags>  (146) 
0

>  <s_epik_input>  (146) 
Tz1bTitdKFtPLV0pYzFbY0hdYyhbQ0hdKFtDSDNdKVtDSDNdKVtjSF1jKGMxMilbY0hdW25IXW4y

>  <s_epik_cmdline>  (146) 
J2VwaWtfcHl0aG9uJywgJy1waHQnLCAnMi4wJywgJy1waCcsICc3LjAnLCAnLXRuJywgJzgnLCAnLW1hJywgJzIwMCcsICctaW1hZScsICc8aW5maWxlLm1hZT4nLCAnLW9tYWUnLCAnPG91dGZpbGUubWFlPic=

>  <r_lp_tautomer_probability>  (146) 
0.980392

>  <r_epik_Ionization_Penalty>  (146) 
0.00320879

>  <r_epik_Ionization_Penalty_Charging>  (146) 
0

>  <r_epik_Ionization_Penalty_Neutral>  (146) 
0.00320879

>  <r_epik_State_Penalty>  (146) 
0.0277659

>  <r_epik_Charging_Adjusted_Penalty>  (146) 
0.0277659

>  <i_epik_Tot_Q>  (146) 
0

>  <i_epik_Tot_abs_Q>  (146) 
2

>  <s_lp_Force_Field>  (146) 
OPLS3e

>  <r_lp_Energy>  (146) 
12.9238

>  <b_lp_Chiralities_Consistent>  (146) 
1

>  <s_lp_Variant>  (146) 
38:0-1

>  <s_i_glide_gridfile>  (146) 
pfpi4k_grid

>  <i_i_glide_lignum>  (146) 
7

>  <i_i_glide_rotatable_bonds>  (146) 
2

>  <r_i_docking_score>  (146) 
-3.02632

>  <r_i_glide_ligand_efficiency>  (146) 
-0.201754

>  <r_i_glide_ligand_efficiency_sa>  (146) 
-0.497569

>  <r_i_glide_ligand_efficiency_ln>  (146) 
-0.816148

>  <r_i_glide_gscore>  (146) 
-3.02632

>  <r_i_glide_lipo>  (146) 
-0.105014

>  <r_i_glide_hbond>  (146) 
0

>  <r_i_glide_metal>  (146) 
-0

>  <r_i_glide_rewards>  (146) 
-2.28187

>  <r_i_glide_evdw>  (146) 
-9.37068

>  <r_i_glide_ecoul>  (146) 
-1.12431

>  <r_i_glide_erotb>  (146) 
0

>  <r_i_glide_esite>  (146) 
-0.00225344

>  <r_i_glide_emodel>  (146) 
-11.7904

>  <r_i_glide_energy>  (146) 
-10.495

>  <r_i_glide_einternal>  (146) 
3.5517

>  <r_i_glide_intrahb_reward>  (146) 
-0

>  <i_i_glide_confnum>  (146) 
1

>  <i_i_glide_posenum>  (146) 
1

>  <r_i_glide_eff_state_penalty>  (146) 
0

>  <ligand_id>  (146) 
38

>  <original_smiles>  (146) 
CC(C)c1cc([N+](=O)[O-])c2n[nH]cc2c1

>  <smiles>  (146) 
[H]c1c(C([H])(C([H])([H])[H])C([H])([H])[H])c([H])c2c([H])nn([H])c2c1[N+](=O)[O-]

$$$$
38:0:2
     RDKit          3D

 26 27  0  0  1  0  0  0  0  0999 V2000
    1.9746    0.5532   -4.7183 C   0  0  0  0  0  0  0  0  0  0  0  0
    3.3536    0.1397   -4.1574 C   0  0  0  0  0  0  0  0  0  0  0  0
    4.0202   -0.4636   -5.3205 C   0  0  0  0  0  0  0  0  0  0  0  0
    3.4307   -0.8972   -3.0334 C   0  0  0  0  0  0  0  0  0  0  0  0
    4.3453   -0.6893   -1.9730 C   0  0  0  0  0  0  0  0  0  0  0  0
    4.3403   -1.5166   -0.8353 C   0  0  0  0  0  0  0  0  0  0  0  0
    5.2337   -1.2488    0.3004 N   0  0  0  0  0  0  0  0  0  0  0  0
    4.9775   -1.7518    1.3853 O   0  0  0  0  0  0  0  0  0  0  0  0
    6.2197   -0.5555    0.0809 O   0  0  0  0  0  0  0  0  0  0  0  0
    3.4645   -2.6117   -0.8018 C   0  0  0  0  0  0  0  0  0  0  0  0
    3.1844   -3.6052    0.1118 N   0  0  0  0  0  0  0  0  0  0  0  0
    2.2189   -4.4492   -0.2687 N   0  0  0  0  0  0  0  0  0  0  0  0
    1.8118   -3.9945   -1.4406 C   0  0  0  0  0  0  0  0  0  0  0  0
    2.6086   -2.9085   -1.8916 C   0  0  0  0  0  0  0  0  0  0  0  0
    2.6267   -2.0617   -3.0218 C   0  0  0  0  0  0  0  0  0  0  0  0
    3.6506   -3.7384    1.0036 H   0  0  0  0  0  0  0  0  0  0  0  0
    1.3252    0.9614   -3.9518 H   0  0  0  0  0  0  0  0  0  0  0  0
    1.4826   -0.2975   -5.1899 H   0  0  0  0  0  0  0  0  0  0  0  0
    2.0329    1.3524   -5.4571 H   0  0  0  0  0  0  0  0  0  0  0  0
    3.9046    1.0352   -3.8574 H   0  0  0  0  0  0  0  0  0  0  0  0
    4.9918   -0.8323   -4.9963 H   0  0  0  0  0  0  0  0  0  0  0  0
    4.0552    0.3214   -6.0842 H   0  0  0  0  0  0  0  0  0  0  0  0
    3.4345   -1.3151   -5.6560 H   0  0  0  0  0  0  0  0  0  0  0  0
    5.0281    0.1367   -2.0212 H   0  0  0  0  0  0  0  0  0  0  0  0
    1.0032   -4.4931   -1.9350 H   0  0  0  0  0  0  0  0  0  0  0  0
    1.9153   -2.2472   -3.8107 H   0  0  0  0  0  0  0  0  0  0  0  0
  1  2  1  0
  1 17  1  0
  1 18  1  0
  1 19  1  0
  2  3  1  0
  2 20  1  0
  2  4  1  0
  3 21  1  0
  3 22  1  0
  3 23  1  0
  4  5  2  0
  4 15  1  0
  5  6  1  0
  5 24  1  0
  6 10  2  0
  6  7  1  0
  7  8  2  0
  7  9  1  0
 10 11  1  0
 10 14  1  0
 11 12  1  0
 11 16  1  0
 12 13  2  0
 13 14  1  0
 13 25  1  0
 14 15  2  0
 15 26  1  0
M  CHG  2   7   1   9  -1
M  END
>  <i_m_ct_stereo_status>  (147) 
1

>  <s_m_source_file>  (147) 
/var/tmp/pbs.5102264.sched01/tmp6iaxk4q8/46_x9h2b30.sdf

>  <i_m_source_file_index>  (147) 
7

>  <i_lp_mmshare_version>  (147) 
48012

>  <i_f3d_flags>  (147) 
0

>  <s_epik_input>  (147) 
Tz1bTitdKFtPLV0pYzFbY0hdYyhbQ0hdKFtDSDNdKVtDSDNdKVtjSF1jKGMxMilbY0hdW25IXW4y

>  <s_epik_cmdline>  (147) 
J2VwaWtfcHl0aG9uJywgJy1waHQnLCAnMi4wJywgJy1waCcsICc3LjAnLCAnLXRuJywgJzgnLCAnLW1hJywgJzIwMCcsICctaW1hZScsICc8aW5maWxlLm1hZT4nLCAnLW9tYWUnLCAnPG91dGZpbGUubWFlPic=

>  <r_lp_tautomer_probability>  (147) 
0.980392

>  <r_epik_Ionization_Penalty>  (147) 
0.00320879

>  <r_epik_Ionization_Penalty_Charging>  (147) 
0

>  <r_epik_Ionization_Penalty_Neutral>  (147) 
0.00320879

>  <r_epik_State_Penalty>  (147) 
0.0277659

>  <r_epik_Charging_Adjusted_Penalty>  (147) 
0.0277659

>  <i_epik_Tot_Q>  (147) 
0

>  <i_epik_Tot_abs_Q>  (147) 
2

>  <s_lp_Force_Field>  (147) 
OPLS3e

>  <r_lp_Energy>  (147) 
12.9238

>  <b_lp_Chiralities_Consistent>  (147) 
1

>  <s_lp_Variant>  (147) 
38:0-1

>  <s_i_glide_gridfile>  (147) 
pfpi4k_grid

>  <i_i_glide_lignum>  (147) 
7

>  <i_i_glide_rotatable_bonds>  (147) 
2

>  <r_i_docking_score>  (147) 
-2.91408

>  <r_i_glide_ligand_efficiency>  (147) 
-0.194272

>  <r_i_glide_ligand_efficiency_sa>  (147) 
-0.479116

>  <r_i_glide_ligand_efficiency_ln>  (147) 
-0.785879

>  <r_i_glide_gscore>  (147) 
-2.91408

>  <r_i_glide_lipo>  (147) 
-0.157596

>  <r_i_glide_hbond>  (147) 
0

>  <r_i_glide_metal>  (147) 
-0

>  <r_i_glide_rewards>  (147) 
-2.15021

>  <r_i_glide_evdw>  (147) 
-7.46468

>  <r_i_glide_ecoul>  (147) 
-1.48705

>  <r_i_glide_erotb>  (147) 
0

>  <r_i_glide_esite>  (147) 
-0.00997754

>  <r_i_glide_emodel>  (147) 
-9.40763

>  <r_i_glide_energy>  (147) 
-8.95173

>  <r_i_glide_einternal>  (147) 
0.511333

>  <r_i_glide_intrahb_reward>  (147) 
-0

>  <i_i_glide_confnum>  (147) 
1

>  <i_i_glide_posenum>  (147) 
13

>  <r_i_glide_eff_state_penalty>  (147) 
0

>  <ligand_id>  (147) 
38

>  <original_smiles>  (147) 
CC(C)c1cc([N+](=O)[O-])c2n[nH]cc2c1

>  <smiles>  (147) 
[H]c1c(C([H])(C([H])([H])[H])C([H])([H])[H])c([H])c2c([H])nn([H])c2c1[N+](=O)[O-]

$$$$
38:1:0
     RDKit          3D

 26 27  0  0  1  0  0  0  0  0999 V2000
   -3.5666    3.1780    9.2763 C   0  0  0  0  0  0  0  0  0  0  0  0
   -2.2996    2.4675    8.7749 C   0  0  0  0  0  0  0  0  0  0  0  0
   -1.2645    2.2903    9.8992 C   0  0  0  0  0  0  0  0  0  0  0  0
   -1.7029    3.1831    7.5686 C   0  0  0  0  0  0  0  0  0  0  0  0
   -1.0621    4.4372    7.7389 C   0  0  0  0  0  0  0  0  0  0  0  0
   -0.4867    5.1218    6.6429 C   0  0  0  0  0  0  0  0  0  0  0  0
    0.1548    6.4317    6.8593 N   0  0  0  0  0  0  0  0  0  0  0  0
    0.1216    7.2653    5.9616 O   0  0  0  0  0  0  0  0  0  0  0  0
    0.6391    6.6452    7.9679 O   0  0  0  0  0  0  0  0  0  0  0  0
   -0.5836    4.5235    5.3714 C   0  0  0  0  0  0  0  0  0  0  0  0
   -0.1215    5.0193    4.2114 N   0  0  0  0  0  0  0  0  0  0  0  0
   -0.4418    4.0494    3.2843 N   0  0  0  0  0  0  0  0  0  0  0  0
   -1.1215    2.9806    3.8519 C   0  0  0  0  0  0  0  0  0  0  0  0
   -1.2083    3.2960    5.2009 C   0  0  0  0  0  0  0  0  0  0  0  0
   -1.7761    2.6008    6.2769 C   0  0  0  0  0  0  0  0  0  0  0  0
   -0.1835    4.1465    2.2851 H   0  0  0  0  0  0  0  0  0  0  0  0
   -4.3059    3.2796    8.4817 H   0  0  0  0  0  0  0  0  0  0  0  0
   -3.3506    4.1768    9.6579 H   0  0  0  0  0  0  0  0  0  0  0  0
   -4.0302    2.6163   10.0842 H   0  0  0  0  0  0  0  0  0  0  0  0
   -2.5850    1.4691    8.4458 H   0  0  0  0  0  0  0  0  0  0  0  0
   -0.3763    1.7725    9.5351 H   0  0  0  0  0  0  0  0  0  0  0  0
   -1.6745    1.7139   10.7260 H   0  0  0  0  0  0  0  0  0  0  0  0
   -0.9404    3.2437   10.3168 H   0  0  0  0  0  0  0  0  0  0  0  0
   -1.0233    4.8892    8.7244 H   0  0  0  0  0  0  0  0  0  0  0  0
   -1.4458    2.1498    3.2437 H   0  0  0  0  0  0  0  0  0  0  0  0
   -2.2503    1.6413    6.1171 H   0  0  0  0  0  0  0  0  0  0  0  0
  1  2  1  0
  1 17  1  0
  1 18  1  0
  1 19  1  0
  2  3  1  0
  2  4  1  0
  2 20  1  0
  3 21  1  0
  3 22  1  0
  3 23  1  0
  4 15  2  0
  4  5  1  0
  5  6  2  0
  5 24  1  0
  6  7  1  0
  6 10  1  0
  7  8  2  0
  7  9  1  0
 10 14  1  0
 10 11  2  0
 11 12  1  0
 12 16  1  0
 12 13  1  0
 13 14  2  0
 13 25  1  0
 14 15  1  0
 15 26  1  0
M  CHG  2   7   1   9  -1
M  END
>  <i_m_ct_stereo_status>  (148) 
1

>  <s_m_source_file>  (148) 
/var/tmp/pbs.5102264.sched01/tmp6iaxk4q8/46_x9h2b30.sdf

>  <i_m_source_file_index>  (148) 
8

>  <i_lp_mmshare_version>  (148) 
48012

>  <i_f3d_flags>  (148) 
0

>  <s_epik_input>  (148) 
Tz1bTitdKFtPLV0pYzFbY0hdYyhbQ0hdKFtDSDNdKVtDSDNdKVtjSF1jKGMxMilbY0hdW25IXW4y

>  <s_epik_cmdline>  (148) 
J2VwaWtfcHl0aG9uJywgJy1waHQnLCAnMi4wJywgJy1waCcsICc3LjAnLCAnLXRuJywgJzgnLCAnLW1hJywgJzIwMCcsICctaW1hZScsICc8aW5maWxlLm1hZT4nLCAnLW9tYWUnLCAnPG91dGZpbGUubWFlPic=

>  <r_lp_tautomer_probability>  (148) 
0.0196078

>  <r_epik_Ionization_Penalty>  (148) 
2.54213e-05

>  <r_epik_Ionization_Penalty_Charging>  (148) 
0

>  <r_epik_Ionization_Penalty_Neutral>  (148) 
2.54213e-05

>  <r_epik_State_Penalty>  (148) 
1.84291

>  <r_epik_Charging_Adjusted_Penalty>  (148) 
1.84291

>  <i_epik_Tot_Q>  (148) 
0

>  <i_epik_Tot_abs_Q>  (148) 
2

>  <s_lp_Force_Field>  (148) 
OPLS3e

>  <r_lp_Energy>  (148) 
16.209

>  <b_lp_Chiralities_Consistent>  (148) 
1

>  <s_lp_Variant>  (148) 
38:0-2

>  <s_i_glide_gridfile>  (148) 
pfpi4k_grid

>  <i_i_glide_lignum>  (148) 
8

>  <i_i_glide_rotatable_bonds>  (148) 
2

>  <r_i_docking_score>  (148) 
-4.08974

>  <r_i_glide_ligand_efficiency>  (148) 
-0.272649

>  <r_i_glide_ligand_efficiency_sa>  (148) 
-0.672411

>  <r_i_glide_ligand_efficiency_ln>  (148) 
-1.10294

>  <r_i_glide_gscore>  (148) 
-4.08974

>  <r_i_glide_lipo>  (148) 
-0.0952068

>  <r_i_glide_hbond>  (148) 
-0.16

>  <r_i_glide_metal>  (148) 
-0

>  <r_i_glide_rewards>  (148) 
-2.00991

>  <r_i_glide_evdw>  (148) 
-12.7603

>  <r_i_glide_ecoul>  (148) 
-6.86967

>  <r_i_glide_erotb>  (148) 
0

>  <r_i_glide_esite>  (148) 
-0.156161

>  <r_i_glide_emodel>  (148) 
-25.148

>  <r_i_glide_energy>  (148) 
-19.6299

>  <r_i_glide_einternal>  (148) 
0.575986

>  <r_i_glide_intrahb_reward>  (148) 
-0

>  <i_i_glide_confnum>  (148) 
1

>  <i_i_glide_posenum>  (148) 
29

>  <r_i_glide_eff_state_penalty>  (148) 
0

>  <ligand_id>  (148) 
38

>  <original_smiles>  (148) 
CC(C)c1cc([N+](=O)[O-])c2n[nH]cc2c1

>  <smiles>  (148) 
[H]c1c(C([H])(C([H])([H])[H])C([H])([H])[H])c([H])c2c([H])n([H])nc2c1[N+](=O)[O-]

$$$$
38:1:1
     RDKit          3D

 26 27  0  0  1  0  0  0  0  0999 V2000
   -2.6980    2.5798    8.0143 C   0  0  0  0  0  0  0  0  0  0  0  0
   -1.2396    2.3785    7.5640 C   0  0  0  0  0  0  0  0  0  0  0  0
   -0.3442    3.5407    8.0163 C   0  0  0  0  0  0  0  0  0  0  0  0
   -1.1269    2.1471    6.0569 C   0  0  0  0  0  0  0  0  0  0  0  0
   -1.9187    2.9052    5.1523 C   0  0  0  0  0  0  0  0  0  0  0  0
   -1.8479    2.6875    3.7627 C   0  0  0  0  0  0  0  0  0  0  0  0
   -2.6820    3.4986    2.8694 N   0  0  0  0  0  0  0  0  0  0  0  0
   -3.5357    2.9447    2.1902 O   0  0  0  0  0  0  0  0  0  0  0  0
   -2.5219    4.7160    2.8992 O   0  0  0  0  0  0  0  0  0  0  0  0
   -0.9544    1.7047    3.2931 C   0  0  0  0  0  0  0  0  0  0  0  0
   -0.7461    1.3603    2.0134 N   0  0  0  0  0  0  0  0  0  0  0  0
    0.2492    0.4137    2.0774 N   0  0  0  0  0  0  0  0  0  0  0  0
    0.6246    0.1375    3.3858 C   0  0  0  0  0  0  0  0  0  0  0  0
   -0.1578    0.9831    4.1623 C   0  0  0  0  0  0  0  0  0  0  0  0
   -0.2232    1.1755    5.5530 C   0  0  0  0  0  0  0  0  0  0  0  0
    0.6104   -0.0089    1.2238 H   0  0  0  0  0  0  0  0  0  0  0  0
   -3.3147    1.7515    7.6707 H   0  0  0  0  0  0  0  0  0  0  0  0
   -3.1336    3.4953    7.6187 H   0  0  0  0  0  0  0  0  0  0  0  0
   -2.7765    2.6443    9.0965 H   0  0  0  0  0  0  0  0  0  0  0  0
   -0.8738    1.4726    8.0533 H   0  0  0  0  0  0  0  0  0  0  0  0
    0.6935    3.3750    7.7246 H   0  0  0  0  0  0  0  0  0  0  0  0
   -0.3660    3.6474    9.0978 H   0  0  0  0  0  0  0  0  0  0  0  0
   -0.6637    4.4876    7.5803 H   0  0  0  0  0  0  0  0  0  0  0  0
   -2.6102    3.6612    5.5023 H   0  0  0  0  0  0  0  0  0  0  0  0
    1.3807   -0.6032    3.6099 H   0  0  0  0  0  0  0  0  0  0  0  0
    0.4120    0.5953    6.2060 H   0  0  0  0  0  0  0  0  0  0  0  0
  1  2  1  0
  1 17  1  0
  1 18  1  0
  1 19  1  0
  2  3  1  0
  2  4  1  0
  2 20  1  0
  3 21  1  0
  3 22  1  0
  3 23  1  0
  4 15  2  0
  4  5  1  0
  5  6  2  0
  5 24  1  0
  6  7  1  0
  6 10  1  0
  7  8  2  0
  7  9  1  0
 10 14  1  0
 10 11  2  0
 11 12  1  0
 12 16  1  0
 12 13  1  0
 13 14  2  0
 13 25  1  0
 14 15  1  0
 15 26  1  0
M  CHG  2   7   1   9  -1
M  END
>  <i_m_ct_stereo_status>  (149) 
1

>  <s_m_source_file>  (149) 
/var/tmp/pbs.5102264.sched01/tmp6iaxk4q8/46_x9h2b30.sdf

>  <i_m_source_file_index>  (149) 
8

>  <i_lp_mmshare_version>  (149) 
48012

>  <i_f3d_flags>  (149) 
0

>  <s_epik_input>  (149) 
Tz1bTitdKFtPLV0pYzFbY0hdYyhbQ0hdKFtDSDNdKVtDSDNdKVtjSF1jKGMxMilbY0hdW25IXW4y

>  <s_epik_cmdline>  (149) 
J2VwaWtfcHl0aG9uJywgJy1waHQnLCAnMi4wJywgJy1waCcsICc3LjAnLCAnLXRuJywgJzgnLCAnLW1hJywgJzIwMCcsICctaW1hZScsICc8aW5maWxlLm1hZT4nLCAnLW9tYWUnLCAnPG91dGZpbGUubWFlPic=

>  <r_lp_tautomer_probability>  (149) 
0.0196078

>  <r_epik_Ionization_Penalty>  (149) 
2.54213e-05

>  <r_epik_Ionization_Penalty_Charging>  (149) 
0

>  <r_epik_Ionization_Penalty_Neutral>  (149) 
2.54213e-05

>  <r_epik_State_Penalty>  (149) 
1.84291

>  <r_epik_Charging_Adjusted_Penalty>  (149) 
1.84291

>  <i_epik_Tot_Q>  (149) 
0

>  <i_epik_Tot_abs_Q>  (149) 
2

>  <s_lp_Force_Field>  (149) 
OPLS3e

>  <r_lp_Energy>  (149) 
16.209

>  <b_lp_Chiralities_Consistent>  (149) 
1

>  <s_lp_Variant>  (149) 
38:0-2

>  <s_i_glide_gridfile>  (149) 
pfpi4k_grid

>  <i_i_glide_lignum>  (149) 
8

>  <i_i_glide_rotatable_bonds>  (149) 
2

>  <r_i_docking_score>  (149) 
-3.64921

>  <r_i_glide_ligand_efficiency>  (149) 
-0.243281

>  <r_i_glide_ligand_efficiency_sa>  (149) 
-0.599982

>  <r_i_glide_ligand_efficiency_ln>  (149) 
-0.984133

>  <r_i_glide_gscore>  (149) 
-3.64921

>  <r_i_glide_lipo>  (149) 
-0.0933368

>  <r_i_glide_hbond>  (149) 
-0.0932978

>  <r_i_glide_metal>  (149) 
-0

>  <r_i_glide_rewards>  (149) 
-2.00991

>  <r_i_glide_evdw>  (149) 
-18.0725

>  <r_i_glide_ecoul>  (149) 
-2.12969

>  <r_i_glide_erotb>  (149) 
0

>  <r_i_glide_esite>  (149) 
-0.229592

>  <r_i_glide_emodel>  (149) 
-23.5714

>  <r_i_glide_energy>  (149) 
-20.2022

>  <r_i_glide_einternal>  (149) 
3.19148

>  <r_i_glide_intrahb_reward>  (149) 
-0

>  <i_i_glide_confnum>  (149) 
1

>  <i_i_glide_posenum>  (149) 
12

>  <r_i_glide_eff_state_penalty>  (149) 
0

>  <ligand_id>  (149) 
38

>  <original_smiles>  (149) 
CC(C)c1cc([N+](=O)[O-])c2n[nH]cc2c1

>  <smiles>  (149) 
[H]c1c(C([H])(C([H])([H])[H])C([H])([H])[H])c([H])c2c([H])n([H])nc2c1[N+](=O)[O-]

$$$$
38:1:2
     RDKit          3D

 26 27  0  0  1  0  0  0  0  0999 V2000
   -1.5110    1.9196    8.4447 C   0  0  0  0  0  0  0  0  0  0  0  0
   -0.1267    1.8840    7.7718 C   0  0  0  0  0  0  0  0  0  0  0  0
    0.7125    3.1168    8.1440 C   0  0  0  0  0  0  0  0  0  0  0  0
   -0.2346    1.7182    6.2572 C   0  0  0  0  0  0  0  0  0  0  0  0
   -1.0812    2.5766    5.5047 C   0  0  0  0  0  0  0  0  0  0  0  0
   -1.2120    2.4381    4.1028 C   0  0  0  0  0  0  0  0  0  0  0  0
   -2.0939    3.3513    3.3624 N   0  0  0  0  0  0  0  0  0  0  0  0
   -2.8132    2.9061    2.4787 O   0  0  0  0  0  0  0  0  0  0  0  0
   -2.1022    4.5291    3.7048 O   0  0  0  0  0  0  0  0  0  0  0  0
   -0.4587    1.4277    3.4695 C   0  0  0  0  0  0  0  0  0  0  0  0
   -0.4261    1.1537    2.1525 N   0  0  0  0  0  0  0  0  0  0  0  0
    0.4871    0.1334    2.0535 N   0  0  0  0  0  0  0  0  0  0  0  0
    0.9912   -0.2549    3.2896 C   0  0  0  0  0  0  0  0  0  0  0  0
    0.3813    0.5990    4.1959 C   0  0  0  0  0  0  0  0  0  0  0  0
    0.5120    0.7162    5.5918 C   0  0  0  0  0  0  0  0  0  0  0  0
    0.7018   -0.2783    1.1440 H   0  0  0  0  0  0  0  0  0  0  0  0
   -2.0909    1.0403    8.1746 H   0  0  0  0  0  0  0  0  0  0  0  0
   -2.0885    2.7946    8.1507 H   0  0  0  0  0  0  0  0  0  0  0  0
   -1.4226    1.9457    9.5289 H   0  0  0  0  0  0  0  0  0  0  0  0
    0.3972    1.0065    8.1588 H   0  0  0  0  0  0  0  0  0  0  0  0
    1.7007    3.0718    7.6864 H   0  0  0  0  0  0  0  0  0  0  0  0
    0.8530    3.1809    9.2212 H   0  0  0  0  0  0  0  0  0  0  0  0
    0.2371    4.0409    7.8164 H   0  0  0  0  0  0  0  0  0  0  0  0
   -1.6471    3.3518    6.0013 H   0  0  0  0  0  0  0  0  0  0  0  0
    1.7038   -1.0622    3.3824 H   0  0  0  0  0  0  0  0  0  0  0  0
    1.1818    0.0608    6.1278 H   0  0  0  0  0  0  0  0  0  0  0  0
  1  2  1  0
  1 17  1  0
  1 18  1  0
  1 19  1  0
  2  3  1  0
  2  4  1  0
  2 20  1  0
  3 21  1  0
  3 22  1  0
  3 23  1  0
  4 15  2  0
  4  5  1  0
  5  6  2  0
  5 24  1  0
  6  7  1  0
  6 10  1  0
  7  8  2  0
  7  9  1  0
 10 14  1  0
 10 11  2  0
 11 12  1  0
 12 16  1  0
 12 13  1  0
 13 14  2  0
 13 25  1  0
 14 15  1  0
 15 26  1  0
M  CHG  2   7   1   9  -1
M  END
>  <i_m_ct_stereo_status>  (150) 
1

>  <s_m_source_file>  (150) 
/var/tmp/pbs.5102264.sched01/tmp6iaxk4q8/46_x9h2b30.sdf

>  <i_m_source_file_index>  (150) 
8

>  <i_lp_mmshare_version>  (150) 
48012

>  <i_f3d_flags>  (150) 
0

>  <s_epik_input>  (150) 
Tz1bTitdKFtPLV0pYzFbY0hdYyhbQ0hdKFtDSDNdKVtDSDNdKVtjSF1jKGMxMilbY0hdW25IXW4y

>  <s_epik_cmdline>  (150) 
J2VwaWtfcHl0aG9uJywgJy1waHQnLCAnMi4wJywgJy1waCcsICc3LjAnLCAnLXRuJywgJzgnLCAnLW1hJywgJzIwMCcsICctaW1hZScsICc8aW5maWxlLm1hZT4nLCAnLW9tYWUnLCAnPG91dGZpbGUubWFlPic=

>  <r_lp_tautomer_probability>  (150) 
0.0196078

>  <r_epik_Ionization_Penalty>  (150) 
2.54213e-05

>  <r_epik_Ionization_Penalty_Charging>  (150) 
0

>  <r_epik_Ionization_Penalty_Neutral>  (150) 
2.54213e-05

>  <r_epik_State_Penalty>  (150) 
1.84291

>  <r_epik_Charging_Adjusted_Penalty>  (150) 
1.84291

>  <i_epik_Tot_Q>  (150) 
0

>  <i_epik_Tot_abs_Q>  (150) 
2

>  <s_lp_Force_Field>  (150) 
OPLS3e

>  <r_lp_Energy>  (150) 
16.209

>  <b_lp_Chiralities_Consistent>  (150) 
1

>  <s_lp_Variant>  (150) 
38:0-2

>  <s_i_glide_gridfile>  (150) 
pfpi4k_grid

>  <i_i_glide_lignum>  (150) 
8

>  <i_i_glide_rotatable_bonds>  (150) 
2

>  <r_i_docking_score>  (150) 
-3.61371

>  <r_i_glide_ligand_efficiency>  (150) 
-0.240914

>  <r_i_glide_ligand_efficiency_sa>  (150) 
-0.594145

>  <r_i_glide_ligand_efficiency_ln>  (150) 
-0.974559

>  <r_i_glide_gscore>  (150) 
-3.61371

>  <r_i_glide_lipo>  (150) 
0

>  <r_i_glide_hbond>  (150) 
-0.16

>  <r_i_glide_metal>  (150) 
-0

>  <r_i_glide_rewards>  (150) 
-2.00991

>  <r_i_glide_evdw>  (150) 
-14.97

>  <r_i_glide_ecoul>  (150) 
-3.07818

>  <r_i_glide_erotb>  (150) 
0

>  <r_i_glide_esite>  (150) 
-0.233577

>  <r_i_glide_emodel>  (150) 
-22.458

>  <r_i_glide_energy>  (150) 
-18.0482

>  <r_i_glide_einternal>  (150) 
1.3602

>  <r_i_glide_intrahb_reward>  (150) 
-0

>  <i_i_glide_confnum>  (150) 
1

>  <i_i_glide_posenum>  (150) 
3

>  <r_i_glide_eff_state_penalty>  (150) 
0

>  <ligand_id>  (150) 
38

>  <original_smiles>  (150) 
CC(C)c1cc([N+](=O)[O-])c2n[nH]cc2c1

>  <smiles>  (150) 
[H]c1c(C([H])(C([H])([H])[H])C([H])([H])[H])c([H])c2c([H])n([H])nc2c1[N+](=O)[O-]

$$$$
39:0:0
     RDKit          3D

 29 31  0  0  1  0  0  0  0  0999 V2000
    3.2154   -0.7158   -4.0901 C   0  0  0  0  0  0  0  0  0  0  0  0
    2.8278   -1.3311   -2.7373 C   0  0  0  0  0  0  0  0  0  0  0  0
    3.8594   -2.2110   -2.2034 N   0  0  0  0  0  0  0  0  0  0  0  0
    3.9758   -3.5721   -2.7147 C   0  0  0  0  0  0  0  0  0  0  0  0
    4.9282   -3.7191   -3.9182 C   0  0  0  0  0  0  0  0  0  0  0  0
    4.4715   -1.8885   -0.9747 C   0  0  0  0  0  0  0  0  0  0  0  0
    3.7528   -1.2699   -0.0041 N   0  0  0  0  0  0  0  0  0  0  0  0
    4.3709   -0.8854    1.1477 C   0  0  0  0  0  0  0  0  0  0  0  0
    3.9313   -0.2619    2.2771 C   0  0  0  0  0  0  0  0  0  0  0  0
    4.9949   -0.1309    3.1561 O   0  0  0  0  0  0  0  0  0  0  0  0
    6.1622   -0.6650    2.5725 N   0  0  0  0  0  0  0  0  0  0  0  0
    5.7439   -1.1177    1.3919 C   0  0  0  0  0  0  0  0  0  0  0  0
    6.4735   -1.7676    0.3962 N   0  0  0  0  0  0  0  0  0  0  0  0
    7.7590   -2.0700    0.3426 C   0  0  0  0  0  0  0  0  0  0  0  0
    8.0106   -2.6599   -0.8204 N   0  0  0  0  0  0  0  0  0  0  0  0
    6.7931   -2.6974   -1.5244 N   0  0  0  0  0  0  0  0  0  0  0  0
    5.8650   -2.1473   -0.7414 C   0  0  0  0  0  0  0  0  0  0  0  0
    2.4705    0.0149   -4.4199 H   0  0  0  0  0  0  0  0  0  0  0  0
    3.2839   -1.4659   -4.8747 H   0  0  0  0  0  0  0  0  0  0  0  0
    4.1800   -0.2113   -3.9991 H   0  0  0  0  0  0  0  0  0  0  0  0
    2.6179   -0.5306   -2.0436 H   0  0  0  0  0  0  0  0  0  0  0  0
    1.9047   -1.9001   -2.8312 H   0  0  0  0  0  0  0  0  0  0  0  0
    4.2338   -4.2702   -1.9142 H   0  0  0  0  0  0  0  0  0  0  0  0
    2.9797   -3.8467   -3.0701 H   0  0  0  0  0  0  0  0  0  0  0  0
    4.9713   -4.7549   -4.2795 H   0  0  0  0  0  0  0  0  0  0  0  0
    5.9497   -3.4230   -3.6741 H   0  0  0  0  0  0  0  0  0  0  0  0
    4.5714   -3.0927   -4.7192 H   0  0  0  0  0  0  0  0  0  0  0  0
    2.9673    0.1073    2.5809 H   0  0  0  0  0  0  0  0  0  0  0  0
    8.5178   -1.8221    1.0700 H   0  0  0  0  0  0  0  0  0  0  0  0
  1  2  1  0
  1 18  1  0
  1 19  1  0
  1 20  1  0
  2  3  1  0
  2 21  1  0
  2 22  1  0
  3  4  1  0
  3  6  1  0
  4  5  1  0
  4 23  1  0
  4 24  1  0
  5 25  1  0
  5 26  1  0
  5 27  1  0
  6 17  1  0
  6  7  2  0
  7  8  1  0
  8 12  1  0
  8  9  2  0
  9 10  1  0
  9 28  1  0
 10 11  1  0
 11 12  2  0
 12 13  1  0
 13 17  1  0
 13 14  1  0
 14 15  2  0
 14 29  1  0
 15 16  1  0
 16 17  2  0
M  END
>  <i_m_ct_stereo_status>  (151) 
1

>  <s_m_source_file>  (151) 
/var/tmp/pbs.5102264.sched01/tmp6iaxk4q8/46_x9h2b30.sdf

>  <i_m_source_file_index>  (151) 
9

>  <i_lp_mmshare_version>  (151) 
48012

>  <i_f3d_flags>  (151) 
0

>  <s_epik_input>  (151) 
W0NIM11bQ0gyXU4oW0NIMl1bQ0gzXSljKG4xKWMobm5bY0hdMiluMmMoYzEzKW5vW2NIXTM=

>  <s_epik_cmdline>  (151) 
J2VwaWtfcHl0aG9uJywgJy1waHQnLCAnMi4wJywgJy1waCcsICc3LjAnLCAnLXRuJywgJzgnLCAnLW1hJywgJzIwMCcsICctaW1hZScsICc8aW5maWxlLm1hZT4nLCAnLW9tYWUnLCAnPG91dGZpbGUubWFlPic=

>  <r_lp_tautomer_probability>  (151) 
1

>  <r_epik_Ionization_Penalty>  (151) 
5.58756e-07

>  <r_epik_Ionization_Penalty_Charging>  (151) 
0

>  <r_epik_Ionization_Penalty_Neutral>  (151) 
5.58756e-07

>  <r_epik_State_Penalty>  (151) 
-0

>  <r_epik_Charging_Adjusted_Penalty>  (151) 
0

>  <i_epik_Tot_Q>  (151) 
0

>  <i_epik_Tot_abs_Q>  (151) 
0

>  <s_lp_Force_Field>  (151) 
OPLS3e

>  <r_lp_Energy>  (151) 
27.9964

>  <b_lp_Chiralities_Consistent>  (151) 
1

>  <s_lp_Variant>  (151) 
39:0-1

>  <s_i_glide_gridfile>  (151) 
pfpi4k_grid

>  <i_i_glide_lignum>  (151) 
9

>  <i_i_glide_rotatable_bonds>  (151) 
3

>  <r_i_docking_score>  (151) 
-3.98164

>  <r_i_glide_ligand_efficiency>  (151) 
-0.234214

>  <r_i_glide_ligand_efficiency_sa>  (151) 
-0.602231

>  <r_i_glide_ligand_efficiency_ln>  (151) 
-1.03872

>  <r_i_glide_gscore>  (151) 
-3.98164

>  <r_i_glide_lipo>  (151) 
-0.371292

>  <r_i_glide_hbond>  (151) 
0

>  <r_i_glide_metal>  (151) 
-0

>  <r_i_glide_rewards>  (151) 
-2.19074

>  <r_i_glide_evdw>  (151) 
-22.8114

>  <r_i_glide_ecoul>  (151) 
-1.04802

>  <r_i_glide_erotb>  (151) 
0

>  <r_i_glide_esite>  (151) 
-0.121833

>  <r_i_glide_emodel>  (151) 
-28.3383

>  <r_i_glide_energy>  (151) 
-23.8594

>  <r_i_glide_einternal>  (151) 
3.30338

>  <r_i_glide_intrahb_reward>  (151) 
-0

>  <i_i_glide_confnum>  (151) 
2

>  <i_i_glide_posenum>  (151) 
19

>  <r_i_glide_eff_state_penalty>  (151) 
0

>  <ligand_id>  (151) 
39

>  <original_smiles>  (151) 
CCN(CC)c1nc2conc2n2cnnc12

>  <smiles>  (151) 
[H]c1onc2c1nc(N(C([H])([H])C([H])([H])[H])C([H])([H])C([H])([H])[H])c1nnc([H])n12

$$$$
39:0:1
     RDKit          3D

 29 31  0  0  1  0  0  0  0  0999 V2000
   -1.6663    3.3630    6.7871 C   0  0  0  0  0  0  0  0  0  0  0  0
   -2.4348    2.5515    5.7422 C   0  0  0  0  0  0  0  0  0  0  0  0
   -1.7493    2.4805    4.4488 N   0  0  0  0  0  0  0  0  0  0  0  0
   -1.9694    3.5822    3.5046 C   0  0  0  0  0  0  0  0  0  0  0  0
   -3.2875    3.4271    2.7307 C   0  0  0  0  0  0  0  0  0  0  0  0
   -0.9042    1.3955    4.0848 C   0  0  0  0  0  0  0  0  0  0  0  0
    0.0194    1.6148    3.1125 N   0  0  0  0  0  0  0  0  0  0  0  0
    0.8649    0.6195    2.7245 C   0  0  0  0  0  0  0  0  0  0  0  0
    1.8642    0.5444    1.8024 C   0  0  0  0  0  0  0  0  0  0  0  0
    2.3958   -0.7302    1.8362 O   0  0  0  0  0  0  0  0  0  0  0  0
    1.7297   -1.5128    2.8006 N   0  0  0  0  0  0  0  0  0  0  0  0
    0.8349   -0.6627    3.3008 C   0  0  0  0  0  0  0  0  0  0  0  0
   -0.1097   -0.9020    4.2971 N   0  0  0  0  0  0  0  0  0  0  0  0
   -0.3458   -2.0144    4.9722 C   0  0  0  0  0  0  0  0  0  0  0  0
   -1.3671   -1.8042    5.7990 N   0  0  0  0  0  0  0  0  0  0  0  0
   -1.7630   -0.4658    5.6148 N   0  0  0  0  0  0  0  0  0  0  0  0
   -0.9611    0.0753    4.6808 C   0  0  0  0  0  0  0  0  0  0  0  0
   -2.2136    3.3642    7.7331 H   0  0  0  0  0  0  0  0  0  0  0  0
   -1.5253    4.4002    6.4830 H   0  0  0  0  0  0  0  0  0  0  0  0
   -0.6828    2.9316    6.9844 H   0  0  0  0  0  0  0  0  0  0  0  0
   -2.6426    1.5904    6.1873 H   0  0  0  0  0  0  0  0  0  0  0  0
   -3.4171    2.9957    5.5914 H   0  0  0  0  0  0  0  0  0  0  0  0
   -2.0048    4.5106    4.0707 H   0  0  0  0  0  0  0  0  0  0  0  0
   -1.1490    3.7167    2.7974 H   0  0  0  0  0  0  0  0  0  0  0  0
   -3.4626    4.2847    2.0823 H   0  0  0  0  0  0  0  0  0  0  0  0
   -4.1490    3.3382    3.3930 H   0  0  0  0  0  0  0  0  0  0  0  0
   -3.2650    2.5414    2.0973 H   0  0  0  0  0  0  0  0  0  0  0  0
    2.2980    1.2397    1.1002 H   0  0  0  0  0  0  0  0  0  0  0  0
    0.1810   -2.9546    4.8597 H   0  0  0  0  0  0  0  0  0  0  0  0
  1  2  1  0
  1 18  1  0
  1 19  1  0
  1 20  1  0
  2  3  1  0
  2 21  1  0
  2 22  1  0
  3  4  1  0
  3  6  1  0
  4  5  1  0
  4 23  1  0
  4 24  1  0
  5 25  1  0
  5 26  1  0
  5 27  1  0
  6 17  1  0
  6  7  2  0
  7  8  1  0
  8 12  1  0
  8  9  2  0
  9 10  1  0
  9 28  1  0
 10 11  1  0
 11 12  2  0
 12 13  1  0
 13 17  1  0
 13 14  1  0
 14 15  2  0
 14 29  1  0
 15 16  1  0
 16 17  2  0
M  END
>  <i_m_ct_stereo_status>  (152) 
1

>  <s_m_source_file>  (152) 
/var/tmp/pbs.5102264.sched01/tmp6iaxk4q8/46_x9h2b30.sdf

>  <i_m_source_file_index>  (152) 
9

>  <i_lp_mmshare_version>  (152) 
48012

>  <i_f3d_flags>  (152) 
0

>  <s_epik_input>  (152) 
W0NIM11bQ0gyXU4oW0NIMl1bQ0gzXSljKG4xKWMobm5bY0hdMiluMmMoYzEzKW5vW2NIXTM=

>  <s_epik_cmdline>  (152) 
J2VwaWtfcHl0aG9uJywgJy1waHQnLCAnMi4wJywgJy1waCcsICc3LjAnLCAnLXRuJywgJzgnLCAnLW1hJywgJzIwMCcsICctaW1hZScsICc8aW5maWxlLm1hZT4nLCAnLW9tYWUnLCAnPG91dGZpbGUubWFlPic=

>  <r_lp_tautomer_probability>  (152) 
1

>  <r_epik_Ionization_Penalty>  (152) 
5.58756e-07

>  <r_epik_Ionization_Penalty_Charging>  (152) 
0

>  <r_epik_Ionization_Penalty_Neutral>  (152) 
5.58756e-07

>  <r_epik_State_Penalty>  (152) 
-0

>  <r_epik_Charging_Adjusted_Penalty>  (152) 
0

>  <i_epik_Tot_Q>  (152) 
0

>  <i_epik_Tot_abs_Q>  (152) 
0

>  <s_lp_Force_Field>  (152) 
OPLS3e

>  <r_lp_Energy>  (152) 
27.9964

>  <b_lp_Chiralities_Consistent>  (152) 
1

>  <s_lp_Variant>  (152) 
39:0-1

>  <s_i_glide_gridfile>  (152) 
pfpi4k_grid

>  <i_i_glide_lignum>  (152) 
9

>  <i_i_glide_rotatable_bonds>  (152) 
3

>  <r_i_docking_score>  (152) 
-3.74236

>  <r_i_glide_ligand_efficiency>  (152) 
-0.220139

>  <r_i_glide_ligand_efficiency_sa>  (152) 
-0.566038

>  <r_i_glide_ligand_efficiency_ln>  (152) 
-0.976297

>  <r_i_glide_gscore>  (152) 
-3.74236

>  <r_i_glide_lipo>  (152) 
-0.103809

>  <r_i_glide_hbond>  (152) 
0

>  <r_i_glide_metal>  (152) 
-0

>  <r_i_glide_rewards>  (152) 
-1.82562

>  <r_i_glide_evdw>  (152) 
-21.5222

>  <r_i_glide_ecoul>  (152) 
-2.96585

>  <r_i_glide_erotb>  (152) 
0

>  <r_i_glide_esite>  (152) 
-0.291938

>  <r_i_glide_emodel>  (152) 
-30.0401

>  <r_i_glide_energy>  (152) 
-24.488

>  <r_i_glide_einternal>  (152) 
0.963006

>  <r_i_glide_intrahb_reward>  (152) 
-0

>  <i_i_glide_confnum>  (152) 
2

>  <i_i_glide_posenum>  (152) 
1

>  <r_i_glide_eff_state_penalty>  (152) 
0

>  <ligand_id>  (152) 
39

>  <original_smiles>  (152) 
CCN(CC)c1nc2conc2n2cnnc12

>  <smiles>  (152) 
[H]c1onc2c1nc(N(C([H])([H])C([H])([H])[H])C([H])([H])C([H])([H])[H])c1nnc([H])n12

$$$$
39:0:2
     RDKit          3D

 29 31  0  0  1  0  0  0  0  0999 V2000
   -0.6970    4.8909    3.6123 C   0  0  0  0  0  0  0  0  0  0  0  0
   -1.6243    3.7111    3.2590 C   0  0  0  0  0  0  0  0  0  0  0  0
   -1.5906    2.6030    4.2290 N   0  0  0  0  0  0  0  0  0  0  0  0
   -2.3589    2.7478    5.4740 C   0  0  0  0  0  0  0  0  0  0  0  0
   -1.6330    3.5239    6.5842 C   0  0  0  0  0  0  0  0  0  0  0  0
   -0.7925    1.4549    3.9385 C   0  0  0  0  0  0  0  0  0  0  0  0
    0.1393    1.5725    2.9585 N   0  0  0  0  0  0  0  0  0  0  0  0
    0.9493    0.5199    2.6322 C   0  0  0  0  0  0  0  0  0  0  0  0
    1.9353    0.3492    1.7213 C   0  0  0  0  0  0  0  0  0  0  0  0
    2.4253   -0.9391    1.8353 O   0  0  0  0  0  0  0  0  0  0  0  0
    1.7312   -1.6321    2.8465 N   0  0  0  0  0  0  0  0  0  0  0  0
    0.8684   -0.7200    3.2881 C   0  0  0  0  0  0  0  0  0  0  0  0
   -0.0880   -0.8612    4.2952 N   0  0  0  0  0  0  0  0  0  0  0  0
   -0.3608   -1.9214    5.0352 C   0  0  0  0  0  0  0  0  0  0  0  0
   -1.3720   -1.6226    5.8455 N   0  0  0  0  0  0  0  0  0  0  0  0
   -1.7164   -0.2824    5.5835 N   0  0  0  0  0  0  0  0  0  0  0  0
   -0.8991    0.1703    4.6136 C   0  0  0  0  0  0  0  0  0  0  0  0
   -0.7381    5.6546    2.8309 H   0  0  0  0  0  0  0  0  0  0  0  0
    0.3370    4.5538    3.6790 H   0  0  0  0  0  0  0  0  0  0  0  0
   -0.9558    5.3769    4.5486 H   0  0  0  0  0  0  0  0  0  0  0  0
   -2.6520    4.0698    3.1984 H   0  0  0  0  0  0  0  0  0  0  0  0
   -1.4030    3.3577    2.2487 H   0  0  0  0  0  0  0  0  0  0  0  0
   -3.3055    3.2262    5.2290 H   0  0  0  0  0  0  0  0  0  0  0  0
   -2.6534    1.8007    5.9061 H   0  0  0  0  0  0  0  0  0  0  0  0
   -2.2605    3.5555    7.4746 H   0  0  0  0  0  0  0  0  0  0  0  0
   -1.4056    4.5544    6.3220 H   0  0  0  0  0  0  0  0  0  0  0  0
   -0.6975    3.0284    6.8499 H   0  0  0  0  0  0  0  0  0  0  0  0
    2.3889    0.9825    0.9666 H   0  0  0  0  0  0  0  0  0  0  0  0
    0.1367   -2.8841    4.9845 H   0  0  0  0  0  0  0  0  0  0  0  0
  1  2  1  0
  1 18  1  0
  1 19  1  0
  1 20  1  0
  2  3  1  0
  2 21  1  0
  2 22  1  0
  3  4  1  0
  3  6  1  0
  4  5  1  0
  4 23  1  0
  4 24  1  0
  5 25  1  0
  5 26  1  0
  5 27  1  0
  6 17  1  0
  6  7  2  0
  7  8  1  0
  8 12  1  0
  8  9  2  0
  9 10  1  0
  9 28  1  0
 10 11  1  0
 11 12  2  0
 12 13  1  0
 13 17  1  0
 13 14  1  0
 14 15  2  0
 14 29  1  0
 15 16  1  0
 16 17  2  0
M  END
>  <i_m_ct_stereo_status>  (153) 
1

>  <s_m_source_file>  (153) 
/var/tmp/pbs.5102264.sched01/tmp6iaxk4q8/46_x9h2b30.sdf

>  <i_m_source_file_index>  (153) 
9

>  <i_lp_mmshare_version>  (153) 
48012

>  <i_f3d_flags>  (153) 
0

>  <s_epik_input>  (153) 
W0NIM11bQ0gyXU4oW0NIMl1bQ0gzXSljKG4xKWMobm5bY0hdMiluMmMoYzEzKW5vW2NIXTM=

>  <s_epik_cmdline>  (153) 
J2VwaWtfcHl0aG9uJywgJy1waHQnLCAnMi4wJywgJy1waCcsICc3LjAnLCAnLXRuJywgJzgnLCAnLW1hJywgJzIwMCcsICctaW1hZScsICc8aW5maWxlLm1hZT4nLCAnLW9tYWUnLCAnPG91dGZpbGUubWFlPic=

>  <r_lp_tautomer_probability>  (153) 
1

>  <r_epik_Ionization_Penalty>  (153) 
5.58756e-07

>  <r_epik_Ionization_Penalty_Charging>  (153) 
0

>  <r_epik_Ionization_Penalty_Neutral>  (153) 
5.58756e-07

>  <r_epik_State_Penalty>  (153) 
-0

>  <r_epik_Charging_Adjusted_Penalty>  (153) 
0

>  <i_epik_Tot_Q>  (153) 
0

>  <i_epik_Tot_abs_Q>  (153) 
0

>  <s_lp_Force_Field>  (153) 
OPLS3e

>  <r_lp_Energy>  (153) 
27.9964

>  <b_lp_Chiralities_Consistent>  (153) 
1

>  <s_lp_Variant>  (153) 
39:0-1

>  <s_i_glide_gridfile>  (153) 
pfpi4k_grid

>  <i_i_glide_lignum>  (153) 
9

>  <i_i_glide_rotatable_bonds>  (153) 
3

>  <r_i_docking_score>  (153) 
-3.68041

>  <r_i_glide_ligand_efficiency>  (153) 
-0.216495

>  <r_i_glide_ligand_efficiency_sa>  (153) 
-0.556669

>  <r_i_glide_ligand_efficiency_ln>  (153) 
-0.960137

>  <r_i_glide_gscore>  (153) 
-3.68041

>  <r_i_glide_lipo>  (153) 
-0.0730556

>  <r_i_glide_hbond>  (153) 
0

>  <r_i_glide_metal>  (153) 
-0

>  <r_i_glide_rewards>  (153) 
-1.82562

>  <r_i_glide_evdw>  (153) 
-20.1304

>  <r_i_glide_ecoul>  (153) 
-3.21944

>  <r_i_glide_erotb>  (153) 
0

>  <r_i_glide_esite>  (153) 
-0.292297

>  <r_i_glide_emodel>  (153) 
-28.821

>  <r_i_glide_energy>  (153) 
-23.3498

>  <r_i_glide_einternal>  (153) 
0.192039

>  <r_i_glide_intrahb_reward>  (153) 
-0

>  <i_i_glide_confnum>  (153) 
2

>  <i_i_glide_posenum>  (153) 
14

>  <r_i_glide_eff_state_penalty>  (153) 
0

>  <ligand_id>  (153) 
39

>  <original_smiles>  (153) 
CCN(CC)c1nc2conc2n2cnnc12

>  <smiles>  (153) 
[H]c1onc2c1nc(N(C([H])([H])C([H])([H])[H])C([H])([H])C([H])([H])[H])c1nnc([H])n12

$$$$
40:0:0
     RDKit          3D

 32 34  0  0  1  0  0  0  0  0999 V2000
    5.8757   -3.9339    1.4577 O   0  0  0  0  0  0  0  0  0  0  0  0
    5.3592   -4.8237    0.7793 C   0  0  0  0  0  0  0  0  0  0  0  0
    4.4797   -4.6274   -0.2272 O   0  0  0  0  0  0  0  0  0  0  0  0
    3.9983   -3.3258   -0.5410 C   0  0  2  0  0  0  0  0  0  0  0  0
    2.6243   -3.4427   -1.2565 C   0  0  0  0  0  0  0  0  0  0  0  0
    2.6597   -2.6714   -2.6050 C   0  0  2  0  0  0  0  0  0  0  0  0
    3.7476   -3.2595   -3.5390 C   0  0  0  0  0  0  0  0  0  0  0  0
    5.1067   -3.2916   -2.8017 C   0  0  0  0  0  0  0  0  0  0  0  0
    4.9780   -2.5489   -1.4539 C   0  0  1  0  0  0  0  0  0  0  0  0
    4.3727   -1.1406   -1.7188 C   0  0  0  0  0  0  0  0  0  0  0  0
    3.0145   -1.2609   -2.3195 N   0  0  0  0  0  0  0  0  0  0  0  0
    5.6955   -6.2802    0.9921 C   0  0  0  0  0  0  0  0  0  0  0  0
    4.5859   -7.3104    0.8758 C   0  0  0  0  0  0  0  0  0  0  0  0
    5.1355   -6.9529    2.2316 C   0  0  0  0  0  0  0  0  0  0  0  0
    3.8576   -2.7648    0.3851 H   0  0  0  0  0  0  0  0  0  0  0  0
    2.3279   -4.4770   -1.4138 H   0  0  0  0  0  0  0  0  0  0  0  0
    1.8466   -3.0474   -0.6062 H   0  0  0  0  0  0  0  0  0  0  0  0
    1.6840   -2.7058   -3.0893 H   0  0  0  0  0  0  0  0  0  0  0  0
    3.4728   -4.2536   -3.8800 H   0  0  0  0  0  0  0  0  0  0  0  0
    3.8286   -2.6468   -4.4380 H   0  0  0  0  0  0  0  0  0  0  0  0
    5.4096   -4.3247   -2.6322 H   0  0  0  0  0  0  0  0  0  0  0  0
    5.8875   -2.8513   -3.4180 H   0  0  0  0  0  0  0  0  0  0  0  0
    5.9560   -2.4687   -0.9765 H   0  0  0  0  0  0  0  0  0  0  0  0
    4.3232   -0.5543   -0.8013 H   0  0  0  0  0  0  0  0  0  0  0  0
    5.0158   -0.5830   -2.4005 H   0  0  0  0  0  0  0  0  0  0  0  0
    2.3013   -0.9224   -1.6661 H   0  0  0  0  0  0  0  0  0  0  0  0
    6.7000   -6.5879    0.7015 H   0  0  0  0  0  0  0  0  0  0  0  0
    3.5789   -6.9732    0.6375 H   0  0  0  0  0  0  0  0  0  0  0  0
    4.8501   -8.2864    0.4743 H   0  0  0  0  0  0  0  0  0  0  0  0
    5.7570   -7.7014    2.7197 H   0  0  0  0  0  0  0  0  0  0  0  0
    4.4992   -6.3697    2.8957 H   0  0  0  0  0  0  0  0  0  0  0  0
    2.9589   -0.7055   -3.1610 H   0  0  0  0  0  0  0  0  0  0  0  0
  1  2  2  0
  2  3  1  0
  2 12  1  0
  3  4  1  0
  4  9  1  0
  4  5  1  0
  4 15  1  1
  5  6  1  0
  5 16  1  0
  5 17  1  0
  6 11  1  0
  6  7  1  0
  6 18  1  6
  7  8  1  0
  7 19  1  0
  7 20  1  0
  8  9  1  0
  8 21  1  0
  8 22  1  0
  9 10  1  0
  9 23  1  1
 10 11  1  0
 10 24  1  0
 10 25  1  0
 11 26  1  0
 11 32  1  0
 12 14  1  0
 12 13  1  0
 12 27  1  0
 13 14  1  0
 13 28  1  0
 13 29  1  0
 14 30  1  0
 14 31  1  0
M  CHG  1  11   1
M  END
>  <i_m_ct_stereo_status>  (154) 
1

>  <s_m_source_file>  (154) 
/var/tmp/pbs.5102264.sched01/tmp6iaxk4q8/46_x9h2b30.sdf

>  <i_m_source_file_index>  (154) 
10

>  <i_lp_mmshare_version>  (154) 
48012

>  <i_f3d_flags>  (154) 
0

>  <s_epik_input>  (154) 
W0NIMl0xW0NIMl1bQ0hdMUMoPU8pT1tDQEhdKFtDSDJdW0NASF0yMylbQ0BASF0oW0NIMl1bQ0gyXTIpW0NIMl1bTkhdMw==

>  <s_epik_cmdline>  (154) 
J2VwaWtfcHl0aG9uJywgJy1waHQnLCAnMi4wJywgJy1waCcsICc3LjAnLCAnLXRuJywgJzgnLCAnLW1hJywgJzIwMCcsICctaW1hZScsICc8aW5maWxlLm1hZT4nLCAnLW9tYWUnLCAnPG91dGZpbGUubWFlPic=

>  <r_lp_tautomer_probability>  (154) 
1

>  <r_epik_Ionization_Penalty>  (154) 
0.000228561

>  <r_epik_Ionization_Penalty_Charging>  (154) 
0.000228561

>  <r_epik_Ionization_Penalty_Neutral>  (154) 
0

>  <r_epik_State_Penalty>  (154) 
-0

>  <r_epik_Charging_Adjusted_Penalty>  (154) 
0.000228561

>  <i_epik_Tot_Q>  (154) 
1

>  <i_epik_Tot_abs_Q>  (154) 
1

>  <s_epik_Chemistry_Notes>  (154) 
This compound has an ester and may undergo hydrolysis at high or low pH.

>  <s_lp_Force_Field>  (154) 
OPLS3e

>  <r_lp_Energy>  (154) 
36.0788

>  <b_lp_Chiralities_Consistent>  (154) 
1

>  <s_lp_Variant>  (154) 
40:0-1

>  <s_i_glide_gridfile>  (154) 
pfpi4k_grid

>  <i_i_glide_lignum>  (154) 
10

>  <i_i_glide_rotatable_bonds>  (154) 
3

>  <r_i_docking_score>  (154) 
-3.57854

>  <r_i_glide_ligand_efficiency>  (154) 
-0.25561

>  <r_i_glide_ligand_efficiency_sa>  (154) 
-0.616056

>  <r_i_glide_ligand_efficiency_ln>  (154) 
-0.983369

>  <r_i_glide_gscore>  (154) 
-3.57854

>  <r_i_glide_lipo>  (154) 
-0.711956

>  <r_i_glide_hbond>  (154) 
-0.2

>  <r_i_glide_metal>  (154) 
-0

>  <r_i_glide_rewards>  (154) 
-2.16748

>  <r_i_glide_evdw>  (154) 
-19.2779

>  <r_i_glide_ecoul>  (154) 
-4.78002

>  <r_i_glide_erotb>  (154) 
1.26404

>  <r_i_glide_esite>  (154) 
-0.0822376

>  <r_i_glide_emodel>  (154) 
-31.6637

>  <r_i_glide_energy>  (154) 
-24.0579

>  <r_i_glide_einternal>  (154) 
0.153505

>  <r_i_glide_intrahb_reward>  (154) 
-0

>  <i_i_glide_confnum>  (154) 
5

>  <i_i_glide_posenum>  (154) 
11

>  <r_i_glide_eff_state_penalty>  (154) 
0

>  <ligand_id>  (154) 
40

>  <original_smiles>  (154) 
O=C(OC1CC2CCC1CN2)C1CC1

>  <smiles>  (154) 
[H]C1([H])C([H])([H])C1([H])C(=O)OC1([H])C([H])([H])C2([H])C([H])([H])C([H])([H])C1([H])C([H])([H])[N+]2([H])[H]

$$$$
40:0:1
     RDKit          3D

 32 34  0  0  1  0  0  0  0  0999 V2000
    2.2427   -5.0478    1.3379 O   0  0  0  0  0  0  0  0  0  0  0  0
    3.4031   -5.2985    1.0147 C   0  0  0  0  0  0  0  0  0  0  0  0
    4.1531   -4.5621    0.1591 O   0  0  0  0  0  0  0  0  0  0  0  0
    3.6664   -3.3134   -0.3364 C   0  0  2  0  0  0  0  0  0  0  0  0
    2.4721   -3.4576   -1.3185 C   0  0  0  0  0  0  0  0  0  0  0  0
    2.7533   -2.6891   -2.6400 C   0  0  2  0  0  0  0  0  0  0  0  0
    4.0137   -3.2556   -3.3315 C   0  0  0  0  0  0  0  0  0  0  0  0
    5.2037   -3.2573   -2.3415 C   0  0  0  0  0  0  0  0  0  0  0  0
    4.7924   -2.5213   -1.0485 C   0  0  1  0  0  0  0  0  0  0  0  0
    4.2322   -1.1264   -1.4447 C   0  0  0  0  0  0  0  0  0  0  0  0
    3.0110   -1.2738   -2.2939 N   0  0  0  0  0  0  0  0  0  0  0  0
    4.1571   -6.4621    1.5960 C   0  0  0  0  0  0  0  0  0  0  0  0
    4.6147   -7.5680    0.6718 C   0  0  0  0  0  0  0  0  0  0  0  0
    3.4640   -7.8131    1.6186 C   0  0  0  0  0  0  0  0  0  0  0  0
    3.3526   -2.7308    0.5300 H   0  0  0  0  0  0  0  0  0  0  0  0
    2.2147   -4.4952   -1.5203 H   0  0  0  0  0  0  0  0  0  0  0  0
    1.5817   -3.0584   -0.8394 H   0  0  0  0  0  0  0  0  0  0  0  0
    1.8879   -2.7488   -3.2977 H   0  0  0  0  0  0  0  0  0  0  0  0
    3.8280   -4.2581   -3.7010 H   0  0  0  0  0  0  0  0  0  0  0  0
    4.2599   -2.6518   -4.2073 H   0  0  0  0  0  0  0  0  0  0  0  0
    5.4871   -4.2825   -2.1052 H   0  0  0  0  0  0  0  0  0  0  0  0
    6.0819   -2.7979   -2.7942 H   0  0  0  0  0  0  0  0  0  0  0  0
    5.6507   -2.4171   -0.3840 H   0  0  0  0  0  0  0  0  0  0  0  0
    3.9915   -0.5391   -0.5554 H   0  0  0  0  0  0  0  0  0  0  0  0
    4.9859   -0.5582   -1.9918 H   0  0  0  0  0  0  0  0  0  0  0  0
    2.1939   -0.9451   -1.7711 H   0  0  0  0  0  0  0  0  0  0  0  0
    4.7699   -6.2394    2.4634 H   0  0  0  0  0  0  0  0  0  0  0  0
    4.3898   -7.4740   -0.3884 H   0  0  0  0  0  0  0  0  0  0  0  0
    5.5628   -8.0527    0.9043 H   0  0  0  0  0  0  0  0  0  0  0  0
    3.6584   -8.4619    2.4721 H   0  0  0  0  0  0  0  0  0  0  0  0
    2.4659   -7.8965    1.1969 H   0  0  0  0  0  0  0  0  0  0  0  0
    3.1071   -0.7177   -3.1322 H   0  0  0  0  0  0  0  0  0  0  0  0
  1  2  2  0
  2  3  1  0
  2 12  1  0
  3  4  1  0
  4  9  1  0
  4  5  1  0
  4 15  1  1
  5  6  1  0
  5 16  1  0
  5 17  1  0
  6 11  1  0
  6  7  1  0
  6 18  1  6
  7  8  1  0
  7 19  1  0
  7 20  1  0
  8  9  1  0
  8 21  1  0
  8 22  1  0
  9 10  1  0
  9 23  1  1
 10 11  1  0
 10 24  1  0
 10 25  1  0
 11 26  1  0
 11 32  1  0
 12 14  1  0
 12 13  1  0
 12 27  1  0
 13 14  1  0
 13 28  1  0
 13 29  1  0
 14 30  1  0
 14 31  1  0
M  CHG  1  11   1
M  END
>  <i_m_ct_stereo_status>  (155) 
1

>  <s_m_source_file>  (155) 
/var/tmp/pbs.5102264.sched01/tmp6iaxk4q8/46_x9h2b30.sdf

>  <i_m_source_file_index>  (155) 
10

>  <i_lp_mmshare_version>  (155) 
48012

>  <i_f3d_flags>  (155) 
0

>  <s_epik_input>  (155) 
W0NIMl0xW0NIMl1bQ0hdMUMoPU8pT1tDQEhdKFtDSDJdW0NASF0yMylbQ0BASF0oW0NIMl1bQ0gyXTIpW0NIMl1bTkhdMw==

>  <s_epik_cmdline>  (155) 
J2VwaWtfcHl0aG9uJywgJy1waHQnLCAnMi4wJywgJy1waCcsICc3LjAnLCAnLXRuJywgJzgnLCAnLW1hJywgJzIwMCcsICctaW1hZScsICc8aW5maWxlLm1hZT4nLCAnLW9tYWUnLCAnPG91dGZpbGUubWFlPic=

>  <r_lp_tautomer_probability>  (155) 
1

>  <r_epik_Ionization_Penalty>  (155) 
0.000228561

>  <r_epik_Ionization_Penalty_Charging>  (155) 
0.000228561

>  <r_epik_Ionization_Penalty_Neutral>  (155) 
0

>  <r_epik_State_Penalty>  (155) 
-0

>  <r_epik_Charging_Adjusted_Penalty>  (155) 
0.000228561

>  <i_epik_Tot_Q>  (155) 
1

>  <i_epik_Tot_abs_Q>  (155) 
1

>  <s_epik_Chemistry_Notes>  (155) 
This compound has an ester and may undergo hydrolysis at high or low pH.

>  <s_lp_Force_Field>  (155) 
OPLS3e

>  <r_lp_Energy>  (155) 
36.0788

>  <b_lp_Chiralities_Consistent>  (155) 
1

>  <s_lp_Variant>  (155) 
40:0-1

>  <s_i_glide_gridfile>  (155) 
pfpi4k_grid

>  <i_i_glide_lignum>  (155) 
10

>  <i_i_glide_rotatable_bonds>  (155) 
3

>  <r_i_docking_score>  (155) 
-3.30572

>  <r_i_glide_ligand_efficiency>  (155) 
-0.236123

>  <r_i_glide_ligand_efficiency_sa>  (155) 
-0.56909

>  <r_i_glide_ligand_efficiency_ln>  (155) 
-0.9084

>  <r_i_glide_gscore>  (155) 
-3.30572

>  <r_i_glide_lipo>  (155) 
-0.523212

>  <r_i_glide_hbond>  (155) 
-0.20314

>  <r_i_glide_metal>  (155) 
-0

>  <r_i_glide_rewards>  (155) 
-2.07091

>  <r_i_glide_evdw>  (155) 
-18.419

>  <r_i_glide_ecoul>  (155) 
-5.09285

>  <r_i_glide_erotb>  (155) 
1.26404

>  <r_i_glide_esite>  (155) 
-0.0876141

>  <r_i_glide_emodel>  (155) 
-29.763

>  <r_i_glide_energy>  (155) 
-23.5119

>  <r_i_glide_einternal>  (155) 
1.46013

>  <r_i_glide_intrahb_reward>  (155) 
-0

>  <i_i_glide_confnum>  (155) 
4

>  <i_i_glide_posenum>  (155) 
2

>  <r_i_glide_eff_state_penalty>  (155) 
0

>  <ligand_id>  (155) 
40

>  <original_smiles>  (155) 
O=C(OC1CC2CCC1CN2)C1CC1

>  <smiles>  (155) 
[H]C1([H])C([H])([H])C1([H])C(=O)OC1([H])C([H])([H])C2([H])C([H])([H])C([H])([H])C1([H])C([H])([H])[N+]2([H])[H]

$$$$
40:0:2
     RDKit          3D

 32 34  0  0  1  0  0  0  0  0999 V2000
   -0.9511    4.4086    6.6750 O   0  0  0  0  0  0  0  0  0  0  0  0
   -1.5624    3.3432    6.5977 C   0  0  0  0  0  0  0  0  0  0  0  0
   -1.4861    2.4887    5.5568 O   0  0  0  0  0  0  0  0  0  0  0  0
   -0.6683    2.7952    4.4229 C   0  0  2  0  0  0  0  0  0  0  0  0
   -1.3108    2.2137    3.1385 C   0  0  0  0  0  0  0  0  0  0  0  0
   -0.2915    1.3280    2.3825 C   0  0  2  0  0  0  0  0  0  0  0  0
    0.1454    0.1461    3.2786 C   0  0  0  0  0  0  0  0  0  0  0  0
    0.6740    0.6771    4.6301 C   0  0  0  0  0  0  0  0  0  0  0  0
    0.7609    2.2177    4.5728 C   0  0  1  0  0  0  0  0  0  0  0  0
    1.5872    2.6169    3.3215 C   0  0  0  0  0  0  0  0  0  0  0  0
    0.9115    2.1455    2.0810 N   0  0  0  0  0  0  0  0  0  0  0  0
   -2.4849    2.8499    7.6924 C   0  0  0  0  0  0  0  0  0  0  0  0
   -3.0633    3.8638    8.6627 C   0  0  0  0  0  0  0  0  0  0  0  0
   -1.9824    2.9279    9.1216 C   0  0  0  0  0  0  0  0  0  0  0  0
   -0.5945    3.8778    4.3010 H   0  0  0  0  0  0  0  0  0  0  0  0
   -2.1987    1.6269    3.3802 H   0  0  0  0  0  0  0  0  0  0  0  0
   -1.6387    3.0331    2.4983 H   0  0  0  0  0  0  0  0  0  0  0  0
   -0.7172    0.9688    1.4495 H   0  0  0  0  0  0  0  0  0  0  0  0
   -0.6797   -0.5466    3.4488 H   0  0  0  0  0  0  0  0  0  0  0  0
    0.9299   -0.4225    2.7782 H   0  0  0  0  0  0  0  0  0  0  0  0
    0.0094    0.3673    5.4382 H   0  0  0  0  0  0  0  0  0  0  0  0
    1.6467    0.2447    4.8616 H   0  0  0  0  0  0  0  0  0  0  0  0
    1.2251    2.6015    5.4779 H   0  0  0  0  0  0  0  0  0  0  0  0
    1.7259    3.6974    3.2602 H   0  0  0  0  0  0  0  0  0  0  0  0
    2.5838    2.1813    3.3676 H   0  0  0  0  0  0  0  0  0  0  0  0
    0.6233    2.9763    1.5479 H   0  0  0  0  0  0  0  0  0  0  0  0
   -3.1083    1.9892    7.4513 H   0  0  0  0  0  0  0  0  0  0  0  0
   -2.8035    4.9149    8.5343 H   0  0  0  0  0  0  0  0  0  0  0  0
   -4.0702    3.6845    9.0403 H   0  0  0  0  0  0  0  0  0  0  0  0
   -2.2804    2.1452    9.8200 H   0  0  0  0  0  0  0  0  0  0  0  0
   -0.9966    3.3560    9.3026 H   0  0  0  0  0  0  0  0  0  0  0  0
    1.5504    1.6072    1.5103 H   0  0  0  0  0  0  0  0  0  0  0  0
  1  2  2  0
  2  3  1  0
  2 12  1  0
  3  4  1  0
  4  9  1  0
  4  5  1  0
  4 15  1  6
  5  6  1  0
  5 16  1  0
  5 17  1  0
  6 11  1  0
  6  7  1  0
  6 18  1  6
  7  8  1  0
  7 19  1  0
  7 20  1  0
  8  9  1  0
  8 21  1  0
  8 22  1  0
  9 10  1  0
  9 23  1  1
 10 11  1  0
 10 24  1  0
 10 25  1  0
 11 26  1  0
 11 32  1  0
 12 14  1  0
 12 13  1  0
 12 27  1  0
 13 14  1  0
 13 28  1  0
 13 29  1  0
 14 30  1  0
 14 31  1  0
M  CHG  1  11   1
M  END
>  <i_m_ct_stereo_status>  (156) 
1

>  <s_m_source_file>  (156) 
/var/tmp/pbs.5102264.sched01/tmp6iaxk4q8/46_x9h2b30.sdf

>  <i_m_source_file_index>  (156) 
10

>  <i_lp_mmshare_version>  (156) 
48012

>  <i_f3d_flags>  (156) 
0

>  <s_epik_input>  (156) 
W0NIMl0xW0NIMl1bQ0hdMUMoPU8pT1tDQEhdKFtDSDJdW0NASF0yMylbQ0BASF0oW0NIMl1bQ0gyXTIpW0NIMl1bTkhdMw==

>  <s_epik_cmdline>  (156) 
J2VwaWtfcHl0aG9uJywgJy1waHQnLCAnMi4wJywgJy1waCcsICc3LjAnLCAnLXRuJywgJzgnLCAnLW1hJywgJzIwMCcsICctaW1hZScsICc8aW5maWxlLm1hZT4nLCAnLW9tYWUnLCAnPG91dGZpbGUubWFlPic=

>  <r_lp_tautomer_probability>  (156) 
1

>  <r_epik_Ionization_Penalty>  (156) 
0.000228561

>  <r_epik_Ionization_Penalty_Charging>  (156) 
0.000228561

>  <r_epik_Ionization_Penalty_Neutral>  (156) 
0

>  <r_epik_State_Penalty>  (156) 
-0

>  <r_epik_Charging_Adjusted_Penalty>  (156) 
0.000228561

>  <i_epik_Tot_Q>  (156) 
1

>  <i_epik_Tot_abs_Q>  (156) 
1

>  <s_epik_Chemistry_Notes>  (156) 
This compound has an ester and may undergo hydrolysis at high or low pH.

>  <s_lp_Force_Field>  (156) 
OPLS3e

>  <r_lp_Energy>  (156) 
36.0788

>  <b_lp_Chiralities_Consistent>  (156) 
1

>  <s_lp_Variant>  (156) 
40:0-1

>  <s_i_glide_gridfile>  (156) 
pfpi4k_grid

>  <i_i_glide_lignum>  (156) 
10

>  <i_i_glide_rotatable_bonds>  (156) 
3

>  <r_i_docking_score>  (156) 
-3.11177

>  <r_i_glide_ligand_efficiency>  (156) 
-0.22227

>  <r_i_glide_ligand_efficiency_sa>  (156) 
-0.535701

>  <r_i_glide_ligand_efficiency_ln>  (156) 
-0.855104

>  <r_i_glide_gscore>  (156) 
-3.11177

>  <r_i_glide_lipo>  (156) 
-0.169589

>  <r_i_glide_hbond>  (156) 
-0.2

>  <r_i_glide_metal>  (156) 
-0

>  <r_i_glide_rewards>  (156) 
-2.13116

>  <r_i_glide_evdw>  (156) 
-16.1608

>  <r_i_glide_ecoul>  (156) 
-6.51481

>  <r_i_glide_erotb>  (156) 
1.26404

>  <r_i_glide_esite>  (156) 
-0.0898008

>  <r_i_glide_emodel>  (156) 
-29.3087

>  <r_i_glide_energy>  (156) 
-22.6756

>  <r_i_glide_einternal>  (156) 
0.138879

>  <r_i_glide_intrahb_reward>  (156) 
-0

>  <i_i_glide_confnum>  (156) 
1

>  <i_i_glide_posenum>  (156) 
10

>  <r_i_glide_eff_state_penalty>  (156) 
0

>  <ligand_id>  (156) 
40

>  <original_smiles>  (156) 
O=C(OC1CC2CCC1CN2)C1CC1

>  <smiles>  (156) 
[H]C1([H])C([H])([H])C1([H])C(=O)OC1([H])C([H])([H])C2([H])C([H])([H])C([H])([H])C1([H])C([H])([H])[N+]2([H])[H]

$$$$
41:0:0
     RDKit          3D

 42 45  0  0  1  0  0  0  0  0999 V2000
    5.5361   -1.4341    0.3509 O   0  0  0  0  0  0  0  0  0  0  0  0
    4.8630   -2.2686   -0.2519 C   0  0  0  0  0  0  0  0  0  0  0  0
    4.3665   -3.5033    0.4020 C   0  0  0  0  0  0  0  0  0  0  0  0
    4.4688   -3.6996    1.7292 C   0  0  0  0  0  0  0  0  0  0  0  0
    4.0415   -4.8233    2.4417 N   0  0  0  0  0  0  0  0  0  0  0  0
    3.6391   -6.1028    1.8511 C   0  0  0  0  0  0  0  0  0  0  0  0
    2.1566   -6.4109    2.1723 C   0  0  0  0  0  0  0  0  0  0  0  0
    1.9321   -6.3533    3.6111 N   0  0  0  0  0  0  0  0  0  0  0  0
    1.5590   -7.4944    4.3729 C   0  0  0  0  0  0  0  0  0  0  0  0
    0.8615   -7.2369    5.5077 N   0  0  0  0  0  0  0  0  0  0  0  0
    0.4448   -8.2505    6.2712 C   0  0  0  0  0  0  0  0  0  0  0  0
    0.6205   -9.5451    6.0881 N   0  0  0  0  0  0  0  0  0  0  0  0
    1.3369   -9.8131    4.9478 C   0  0  0  0  0  0  0  0  0  0  0  0
    1.7426  -11.4546    4.4672 S   0  0  0  0  0  0  0  0  0  0  0  0
    2.5467  -10.8712    3.0543 C   0  0  0  0  0  0  0  0  0  0  0  0
    2.5654   -9.5136    2.9270 C   0  0  0  0  0  0  0  0  0  0  0  0
    1.8424   -8.8456    4.0194 C   0  0  0  0  0  0  0  0  0  0  0  0
    2.3608   -5.1147    4.2619 C   0  0  0  0  0  0  0  0  0  0  0  0
    3.8251   -4.7672    3.8864 C   0  0  0  0  0  0  0  0  0  0  0  0
    4.5020   -2.0681   -1.6845 C   0  0  0  0  0  0  0  0  0  0  0  0
    4.2136   -3.1340   -2.5630 C   0  0  0  0  0  0  0  0  0  0  0  0
    3.8471   -2.8408   -3.8865 C   0  0  0  0  0  0  0  0  0  0  0  0
    3.7935   -1.5901   -4.3790 N   0  0  0  0  0  0  0  0  0  0  0  0
    4.0443   -0.5690   -3.5407 C   0  0  0  0  0  0  0  0  0  0  0  0
    4.4256   -0.7546   -2.1979 C   0  0  0  0  0  0  0  0  0  0  0  0
    3.9030   -4.2589   -0.2054 H   0  0  0  0  0  0  0  0  0  0  0  0
    4.9153   -2.9305    2.3508 H   0  0  0  0  0  0  0  0  0  0  0  0
    3.7851   -6.1148    0.7756 H   0  0  0  0  0  0  0  0  0  0  0  0
    4.2984   -6.8755    2.2467 H   0  0  0  0  0  0  0  0  0  0  0  0
    1.5283   -5.6387    1.7233 H   0  0  0  0  0  0  0  0  0  0  0  0
    1.8023   -7.3407    1.7298 H   0  0  0  0  0  0  0  0  0  0  0  0
   -0.1587   -7.9786    7.1244 H   0  0  0  0  0  0  0  0  0  0  0  0
    2.9997  -11.5732    2.3659 H   0  0  0  0  0  0  0  0  0  0  0  0
    3.0633   -9.0232    2.1071 H   0  0  0  0  0  0  0  0  0  0  0  0
    1.7059   -4.3164    3.9089 H   0  0  0  0  0  0  0  0  0  0  0  0
    2.2537   -5.1432    5.3475 H   0  0  0  0  0  0  0  0  0  0  0  0
    4.5087   -5.4692    4.3672 H   0  0  0  0  0  0  0  0  0  0  0  0
    4.0793   -3.7737    4.2633 H   0  0  0  0  0  0  0  0  0  0  0  0
    4.2623   -4.1735   -2.2787 H   0  0  0  0  0  0  0  0  0  0  0  0
    3.6172   -3.6358   -4.5741 H   0  0  0  0  0  0  0  0  0  0  0  0
    3.9668    0.4222   -3.9672 H   0  0  0  0  0  0  0  0  0  0  0  0
    4.6100    0.1094   -1.5755 H   0  0  0  0  0  0  0  0  0  0  0  0
  1  2  2  0
  2  3  1  0
  2 20  1  0
  3  4  2  3
  3 26  1  0
  4  5  1  0
  4 27  1  0
  5 19  1  0
  5  6  1  0
  6  7  1  0
  6 28  1  0
  6 29  1  0
  7  8  1  0
  7 30  1  0
  7 31  1  0
  8  9  1  0
  8 18  1  0
  9 17  1  0
  9 10  2  0
 10 11  1  0
 11 12  2  0
 11 32  1  0
 12 13  1  0
 13 17  2  0
 13 14  1  0
 14 15  1  0
 15 16  2  0
 15 33  1  0
 16 17  1  0
 16 34  1  0
 18 19  1  0
 18 35  1  0
 18 36  1  0
 19 37  1  0
 19 38  1  0
 20 25  1  0
 20 21  2  0
 21 22  1  0
 21 39  1  0
 22 23  2  0
 22 40  1  0
 23 24  1  0
 24 25  2  0
 24 41  1  0
 25 42  1  0
M  END
>  <i_m_ct_stereo_status>  (157) 
1

>  <s_m_source_file>  (157) 
/var/tmp/pbs.5102264.sched01/tmp6iaxk4q8/46_x9h2b30.sdf

>  <i_m_source_file_index>  (157) 
11

>  <i_lp_mmshare_version>  (157) 
48012

>  <i_f3d_flags>  (157) 
0

>  <s_epik_input>  (157) 
W2NIXTFbY0hdbltjSF1bY0hdYzFDKD1PKS9bQ0hdPVtDSF0vTjJbQ0gyXVtDSDJdTihbQ0gyXVtDSDJdMiljKG5bY0hdbjMpYyhjMzQpW2NIXVtjSF1zNA==

>  <s_epik_cmdline>  (157) 
J2VwaWtfcHl0aG9uJywgJy1waHQnLCAnMi4wJywgJy1waCcsICc3LjAnLCAnLXRuJywgJzgnLCAnLW1hJywgJzIwMCcsICctaW1hZScsICc8aW5maWxlLm1hZT4nLCAnLW9tYWUnLCAnPG91dGZpbGUubWFlPic=

>  <r_epik_Ionization_Penalty>  (157) 
0.0382187

>  <r_epik_Ionization_Penalty_Charging>  (157) 
2.63537e-05

>  <r_epik_Ionization_Penalty_Neutral>  (157) 
0.0381923

>  <r_epik_State_Penalty>  (157) 
0.0317627

>  <r_epik_Charging_Adjusted_Penalty>  (157) 
0.031789

>  <i_epik_Tot_Q>  (157) 
0

>  <i_epik_Tot_abs_Q>  (157) 
0

>  <s_epik_Chemistry_Notes>  (157) 
This compound has an imine and may undergo hydrolysis.

>  <s_lp_Force_Field>  (157) 
OPLS3e

>  <r_lp_Energy>  (157) 
53.9716

>  <b_lp_Chiralities_Consistent>  (157) 
1

>  <s_lp_Variant>  (157) 
41:0-1

>  <s_i_glide_gridfile>  (157) 
pfpi4k_grid

>  <i_i_glide_lignum>  (157) 
11

>  <i_i_glide_rotatable_bonds>  (157) 
4

>  <r_i_docking_score>  (157) 
-3.27327

>  <r_i_glide_ligand_efficiency>  (157) 
-0.130931

>  <r_i_glide_ligand_efficiency_sa>  (157) 
-0.382844

>  <r_i_glide_ligand_efficiency_ln>  (157) 
-0.775863

>  <r_i_glide_gscore>  (157) 
-3.27327

>  <r_i_glide_lipo>  (157) 
-0.397571

>  <r_i_glide_hbond>  (157) 
-0.32

>  <r_i_glide_metal>  (157) 
-0

>  <r_i_glide_rewards>  (157) 
-1.013

>  <r_i_glide_evdw>  (157) 
-30.3337

>  <r_i_glide_ecoul>  (157) 
-2.97128

>  <r_i_glide_erotb>  (157) 
0.463304

>  <r_i_glide_esite>  (157) 
-0.0436248

>  <r_i_glide_emodel>  (157) 
-37.4606

>  <r_i_glide_energy>  (157) 
-33.305

>  <r_i_glide_einternal>  (157) 
4.94835

>  <r_i_glide_intrahb_reward>  (157) 
-0

>  <i_i_glide_confnum>  (157) 
1

>  <i_i_glide_posenum>  (157) 
6

>  <r_i_glide_eff_state_penalty>  (157) 
0

>  <ligand_id>  (157) 
41

>  <original_smiles>  (157) 
O=C(C=CN1CCN(c2ncnc3sccc23)CC1)c1ccncc1

>  <smiles>  (157) 
[H]C(C(=O)c1c([H])c([H])nc([H])c1[H])=C([H])N1C([H])([H])C([H])([H])N(c2nc([H])nc3sc([H])c([H])c23)C([H])([H])C1([H])[H]

$$$$
41:0:1
     RDKit          3D

 42 45  0  0  1  0  0  0  0  0999 V2000
    5.5384   -0.9958   -1.8359 O   0  0  0  0  0  0  0  0  0  0  0  0
    4.4421   -1.3177   -2.2816 C   0  0  0  0  0  0  0  0  0  0  0  0
    3.7196   -2.4736   -1.7247 C   0  0  0  0  0  0  0  0  0  0  0  0
    4.3898   -3.3946   -1.0065 C   0  0  0  0  0  0  0  0  0  0  0  0
    3.8388   -4.5171   -0.4183 N   0  0  0  0  0  0  0  0  0  0  0  0
    4.6327   -5.6881   -0.0586 C   0  0  0  0  0  0  0  0  0  0  0  0
    4.4990   -6.0116    1.4386 C   0  0  0  0  0  0  0  0  0  0  0  0
    3.0975   -6.0784    1.8370 N   0  0  0  0  0  0  0  0  0  0  0  0
    2.5329   -7.2521    2.3856 C   0  0  0  0  0  0  0  0  0  0  0  0
    3.0808   -8.4448    2.0513 N   0  0  0  0  0  0  0  0  0  0  0  0
    2.5704   -9.5736    2.5459 C   0  0  0  0  0  0  0  0  0  0  0  0
    1.5232   -9.7119    3.3590 N   0  0  0  0  0  0  0  0  0  0  0  0
    0.9701   -8.5124    3.6996 C   0  0  0  0  0  0  0  0  0  0  0  0
   -0.4187   -8.3749    4.7596 S   0  0  0  0  0  0  0  0  0  0  0  0
   -0.3546   -6.6376    4.6713 C   0  0  0  0  0  0  0  0  0  0  0  0
    0.6505   -6.1489    3.8748 C   0  0  0  0  0  0  0  0  0  0  0  0
    1.4210   -7.2262    3.2721 C   0  0  0  0  0  0  0  0  0  0  0  0
    2.2616   -4.9628    1.4122 C   0  0  0  0  0  0  0  0  0  0  0  0
    2.4272   -4.6625   -0.0860 C   0  0  0  0  0  0  0  0  0  0  0  0
    3.8155   -0.5766   -3.4025 C   0  0  0  0  0  0  0  0  0  0  0  0
    2.7515   -1.0722   -4.1733 C   0  0  0  0  0  0  0  0  0  0  0  0
    2.1447   -0.2381   -5.1148 C   0  0  0  0  0  0  0  0  0  0  0  0
    2.5634    0.9604   -5.4785 N   0  0  0  0  0  0  0  0  0  0  0  0
    3.5697    1.4123   -4.7596 C   0  0  0  0  0  0  0  0  0  0  0  0
    4.2091    0.7314   -3.7130 C   0  0  0  0  0  0  0  0  0  0  0  0
    2.6641   -2.5707   -1.9155 H   0  0  0  0  0  0  0  0  0  0  0  0
    5.4544   -3.3039   -0.8443 H   0  0  0  0  0  0  0  0  0  0  0  0
    4.2960   -6.5390   -0.6533 H   0  0  0  0  0  0  0  0  0  0  0  0
    5.6757   -5.5129   -0.3199 H   0  0  0  0  0  0  0  0  0  0  0  0
    5.0604   -6.9099    1.6973 H   0  0  0  0  0  0  0  0  0  0  0  0
    4.9356   -5.1859    1.9961 H   0  0  0  0  0  0  0  0  0  0  0  0
    3.0868  -10.4902    2.2788 H   0  0  0  0  0  0  0  0  0  0  0  0
   -1.0658   -6.0655    5.2533 H   0  0  0  0  0  0  0  0  0  0  0  0
    0.8568   -5.0943    3.7328 H   0  0  0  0  0  0  0  0  0  0  0  0
    1.2108   -5.1537    1.6025 H   0  0  0  0  0  0  0  0  0  0  0  0
    2.5644   -4.0850    1.9820 H   0  0  0  0  0  0  0  0  0  0  0  0
    1.8540   -3.7733   -0.3555 H   0  0  0  0  0  0  0  0  0  0  0  0
    1.9987   -5.4790   -0.6708 H   0  0  0  0  0  0  0  0  0  0  0  0
    2.2761   -2.0212   -3.9757 H   0  0  0  0  0  0  0  0  0  0  0  0
    1.1470   -0.4946   -5.4636 H   0  0  0  0  0  0  0  0  0  0  0  0
    3.7438    2.4583   -4.9306 H   0  0  0  0  0  0  0  0  0  0  0  0
    4.9363    1.2624   -3.1177 H   0  0  0  0  0  0  0  0  0  0  0  0
  1  2  2  0
  2  3  1  0
  2 20  1  0
  3  4  2  3
  3 26  1  0
  4  5  1  0
  4 27  1  0
  5 19  1  0
  5  6  1  0
  6  7  1  0
  6 28  1  0
  6 29  1  0
  7  8  1  0
  7 30  1  0
  7 31  1  0
  8  9  1  0
  8 18  1  0
  9 17  1  0
  9 10  2  0
 10 11  1  0
 11 12  2  0
 11 32  1  0
 12 13  1  0
 13 17  2  0
 13 14  1  0
 14 15  1  0
 15 16  2  0
 15 33  1  0
 16 17  1  0
 16 34  1  0
 18 19  1  0
 18 35  1  0
 18 36  1  0
 19 37  1  0
 19 38  1  0
 20 25  1  0
 20 21  2  0
 21 22  1  0
 21 39  1  0
 22 23  2  0
 22 40  1  0
 23 24  1  0
 24 25  2  0
 24 41  1  0
 25 42  1  0
M  END
>  <i_m_ct_stereo_status>  (158) 
1

>  <s_m_source_file>  (158) 
/var/tmp/pbs.5102264.sched01/tmp6iaxk4q8/46_x9h2b30.sdf

>  <i_m_source_file_index>  (158) 
11

>  <i_lp_mmshare_version>  (158) 
48012

>  <i_f3d_flags>  (158) 
0

>  <s_epik_input>  (158) 
W2NIXTFbY0hdbltjSF1bY0hdYzFDKD1PKS9bQ0hdPVtDSF0vTjJbQ0gyXVtDSDJdTihbQ0gyXVtDSDJdMiljKG5bY0hdbjMpYyhjMzQpW2NIXVtjSF1zNA==

>  <s_epik_cmdline>  (158) 
J2VwaWtfcHl0aG9uJywgJy1waHQnLCAnMi4wJywgJy1waCcsICc3LjAnLCAnLXRuJywgJzgnLCAnLW1hJywgJzIwMCcsICctaW1hZScsICc8aW5maWxlLm1hZT4nLCAnLW9tYWUnLCAnPG91dGZpbGUubWFlPic=

>  <r_epik_Ionization_Penalty>  (158) 
0.0382187

>  <r_epik_Ionization_Penalty_Charging>  (158) 
2.63537e-05

>  <r_epik_Ionization_Penalty_Neutral>  (158) 
0.0381923

>  <r_epik_State_Penalty>  (158) 
0.0317627

>  <r_epik_Charging_Adjusted_Penalty>  (158) 
0.031789

>  <i_epik_Tot_Q>  (158) 
0

>  <i_epik_Tot_abs_Q>  (158) 
0

>  <s_epik_Chemistry_Notes>  (158) 
This compound has an imine and may undergo hydrolysis.

>  <s_lp_Force_Field>  (158) 
OPLS3e

>  <r_lp_Energy>  (158) 
53.9716

>  <b_lp_Chiralities_Consistent>  (158) 
1

>  <s_lp_Variant>  (158) 
41:0-1

>  <s_i_glide_gridfile>  (158) 
pfpi4k_grid

>  <i_i_glide_lignum>  (158) 
11

>  <i_i_glide_rotatable_bonds>  (158) 
4

>  <r_i_docking_score>  (158) 
-1.43524

>  <r_i_glide_ligand_efficiency>  (158) 
-0.0574098

>  <r_i_glide_ligand_efficiency_sa>  (158) 
-0.167867

>  <r_i_glide_ligand_efficiency_ln>  (158) 
-0.340196

>  <r_i_glide_gscore>  (158) 
-1.43524

>  <r_i_glide_lipo>  (158) 
-0.331222

>  <r_i_glide_hbond>  (158) 
-0.0241722

>  <r_i_glide_metal>  (158) 
-0

>  <r_i_glide_rewards>  (158) 
-1.04008

>  <r_i_glide_evdw>  (158) 
-2.33593

>  <r_i_glide_ecoul>  (158) 
-2.04524

>  <r_i_glide_erotb>  (158) 
0.463304

>  <r_i_glide_esite>  (158) 
-0.0794908

>  <r_i_glide_emodel>  (158) 
-3.02612

>  <r_i_glide_energy>  (158) 
-4.38117

>  <r_i_glide_einternal>  (158) 
4.36874

>  <r_i_glide_intrahb_reward>  (158) 
-0

>  <i_i_glide_confnum>  (158) 
4

>  <i_i_glide_posenum>  (158) 
40

>  <r_i_glide_eff_state_penalty>  (158) 
0

>  <ligand_id>  (158) 
41

>  <original_smiles>  (158) 
O=C(C=CN1CCN(c2ncnc3sccc23)CC1)c1ccncc1

>  <smiles>  (158) 
[H]C(C(=O)c1c([H])c([H])nc([H])c1[H])=C([H])N1C([H])([H])C([H])([H])N(c2nc([H])nc3sc([H])c([H])c23)C([H])([H])C1([H])[H]

$$$$
41:1:0
     RDKit          3D

 42 45  0  0  1  0  0  0  0  0999 V2000
    6.8034   -4.2086   -0.3190 O   0  0  0  0  0  0  0  0  0  0  0  0
    6.4421   -3.0402   -0.3850 C   0  0  0  0  0  0  0  0  0  0  0  0
    6.8782   -2.1176    0.6843 C   0  0  0  0  0  0  0  0  0  0  0  0
    6.0773   -1.3261    1.4276 C   0  0  0  0  0  0  0  0  0  0  0  0
    4.6901   -1.2116    1.4006 N   0  0  0  0  0  0  0  0  0  0  0  0
    3.7592   -2.3089    1.1241 C   0  0  0  0  0  0  0  0  0  0  0  0
    2.6141   -2.3726    2.1338 C   0  0  0  0  0  0  0  0  0  0  0  0
    2.0256   -1.0500    2.3638 N   0  0  0  0  0  0  0  0  0  0  0  0
    1.0165   -0.8890    3.3335 C   0  0  0  0  0  0  0  0  0  0  0  0
    0.9292   -1.8467    4.2908 N   0  0  0  0  0  0  0  0  0  0  0  0
    0.0361   -1.7243    5.2617 C   0  0  0  0  0  0  0  0  0  0  0  0
   -0.8405   -0.7311    5.4611 N   0  0  0  0  0  0  0  0  0  0  0  0
   -0.7736    0.2209    4.4848 C   0  0  0  0  0  0  0  0  0  0  0  0
   -1.7740    1.6718    4.5167 S   0  0  0  0  0  0  0  0  0  0  0  0
   -1.1170    2.1670    2.9931 C   0  0  0  0  0  0  0  0  0  0  0  0
   -0.1674    1.3331    2.4745 C   0  0  0  0  0  0  0  0  0  0  0  0
    0.1022    0.2088    3.3578 C   0  0  0  0  0  0  0  0  0  0  0  0
    2.5425    0.0908    1.6063 C   0  0  0  0  0  0  0  0  0  0  0  0
    4.0720    0.0997    1.5710 C   0  0  0  0  0  0  0  0  0  0  0  0
    5.5379   -2.5508   -1.4788 C   0  0  0  0  0  0  0  0  0  0  0  0
    5.0133   -3.4680   -2.4255 C   0  0  0  0  0  0  0  0  0  0  0  0
    4.1202   -3.0144   -3.4136 C   0  0  0  0  0  0  0  0  0  0  0  0
    3.7321   -1.7310   -3.5185 N   0  0  0  0  0  0  0  0  0  0  0  0
    4.2301   -0.8459   -2.6333 C   0  0  0  0  0  0  0  0  0  0  0  0
    5.1434   -1.1995   -1.6233 C   0  0  0  0  0  0  0  0  0  0  0  0
    7.9417   -2.0985    0.8850 H   0  0  0  0  0  0  0  0  0  0  0  0
    6.5286   -0.6817    2.1717 H   0  0  0  0  0  0  0  0  0  0  0  0
    3.3277   -2.1501    0.1321 H   0  0  0  0  0  0  0  0  0  0  0  0
    4.2678   -3.2827    1.1174 H   0  0  0  0  0  0  0  0  0  0  0  0
    1.8478   -3.0669    1.7784 H   0  0  0  0  0  0  0  0  0  0  0  0
    3.0079   -2.7829    3.0654 H   0  0  0  0  0  0  0  0  0  0  0  0
    0.0226   -2.5358    5.9843 H   0  0  0  0  0  0  0  0  0  0  0  0
   -1.4659    3.0811    2.5388 H   0  0  0  0  0  0  0  0  0  0  0  0
    0.3324    1.5046    1.5304 H   0  0  0  0  0  0  0  0  0  0  0  0
    2.1884    0.0064    0.5727 H   0  0  0  0  0  0  0  0  0  0  0  0
    2.2257    1.0565    1.9994 H   0  0  0  0  0  0  0  0  0  0  0  0
    4.4136    0.5322    2.5153 H   0  0  0  0  0  0  0  0  0  0  0  0
    4.4146    0.7750    0.7801 H   0  0  0  0  0  0  0  0  0  0  0  0
    5.2375   -4.5238   -2.3678 H   0  0  0  0  0  0  0  0  0  0  0  0
    3.6937   -3.6953   -4.1381 H   0  0  0  0  0  0  0  0  0  0  0  0
    3.8698    0.1674   -2.7018 H   0  0  0  0  0  0  0  0  0  0  0  0
    5.4898   -0.4258   -0.9520 H   0  0  0  0  0  0  0  0  0  0  0  0
  1  2  2  0
  2  3  1  0
  2 20  1  0
  3  4  2  3
  3 26  1  0
  4  5  1  0
  4 27  1  0
  5 19  1  0
  5  6  1  0
  6  7  1  0
  6 28  1  0
  6 29  1  0
  7  8  1  0
  7 30  1  0
  7 31  1  0
  8  9  1  0
  8 18  1  0
  9 17  1  0
  9 10  2  0
 10 11  1  0
 11 12  2  0
 11 32  1  0
 12 13  1  0
 13 17  2  0
 13 14  1  0
 14 15  1  0
 15 16  2  0
 15 33  1  0
 16 17  1  0
 16 34  1  0
 18 19  1  0
 18 35  1  0
 18 36  1  0
 19 37  1  0
 19 38  1  0
 20 25  1  0
 20 21  2  0
 21 22  1  0
 21 39  1  0
 22 23  2  0
 22 40  1  0
 23 24  1  0
 24 25  2  0
 24 41  1  0
 25 42  1  0
M  END
>  <i_m_ct_stereo_status>  (159) 
1

>  <s_m_source_file>  (159) 
/var/tmp/pbs.5102264.sched01/tmp6iaxk4q8/46_x9h2b30.sdf

>  <i_m_source_file_index>  (159) 
12

>  <i_lp_mmshare_version>  (159) 
48012

>  <i_f3d_flags>  (159) 
0

>  <s_epik_input>  (159) 
W2NIXTFbY0hdbltjSF1bY0hdYzFDKD1PKS9bQ0hdPVtDSF0vTjJbQ0gyXVtDSDJdTihbQ0gyXVtDSDJdMiljKG5bY0hdbjMpYyhjMzQpW2NIXVtjSF1zNA==

>  <s_epik_cmdline>  (159) 
J2VwaWtfcHl0aG9uJywgJy1waHQnLCAnMi4wJywgJy1waCcsICc3LjAnLCAnLXRuJywgJzgnLCAnLW1hJywgJzIwMCcsICctaW1hZScsICc8aW5maWxlLm1hZT4nLCAnLW9tYWUnLCAnPG91dGZpbGUubWFlPic=

>  <r_epik_Ionization_Penalty>  (159) 
0.0382187

>  <r_epik_Ionization_Penalty_Charging>  (159) 
2.63537e-05

>  <r_epik_Ionization_Penalty_Neutral>  (159) 
0.0381923

>  <r_epik_State_Penalty>  (159) 
0.0317627

>  <r_epik_Charging_Adjusted_Penalty>  (159) 
0.031789

>  <i_epik_Tot_Q>  (159) 
0

>  <i_epik_Tot_abs_Q>  (159) 
0

>  <s_epik_Chemistry_Notes>  (159) 
This compound has an imine and may undergo hydrolysis.

>  <s_lp_Force_Field>  (159) 
OPLS3e

>  <r_lp_Energy>  (159) 
57.4375

>  <b_lp_Chiralities_Consistent>  (159) 
1

>  <s_lp_Variant>  (159) 
41:0-2

>  <s_i_glide_gridfile>  (159) 
pfpi4k_grid

>  <i_i_glide_lignum>  (159) 
12

>  <i_i_glide_rotatable_bonds>  (159) 
4

>  <r_i_docking_score>  (159) 
-3.5429

>  <r_i_glide_ligand_efficiency>  (159) 
-0.141716

>  <r_i_glide_ligand_efficiency_sa>  (159) 
-0.41438

>  <r_i_glide_ligand_efficiency_ln>  (159) 
-0.839772

>  <r_i_glide_gscore>  (159) 
-3.5429

>  <r_i_glide_lipo>  (159) 
-0.600523

>  <r_i_glide_hbond>  (159) 
0

>  <r_i_glide_metal>  (159) 
-0

>  <r_i_glide_rewards>  (159) 
-1.16838

>  <r_i_glide_evdw>  (159) 
-35.2905

>  <r_i_glide_ecoul>  (159) 
-2.88885

>  <r_i_glide_erotb>  (159) 
0.463304

>  <r_i_glide_esite>  (159) 
-0.0394371

>  <r_i_glide_emodel>  (159) 
-43.8447

>  <r_i_glide_energy>  (159) 
-38.1794

>  <r_i_glide_einternal>  (159) 
4.61085

>  <r_i_glide_intrahb_reward>  (159) 
-0

>  <i_i_glide_confnum>  (159) 
1

>  <i_i_glide_posenum>  (159) 
19

>  <r_i_glide_eff_state_penalty>  (159) 
0

>  <ligand_id>  (159) 
41

>  <original_smiles>  (159) 
O=C(C=CN1CCN(c2ncnc3sccc23)CC1)c1ccncc1

>  <smiles>  (159) 
[H]C(C(=O)c1c([H])c([H])nc([H])c1[H])=C([H])N1C([H])([H])C([H])([H])N(c2nc([H])nc3sc([H])c([H])c23)C([H])([H])C1([H])[H]

$$$$
41:1:1
     RDKit          3D

 42 45  0  0  1  0  0  0  0  0999 V2000
    6.0284   -4.3175   -0.3270 O   0  0  0  0  0  0  0  0  0  0  0  0
    6.0409   -3.1291   -0.6478 C   0  0  0  0  0  0  0  0  0  0  0  0
    6.8309   -2.1773    0.1468 C   0  0  0  0  0  0  0  0  0  0  0  0
    6.3264   -1.3393    1.0862 C   0  0  0  0  0  0  0  0  0  0  0  0
    5.0101   -1.1971    1.5065 N   0  0  0  0  0  0  0  0  0  0  0  0
    4.5352   -1.8842    2.7084 C   0  0  0  0  0  0  0  0  0  0  0  0
    3.8444   -0.9123    3.7002 C   0  0  0  0  0  0  0  0  0  0  0  0
    2.9015   -0.0243    3.0258 N   0  0  0  0  0  0  0  0  0  0  0  0
    2.2558    1.0275    3.7074 C   0  0  0  0  0  0  0  0  0  0  0  0
    2.9300    1.6373    4.7048 N   0  0  0  0  0  0  0  0  0  0  0  0
    2.3528    2.6522    5.3502 C   0  0  0  0  0  0  0  0  0  0  0  0
    1.1525    3.1864    5.1568 N   0  0  0  0  0  0  0  0  0  0  0  0
    0.4615    2.5565    4.1550 C   0  0  0  0  0  0  0  0  0  0  0  0
   -1.1696    3.0266    3.6885 S   0  0  0  0  0  0  0  0  0  0  0  0
   -1.2190    1.7414    2.5205 C   0  0  0  0  0  0  0  0  0  0  0  0
   -0.0740    0.9868    2.4449 C   0  0  0  0  0  0  0  0  0  0  0  0
    0.9307    1.4520    3.3862 C   0  0  0  0  0  0  0  0  0  0  0  0
    2.7288   -0.1500    1.5879 C   0  0  0  0  0  0  0  0  0  0  0  0
    4.0573   -0.2990    0.8429 C   0  0  0  0  0  0  0  0  0  0  0  0
    5.2813   -2.5990   -1.8217 C   0  0  0  0  0  0  0  0  0  0  0  0
    5.0192   -1.2234   -1.9830 C   0  0  0  0  0  0  0  0  0  0  0  0
    4.1666   -0.8058   -3.0181 C   0  0  0  0  0  0  0  0  0  0  0  0
    3.6769   -1.6397   -3.9538 N   0  0  0  0  0  0  0  0  0  0  0  0
    4.0056   -2.9432   -3.8754 C   0  0  0  0  0  0  0  0  0  0  0  0
    4.7934   -3.4708   -2.8303 C   0  0  0  0  0  0  0  0  0  0  0  0
    7.8895   -2.1702   -0.0492 H   0  0  0  0  0  0  0  0  0  0  0  0
    7.0007   -0.6737    1.6070 H   0  0  0  0  0  0  0  0  0  0  0  0
    3.8337   -2.6517    2.3797 H   0  0  0  0  0  0  0  0  0  0  0  0
    5.3628   -2.4005    3.2000 H   0  0  0  0  0  0  0  0  0  0  0  0
    3.2869   -1.4825    4.4480 H   0  0  0  0  0  0  0  0  0  0  0  0
    4.6044   -0.3226    4.2209 H   0  0  0  0  0  0  0  0  0  0  0  0
    2.9475    3.0712    6.1550 H   0  0  0  0  0  0  0  0  0  0  0  0
   -2.1134    1.6160    1.9288 H   0  0  0  0  0  0  0  0  0  0  0  0
    0.0664    0.1611    1.7628 H   0  0  0  0  0  0  0  0  0  0  0  0
    2.1483   -1.0514    1.4093 H   0  0  0  0  0  0  0  0  0  0  0  0
    2.1863    0.6831    1.1502 H   0  0  0  0  0  0  0  0  0  0  0  0
    4.5271    0.6926    0.7457 H   0  0  0  0  0  0  0  0  0  0  0  0
    3.7929   -0.6625   -0.1272 H   0  0  0  0  0  0  0  0  0  0  0  0
    5.3615   -0.4758   -1.2663 H   0  0  0  0  0  0  0  0  0  0  0  0
    3.8305    0.2209   -3.0539 H   0  0  0  0  0  0  0  0  0  0  0  0
    3.6583   -3.5625   -4.6928 H   0  0  0  0  0  0  0  0  0  0  0  0
    5.0031   -4.5341   -2.8090 H   0  0  0  0  0  0  0  0  0  0  0  0
  1  2  2  0
  2  3  1  0
  2 20  1  0
  3  4  2  3
  3 26  1  0
  4  5  1  0
  4 27  1  0
  5 19  1  0
  5  6  1  0
  6  7  1  0
  6 28  1  0
  6 29  1  0
  7  8  1  0
  7 30  1  0
  7 31  1  0
  8  9  1  0
  8 18  1  0
  9 17  1  0
  9 10  2  0
 10 11  1  0
 11 12  2  0
 11 32  1  0
 12 13  1  0
 13 17  2  0
 13 14  1  0
 14 15  1  0
 15 16  2  0
 15 33  1  0
 16 17  1  0
 16 34  1  0
 18 19  1  0
 18 35  1  0
 18 36  1  0
 19 37  1  0
 19 38  1  0
 20 25  1  0
 20 21  2  0
 21 22  1  0
 21 39  1  0
 22 23  2  0
 22 40  1  0
 23 24  1  0
 24 25  2  0
 24 41  1  0
 25 42  1  0
M  END
>  <i_m_ct_stereo_status>  (160) 
1

>  <s_m_source_file>  (160) 
/var/tmp/pbs.5102264.sched01/tmp6iaxk4q8/46_x9h2b30.sdf

>  <i_m_source_file_index>  (160) 
12

>  <i_lp_mmshare_version>  (160) 
48012

>  <i_f3d_flags>  (160) 
0

>  <s_epik_input>  (160) 
W2NIXTFbY0hdbltjSF1bY0hdYzFDKD1PKS9bQ0hdPVtDSF0vTjJbQ0gyXVtDSDJdTihbQ0gyXVtDSDJdMiljKG5bY0hdbjMpYyhjMzQpW2NIXVtjSF1zNA==

>  <s_epik_cmdline>  (160) 
J2VwaWtfcHl0aG9uJywgJy1waHQnLCAnMi4wJywgJy1waCcsICc3LjAnLCAnLXRuJywgJzgnLCAnLW1hJywgJzIwMCcsICctaW1hZScsICc8aW5maWxlLm1hZT4nLCAnLW9tYWUnLCAnPG91dGZpbGUubWFlPic=

>  <r_epik_Ionization_Penalty>  (160) 
0.0382187

>  <r_epik_Ionization_Penalty_Charging>  (160) 
2.63537e-05

>  <r_epik_Ionization_Penalty_Neutral>  (160) 
0.0381923

>  <r_epik_State_Penalty>  (160) 
0.0317627

>  <r_epik_Charging_Adjusted_Penalty>  (160) 
0.031789

>  <i_epik_Tot_Q>  (160) 
0

>  <i_epik_Tot_abs_Q>  (160) 
0

>  <s_epik_Chemistry_Notes>  (160) 
This compound has an imine and may undergo hydrolysis.

>  <s_lp_Force_Field>  (160) 
OPLS3e

>  <r_lp_Energy>  (160) 
57.4375

>  <b_lp_Chiralities_Consistent>  (160) 
1

>  <s_lp_Variant>  (160) 
41:0-2

>  <s_i_glide_gridfile>  (160) 
pfpi4k_grid

>  <i_i_glide_lignum>  (160) 
12

>  <i_i_glide_rotatable_bonds>  (160) 
4

>  <r_i_docking_score>  (160) 
-3.49836

>  <r_i_glide_ligand_efficiency>  (160) 
-0.139934

>  <r_i_glide_ligand_efficiency_sa>  (160) 
-0.409171

>  <r_i_glide_ligand_efficiency_ln>  (160) 
-0.829217

>  <r_i_glide_gscore>  (160) 
-3.49836

>  <r_i_glide_lipo>  (160) 
-0.594981

>  <r_i_glide_hbond>  (160) 
-0.0431777

>  <r_i_glide_metal>  (160) 
-0

>  <r_i_glide_rewards>  (160) 
-1.21053

>  <r_i_glide_evdw>  (160) 
-35.5468

>  <r_i_glide_ecoul>  (160) 
-2.2302

>  <r_i_glide_erotb>  (160) 
0.463304

>  <r_i_glide_esite>  (160) 
-0.0011067

>  <r_i_glide_emodel>  (160) 
-39.1499

>  <r_i_glide_energy>  (160) 
-37.777

>  <r_i_glide_einternal>  (160) 
10.7769

>  <r_i_glide_intrahb_reward>  (160) 
-0

>  <i_i_glide_confnum>  (160) 
1

>  <i_i_glide_posenum>  (160) 
37

>  <r_i_glide_eff_state_penalty>  (160) 
0

>  <ligand_id>  (160) 
41

>  <original_smiles>  (160) 
O=C(C=CN1CCN(c2ncnc3sccc23)CC1)c1ccncc1

>  <smiles>  (160) 
[H]C(C(=O)c1c([H])c([H])nc([H])c1[H])=C([H])N1C([H])([H])C([H])([H])N(c2nc([H])nc3sc([H])c([H])c23)C([H])([H])C1([H])[H]

$$$$
41:1:2
     RDKit          3D

 42 45  0  0  1  0  0  0  0  0999 V2000
    5.0311   -3.8674    0.6494 O   0  0  0  0  0  0  0  0  0  0  0  0
    5.2186   -2.7526    0.1596 C   0  0  0  0  0  0  0  0  0  0  0  0
    5.8949   -1.6945    0.9293 C   0  0  0  0  0  0  0  0  0  0  0  0
    5.2755   -0.8557    1.7810 C   0  0  0  0  0  0  0  0  0  0  0  0
    3.9270   -0.8312    2.1068 N   0  0  0  0  0  0  0  0  0  0  0  0
    3.3164   -1.7666    3.0444 C   0  0  0  0  0  0  0  0  0  0  0  0
    2.5135   -1.0368    4.1416 C   0  0  0  0  0  0  0  0  0  0  0  0
    1.6526    0.0176    3.5960 N   0  0  0  0  0  0  0  0  0  0  0  0
    0.8966    0.8592    4.4416 C   0  0  0  0  0  0  0  0  0  0  0  0
    1.3070    0.9734    5.7335 N   0  0  0  0  0  0  0  0  0  0  0  0
    0.6743    1.7863    6.5727 C   0  0  0  0  0  0  0  0  0  0  0  0
   -0.3771    2.5629    6.3251 N   0  0  0  0  0  0  0  0  0  0  0  0
   -0.8172    2.4381    5.0461 C   0  0  0  0  0  0  0  0  0  0  0  0
   -2.1920    3.3498    4.4244 S   0  0  0  0  0  0  0  0  0  0  0  0
   -2.0669    2.5705    2.8906 C   0  0  0  0  0  0  0  0  0  0  0  0
   -1.0577    1.6522    2.8035 C   0  0  0  0  0  0  0  0  0  0  0  0
   -0.2659    1.5795    4.0264 C   0  0  0  0  0  0  0  0  0  0  0  0
    1.6495    0.2067    2.1435 C   0  0  0  0  0  0  0  0  0  0  0  0
    3.0561    0.1994    1.5569 C   0  0  0  0  0  0  0  0  0  0  0  0
    4.8221   -2.4347   -1.2348 C   0  0  0  0  0  0  0  0  0  0  0  0
    4.5890   -1.0997   -1.6685 C   0  0  0  0  0  0  0  0  0  0  0  0
    4.1926   -0.8754   -2.9987 C   0  0  0  0  0  0  0  0  0  0  0  0
    4.0738   -1.8545   -3.9213 N   0  0  0  0  0  0  0  0  0  0  0  0
    4.3108   -3.1210   -3.5168 C   0  0  0  0  0  0  0  0  0  0  0  0
    4.6966   -3.4499   -2.2001 C   0  0  0  0  0  0  0  0  0  0  0  0
    6.9610   -1.5936    0.7799 H   0  0  0  0  0  0  0  0  0  0  0  0
    5.8342   -0.0948    2.3058 H   0  0  0  0  0  0  0  0  0  0  0  0
    2.6571   -2.4211    2.4740 H   0  0  0  0  0  0  0  0  0  0  0  0
    4.0942   -2.3938    3.4825 H   0  0  0  0  0  0  0  0  0  0  0  0
    1.8960   -1.7513    4.6844 H   0  0  0  0  0  0  0  0  0  0  0  0
    3.2030   -0.6020    4.8648 H   0  0  0  0  0  0  0  0  0  0  0  0
    1.0505    1.8078    7.5790 H   0  0  0  0  0  0  0  0  0  0  0  0
   -2.7638    2.8093    2.1120 H   0  0  0  0  0  0  0  0  0  0  0  0
   -0.8774    1.0692    1.9148 H   0  0  0  0  0  0  0  0  0  0  0  0
    1.0576   -0.5992    1.6957 H   0  0  0  0  0  0  0  0  0  0  0  0
    1.2441    1.1653    1.8334 H   0  0  0  0  0  0  0  0  0  0  0  0
    3.5070    1.1722    1.7632 H   0  0  0  0  0  0  0  0  0  0  0  0
    2.9821    0.1076    0.4762 H   0  0  0  0  0  0  0  0  0  0  0  0
    4.6653   -0.2633   -0.9926 H   0  0  0  0  0  0  0  0  0  0  0  0
    3.9637    0.1260   -3.3369 H   0  0  0  0  0  0  0  0  0  0  0  0
    4.2046   -3.8825   -4.2735 H   0  0  0  0  0  0  0  0  0  0  0  0
    4.8836   -4.4921   -1.9476 H   0  0  0  0  0  0  0  0  0  0  0  0
  1  2  2  0
  2  3  1  0
  2 20  1  0
  3  4  2  3
  3 26  1  0
  4  5  1  0
  4 27  1  0
  5 19  1  0
  5  6  1  0
  6  7  1  0
  6 28  1  0
  6 29  1  0
  7  8  1  0
  7 30  1  0
  7 31  1  0
  8  9  1  0
  8 18  1  0
  9 17  1  0
  9 10  2  0
 10 11  1  0
 11 12  2  0
 11 32  1  0
 12 13  1  0
 13 17  2  0
 13 14  1  0
 14 15  1  0
 15 16  2  0
 15 33  1  0
 16 17  1  0
 16 34  1  0
 18 19  1  0
 18 35  1  0
 18 36  1  0
 19 37  1  0
 19 38  1  0
 20 25  1  0
 20 21  2  0
 21 22  1  0
 21 39  1  0
 22 23  2  0
 22 40  1  0
 23 24  1  0
 24 25  2  0
 24 41  1  0
 25 42  1  0
M  END
>  <i_m_ct_stereo_status>  (161) 
1

>  <s_m_source_file>  (161) 
/var/tmp/pbs.5102264.sched01/tmp6iaxk4q8/46_x9h2b30.sdf

>  <i_m_source_file_index>  (161) 
12

>  <i_lp_mmshare_version>  (161) 
48012

>  <i_f3d_flags>  (161) 
0

>  <s_epik_input>  (161) 
W2NIXTFbY0hdbltjSF1bY0hdYzFDKD1PKS9bQ0hdPVtDSF0vTjJbQ0gyXVtDSDJdTihbQ0gyXVtDSDJdMiljKG5bY0hdbjMpYyhjMzQpW2NIXVtjSF1zNA==

>  <s_epik_cmdline>  (161) 
J2VwaWtfcHl0aG9uJywgJy1waHQnLCAnMi4wJywgJy1waCcsICc3LjAnLCAnLXRuJywgJzgnLCAnLW1hJywgJzIwMCcsICctaW1hZScsICc8aW5maWxlLm1hZT4nLCAnLW9tYWUnLCAnPG91dGZpbGUubWFlPic=

>  <r_epik_Ionization_Penalty>  (161) 
0.0382187

>  <r_epik_Ionization_Penalty_Charging>  (161) 
2.63537e-05

>  <r_epik_Ionization_Penalty_Neutral>  (161) 
0.0381923

>  <r_epik_State_Penalty>  (161) 
0.0317627

>  <r_epik_Charging_Adjusted_Penalty>  (161) 
0.031789

>  <i_epik_Tot_Q>  (161) 
0

>  <i_epik_Tot_abs_Q>  (161) 
0

>  <s_epik_Chemistry_Notes>  (161) 
This compound has an imine and may undergo hydrolysis.

>  <s_lp_Force_Field>  (161) 
OPLS3e

>  <r_lp_Energy>  (161) 
57.4375

>  <b_lp_Chiralities_Consistent>  (161) 
1

>  <s_lp_Variant>  (161) 
41:0-2

>  <s_i_glide_gridfile>  (161) 
pfpi4k_grid

>  <i_i_glide_lignum>  (161) 
12

>  <i_i_glide_rotatable_bonds>  (161) 
4

>  <r_i_docking_score>  (161) 
-3.42451

>  <r_i_glide_ligand_efficiency>  (161) 
-0.136981

>  <r_i_glide_ligand_efficiency_sa>  (161) 
-0.400534

>  <r_i_glide_ligand_efficiency_ln>  (161) 
-0.811712

>  <r_i_glide_gscore>  (161) 
-3.42451

>  <r_i_glide_lipo>  (161) 
-0.613485

>  <r_i_glide_hbond>  (161) 
-0.112274

>  <r_i_glide_metal>  (161) 
-0

>  <r_i_glide_rewards>  (161) 
-1.07339

>  <r_i_glide_evdw>  (161) 
-33.8095

>  <r_i_glide_ecoul>  (161) 
-2.61771

>  <r_i_glide_erotb>  (161) 
0.463304

>  <r_i_glide_esite>  (161) 
-0.00553401

>  <r_i_glide_emodel>  (161) 
-38.8369

>  <r_i_glide_energy>  (161) 
-36.4272

>  <r_i_glide_einternal>  (161) 
11.2302

>  <r_i_glide_intrahb_reward>  (161) 
-0

>  <i_i_glide_confnum>  (161) 
1

>  <i_i_glide_posenum>  (161) 
16

>  <r_i_glide_eff_state_penalty>  (161) 
0

>  <ligand_id>  (161) 
41

>  <original_smiles>  (161) 
O=C(C=CN1CCN(c2ncnc3sccc23)CC1)c1ccncc1

>  <smiles>  (161) 
[H]C(C(=O)c1c([H])c([H])nc([H])c1[H])=C([H])N1C([H])([H])C([H])([H])N(c2nc([H])nc3sc([H])c([H])c23)C([H])([H])C1([H])[H]

$$$$
41:2:0
     RDKit          3D

 43 46  0  0  1  0  0  0  0  0999 V2000
    6.5727   -2.3739   -0.7604 O   0  0  0  0  0  0  0  0  0  0  0  0
    5.5610   -2.9563   -1.1596 C   0  0  0  0  0  0  0  0  0  0  0  0
    5.1667   -4.2915   -0.6497 C   0  0  0  0  0  0  0  0  0  0  0  0
    5.8552   -4.9342    0.3146 C   0  0  0  0  0  0  0  0  0  0  0  0
    5.5757   -6.1878    0.8594 N   0  0  0  0  0  0  0  0  0  0  0  0
    6.3548   -6.7398    1.9692 C   0  0  0  0  0  0  0  0  0  0  0  0
    5.4672   -7.0206    3.2021 C   0  0  0  0  0  0  0  0  0  0  0  0
    4.2891   -7.8057    2.8383 N   0  0  0  0  0  0  0  0  0  0  0  0
    4.0392   -9.0834    3.3838 C   0  0  0  0  0  0  0  0  0  0  0  0
    5.0983   -9.8133    3.8231 N   0  0  0  0  0  0  0  0  0  0  0  0
    4.8917  -11.0282    4.3304 C   0  0  0  0  0  0  0  0  0  0  0  0
    3.7397  -11.6777    4.4775 N   0  0  0  0  0  0  0  0  0  0  0  0
    2.6725  -10.9389    4.0581 C   0  0  0  0  0  0  0  0  0  0  0  0
    1.0143  -11.5155    4.1519 S   0  0  0  0  0  0  0  0  0  0  0  0
    0.4230  -10.0144    3.5198 C   0  0  0  0  0  0  0  0  0  0  0  0
    1.3999   -9.0947    3.2351 C   0  0  0  0  0  0  0  0  0  0  0  0
    2.7263   -9.6167    3.5120 C   0  0  0  0  0  0  0  0  0  0  0  0
    3.5286   -7.3128    1.6925 C   0  0  0  0  0  0  0  0  0  0  0  0
    4.4438   -7.0414    0.4884 C   0  0  0  0  0  0  0  0  0  0  0  0
    4.6729   -2.3180   -2.1727 C   0  0  0  0  0  0  0  0  0  0  0  0
    3.8187   -3.0700   -3.0152 C   0  0  0  0  0  0  0  0  0  0  0  0
    2.9761   -2.4095   -3.9205 C   0  0  0  0  0  0  0  0  0  0  0  0
    3.0130   -1.0668   -4.0221 N   0  0  0  0  0  0  0  0  0  0  0  0
    3.8149   -0.3002   -3.2558 C   0  0  0  0  0  0  0  0  0  0  0  0
    4.6576   -0.9088   -2.3025 C   0  0  0  0  0  0  0  0  0  0  0  0
    4.2932   -4.7636   -1.0615 H   0  0  0  0  0  0  0  0  0  0  0  0
    6.7302   -4.4671    0.7450 H   0  0  0  0  0  0  0  0  0  0  0  0
    6.8309   -7.6622    1.6347 H   0  0  0  0  0  0  0  0  0  0  0  0
    7.1512   -6.0468    2.2407 H   0  0  0  0  0  0  0  0  0  0  0  0
    6.0489   -7.4822    4.0007 H   0  0  0  0  0  0  0  0  0  0  0  0
    5.0998   -6.0746    3.5940 H   0  0  0  0  0  0  0  0  0  0  0  0
    5.7721  -11.5433    4.6932 H   0  0  0  0  0  0  0  0  0  0  0  0
   -0.6440   -9.8956    3.4141 H   0  0  0  0  0  0  0  0  0  0  0  0
    1.2085   -8.1000    2.8578 H   0  0  0  0  0  0  0  0  0  0  0  0
    2.7658   -8.0153    1.3594 H   0  0  0  0  0  0  0  0  0  0  0  0
    3.0325   -6.3924    2.0025 H   0  0  0  0  0  0  0  0  0  0  0  0
    3.8379   -6.6155   -0.3093 H   0  0  0  0  0  0  0  0  0  0  0  0
    4.8232   -7.9870    0.0997 H   0  0  0  0  0  0  0  0  0  0  0  0
    3.7933   -4.1500   -3.0033 H   0  0  0  0  0  0  0  0  0  0  0  0
    2.2812   -2.9248   -4.5649 H   0  0  0  0  0  0  0  0  0  0  0  0
    3.7489    0.7674   -3.4069 H   0  0  0  0  0  0  0  0  0  0  0  0
    5.2856   -0.2988   -1.6732 H   0  0  0  0  0  0  0  0  0  0  0  0
    2.3866   -0.6086   -4.6887 H   0  0  0  0  0  0  0  0  0  0  0  0
  1  2  2  0
  2  3  1  0
  2 20  1  0
  3  4  2  3
  3 26  1  0
  4  5  1  0
  4 27  1  0
  5 19  1  0
  5  6  1  0
  6  7  1  0
  6 28  1  0
  6 29  1  0
  7  8  1  0
  7 30  1  0
  7 31  1  0
  8  9  1  0
  8 18  1  0
  9 17  1  0
  9 10  2  0
 10 11  1  0
 11 12  2  0
 11 32  1  0
 12 13  1  0
 13 17  2  0
 13 14  1  0
 14 15  1  0
 15 16  2  0
 15 33  1  0
 16 17  1  0
 16 34  1  0
 18 19  1  0
 18 35  1  0
 18 36  1  0
 19 37  1  0
 19 38  1  0
 20 25  1  0
 20 21  2  0
 21 22  1  0
 21 39  1  0
 22 23  2  0
 22 40  1  0
 23 24  1  0
 23 43  1  0
 24 25  2  0
 24 41  1  0
 25 42  1  0
M  CHG  1  23   1
M  END
>  <i_m_ct_stereo_status>  (162) 
1

>  <s_m_source_file>  (162) 
/var/tmp/pbs.5102264.sched01/tmp6iaxk4q8/46_x9h2b30.sdf

>  <i_m_source_file_index>  (162) 
13

>  <i_lp_mmshare_version>  (162) 
48012

>  <i_f3d_flags>  (162) 
0

>  <s_epik_input>  (162) 
W2NIXTFbY0hdbltjSF1bY0hdYzFDKD1PKS9bQ0hdPVtDSF0vTjJbQ0gyXVtDSDJdTihbQ0gyXVtDSDJdMiljKG5bY0hdbjMpYyhjMzQpW2NIXVtjSF1zNA==

>  <s_epik_cmdline>  (162) 
J2VwaWtfcHl0aG9uJywgJy1waHQnLCAnMi4wJywgJy1waCcsICc3LjAnLCAnLXRuJywgJzgnLCAnLW1hJywgJzIwMCcsICctaW1hZScsICc8aW5maWxlLm1hZT4nLCAnLW9tYWUnLCAnPG91dGZpbGUubWFlPic=

>  <r_epik_Ionization_Penalty>  (162) 
1.64788

>  <r_epik_Ionization_Penalty_Charging>  (162) 
1.64762

>  <r_epik_Ionization_Penalty_Neutral>  (162) 
0.00026196

>  <r_epik_State_Penalty>  (162) 
1.74944

>  <r_epik_Charging_Adjusted_Penalty>  (162) 
3.39706

>  <i_epik_Tot_Q>  (162) 
1

>  <i_epik_Tot_abs_Q>  (162) 
1

>  <s_epik_Chemistry_Notes>  (162) 
This compound has an imine and may undergo hydrolysis.

>  <s_lp_Force_Field>  (162) 
OPLS3e

>  <r_lp_Energy>  (162) 
59.2575

>  <b_lp_Chiralities_Consistent>  (162) 
1

>  <s_lp_Variant>  (162) 
41:0-3

>  <s_i_glide_gridfile>  (162) 
pfpi4k_grid

>  <i_i_glide_lignum>  (162) 
13

>  <i_i_glide_rotatable_bonds>  (162) 
4

>  <r_i_docking_score>  (162) 
-4.31079

>  <r_i_glide_ligand_efficiency>  (162) 
-0.172432

>  <r_i_glide_ligand_efficiency_sa>  (162) 
-0.504193

>  <r_i_glide_ligand_efficiency_ln>  (162) 
-1.02179

>  <r_i_glide_gscore>  (162) 
-4.31079

>  <r_i_glide_lipo>  (162) 
-0.897797

>  <r_i_glide_hbond>  (162) 
-0.0459299

>  <r_i_glide_metal>  (162) 
-0

>  <r_i_glide_rewards>  (162) 
-1.16693

>  <r_i_glide_evdw>  (162) 
-32.1745

>  <r_i_glide_ecoul>  (162) 
-6.96604

>  <r_i_glide_erotb>  (162) 
0.46095

>  <r_i_glide_esite>  (162) 
-0.00745261

>  <r_i_glide_emodel>  (162) 
-47.8577

>  <r_i_glide_energy>  (162) 
-39.1406

>  <r_i_glide_einternal>  (162) 
3.81324

>  <r_i_glide_intrahb_reward>  (162) 
-0

>  <i_i_glide_confnum>  (162) 
2

>  <i_i_glide_posenum>  (162) 
28

>  <r_i_glide_eff_state_penalty>  (162) 
0

>  <ligand_id>  (162) 
41

>  <original_smiles>  (162) 
O=C(C=CN1CCN(c2ncnc3sccc23)CC1)c1ccncc1

>  <smiles>  (162) 
[H]C(C(=O)c1c([H])c([H])[n+]([H])c([H])c1[H])=C([H])N1C([H])([H])C([H])([H])N(c2nc([H])nc3sc([H])c([H])c23)C([H])([H])C1([H])[H]

$$$$
41:2:1
     RDKit          3D

 43 46  0  0  1  0  0  0  0  0999 V2000
    5.7572   -1.1016   -0.3284 O   0  0  0  0  0  0  0  0  0  0  0  0
    4.8833   -1.9338   -0.5842 C   0  0  0  0  0  0  0  0  0  0  0  0
    4.5368   -3.0021    0.3827 C   0  0  0  0  0  0  0  0  0  0  0  0
    4.8659   -2.9014    1.6843 C   0  0  0  0  0  0  0  0  0  0  0  0
    4.6132   -3.8333    2.6848 N   0  0  0  0  0  0  0  0  0  0  0  0
    4.5906   -3.4632    4.0997 C   0  0  0  0  0  0  0  0  0  0  0  0
    3.2184   -3.7536    4.7472 C   0  0  0  0  0  0  0  0  0  0  0  0
    2.7793   -5.1240    4.4724 N   0  0  0  0  0  0  0  0  0  0  0  0
    2.5493   -6.0604    5.5017 C   0  0  0  0  0  0  0  0  0  0  0  0
    3.1672   -5.8711    6.6995 N   0  0  0  0  0  0  0  0  0  0  0  0
    2.9816   -6.7394    7.6926 C   0  0  0  0  0  0  0  0  0  0  0  0
    2.2449   -7.8428    7.6937 N   0  0  0  0  0  0  0  0  0  0  0  0
    1.6118   -8.0398    6.5021 C   0  0  0  0  0  0  0  0  0  0  0  0
    0.5616   -9.4203    6.1992 S   0  0  0  0  0  0  0  0  0  0  0  0
    0.1928   -8.8308    4.6121 C   0  0  0  0  0  0  0  0  0  0  0  0
    0.8165   -7.6529    4.2817 C   0  0  0  0  0  0  0  0  0  0  0  0
    1.6811   -7.1846    5.3504 C   0  0  0  0  0  0  0  0  0  0  0  0
    2.8554   -5.5349    3.0670 C   0  0  0  0  0  0  0  0  0  0  0  0
    4.2297   -5.2262    2.4573 C   0  0  0  0  0  0  0  0  0  0  0  0
    4.1578   -1.8909   -1.8880 C   0  0  0  0  0  0  0  0  0  0  0  0
    4.2219   -0.7064   -2.6647 C   0  0  0  0  0  0  0  0  0  0  0  0
    3.5353   -0.6269   -3.8919 C   0  0  0  0  0  0  0  0  0  0  0  0
    2.8197   -1.6878   -4.3134 N   0  0  0  0  0  0  0  0  0  0  0  0
    2.7121   -2.8327   -3.6132 C   0  0  0  0  0  0  0  0  0  0  0  0
    3.3796   -2.9675   -2.3844 C   0  0  0  0  0  0  0  0  0  0  0  0
    4.0022   -3.8739    0.0507 H   0  0  0  0  0  0  0  0  0  0  0  0
    5.3892   -2.0241    2.0424 H   0  0  0  0  0  0  0  0  0  0  0  0
    5.3728   -4.0218    4.6150 H   0  0  0  0  0  0  0  0  0  0  0  0
    4.8272   -2.4040    4.2018 H   0  0  0  0  0  0  0  0  0  0  0  0
    3.2381   -3.5228    5.8134 H   0  0  0  0  0  0  0  0  0  0  0  0
    2.4730   -3.0969    4.3052 H   0  0  0  0  0  0  0  0  0  0  0  0
    3.4735   -6.5042    8.6221 H   0  0  0  0  0  0  0  0  0  0  0  0
   -0.4860   -9.3997    3.9998 H   0  0  0  0  0  0  0  0  0  0  0  0
    0.6857   -7.1434    3.3378 H   0  0  0  0  0  0  0  0  0  0  0  0
    2.7068   -6.6028    2.9305 H   0  0  0  0  0  0  0  0  0  0  0  0
    2.0714   -4.9993    2.5330 H   0  0  0  0  0  0  0  0  0  0  0  0
    4.2139   -5.4830    1.3992 H   0  0  0  0  0  0  0  0  0  0  0  0
    4.9814   -5.8728    2.9093 H   0  0  0  0  0  0  0  0  0  0  0  0
    4.7900    0.1410   -2.3137 H   0  0  0  0  0  0  0  0  0  0  0  0
    3.5350    0.2443   -4.5340 H   0  0  0  0  0  0  0  0  0  0  0  0
    2.1039   -3.6100   -4.0518 H   0  0  0  0  0  0  0  0  0  0  0  0
    3.2712   -3.9103   -1.8746 H   0  0  0  0  0  0  0  0  0  0  0  0
    2.3108   -1.6406   -5.2179 H   0  0  0  0  0  0  0  0  0  0  0  0
  1  2  2  0
  2  3  1  0
  2 20  1  0
  3  4  2  3
  3 26  1  0
  4  5  1  0
  4 27  1  0
  5 19  1  0
  5  6  1  0
  6  7  1  0
  6 28  1  0
  6 29  1  0
  7  8  1  0
  7 30  1  0
  7 31  1  0
  8  9  1  0
  8 18  1  0
  9 17  1  0
  9 10  2  0
 10 11  1  0
 11 12  2  0
 11 32  1  0
 12 13  1  0
 13 17  2  0
 13 14  1  0
 14 15  1  0
 15 16  2  0
 15 33  1  0
 16 17  1  0
 16 34  1  0
 18 19  1  0
 18 35  1  0
 18 36  1  0
 19 37  1  0
 19 38  1  0
 20 25  1  0
 20 21  2  0
 21 22  1  0
 21 39  1  0
 22 23  2  0
 22 40  1  0
 23 24  1  0
 23 43  1  0
 24 25  2  0
 24 41  1  0
 25 42  1  0
M  CHG  1  23   1
M  END
>  <i_m_ct_stereo_status>  (163) 
1

>  <s_m_source_file>  (163) 
/var/tmp/pbs.5102264.sched01/tmp6iaxk4q8/46_x9h2b30.sdf

>  <i_m_source_file_index>  (163) 
13

>  <i_lp_mmshare_version>  (163) 
48012

>  <i_f3d_flags>  (163) 
0

>  <s_epik_input>  (163) 
W2NIXTFbY0hdbltjSF1bY0hdYzFDKD1PKS9bQ0hdPVtDSF0vTjJbQ0gyXVtDSDJdTihbQ0gyXVtDSDJdMiljKG5bY0hdbjMpYyhjMzQpW2NIXVtjSF1zNA==

>  <s_epik_cmdline>  (163) 
J2VwaWtfcHl0aG9uJywgJy1waHQnLCAnMi4wJywgJy1waCcsICc3LjAnLCAnLXRuJywgJzgnLCAnLW1hJywgJzIwMCcsICctaW1hZScsICc8aW5maWxlLm1hZT4nLCAnLW9tYWUnLCAnPG91dGZpbGUubWFlPic=

>  <r_epik_Ionization_Penalty>  (163) 
1.64788

>  <r_epik_Ionization_Penalty_Charging>  (163) 
1.64762

>  <r_epik_Ionization_Penalty_Neutral>  (163) 
0.00026196

>  <r_epik_State_Penalty>  (163) 
1.74944

>  <r_epik_Charging_Adjusted_Penalty>  (163) 
3.39706

>  <i_epik_Tot_Q>  (163) 
1

>  <i_epik_Tot_abs_Q>  (163) 
1

>  <s_epik_Chemistry_Notes>  (163) 
This compound has an imine and may undergo hydrolysis.

>  <s_lp_Force_Field>  (163) 
OPLS3e

>  <r_lp_Energy>  (163) 
59.2575

>  <b_lp_Chiralities_Consistent>  (163) 
1

>  <s_lp_Variant>  (163) 
41:0-3

>  <s_i_glide_gridfile>  (163) 
pfpi4k_grid

>  <i_i_glide_lignum>  (163) 
13

>  <i_i_glide_rotatable_bonds>  (163) 
4

>  <r_i_docking_score>  (163) 
-3.95345

>  <r_i_glide_ligand_efficiency>  (163) 
-0.158138

>  <r_i_glide_ligand_efficiency_sa>  (163) 
-0.462398

>  <r_i_glide_ligand_efficiency_ln>  (163) 
-0.937086

>  <r_i_glide_gscore>  (163) 
-3.95345

>  <r_i_glide_lipo>  (163) 
-0.636448

>  <r_i_glide_hbond>  (163) 
0

>  <r_i_glide_metal>  (163) 
-0

>  <r_i_glide_rewards>  (163) 
-1.03151

>  <r_i_glide_evdw>  (163) 
-25.4969

>  <r_i_glide_ecoul>  (163) 
-9.56655

>  <r_i_glide_erotb>  (163) 
0.46095

>  <r_i_glide_esite>  (163) 
-0.0366092

>  <r_i_glide_emodel>  (163) 
-42.7365

>  <r_i_glide_energy>  (163) 
-35.0634

>  <r_i_glide_einternal>  (163) 
4.02893

>  <r_i_glide_intrahb_reward>  (163) 
-0

>  <i_i_glide_confnum>  (163) 
2

>  <i_i_glide_posenum>  (163) 
1

>  <r_i_glide_eff_state_penalty>  (163) 
0

>  <ligand_id>  (163) 
41

>  <original_smiles>  (163) 
O=C(C=CN1CCN(c2ncnc3sccc23)CC1)c1ccncc1

>  <smiles>  (163) 
[H]C(C(=O)c1c([H])c([H])[n+]([H])c([H])c1[H])=C([H])N1C([H])([H])C([H])([H])N(c2nc([H])nc3sc([H])c([H])c23)C([H])([H])C1([H])[H]

$$$$
41:2:2
     RDKit          3D

 43 46  0  0  1  0  0  0  0  0999 V2000
    5.3476   -1.2250    0.2288 O   0  0  0  0  0  0  0  0  0  0  0  0
    4.3950   -1.9651   -0.0189 C   0  0  0  0  0  0  0  0  0  0  0  0
    3.7902   -2.8273    1.0323 C   0  0  0  0  0  0  0  0  0  0  0  0
    4.0229   -2.6272    2.3414 C   0  0  0  0  0  0  0  0  0  0  0  0
    3.5110   -3.3794    3.3997 N   0  0  0  0  0  0  0  0  0  0  0  0
    3.3327   -2.7950    4.7282 C   0  0  0  0  0  0  0  0  0  0  0  0
    1.8534   -2.8431    5.1894 C   0  0  0  0  0  0  0  0  0  0  0  0
    1.2926   -4.1886    5.0222 N   0  0  0  0  0  0  0  0  0  0  0  0
    0.8409   -4.9417    6.1324 C   0  0  0  0  0  0  0  0  0  0  0  0
    0.2038   -4.2429    7.1108 N   0  0  0  0  0  0  0  0  0  0  0  0
   -0.2522   -4.8744    8.1911 C   0  0  0  0  0  0  0  0  0  0  0  0
   -0.1843   -6.1634    8.4857 N   0  0  0  0  0  0  0  0  0  0  0  0
    0.4411   -6.8804    7.5043 C   0  0  0  0  0  0  0  0  0  0  0  0
    0.6307   -8.6273    7.6179 S   0  0  0  0  0  0  0  0  0  0  0  0
    1.4036   -8.6644    6.0709 C   0  0  0  0  0  0  0  0  0  0  0  0
    1.5705   -7.4398    5.4801 C   0  0  0  0  0  0  0  0  0  0  0  0
    0.9792   -6.3607    6.2755 C   0  0  0  0  0  0  0  0  0  0  0  0
    1.4710   -4.7688    3.6933 C   0  0  0  0  0  0  0  0  0  0  0  0
    2.9674   -4.7378    3.2933 C   0  0  0  0  0  0  0  0  0  0  0  0
    3.8092   -2.0152   -1.3887 C   0  0  0  0  0  0  0  0  0  0  0  0
    3.0095   -3.0887   -1.8422 C   0  0  0  0  0  0  0  0  0  0  0  0
    2.4459   -3.0553   -3.1306 C   0  0  0  0  0  0  0  0  0  0  0  0
    2.6612   -1.9945   -3.9207 N   0  0  0  0  0  0  0  0  0  0  0  0
    3.4233   -0.9438   -3.5601 C   0  0  0  0  0  0  0  0  0  0  0  0
    4.0338   -0.9347   -2.2852 C   0  0  0  0  0  0  0  0  0  0  0  0
    3.1348   -3.6326    0.7554 H   0  0  0  0  0  0  0  0  0  0  0  0
    4.6673   -1.8138    2.6593 H   0  0  0  0  0  0  0  0  0  0  0  0
    3.9629   -3.3456    5.4280 H   0  0  0  0  0  0  0  0  0  0  0  0
    3.6906   -1.7621    4.7244 H   0  0  0  0  0  0  0  0  0  0  0  0
    1.7742   -2.4697    6.2117 H   0  0  0  0  0  0  0  0  0  0  0  0
    1.2661   -2.1690    4.5645 H   0  0  0  0  0  0  0  0  0  0  0  0
   -0.8010   -4.2604    8.8932 H   0  0  0  0  0  0  0  0  0  0  0  0
    1.7320   -9.6116    5.6698 H   0  0  0  0  0  0  0  0  0  0  0  0
    2.0787   -7.3286    4.5338 H   0  0  0  0  0  0  0  0  0  0  0  0
    1.0205   -5.7530    3.6046 H   0  0  0  0  0  0  0  0  0  0  0  0
    0.9049   -4.1424    2.9997 H   0  0  0  0  0  0  0  0  0  0  0  0
    3.0868   -5.1362    2.2883 H   0  0  0  0  0  0  0  0  0  0  0  0
    3.5648   -5.3832    3.9400 H   0  0  0  0  0  0  0  0  0  0  0  0
    2.8111   -3.9739   -1.2635 H   0  0  0  0  0  0  0  0  0  0  0  0
    1.8498   -3.8565   -3.5297 H   0  0  0  0  0  0  0  0  0  0  0  0
    3.5144   -0.1440   -4.2825 H   0  0  0  0  0  0  0  0  0  0  0  0
    4.6245   -0.0835   -1.9777 H   0  0  0  0  0  0  0  0  0  0  0  0
    2.2122   -1.9886   -4.8532 H   0  0  0  0  0  0  0  0  0  0  0  0
  1  2  2  0
  2  3  1  0
  2 20  1  0
  3  4  2  3
  3 26  1  0
  4  5  1  0
  4 27  1  0
  5 19  1  0
  5  6  1  0
  6  7  1  0
  6 28  1  0
  6 29  1  0
  7  8  1  0
  7 30  1  0
  7 31  1  0
  8  9  1  0
  8 18  1  0
  9 17  1  0
  9 10  2  0
 10 11  1  0
 11 12  2  0
 11 32  1  0
 12 13  1  0
 13 17  2  0
 13 14  1  0
 14 15  1  0
 15 16  2  0
 15 33  1  0
 16 17  1  0
 16 34  1  0
 18 19  1  0
 18 35  1  0
 18 36  1  0
 19 37  1  0
 19 38  1  0
 20 25  1  0
 20 21  2  0
 21 22  1  0
 21 39  1  0
 22 23  2  0
 22 40  1  0
 23 24  1  0
 23 43  1  0
 24 25  2  0
 24 41  1  0
 25 42  1  0
M  CHG  1  23   1
M  END
>  <i_m_ct_stereo_status>  (164) 
1

>  <s_m_source_file>  (164) 
/var/tmp/pbs.5102264.sched01/tmp6iaxk4q8/46_x9h2b30.sdf

>  <i_m_source_file_index>  (164) 
13

>  <i_lp_mmshare_version>  (164) 
48012

>  <i_f3d_flags>  (164) 
0

>  <s_epik_input>  (164) 
W2NIXTFbY0hdbltjSF1bY0hdYzFDKD1PKS9bQ0hdPVtDSF0vTjJbQ0gyXVtDSDJdTihbQ0gyXVtDSDJdMiljKG5bY0hdbjMpYyhjMzQpW2NIXVtjSF1zNA==

>  <s_epik_cmdline>  (164) 
J2VwaWtfcHl0aG9uJywgJy1waHQnLCAnMi4wJywgJy1waCcsICc3LjAnLCAnLXRuJywgJzgnLCAnLW1hJywgJzIwMCcsICctaW1hZScsICc8aW5maWxlLm1hZT4nLCAnLW9tYWUnLCAnPG91dGZpbGUubWFlPic=

>  <r_epik_Ionization_Penalty>  (164) 
1.64788

>  <r_epik_Ionization_Penalty_Charging>  (164) 
1.64762

>  <r_epik_Ionization_Penalty_Neutral>  (164) 
0.00026196

>  <r_epik_State_Penalty>  (164) 
1.74944

>  <r_epik_Charging_Adjusted_Penalty>  (164) 
3.39706

>  <i_epik_Tot_Q>  (164) 
1

>  <i_epik_Tot_abs_Q>  (164) 
1

>  <s_epik_Chemistry_Notes>  (164) 
This compound has an imine and may undergo hydrolysis.

>  <s_lp_Force_Field>  (164) 
OPLS3e

>  <r_lp_Energy>  (164) 
59.2575

>  <b_lp_Chiralities_Consistent>  (164) 
1

>  <s_lp_Variant>  (164) 
41:0-3

>  <s_i_glide_gridfile>  (164) 
pfpi4k_grid

>  <i_i_glide_lignum>  (164) 
13

>  <i_i_glide_rotatable_bonds>  (164) 
4

>  <r_i_docking_score>  (164) 
-3.74896

>  <r_i_glide_ligand_efficiency>  (164) 
-0.149958

>  <r_i_glide_ligand_efficiency_sa>  (164) 
-0.438481

>  <r_i_glide_ligand_efficiency_ln>  (164) 
-0.888615

>  <r_i_glide_gscore>  (164) 
-3.74896

>  <r_i_glide_lipo>  (164) 
-0.378321

>  <r_i_glide_hbond>  (164) 
-0.0907752

>  <r_i_glide_metal>  (164) 
-0

>  <r_i_glide_rewards>  (164) 
-1.0098

>  <r_i_glide_evdw>  (164) 
-25.4304

>  <r_i_glide_ecoul>  (164) 
-9.61792

>  <r_i_glide_erotb>  (164) 
0.46095

>  <r_i_glide_esite>  (164) 
-0.0168056

>  <r_i_glide_emodel>  (164) 
-41.6298

>  <r_i_glide_energy>  (164) 
-35.0483

>  <r_i_glide_einternal>  (164) 
5.23227

>  <r_i_glide_intrahb_reward>  (164) 
-0

>  <i_i_glide_confnum>  (164) 
2

>  <i_i_glide_posenum>  (164) 
33

>  <r_i_glide_eff_state_penalty>  (164) 
0

>  <ligand_id>  (164) 
41

>  <original_smiles>  (164) 
O=C(C=CN1CCN(c2ncnc3sccc23)CC1)c1ccncc1

>  <smiles>  (164) 
[H]C(C(=O)c1c([H])c([H])[n+]([H])c([H])c1[H])=C([H])N1C([H])([H])C([H])([H])N(c2nc([H])nc3sc([H])c([H])c23)C([H])([H])C1([H])[H]

$$$$
41:3:0
     RDKit          3D

 43 46  0  0  1  0  0  0  0  0999 V2000
    6.0629   -1.1957   -0.3193 O   0  0  0  0  0  0  0  0  0  0  0  0
    5.7080   -2.1867   -0.9590 C   0  0  0  0  0  0  0  0  0  0  0  0
    6.4164   -3.4675   -0.7866 C   0  0  0  0  0  0  0  0  0  0  0  0
    5.9384   -4.5303   -0.1021 C   0  0  0  0  0  0  0  0  0  0  0  0
    4.7434   -4.6807    0.5968 N   0  0  0  0  0  0  0  0  0  0  0  0
    4.0131   -5.9489    0.5980 C   0  0  0  0  0  0  0  0  0  0  0  0
    3.9277   -6.5469    2.0278 C   0  0  0  0  0  0  0  0  0  0  0  0
    3.3782   -5.5523    2.9510 N   0  0  0  0  0  0  0  0  0  0  0  0
    2.1631   -5.7192    3.6444 C   0  0  0  0  0  0  0  0  0  0  0  0
    2.0461   -5.0332    4.8113 N   0  0  0  0  0  0  0  0  0  0  0  0
    0.9276   -5.1346    5.5332 C   0  0  0  0  0  0  0  0  0  0  0  0
   -0.1683   -5.8440    5.2607 N   0  0  0  0  0  0  0  0  0  0  0  0
   -0.0632   -6.5250    4.0863 C   0  0  0  0  0  0  0  0  0  0  0  0
   -1.3946   -7.4931    3.4688 S   0  0  0  0  0  0  0  0  0  0  0  0
   -0.4429   -7.9368    2.0906 C   0  0  0  0  0  0  0  0  0  0  0  0
    0.8028   -7.3616    2.0365 C   0  0  0  0  0  0  0  0  0  0  0  0
    1.0670   -6.5264    3.2007 C   0  0  0  0  0  0  0  0  0  0  0  0
    4.0965   -4.2745    2.9696 C   0  0  0  0  0  0  0  0  0  0  0  0
    4.2194   -3.6937    1.5417 C   0  0  0  0  0  0  0  0  0  0  0  0
    4.6213   -2.1084   -1.9741 C   0  0  0  0  0  0  0  0  0  0  0  0
    4.0006   -3.2646   -2.5075 C   0  0  0  0  0  0  0  0  0  0  0  0
    2.9950   -3.1343   -3.4790 C   0  0  0  0  0  0  0  0  0  0  0  0
    2.6489   -1.9121   -3.9190 N   0  0  0  0  0  0  0  0  0  0  0  0
    3.2089   -0.7760   -3.4568 C   0  0  0  0  0  0  0  0  0  0  0  0
    4.2095   -0.8456   -2.4722 C   0  0  0  0  0  0  0  0  0  0  0  0
    7.3878   -3.5347   -1.2539 H   0  0  0  0  0  0  0  0  0  0  0  0
    6.5413   -5.4279   -0.0442 H   0  0  0  0  0  0  0  0  0  0  0  0
    3.0196   -5.7592    0.1898 H   0  0  0  0  0  0  0  0  0  0  0  0
    4.4998   -6.6570   -0.0728 H   0  0  0  0  0  0  0  0  0  0  0  0
    3.3720   -7.4896    2.0542 H   0  0  0  0  0  0  0  0  0  0  0  0
    4.9362   -6.7927    2.3738 H   0  0  0  0  0  0  0  0  0  0  0  0
    0.9322   -4.5984    6.4777 H   0  0  0  0  0  0  0  0  0  0  0  0
   -0.8500   -8.6319    1.3690 H   0  0  0  0  0  0  0  0  0  0  0  0
    1.4914   -7.5446    1.2212 H   0  0  0  0  0  0  0  0  0  0  0  0
    3.6308   -3.5317    3.6182 H   0  0  0  0  0  0  0  0  0  0  0  0
    5.0939   -4.4536    3.3767 H   0  0  0  0  0  0  0  0  0  0  0  0
    4.8631   -2.8125    1.5768 H   0  0  0  0  0  0  0  0  0  0  0  0
    3.2423   -3.3680    1.1848 H   0  0  0  0  0  0  0  0  0  0  0  0
    4.2553   -4.2576   -2.1678 H   0  0  0  0  0  0  0  0  0  0  0  0
    2.4691   -3.9728   -3.9143 H   0  0  0  0  0  0  0  0  0  0  0  0
    2.8372    0.1502   -3.8775 H   0  0  0  0  0  0  0  0  0  0  0  0
    4.6450    0.0647   -2.0888 H   0  0  0  0  0  0  0  0  0  0  0  0
    1.9183   -1.8477   -4.6368 H   0  0  0  0  0  0  0  0  0  0  0  0
  1  2  2  0
  2  3  1  0
  2 20  1  0
  3  4  2  3
  3 26  1  0
  4  5  1  0
  4 27  1  0
  5 19  1  0
  5  6  1  0
  6  7  1  0
  6 28  1  0
  6 29  1  0
  7  8  1  0
  7 30  1  0
  7 31  1  0
  8  9  1  0
  8 18  1  0
  9 17  1  0
  9 10  2  0
 10 11  1  0
 11 12  2  0
 11 32  1  0
 12 13  1  0
 13 17  2  0
 13 14  1  0
 14 15  1  0
 15 16  2  0
 15 33  1  0
 16 17  1  0
 16 34  1  0
 18 19  1  0
 18 35  1  0
 18 36  1  0
 19 37  1  0
 19 38  1  0
 20 25  1  0
 20 21  2  0
 21 22  1  0
 21 39  1  0
 22 23  2  0
 22 40  1  0
 23 24  1  0
 23 43  1  0
 24 25  2  0
 24 41  1  0
 25 42  1  0
M  CHG  1  23   1
M  END
>  <i_m_ct_stereo_status>  (165) 
1

>  <s_m_source_file>  (165) 
/var/tmp/pbs.5102264.sched01/tmp6iaxk4q8/46_x9h2b30.sdf

>  <i_m_source_file_index>  (165) 
14

>  <i_lp_mmshare_version>  (165) 
48012

>  <i_f3d_flags>  (165) 
0

>  <s_epik_input>  (165) 
W2NIXTFbY0hdbltjSF1bY0hdYzFDKD1PKS9bQ0hdPVtDSF0vTjJbQ0gyXVtDSDJdTihbQ0gyXVtDSDJdMiljKG5bY0hdbjMpYyhjMzQpW2NIXVtjSF1zNA==

>  <s_epik_cmdline>  (165) 
J2VwaWtfcHl0aG9uJywgJy1waHQnLCAnMi4wJywgJy1waCcsICc3LjAnLCAnLXRuJywgJzgnLCAnLW1hJywgJzIwMCcsICctaW1hZScsICc8aW5maWxlLm1hZT4nLCAnLW9tYWUnLCAnPG91dGZpbGUubWFlPic=

>  <r_epik_Ionization_Penalty>  (165) 
1.64788

>  <r_epik_Ionization_Penalty_Charging>  (165) 
1.64762

>  <r_epik_Ionization_Penalty_Neutral>  (165) 
0.00026196

>  <r_epik_State_Penalty>  (165) 
1.74944

>  <r_epik_Charging_Adjusted_Penalty>  (165) 
3.39706

>  <i_epik_Tot_Q>  (165) 
1

>  <i_epik_Tot_abs_Q>  (165) 
1

>  <s_epik_Chemistry_Notes>  (165) 
This compound has an imine and may undergo hydrolysis.

>  <s_lp_Force_Field>  (165) 
OPLS3e

>  <r_lp_Energy>  (165) 
62.5452

>  <b_lp_Chiralities_Consistent>  (165) 
1

>  <s_lp_Variant>  (165) 
41:0-4

>  <s_i_glide_gridfile>  (165) 
pfpi4k_grid

>  <i_i_glide_lignum>  (165) 
14

>  <i_i_glide_rotatable_bonds>  (165) 
4

>  <r_i_docking_score>  (165) 
-4.13842

>  <r_i_glide_ligand_efficiency>  (165) 
-0.165537

>  <r_i_glide_ligand_efficiency_sa>  (165) 
-0.484032

>  <r_i_glide_ligand_efficiency_ln>  (165) 
-0.980929

>  <r_i_glide_gscore>  (165) 
-4.13842

>  <r_i_glide_lipo>  (165) 
-0.652991

>  <r_i_glide_hbond>  (165) 
-0.0391936

>  <r_i_glide_metal>  (165) 
-0

>  <r_i_glide_rewards>  (165) 
-1.07391

>  <r_i_glide_evdw>  (165) 
-32.0907

>  <r_i_glide_ecoul>  (165) 
-7.97132

>  <r_i_glide_erotb>  (165) 
0.46095

>  <r_i_glide_esite>  (165) 
-0.0330376

>  <r_i_glide_emodel>  (165) 
-46.6115

>  <r_i_glide_energy>  (165) 
-40.062

>  <r_i_glide_einternal>  (165) 
8.44158

>  <r_i_glide_intrahb_reward>  (165) 
-0

>  <i_i_glide_confnum>  (165) 
2

>  <i_i_glide_posenum>  (165) 
39

>  <r_i_glide_eff_state_penalty>  (165) 
0

>  <ligand_id>  (165) 
41

>  <original_smiles>  (165) 
O=C(C=CN1CCN(c2ncnc3sccc23)CC1)c1ccncc1

>  <smiles>  (165) 
[H]C(C(=O)c1c([H])c([H])[n+]([H])c([H])c1[H])=C([H])N1C([H])([H])C([H])([H])N(c2nc([H])nc3sc([H])c([H])c23)C([H])([H])C1([H])[H]

$$$$
42:0:0
     RDKit          3D

 43 46  0  0  1  0  0  0  0  0999 V2000
   -1.8078   -0.4748    5.2144 C   0  0  0  0  0  0  0  0  0  0  0  0
   -1.1128    0.8643    5.4968 C   0  0  2  0  0  0  0  0  0  0  0  0
    0.1872    0.7591    4.9307 O   0  0  0  0  0  0  0  0  0  0  0  0
    0.8911    1.9854    4.7729 C   0  0  2  0  0  0  0  0  0  0  0  0
    0.3498    2.7831    3.5539 C   0  0  0  0  0  0  0  0  0  0  0  0
    1.4152    2.9422    2.5232 N   0  0  2  0  0  0  0  0  0  0  0  0
    1.8850    1.6011    2.0774 C   0  0  0  0  0  0  0  0  0  0  0  0
    2.5285    0.8336    3.2599 C   0  0  0  0  0  0  0  0  0  0  0  0
    2.3901    1.6729    4.5498 C   0  0  1  0  0  0  0  0  0  0  0  0
    3.1295    3.0142    4.3206 C   0  0  0  0  0  0  0  0  0  0  0  0
    2.5468    3.7346    3.0747 C   0  0  0  0  0  0  0  0  0  0  0  0
   -1.0548    1.1861    6.9662 C   0  0  0  0  0  0  0  0  0  0  0  0
   -0.2482    0.4681    7.8579 N   0  0  0  0  0  0  0  0  0  0  0  0
   -0.3676    0.9673    9.0571 N   0  0  0  0  0  0  0  0  0  0  0  0
   -1.2582    1.9784    8.9548 N   0  0  0  0  0  0  0  0  0  0  0  0
   -1.6886    2.1634    7.6777 C   0  0  0  0  0  0  0  0  0  0  0  0
   -2.6446    3.2751    7.4289 C   0  0  0  0  0  0  0  0  0  0  0  0
   -3.6108    3.1990    8.4789 O   0  0  0  0  0  0  0  0  0  0  0  0
   -3.1428    3.2415    9.8438 C   0  0  0  0  0  0  0  0  0  0  0  0
   -1.6704    2.8070   10.0608 C   0  0  0  0  0  0  0  0  0  0  0  0
   -2.8232   -0.4811    5.6057 H   0  0  0  0  0  0  0  0  0  0  0  0
   -1.2640   -1.3126    5.6521 H   0  0  0  0  0  0  0  0  0  0  0  0
   -1.8772   -0.6504    4.1408 H   0  0  0  0  0  0  0  0  0  0  0  0
   -1.6801    1.6364    4.9733 H   0  0  0  0  0  0  0  0  0  0  0  0
    0.8088    2.5842    5.6804 H   0  0  0  0  0  0  0  0  0  0  0  0
   -0.5156    2.3068    3.0904 H   0  0  0  0  0  0  0  0  0  0  0  0
    0.0211    3.7727    3.8712 H   0  0  0  0  0  0  0  0  0  0  0  0
    1.0589    1.0342    1.6468 H   0  0  0  0  0  0  0  0  0  0  0  0
    2.6108    1.7165    1.2797 H   0  0  0  0  0  0  0  0  0  0  0  0
    2.0565   -0.1428    3.3791 H   0  0  0  0  0  0  0  0  0  0  0  0
    3.5803    0.6297    3.0564 H   0  0  0  0  0  0  0  0  0  0  0  0
    2.8098    1.1402    5.4039 H   0  0  0  0  0  0  0  0  0  0  0  0
    3.0526    3.6526    5.2012 H   0  0  0  0  0  0  0  0  0  0  0  0
    4.1921    2.8253    4.1776 H   0  0  0  0  0  0  0  0  0  0  0  0
    3.3145    3.8737    2.3104 H   0  0  0  0  0  0  0  0  0  0  0  0
    2.2101    4.7402    3.3332 H   0  0  0  0  0  0  0  0  0  0  0  0
   -2.1207    4.2278    7.4696 H   0  0  0  0  0  0  0  0  0  0  0  0
   -3.1252    3.1874    6.4570 H   0  0  0  0  0  0  0  0  0  0  0  0
   -3.3031    4.2306   10.2742 H   0  0  0  0  0  0  0  0  0  0  0  0
   -3.7818    2.5627   10.4090 H   0  0  0  0  0  0  0  0  0  0  0  0
   -1.5234    2.2864   11.0098 H   0  0  0  0  0  0  0  0  0  0  0  0
   -1.0224    3.6874   10.0575 H   0  0  0  0  0  0  0  0  0  0  0  0
    0.9951    3.4662    1.7447 H   0  0  0  0  0  0  0  0  0  0  0  0
  1  2  1  0
  1 21  1  0
  1 22  1  0
  1 23  1  0
  2  3  1  0
  2 12  1  0
  2 24  1  6
  3  4  1  0
  4  9  1  0
  4  5  1  0
  4 25  1  1
  5  6  1  0
  5 26  1  0
  5 27  1  0
  6 11  1  0
  6  7  1  0
  6 43  1  6
  7  8  1  0
  7 28  1  0
  7 29  1  0
  8  9  1  0
  8 30  1  0
  8 31  1  0
  9 10  1  0
  9 32  1  1
 10 11  1  0
 10 33  1  0
 10 34  1  0
 11 35  1  0
 11 36  1  0
 12 16  2  0
 12 13  1  0
 13 14  2  0
 14 15  1  0
 15 20  1  0
 15 16  1  0
 16 17  1  0
 17 18  1  0
 17 37  1  0
 17 38  1  0
 18 19  1  0
 19 20  1  0
 19 39  1  0
 19 40  1  0
 20 41  1  0
 20 42  1  0
M  CHG  1   6   1
M  END
>  <i_m_ct_stereo_status>  (166) 
1

>  <s_m_source_file>  (166) 
/var/tmp/pbs.5102264.sched01/tmp6iaxk4q8/46_x9h2b30.sdf

>  <i_m_source_file_index>  (166) 
15

>  <i_lp_mmshare_version>  (166) 
48012

>  <i_f3d_flags>  (166) 
0

>  <s_epik_input>  (166) 
W0NIMl0xW0NIMl1bQ0hdKFtDSDJdW0NIMl0yKVtDQEBIXShbQ0gyXU4xMilPW0NAQEhdKFtDSDNdKWMobm4zKWMobjM0KVtDSDJdT1tDSDJdW0NIMl00

>  <s_epik_cmdline>  (166) 
J2VwaWtfcHl0aG9uJywgJy1waHQnLCAnMi4wJywgJy1waCcsICc3LjAnLCAnLXRuJywgJzgnLCAnLW1hJywgJzIwMCcsICctaW1hZScsICc8aW5maWxlLm1hZT4nLCAnLW9tYWUnLCAnPG91dGZpbGUubWFlPic=

>  <r_lp_tautomer_probability>  (166) 
1

>  <r_epik_Ionization_Penalty>  (166) 
0.00127088

>  <r_epik_Ionization_Penalty_Charging>  (166) 
0.00126474

>  <r_epik_Ionization_Penalty_Neutral>  (166) 
6.1416e-06

>  <r_epik_State_Penalty>  (166) 
0.000837604

>  <r_epik_Charging_Adjusted_Penalty>  (166) 
0.00210234

>  <i_epik_Tot_Q>  (166) 
1

>  <i_epik_Tot_abs_Q>  (166) 
1

>  <s_lp_Force_Field>  (166) 
OPLS3e

>  <r_lp_Energy>  (166) 
31.0539

>  <b_lp_Chiralities_Consistent>  (166) 
1

>  <s_lp_Variant>  (166) 
42:0-1

>  <s_i_glide_gridfile>  (166) 
pfpi4k_grid

>  <i_i_glide_lignum>  (166) 
15

>  <i_i_glide_rotatable_bonds>  (166) 
3

>  <r_i_docking_score>  (166) 
-3.47833

>  <r_i_glide_ligand_efficiency>  (166) 
-0.173917

>  <r_i_glide_ligand_efficiency_sa>  (166) 
-0.472083

>  <r_i_glide_ligand_efficiency_ln>  (166) 
-0.870512

>  <r_i_glide_gscore>  (166) 
-3.47833

>  <r_i_glide_lipo>  (166) 
-0.133007

>  <r_i_glide_hbond>  (166) 
-0.2

>  <r_i_glide_metal>  (166) 
-0

>  <r_i_glide_rewards>  (166) 
-1.50438

>  <r_i_glide_evdw>  (166) 
-21.7306

>  <r_i_glide_ecoul>  (166) 
-6.87624

>  <r_i_glide_erotb>  (166) 
0.693549

>  <r_i_glide_esite>  (166) 
-0.216533

>  <r_i_glide_emodel>  (166) 
-36.7853

>  <r_i_glide_energy>  (166) 
-28.6069

>  <r_i_glide_einternal>  (166) 
0.295909

>  <r_i_glide_intrahb_reward>  (166) 
-0

>  <i_i_glide_confnum>  (166) 
4

>  <i_i_glide_posenum>  (166) 
15

>  <r_i_glide_eff_state_penalty>  (166) 
0

>  <ligand_id>  (166) 
42

>  <original_smiles>  (166) 
CC(OC1CN2CCC1CC2)c1nnn2c1COCC2

>  <smiles>  (166) 
[H]C1([H])OC([H])([H])C([H])([H])n2nnc(C([H])(OC3([H])C4([H])C([H])([H])C([H])([H])[N+]([H])(C([H])([H])C4([H])[H])C3([H])[H])C([H])([H])[H])c21

$$$$
42:0:1
     RDKit          3D

 43 46  0  0  1  0  0  0  0  0999 V2000
    4.2714   -8.8423    0.9059 C   0  0  0  0  0  0  0  0  0  0  0  0
    3.6815   -7.8343    1.9108 C   0  0  2  0  0  0  0  0  0  0  0  0
    2.3849   -8.2765    2.3301 O   0  0  0  0  0  0  0  0  0  0  0  0
    2.2286   -9.5846    2.9051 C   0  0  2  0  0  0  0  0  0  0  0  0
    0.7298   -9.9638    2.7955 C   0  0  0  0  0  0  0  0  0  0  0  0
    0.2168  -10.3196    4.1402 N   0  0  2  0  0  0  0  0  0  0  0  0
    0.2984   -9.1346    5.0352 C   0  0  0  0  0  0  0  0  0  0  0  0
    1.7892   -8.7239    5.2412 C   0  0  0  0  0  0  0  0  0  0  0  0
    2.6872   -9.6354    4.3893 C   0  0  1  0  0  0  0  0  0  0  0  0
    2.4730  -11.0926    4.8600 C   0  0  0  0  0  0  0  0  0  0  0  0
    0.9761  -11.4616    4.7131 C   0  0  0  0  0  0  0  0  0  0  0  0
    3.5820   -6.4364    1.3035 C   0  0  0  0  0  0  0  0  0  0  0  0
    2.3921   -5.9255    0.7406 N   0  0  0  0  0  0  0  0  0  0  0  0
    2.6186   -4.7540    0.2215 N   0  0  0  0  0  0  0  0  0  0  0  0
    3.9169   -4.4846    0.4332 N   0  0  0  0  0  0  0  0  0  0  0  0
    4.5555   -5.4858    1.1213 C   0  0  0  0  0  0  0  0  0  0  0  0
    5.9963   -5.3029    1.4214 C   0  0  0  0  0  0  0  0  0  0  0  0
    6.5974   -4.7624    0.2395 O   0  0  0  0  0  0  0  0  0  0  0  0
    6.0418   -3.5581   -0.3285 C   0  0  0  0  0  0  0  0  0  0  0  0
    4.5708   -3.2590    0.0456 C   0  0  0  0  0  0  0  0  0  0  0  0
    5.1635   -8.4573    0.4078 H   0  0  0  0  0  0  0  0  0  0  0  0
    3.5424   -9.0738    0.1401 H   0  0  0  0  0  0  0  0  0  0  0  0
    4.5172   -9.8002    1.3705 H   0  0  0  0  0  0  0  0  0  0  0  0
    4.3270   -7.7679    2.7832 H   0  0  0  0  0  0  0  0  0  0  0  0
    2.7689  -10.3497    2.3415 H   0  0  0  0  0  0  0  0  0  0  0  0
    0.1272   -9.2122    2.2869 H   0  0  0  0  0  0  0  0  0  0  0  0
    0.6699  -10.8487    2.1694 H   0  0  0  0  0  0  0  0  0  0  0  0
   -0.2708   -8.3145    4.5899 H   0  0  0  0  0  0  0  0  0  0  0  0
   -0.1777   -9.3757    5.9897 H   0  0  0  0  0  0  0  0  0  0  0  0
    1.9331   -7.6789    4.9536 H   0  0  0  0  0  0  0  0  0  0  0  0
    2.0571   -8.7903    6.3006 H   0  0  0  0  0  0  0  0  0  0  0  0
    3.7345   -9.3619    4.4982 H   0  0  0  0  0  0  0  0  0  0  0  0
    3.0917  -11.7781    4.2775 H   0  0  0  0  0  0  0  0  0  0  0  0
    2.7916  -11.2244    5.8949 H   0  0  0  0  0  0  0  0  0  0  0  0
    0.5394  -11.7078    5.6791 H   0  0  0  0  0  0  0  0  0  0  0  0
    0.8606  -12.3513    4.0900 H   0  0  0  0  0  0  0  0  0  0  0  0
    6.1089   -4.6010    2.2441 H   0  0  0  0  0  0  0  0  0  0  0  0
    6.4749   -6.2412    1.6990 H   0  0  0  0  0  0  0  0  0  0  0  0
    6.6597   -2.6949   -0.0834 H   0  0  0  0  0  0  0  0  0  0  0  0
    6.0946   -3.6707   -1.4114 H   0  0  0  0  0  0  0  0  0  0  0  0
    4.0038   -2.7801   -0.7611 H   0  0  0  0  0  0  0  0  0  0  0  0
    4.5330   -2.6020    0.9204 H   0  0  0  0  0  0  0  0  0  0  0  0
   -0.7668  -10.6201    4.1022 H   0  0  0  0  0  0  0  0  0  0  0  0
  1  2  1  0
  1 21  1  0
  1 22  1  0
  1 23  1  0
  2  3  1  0
  2 12  1  0
  2 24  1  1
  3  4  1  0
  4  9  1  0
  4  5  1  0
  4 25  1  6
  5  6  1  0
  5 26  1  0
  5 27  1  0
  6 11  1  0
  6  7  1  0
  6 43  1  6
  7  8  1  0
  7 28  1  0
  7 29  1  0
  8  9  1  0
  8 30  1  0
  8 31  1  0
  9 10  1  0
  9 32  1  6
 10 11  1  0
 10 33  1  0
 10 34  1  0
 11 35  1  0
 11 36  1  0
 12 16  2  0
 12 13  1  0
 13 14  2  0
 14 15  1  0
 15 20  1  0
 15 16  1  0
 16 17  1  0
 17 18  1  0
 17 37  1  0
 17 38  1  0
 18 19  1  0
 19 20  1  0
 19 39  1  0
 19 40  1  0
 20 41  1  0
 20 42  1  0
M  CHG  1   6   1
M  END
>  <i_m_ct_stereo_status>  (167) 
1

>  <s_m_source_file>  (167) 
/var/tmp/pbs.5102264.sched01/tmp6iaxk4q8/46_x9h2b30.sdf

>  <i_m_source_file_index>  (167) 
15

>  <i_lp_mmshare_version>  (167) 
48012

>  <i_f3d_flags>  (167) 
0

>  <s_epik_input>  (167) 
W0NIMl0xW0NIMl1bQ0hdKFtDSDJdW0NIMl0yKVtDQEBIXShbQ0gyXU4xMilPW0NAQEhdKFtDSDNdKWMobm4zKWMobjM0KVtDSDJdT1tDSDJdW0NIMl00

>  <s_epik_cmdline>  (167) 
J2VwaWtfcHl0aG9uJywgJy1waHQnLCAnMi4wJywgJy1waCcsICc3LjAnLCAnLXRuJywgJzgnLCAnLW1hJywgJzIwMCcsICctaW1hZScsICc8aW5maWxlLm1hZT4nLCAnLW9tYWUnLCAnPG91dGZpbGUubWFlPic=

>  <r_lp_tautomer_probability>  (167) 
1

>  <r_epik_Ionization_Penalty>  (167) 
0.00127088

>  <r_epik_Ionization_Penalty_Charging>  (167) 
0.00126474

>  <r_epik_Ionization_Penalty_Neutral>  (167) 
6.1416e-06

>  <r_epik_State_Penalty>  (167) 
0.000837604

>  <r_epik_Charging_Adjusted_Penalty>  (167) 
0.00210234

>  <i_epik_Tot_Q>  (167) 
1

>  <i_epik_Tot_abs_Q>  (167) 
1

>  <s_lp_Force_Field>  (167) 
OPLS3e

>  <r_lp_Energy>  (167) 
31.0539

>  <b_lp_Chiralities_Consistent>  (167) 
1

>  <s_lp_Variant>  (167) 
42:0-1

>  <s_i_glide_gridfile>  (167) 
pfpi4k_grid

>  <i_i_glide_lignum>  (167) 
15

>  <i_i_glide_rotatable_bonds>  (167) 
3

>  <r_i_docking_score>  (167) 
-3.46545

>  <r_i_glide_ligand_efficiency>  (167) 
-0.173272

>  <r_i_glide_ligand_efficiency_sa>  (167) 
-0.470334

>  <r_i_glide_ligand_efficiency_ln>  (167) 
-0.867288

>  <r_i_glide_gscore>  (167) 
-3.46545

>  <r_i_glide_lipo>  (167) 
-0.383164

>  <r_i_glide_hbond>  (167) 
-0.175961

>  <r_i_glide_metal>  (167) 
-0

>  <r_i_glide_rewards>  (167) 
-1.52529

>  <r_i_glide_evdw>  (167) 
-21.8414

>  <r_i_glide_ecoul>  (167) 
-5.51352

>  <r_i_glide_erotb>  (167) 
0.693549

>  <r_i_glide_esite>  (167) 
-0.15549

>  <r_i_glide_emodel>  (167) 
-33.9532

>  <r_i_glide_energy>  (167) 
-27.3549

>  <r_i_glide_einternal>  (167) 
3.00612

>  <r_i_glide_intrahb_reward>  (167) 
-0

>  <i_i_glide_confnum>  (167) 
3

>  <i_i_glide_posenum>  (167) 
36

>  <r_i_glide_eff_state_penalty>  (167) 
0

>  <ligand_id>  (167) 
42

>  <original_smiles>  (167) 
CC(OC1CN2CCC1CC2)c1nnn2c1COCC2

>  <smiles>  (167) 
[H]C1([H])OC([H])([H])C([H])([H])n2nnc(C([H])(OC3([H])C4([H])C([H])([H])C([H])([H])[N+]([H])(C([H])([H])C4([H])[H])C3([H])[H])C([H])([H])[H])c21

$$$$
42:0:2
     RDKit          3D

 43 46  0  0  1  0  0  0  0  0999 V2000
    4.4241   -8.1897    1.0680 C   0  0  0  0  0  0  0  0  0  0  0  0
    3.6367   -7.1230    1.8586 C   0  0  2  0  0  0  0  0  0  0  0  0
    2.3932   -7.6658    2.3058 O   0  0  0  0  0  0  0  0  0  0  0  0
    2.4575   -8.7631    3.2163 C   0  0  2  0  0  0  0  0  0  0  0  0
    2.1268  -10.0948    2.4798 C   0  0  0  0  0  0  0  0  0  0  0  0
    0.8955  -10.7116    3.0428 N   0  0  2  0  0  0  0  0  0  0  0  0
   -0.2522   -9.7706    2.9104 C   0  0  0  0  0  0  0  0  0  0  0  0
    0.0196   -8.4723    3.7113 C   0  0  0  0  0  0  0  0  0  0  0  0
    1.4284   -8.5426    4.3439 C   0  0  1  0  0  0  0  0  0  0  0  0
    1.4705   -9.7795    5.2714 C   0  0  0  0  0  0  0  0  0  0  0  0
    1.1139  -11.0610    4.4734 C   0  0  0  0  0  0  0  0  0  0  0  0
    3.4133   -5.8644    1.0451 C   0  0  0  0  0  0  0  0  0  0  0  0
    2.1784   -5.5459    0.4570 N   0  0  0  0  0  0  0  0  0  0  0  0
    2.2812   -4.4423   -0.2248 N   0  0  0  0  0  0  0  0  0  0  0  0
    3.5586   -4.0304   -0.0787 N   0  0  0  0  0  0  0  0  0  0  0  0
    4.2935   -4.8718    0.7042 C   0  0  0  0  0  0  0  0  0  0  0  0
    5.7185   -4.5202    0.9427 C   0  0  0  0  0  0  0  0  0  0  0  0
    6.2506   -4.0942   -0.3138 O   0  0  0  0  0  0  0  0  0  0  0  0
    5.5701   -3.0286   -1.0198 C   0  0  0  0  0  0  0  0  0  0  0  0
    4.0788   -2.8122   -0.6409 C   0  0  0  0  0  0  0  0  0  0  0  0
    5.3823   -7.8048    0.7200 H   0  0  0  0  0  0  0  0  0  0  0  0
    3.8681   -8.5468    0.2008 H   0  0  0  0  0  0  0  0  0  0  0  0
    4.6532   -9.0656    1.6732 H   0  0  0  0  0  0  0  0  0  0  0  0
    4.2011   -6.8402    2.7446 H   0  0  0  0  0  0  0  0  0  0  0  0
    3.4453   -8.8315    3.6787 H   0  0  0  0  0  0  0  0  0  0  0  0
    2.0059   -9.9260    1.4083 H   0  0  0  0  0  0  0  0  0  0  0  0
    2.9553  -10.7957    2.5742 H   0  0  0  0  0  0  0  0  0  0  0  0
   -0.4343   -9.5357    1.8634 H   0  0  0  0  0  0  0  0  0  0  0  0
   -1.1582  -10.2501    3.2698 H   0  0  0  0  0  0  0  0  0  0  0  0
   -0.0718   -7.6011    3.0611 H   0  0  0  0  0  0  0  0  0  0  0  0
   -0.7319   -8.3498    4.4920 H   0  0  0  0  0  0  0  0  0  0  0  0
    1.6579   -7.6300    4.8910 H   0  0  0  0  0  0  0  0  0  0  0  0
    2.4592   -9.8882    5.7243 H   0  0  0  0  0  0  0  0  0  0  0  0
    0.7712   -9.6555    6.0973 H   0  0  0  0  0  0  0  0  0  0  0  0
    0.2197  -11.5337    4.8826 H   0  0  0  0  0  0  0  0  0  0  0  0
    1.9059  -11.8032    4.5596 H   0  0  0  0  0  0  0  0  0  0  0  0
    5.7891   -3.7069    1.6669 H   0  0  0  0  0  0  0  0  0  0  0  0
    6.2848   -5.3681    1.3268 H   0  0  0  0  0  0  0  0  0  0  0  0
    6.1192   -2.0939   -0.9062 H   0  0  0  0  0  0  0  0  0  0  0  0
    5.6215   -3.2788   -2.0820 H   0  0  0  0  0  0  0  0  0  0  0  0
    3.4701   -2.4884   -1.4880 H   0  0  0  0  0  0  0  0  0  0  0  0
    4.0104   -2.0454    0.1353 H   0  0  0  0  0  0  0  0  0  0  0  0
    0.6934  -11.5591    2.5326 H   0  0  0  0  0  0  0  0  0  0  0  0
  1  2  1  0
  1 21  1  0
  1 22  1  0
  1 23  1  0
  2  3  1  0
  2 12  1  0
  2 24  1  1
  3  4  1  0
  4  9  1  0
  4  5  1  0
  4 25  1  1
  5  6  1  0
  5 26  1  0
  5 27  1  0
  6 11  1  0
  6  7  1  0
  6 43  1  6
  7  8  1  0
  7 28  1  0
  7 29  1  0
  8  9  1  0
  8 30  1  0
  8 31  1  0
  9 10  1  0
  9 32  1  1
 10 11  1  0
 10 33  1  0
 10 34  1  0
 11 35  1  0
 11 36  1  0
 12 16  2  0
 12 13  1  0
 13 14  2  0
 14 15  1  0
 15 20  1  0
 15 16  1  0
 16 17  1  0
 17 18  1  0
 17 37  1  0
 17 38  1  0
 18 19  1  0
 19 20  1  0
 19 39  1  0
 19 40  1  0
 20 41  1  0
 20 42  1  0
M  CHG  1   6   1
M  END
>  <i_m_ct_stereo_status>  (168) 
1

>  <s_m_source_file>  (168) 
/var/tmp/pbs.5102264.sched01/tmp6iaxk4q8/46_x9h2b30.sdf

>  <i_m_source_file_index>  (168) 
15

>  <i_lp_mmshare_version>  (168) 
48012

>  <i_f3d_flags>  (168) 
0

>  <s_epik_input>  (168) 
W0NIMl0xW0NIMl1bQ0hdKFtDSDJdW0NIMl0yKVtDQEBIXShbQ0gyXU4xMilPW0NAQEhdKFtDSDNdKWMobm4zKWMobjM0KVtDSDJdT1tDSDJdW0NIMl00

>  <s_epik_cmdline>  (168) 
J2VwaWtfcHl0aG9uJywgJy1waHQnLCAnMi4wJywgJy1waCcsICc3LjAnLCAnLXRuJywgJzgnLCAnLW1hJywgJzIwMCcsICctaW1hZScsICc8aW5maWxlLm1hZT4nLCAnLW9tYWUnLCAnPG91dGZpbGUubWFlPic=

>  <r_lp_tautomer_probability>  (168) 
1

>  <r_epik_Ionization_Penalty>  (168) 
0.00127088

>  <r_epik_Ionization_Penalty_Charging>  (168) 
0.00126474

>  <r_epik_Ionization_Penalty_Neutral>  (168) 
6.1416e-06

>  <r_epik_State_Penalty>  (168) 
0.000837604

>  <r_epik_Charging_Adjusted_Penalty>  (168) 
0.00210234

>  <i_epik_Tot_Q>  (168) 
1

>  <i_epik_Tot_abs_Q>  (168) 
1

>  <s_lp_Force_Field>  (168) 
OPLS3e

>  <r_lp_Energy>  (168) 
31.0539

>  <b_lp_Chiralities_Consistent>  (168) 
1

>  <s_lp_Variant>  (168) 
42:0-1

>  <s_i_glide_gridfile>  (168) 
pfpi4k_grid

>  <i_i_glide_lignum>  (168) 
15

>  <i_i_glide_rotatable_bonds>  (168) 
3

>  <r_i_docking_score>  (168) 
-3.06759

>  <r_i_glide_ligand_efficiency>  (168) 
-0.15338

>  <r_i_glide_ligand_efficiency_sa>  (168) 
-0.416336

>  <r_i_glide_ligand_efficiency_ln>  (168) 
-0.767717

>  <r_i_glide_gscore>  (168) 
-3.06759

>  <r_i_glide_lipo>  (168) 
-0.317225

>  <r_i_glide_hbond>  (168) 
0

>  <r_i_glide_metal>  (168) 
-0

>  <r_i_glide_rewards>  (168) 
-1.50438

>  <r_i_glide_evdw>  (168) 
-23.1751

>  <r_i_glide_ecoul>  (168) 
-4.3162

>  <r_i_glide_erotb>  (168) 
0.693549

>  <r_i_glide_esite>  (168) 
-0.13335

>  <r_i_glide_emodel>  (168) 
-33.8439

>  <r_i_glide_energy>  (168) 
-27.4913

>  <r_i_glide_einternal>  (168) 
2.11052

>  <r_i_glide_intrahb_reward>  (168) 
-0

>  <i_i_glide_confnum>  (168) 
3

>  <i_i_glide_posenum>  (168) 
39

>  <r_i_glide_eff_state_penalty>  (168) 
0

>  <ligand_id>  (168) 
42

>  <original_smiles>  (168) 
CC(OC1CN2CCC1CC2)c1nnn2c1COCC2

>  <smiles>  (168) 
[H]C1([H])OC([H])([H])C([H])([H])n2nnc(C([H])(OC3([H])C4([H])C([H])([H])C([H])([H])[N+]([H])(C([H])([H])C4([H])[H])C3([H])[H])C([H])([H])[H])c21

$$$$
43:1:0
     RDKit          3D

 48 50  0  0  1  0  0  0  0  0999 V2000
    3.6472   -2.7949   -4.0485 C   0  0  0  0  0  0  0  0  0  0  0  0
    3.8314   -3.0951   -2.6400 N   0  0  0  0  0  0  0  0  0  0  0  0
    5.0210   -4.0383   -2.3888 C   0  0  0  0  0  0  0  0  0  0  0  0
    5.4679   -3.9522   -0.8871 C   0  0  1  0  0  0  0  0  0  0  0  0
    6.5776   -4.1692    0.1933 C   0  0  0  0  0  0  0  0  0  0  0  0
    6.3781   -3.1287    1.4668 C   0  0  0  0  0  0  0  0  0  0  0  0
    5.0379   -2.3214    2.0308 C   0  0  1  0  0  0  0  0  0  0  0  0
    5.4687   -1.5141    3.0998 O   0  0  0  0  0  0  0  0  0  0  0  0
    3.9076   -1.4096    1.2151 C   0  0  0  0  0  0  0  0  0  0  0  0
    2.5733   -1.3118    2.0191 C   0  0  0  0  0  0  0  0  0  0  0  0
    4.2650    0.1354    1.1902 C   0  0  0  0  0  0  0  0  0  0  0  0
    3.7165   -2.1528   -0.1859 C   0  0  2  0  0  0  0  0  0  0  0  0
    5.1339   -1.5736   -0.5918 C   0  0  0  0  0  0  0  0  0  0  0  0
    5.9680   -2.5560   -1.1488 C   0  0  0  0  0  0  0  0  0  0  0  0
    7.0230   -2.2584   -1.7213 O   0  0  0  0  0  0  0  0  0  0  0  0
    3.3159   -1.9539   -1.7401 C   0  0  0  0  0  0  0  0  0  0  0  0
    3.1314   -3.6509    0.1109 C   0  0  1  0  0  0  0  0  0  0  0  0
    2.4358   -4.1052    1.4721 C   0  0  0  0  0  0  0  0  0  0  0  0
    2.0366   -3.8564   -0.8140 O   0  0  0  0  0  0  0  0  0  0  0  0
    1.4260   -5.1710   -0.7186 O   0  0  0  0  0  0  0  0  0  0  0  0
    4.2754   -4.5526   -0.0952 C   0  0  0  0  0  0  0  0  0  0  0  0
    3.7544   -3.6973   -4.6581 H   0  0  0  0  0  0  0  0  0  0  0  0
    4.4051   -2.0718   -4.3597 H   0  0  0  0  0  0  0  0  0  0  0  0
    2.6587   -2.3650   -4.2525 H   0  0  0  0  0  0  0  0  0  0  0  0
    4.7443   -5.0534   -2.6356 H   0  0  0  0  0  0  0  0  0  0  0  0
    5.8032   -3.8187   -3.1308 H   0  0  0  0  0  0  0  0  0  0  0  0
    6.5854   -5.2017    0.5609 H   0  0  0  0  0  0  0  0  0  0  0  0
    7.6089   -4.0800   -0.1801 H   0  0  0  0  0  0  0  0  0  0  0  0
    6.6584   -3.7462    2.3106 H   0  0  0  0  0  0  0  0  0  0  0  0
    7.1704   -2.3826    1.3586 H   0  0  0  0  0  0  0  0  0  0  0  0
    4.5695   -3.0750    2.6257 H   0  0  0  0  0  0  0  0  0  0  0  0
    6.1130   -0.9025    2.7763 H   0  0  0  0  0  0  0  0  0  0  0  0
    1.7135   -1.4282    1.3586 H   0  0  0  0  0  0  0  0  0  0  0  0
    2.4006   -0.3646    2.5294 H   0  0  0  0  0  0  0  0  0  0  0  0
    2.5148   -2.0233    2.8423 H   0  0  0  0  0  0  0  0  0  0  0  0
    3.5560    0.6615    0.5622 H   0  0  0  0  0  0  0  0  0  0  0  0
    5.2616    0.4356    0.8752 H   0  0  0  0  0  0  0  0  0  0  0  0
    4.1965    0.5708    2.1859 H   0  0  0  0  0  0  0  0  0  0  0  0
    5.1390   -0.6791   -1.2093 H   0  0  0  0  0  0  0  0  0  0  0  0
    5.8309   -1.2525    0.1662 H   0  0  0  0  0  0  0  0  0  0  0  0
    3.6004   -1.0027   -2.1988 H   0  0  0  0  0  0  0  0  0  0  0  0
    2.2382   -1.9268   -1.8981 H   0  0  0  0  0  0  0  0  0  0  0  0
    3.0068   -4.0838    2.3852 H   0  0  0  0  0  0  0  0  0  0  0  0
    2.1974   -5.1708    1.5232 H   0  0  0  0  0  0  0  0  0  0  0  0
    1.4911   -3.5854    1.6976 H   0  0  0  0  0  0  0  0  0  0  0  0
    1.9500   -5.6321   -1.3523 H   0  0  0  0  0  0  0  0  0  0  0  0
    3.9586   -5.4505   -0.6146 H   0  0  0  0  0  0  0  0  0  0  0  0
    4.5624   -4.9192    0.8959 H   0  0  0  0  0  0  0  0  0  0  0  0
  1  2  1  0
  1 22  1  0
  1 23  1  0
  1 24  1  0
  2 16  1  0
  2  3  1  0
  3  4  1  0
  3 25  1  0
  3 26  1  0
  4 14  1  0
  4 21  1  0
  4  5  1  6
  5  6  1  0
  5 27  1  0
  5 28  1  0
  6  7  1  0
  6 29  1  0
  6 30  1  0
  7  8  1  0
  7  9  1  0
  7 31  1  1
  8 32  1  0
  9 10  1  0
  9 11  1  0
 12  9  1  1
 10 33  1  0
 10 34  1  0
 10 35  1  0
 11 36  1  0
 11 37  1  0
 11 38  1  0
 12 13  1  0
 12 16  1  0
 12 17  1  0
 13 14  1  0
 13 39  1  0
 13 40  1  0
 14 15  2  0
 16 41  1  0
 16 42  1  0
 17 18  1  0
 17 19  1  6
 17 21  1  0
 18 43  1  0
 18 44  1  0
 18 45  1  0
 19 20  1  0
 20 46  1  0
 21 47  1  0
 21 48  1  0
M  END
>  <i_m_ct_stereo_status>  (169) 
1

>  <s_m_source_file>  (169) 
/var/tmp/pbs.5102264.sched01/tmp6iaxk4q8/46_x9h2b30.sdf

>  <i_m_source_file_index>  (169) 
17

>  <i_lp_mmshare_version>  (169) 
48012

>  <i_f3d_flags>  (169) 
0

>  <s_epik_input>  (169) 
W0NAXTEyM1tDSDJdTihbQ0gzXSlbQ0gyXVtDQF0oW0NIMl1DMj1PKShbQ0BdKFtDSDNdKShbQ0gyXTMpT1tPSF0pQyhbQ0gzXSkoW0NIM10pW0NASF0oW09IXSlbQ0gyXVtDSDJdMQ==

>  <s_epik_cmdline>  (169) 
J2VwaWtfcHl0aG9uJywgJy1waHQnLCAnMi4wJywgJy1waCcsICc3LjAnLCAnLXRuJywgJzgnLCAnLW1hJywgJzIwMCcsICctaW1hZScsICc8aW5maWxlLm1hZT4nLCAnLW9tYWUnLCAnPG91dGZpbGUubWFlPic=

>  <r_lp_tautomer_probability>  (169) 
0.99995

>  <r_epik_Ionization_Penalty>  (169) 
1.49809

>  <r_epik_Ionization_Penalty_Charging>  (169) 
0

>  <r_epik_Ionization_Penalty_Neutral>  (169) 
1.49809

>  <r_epik_State_Penalty>  (169) 
1.58807

>  <r_epik_Charging_Adjusted_Penalty>  (169) 
1.58807

>  <i_epik_Tot_Q>  (169) 
0

>  <i_epik_Tot_abs_Q>  (169) 
0

>  <s_lp_Force_Field>  (169) 
OPLS3e

>  <r_lp_Energy>  (169) 
281.733

>  <b_lp_Chiralities_Consistent>  (169) 
1

>  <s_lp_Variant>  (169) 
43:0-2

>  <s_i_glide_gridfile>  (169) 
pfpi4k_grid

>  <i_i_glide_lignum>  (169) 
17

>  <i_i_glide_rotatable_bonds>  (169) 
3

>  <r_i_docking_score>  (169) 
-3.5327

>  <r_i_glide_ligand_efficiency>  (169) 
-0.168224

>  <r_i_glide_ligand_efficiency_sa>  (169) 
-0.464117

>  <r_i_glide_ligand_efficiency_ln>  (169) 
-0.873453

>  <r_i_glide_gscore>  (169) 
-3.5327

>  <r_i_glide_lipo>  (169) 
-0.318256

>  <r_i_glide_hbond>  (169) 
-0.158875

>  <r_i_glide_metal>  (169) 
-0

>  <r_i_glide_rewards>  (169) 
-1.38143

>  <r_i_glide_evdw>  (169) 
-15.8505

>  <r_i_glide_ecoul>  (169) 
-7.13668

>  <r_i_glide_erotb>  (169) 
0.207311

>  <r_i_glide_esite>  (169) 
-0.0184176

>  <r_i_glide_emodel>  (169) 
-25.7577

>  <r_i_glide_energy>  (169) 
-22.9872

>  <r_i_glide_einternal>  (169) 
0.837789

>  <r_i_glide_intrahb_reward>  (169) 
-0

>  <i_i_glide_confnum>  (169) 
2

>  <i_i_glide_posenum>  (169) 
33

>  <r_i_glide_eff_state_penalty>  (169) 
0

>  <ligand_id>  (169) 
43

>  <original_smiles>  (169) 
CN1CC23CCC(O)C(C)(C)C(CC2=O)(C1)C(C)(OO)C3

>  <smiles>  (169) 
[H]OOC1(C([H])([H])[H])C([H])([H])C23C(=O)C([H])([H])C1(C([H])([H])N(C([H])([H])[H])C2([H])[H])C(C([H])([H])[H])(C([H])([H])[H])C([H])(O[H])C([H])([H])C3([H])[H]

$$$$
43:1:1
     RDKit          3D

 48 50  0  0  1  0  0  0  0  0999 V2000
    1.4306   -2.9200   -2.3423 C   0  0  0  0  0  0  0  0  0  0  0  0
    2.7037   -3.2674   -1.8025 N   0  0  0  0  0  0  0  0  0  0  0  0
    3.7111   -3.5013   -2.9670 C   0  0  0  0  0  0  0  0  0  0  0  0
    5.1233   -3.3810   -2.3402 C   0  0  1  0  0  0  0  0  0  0  0  0
    6.6352   -3.2532   -2.5670 C   0  0  0  0  0  0  0  0  0  0  0  0
    7.4464   -2.6015   -1.3164 C   0  0  0  0  0  0  0  0  0  0  0  0
    7.0526   -2.4362    0.2673 C   0  0  1  0  0  0  0  0  0  0  0  0
    7.9434   -1.4320    0.6460 O   0  0  0  0  0  0  0  0  0  0  0  0
    5.6163   -1.9764    1.0073 C   0  0  0  0  0  0  0  0  0  0  0  0
    5.5126   -2.5601    2.4369 C   0  0  0  0  0  0  0  0  0  0  0  0
    5.5025   -0.4340    1.3528 C   0  0  0  0  0  0  0  0  0  0  0  0
    4.4762   -2.5763    0.0730 C   0  0  2  0  0  0  0  0  0  0  0  0
    4.8836   -1.4119   -0.9618 C   0  0  0  0  0  0  0  0  0  0  0  0
    4.9322   -1.8880   -2.2797 C   0  0  0  0  0  0  0  0  0  0  0  0
    4.6807   -1.1133   -3.2354 O   0  0  0  0  0  0  0  0  0  0  0  0
    2.9736   -2.4149   -0.5191 C   0  0  0  0  0  0  0  0  0  0  0  0
    4.6101   -4.1926    0.0752 C   0  0  1  0  0  0  0  0  0  0  0  0
    5.3953   -5.1280    1.0799 C   0  0  0  0  0  0  0  0  0  0  0  0
    3.3394   -4.8641    0.1842 O   0  0  0  0  0  0  0  0  0  0  0  0
    2.7517   -4.6187    1.5006 O   0  0  0  0  0  0  0  0  0  0  0  0
    5.1995   -4.4961   -1.2477 C   0  0  0  0  0  0  0  0  0  0  0  0
    1.2390   -3.4598   -3.2537 H   0  0  0  0  0  0  0  0  0  0  0  0
    1.5817   -1.8844   -2.6229 H   0  0  0  0  0  0  0  0  0  0  0  0
    0.6790   -3.1017   -1.5936 H   0  0  0  0  0  0  0  0  0  0  0  0
    3.6649   -4.4019   -3.5676 H   0  0  0  0  0  0  0  0  0  0  0  0
    3.4594   -2.8173   -3.7905 H   0  0  0  0  0  0  0  0  0  0  0  0
    7.1280   -4.1550   -2.8199 H   0  0  0  0  0  0  0  0  0  0  0  0
    6.7852   -2.6580   -3.4833 H   0  0  0  0  0  0  0  0  0  0  0  0
    8.4805   -2.9501   -1.3753 H   0  0  0  0  0  0  0  0  0  0  0  0
    7.5276   -1.6115   -1.6769 H   0  0  0  0  0  0  0  0  0  0  0  0
    7.4368   -3.3466    0.7039 H   0  0  0  0  0  0  0  0  0  0  0  0
    7.8239   -1.3108    1.5710 H   0  0  0  0  0  0  0  0  0  0  0  0
    4.5173   -2.9517    2.6339 H   0  0  0  0  0  0  0  0  0  0  0  0
    5.7148   -1.8435    3.2314 H   0  0  0  0  0  0  0  0  0  0  0  0
    6.2255   -3.3542    2.5964 H   0  0  0  0  0  0  0  0  0  0  0  0
    4.4949   -0.2075    1.7010 H   0  0  0  0  0  0  0  0  0  0  0  0
    5.7414    0.2827    0.5643 H   0  0  0  0  0  0  0  0  0  0  0  0
    6.2049   -0.1704    2.1383 H   0  0  0  0  0  0  0  0  0  0  0  0
    4.2815   -0.5129   -0.9765 H   0  0  0  0  0  0  0  0  0  0  0  0
    5.8432   -0.9229   -0.9375 H   0  0  0  0  0  0  0  0  0  0  0  0
    2.6480   -1.3854   -0.6293 H   0  0  0  0  0  0  0  0  0  0  0  0
    2.2354   -2.6861    0.2180 H   0  0  0  0  0  0  0  0  0  0  0  0
    6.4666   -4.9919    1.1463 H   0  0  0  0  0  0  0  0  0  0  0  0
    5.2778   -6.1557    0.7269 H   0  0  0  0  0  0  0  0  0  0  0  0
    5.0376   -5.1268    2.1033 H   0  0  0  0  0  0  0  0  0  0  0  0
    2.4269   -3.7441    1.3848 H   0  0  0  0  0  0  0  0  0  0  0  0
    4.7962   -5.4347   -1.6368 H   0  0  0  0  0  0  0  0  0  0  0  0
    6.2105   -4.6905   -0.9697 H   0  0  0  0  0  0  0  0  0  0  0  0
  1  2  1  0
  1 22  1  0
  1 23  1  0
  1 24  1  0
  2 16  1  0
  2  3  1  0
  3  4  1  0
  3 25  1  0
  3 26  1  0
  4 14  1  0
  4 21  1  0
  4  5  1  6
  5  6  1  0
  5 27  1  0
  5 28  1  0
  6  7  1  0
  6 29  1  0
  6 30  1  0
  7  8  1  0
  7  9  1  0
  7 31  1  1
  8 32  1  0
  9 10  1  0
  9 11  1  0
 12  9  1  1
 10 33  1  0
 10 34  1  0
 10 35  1  0
 11 36  1  0
 11 37  1  0
 11 38  1  0
 12 13  1  0
 12 16  1  0
 12 17  1  0
 13 14  1  0
 13 39  1  0
 13 40  1  0
 14 15  2  0
 16 41  1  0
 16 42  1  0
 17 18  1  0
 17 19  1  6
 17 21  1  0
 18 43  1  0
 18 44  1  0
 18 45  1  0
 19 20  1  0
 20 46  1  0
 21 47  1  0
 21 48  1  0
M  END
>  <i_m_ct_stereo_status>  (170) 
1

>  <s_m_source_file>  (170) 
/var/tmp/pbs.5102264.sched01/tmp6iaxk4q8/46_x9h2b30.sdf

>  <i_m_source_file_index>  (170) 
17

>  <i_lp_mmshare_version>  (170) 
48012

>  <i_f3d_flags>  (170) 
0

>  <s_epik_input>  (170) 
W0NAXTEyM1tDSDJdTihbQ0gzXSlbQ0gyXVtDQF0oW0NIMl1DMj1PKShbQ0BdKFtDSDNdKShbQ0gyXTMpT1tPSF0pQyhbQ0gzXSkoW0NIM10pW0NASF0oW09IXSlbQ0gyXVtDSDJdMQ==

>  <s_epik_cmdline>  (170) 
J2VwaWtfcHl0aG9uJywgJy1waHQnLCAnMi4wJywgJy1waCcsICc3LjAnLCAnLXRuJywgJzgnLCAnLW1hJywgJzIwMCcsICctaW1hZScsICc8aW5maWxlLm1hZT4nLCAnLW9tYWUnLCAnPG91dGZpbGUubWFlPic=

>  <r_lp_tautomer_probability>  (170) 
0.99995

>  <r_epik_Ionization_Penalty>  (170) 
1.49809

>  <r_epik_Ionization_Penalty_Charging>  (170) 
0

>  <r_epik_Ionization_Penalty_Neutral>  (170) 
1.49809

>  <r_epik_State_Penalty>  (170) 
1.58807

>  <r_epik_Charging_Adjusted_Penalty>  (170) 
1.58807

>  <i_epik_Tot_Q>  (170) 
0

>  <i_epik_Tot_abs_Q>  (170) 
0

>  <s_lp_Force_Field>  (170) 
OPLS3e

>  <r_lp_Energy>  (170) 
281.733

>  <b_lp_Chiralities_Consistent>  (170) 
1

>  <s_lp_Variant>  (170) 
43:0-2

>  <s_i_glide_gridfile>  (170) 
pfpi4k_grid

>  <i_i_glide_lignum>  (170) 
17

>  <i_i_glide_rotatable_bonds>  (170) 
3

>  <r_i_docking_score>  (170) 
-1.93017

>  <r_i_glide_ligand_efficiency>  (170) 
-0.0919129

>  <r_i_glide_ligand_efficiency_sa>  (170) 
-0.253581

>  <r_i_glide_ligand_efficiency_ln>  (170) 
-0.477231

>  <r_i_glide_gscore>  (170) 
-1.93017

>  <r_i_glide_lipo>  (170) 
-0.622596

>  <r_i_glide_hbond>  (170) 
0

>  <r_i_glide_metal>  (170) 
-0

>  <r_i_glide_rewards>  (170) 
-1.38143

>  <r_i_glide_evdw>  (170) 
0.0215824

>  <r_i_glide_ecoul>  (170) 
-0.854089

>  <r_i_glide_erotb>  (170) 
0.207311

>  <r_i_glide_esite>  (170) 
-0.00641915

>  <r_i_glide_emodel>  (170) 
0.952668

>  <r_i_glide_energy>  (170) 
-0.832507

>  <r_i_glide_einternal>  (170) 
1.81809

>  <r_i_glide_intrahb_reward>  (170) 
-0

>  <i_i_glide_confnum>  (170) 
3

>  <i_i_glide_posenum>  (170) 
17

>  <r_i_glide_eff_state_penalty>  (170) 
0

>  <ligand_id>  (170) 
43

>  <original_smiles>  (170) 
CN1CC23CCC(O)C(C)(C)C(CC2=O)(C1)C(C)(OO)C3

>  <smiles>  (170) 
[H]OOC1(C([H])([H])[H])C([H])([H])C23C(=O)C([H])([H])C1(C([H])([H])N(C([H])([H])[H])C2([H])[H])C(C([H])([H])[H])(C([H])([H])[H])C([H])(O[H])C([H])([H])C3([H])[H]

$$$$
44:0:0
     RDKit          3D

 27 29  0  0  1  0  0  0  0  0999 V2000
   -1.2240   -4.6749    7.3231 C   0  0  0  0  0  0  0  0  0  0  0  0
   -0.5679   -5.5103    6.3790 O   0  0  0  0  0  0  0  0  0  0  0  0
    0.2171   -4.9135    5.4120 C   0  0  0  0  0  0  0  0  0  0  0  0
    0.3740   -3.4985    5.3184 C   0  0  0  0  0  0  0  0  0  0  0  0
    1.1595   -2.9129    4.2978 C   0  0  0  0  0  0  0  0  0  0  0  0
    1.7810   -3.7700    3.3802 C   0  0  0  0  0  0  0  0  0  0  0  0
    1.6377   -5.1362    3.4535 C   0  0  0  0  0  0  0  0  0  0  0  0
    0.8629   -5.7549    4.4585 C   0  0  0  0  0  0  0  0  0  0  0  0
    0.7378   -7.2163    4.5030 C   0  0  0  0  0  0  0  0  0  0  0  0
    0.7892   -8.0520    5.5970 C   0  0  0  0  0  0  0  0  0  0  0  0
    0.6301   -9.7320    5.1694 S   0  0  0  0  0  0  0  0  0  0  0  0
    0.4589   -9.2506    3.4905 C   0  0  0  0  0  0  0  0  0  0  0  0
    0.2690  -10.1779    2.4801 N   0  0  0  0  0  0  0  0  0  0  0  0
    0.5306   -7.9277    3.3073 N   0  0  0  0  0  0  0  0  0  0  0  0
    2.3436   -5.7028    2.4360 O   0  0  0  0  0  0  0  0  0  0  0  0
    2.9462   -4.6512    1.7233 C   0  0  0  0  0  0  0  0  0  0  0  0
    4.2738   -4.7766    1.7170 F   0  0  0  0  0  0  0  0  0  0  0  0
    2.5333   -4.6641    0.4561 F   0  0  0  0  0  0  0  0  0  0  0  0
    2.5757   -3.4420    2.3310 O   0  0  0  0  0  0  0  0  0  0  0  0
   -1.7847   -5.2884    8.0267 H   0  0  0  0  0  0  0  0  0  0  0  0
   -1.9346   -4.0008    6.8429 H   0  0  0  0  0  0  0  0  0  0  0  0
   -0.5111   -4.0854    7.9015 H   0  0  0  0  0  0  0  0  0  0  0  0
   -0.1040   -2.8261    6.0116 H   0  0  0  0  0  0  0  0  0  0  0  0
    1.2840   -1.8434    4.2213 H   0  0  0  0  0  0  0  0  0  0  0  0
    0.9322   -7.7977    6.6368 H   0  0  0  0  0  0  0  0  0  0  0  0
    0.2137   -9.8972    1.5080 H   0  0  0  0  0  0  0  0  0  0  0  0
    0.2428  -11.1696    2.6661 H   0  0  0  0  0  0  0  0  0  0  0  0
  1  2  1  0
  1 20  1  0
  1 21  1  0
  1 22  1  0
  2  3  1  0
  3  8  2  0
  3  4  1  0
  4  5  2  0
  4 23  1  0
  5  6  1  0
  5 24  1  0
  6 19  1  0
  6  7  2  0
  7  8  1  0
  7 15  1  0
  8  9  1  0
  9 14  1  0
  9 10  2  0
 10 11  1  0
 10 25  1  0
 11 12  1  0
 12 13  1  0
 12 14  2  0
 13 26  1  0
 13 27  1  0
 15 16  1  0
 16 17  1  0
 16 18  1  0
 16 19  1  0
M  END
>  <i_m_ct_stereo_status>  (171) 
1

>  <s_m_source_file>  (171) 
/var/tmp/pbs.5102264.sched01/tmp6iaxk4q8/46_x9h2b30.sdf

>  <i_m_source_file_index>  (171) 
18

>  <i_lp_mmshare_version>  (171) 
48012

>  <i_f3d_flags>  (171) 
0

>  <s_epik_input>  (171) 
RkMoRikoTzEpT2MoYzEyKWMoYyhPW0NIM10pW2NIXVtjSF0yKS1jM1tjSF1zL2MoPU5cW0hdKVtuSF0z

>  <s_epik_cmdline>  (171) 
J2VwaWtfcHl0aG9uJywgJy1waHQnLCAnMi4wJywgJy1waCcsICc3LjAnLCAnLXRuJywgJzgnLCAnLW1hJywgJzIwMCcsICctaW1hZScsICc8aW5maWxlLm1hZT4nLCAnLW9tYWUnLCAnPG91dGZpbGUubWFlPic=

>  <r_lp_tautomer_probability>  (171) 
1

>  <r_epik_Ionization_Penalty>  (171) 
0.00357689

>  <r_epik_Ionization_Penalty_Charging>  (171) 
0

>  <r_epik_Ionization_Penalty_Neutral>  (171) 
0.00357689

>  <r_epik_State_Penalty>  (171) 
-0

>  <r_epik_Charging_Adjusted_Penalty>  (171) 
0

>  <i_epik_Tot_Q>  (171) 
0

>  <i_epik_Tot_abs_Q>  (171) 
0

>  <s_lp_Force_Field>  (171) 
OPLS3e

>  <r_lp_Energy>  (171) 
18.5044

>  <b_lp_Chiralities_Consistent>  (171) 
1

>  <s_lp_Variant>  (171) 
44:0-1

>  <s_i_glide_gridfile>  (171) 
pfpi4k_grid

>  <i_i_glide_lignum>  (171) 
18

>  <i_i_glide_rotatable_bonds>  (171) 
2

>  <r_i_docking_score>  (171) 
-2.92033

>  <r_i_glide_ligand_efficiency>  (171) 
-0.153701

>  <r_i_glide_ligand_efficiency_sa>  (171) 
-0.410137

>  <r_i_glide_ligand_efficiency_ln>  (171) 
-0.740366

>  <r_i_glide_gscore>  (171) 
-2.92033

>  <r_i_glide_lipo>  (171) 
-0.0554102

>  <r_i_glide_hbond>  (171) 
-0.32

>  <r_i_glide_metal>  (171) 
-0

>  <r_i_glide_rewards>  (171) 
-1.47971

>  <r_i_glide_evdw>  (171) 
-17.4579

>  <r_i_glide_ecoul>  (171) 
-2.45463

>  <r_i_glide_erotb>  (171) 
0.221583

>  <r_i_glide_esite>  (171) 
-0.0457075

>  <r_i_glide_emodel>  (171) 
-23.8543

>  <r_i_glide_energy>  (171) 
-19.9125

>  <r_i_glide_einternal>  (171) 
0.596431

>  <r_i_glide_intrahb_reward>  (171) 
-0

>  <i_i_glide_confnum>  (171) 
2

>  <i_i_glide_posenum>  (171) 
12

>  <r_i_glide_eff_state_penalty>  (171) 
0

>  <ligand_id>  (171) 
44

>  <original_smiles>  (171) 
COc1ccc2c(c1-c1csc(=N)[nH]1)OC(F)(F)O2

>  <smiles>  (171) 
[H]c1sc(N([H])[H])nc1-c1c(OC([H])([H])[H])c([H])c([H])c2c1OC(F)(F)O2

$$$$
44:0:1
     RDKit          3D

 27 29  0  0  1  0  0  0  0  0999 V2000
    2.3755   -9.5588    1.7190 C   0  0  0  0  0  0  0  0  0  0  0  0
    2.5417   -8.1491    1.6199 O   0  0  0  0  0  0  0  0  0  0  0  0
    1.9743   -7.3468    2.5855 C   0  0  0  0  0  0  0  0  0  0  0  0
    1.1645   -7.8751    3.6379 C   0  0  0  0  0  0  0  0  0  0  0  0
    0.5854   -7.0342    4.6082 C   0  0  0  0  0  0  0  0  0  0  0  0
    0.8241   -5.6592    4.5040 C   0  0  0  0  0  0  0  0  0  0  0  0
    1.5984   -5.1298    3.4931 C   0  0  0  0  0  0  0  0  0  0  0  0
    2.2021   -5.9422    2.5059 C   0  0  0  0  0  0  0  0  0  0  0  0
    3.0391   -5.3354    1.4513 C   0  0  0  0  0  0  0  0  0  0  0  0
    4.2514   -5.7546    0.9460 C   0  0  0  0  0  0  0  0  0  0  0  0
    4.8722   -4.6882   -0.2941 S   0  0  0  0  0  0  0  0  0  0  0  0
    3.4408   -3.6977   -0.1016 C   0  0  0  0  0  0  0  0  0  0  0  0
    3.2261   -2.5520   -0.8492 N   0  0  0  0  0  0  0  0  0  0  0  0
    2.6095   -4.1516    0.8336 N   0  0  0  0  0  0  0  0  0  0  0  0
    1.6507   -3.7805    3.6499 O   0  0  0  0  0  0  0  0  0  0  0  0
    0.8933   -3.4708    4.7941 C   0  0  0  0  0  0  0  0  0  0  0  0
    1.6493   -2.8651    5.7107 F   0  0  0  0  0  0  0  0  0  0  0  0
   -0.1081   -2.6424    4.4927 F   0  0  0  0  0  0  0  0  0  0  0  0
    0.3734   -4.6669    5.3123 O   0  0  0  0  0  0  0  0  0  0  0  0
    2.8813  -10.0392    0.8825 H   0  0  0  0  0  0  0  0  0  0  0  0
    1.3258   -9.8520    1.6792 H   0  0  0  0  0  0  0  0  0  0  0  0
    2.8143   -9.9486    2.6384 H   0  0  0  0  0  0  0  0  0  0  0  0
    0.9694   -8.9338    3.7264 H   0  0  0  0  0  0  0  0  0  0  0  0
   -0.0175   -7.4355    5.4104 H   0  0  0  0  0  0  0  0  0  0  0  0
    4.8265   -6.6224    1.2354 H   0  0  0  0  0  0  0  0  0  0  0  0
    2.3849   -1.9850   -0.7427 H   0  0  0  0  0  0  0  0  0  0  0  0
    3.8801   -2.2479   -1.5503 H   0  0  0  0  0  0  0  0  0  0  0  0
  1  2  1  0
  1 20  1  0
  1 21  1  0
  1 22  1  0
  2  3  1  0
  3  8  2  0
  3  4  1  0
  4  5  2  0
  4 23  1  0
  5  6  1  0
  5 24  1  0
  6 19  1  0
  6  7  2  0
  7  8  1  0
  7 15  1  0
  8  9  1  0
  9 14  1  0
  9 10  2  0
 10 11  1  0
 10 25  1  0
 11 12  1  0
 12 13  1  0
 12 14  2  0
 13 26  1  0
 13 27  1  0
 15 16  1  0
 16 17  1  0
 16 18  1  0
 16 19  1  0
M  END
>  <i_m_ct_stereo_status>  (172) 
1

>  <s_m_source_file>  (172) 
/var/tmp/pbs.5102264.sched01/tmp6iaxk4q8/46_x9h2b30.sdf

>  <i_m_source_file_index>  (172) 
18

>  <i_lp_mmshare_version>  (172) 
48012

>  <i_f3d_flags>  (172) 
0

>  <s_epik_input>  (172) 
RkMoRikoTzEpT2MoYzEyKWMoYyhPW0NIM10pW2NIXVtjSF0yKS1jM1tjSF1zL2MoPU5cW0hdKVtuSF0z

>  <s_epik_cmdline>  (172) 
J2VwaWtfcHl0aG9uJywgJy1waHQnLCAnMi4wJywgJy1waCcsICc3LjAnLCAnLXRuJywgJzgnLCAnLW1hJywgJzIwMCcsICctaW1hZScsICc8aW5maWxlLm1hZT4nLCAnLW9tYWUnLCAnPG91dGZpbGUubWFlPic=

>  <r_lp_tautomer_probability>  (172) 
1

>  <r_epik_Ionization_Penalty>  (172) 
0.00357689

>  <r_epik_Ionization_Penalty_Charging>  (172) 
0

>  <r_epik_Ionization_Penalty_Neutral>  (172) 
0.00357689

>  <r_epik_State_Penalty>  (172) 
-0

>  <r_epik_Charging_Adjusted_Penalty>  (172) 
0

>  <i_epik_Tot_Q>  (172) 
0

>  <i_epik_Tot_abs_Q>  (172) 
0

>  <s_lp_Force_Field>  (172) 
OPLS3e

>  <r_lp_Energy>  (172) 
18.5044

>  <b_lp_Chiralities_Consistent>  (172) 
1

>  <s_lp_Variant>  (172) 
44:0-1

>  <s_i_glide_gridfile>  (172) 
pfpi4k_grid

>  <i_i_glide_lignum>  (172) 
18

>  <i_i_glide_rotatable_bonds>  (172) 
2

>  <r_i_docking_score>  (172) 
-2.71701

>  <r_i_glide_ligand_efficiency>  (172) 
-0.143001

>  <r_i_glide_ligand_efficiency_sa>  (172) 
-0.381583

>  <r_i_glide_ligand_efficiency_ln>  (172) 
-0.688821

>  <r_i_glide_gscore>  (172) 
-2.71701

>  <r_i_glide_lipo>  (172) 
-0.0944361

>  <r_i_glide_hbond>  (172) 
-0.16

>  <r_i_glide_metal>  (172) 
-0

>  <r_i_glide_rewards>  (172) 
-1.5217

>  <r_i_glide_evdw>  (172) 
-17.3476

>  <r_i_glide_ecoul>  (172) 
-1.60985

>  <r_i_glide_erotb>  (172) 
0.221583

>  <r_i_glide_esite>  (172) 
-0.0536021

>  <r_i_glide_emodel>  (172) 
-22.5258

>  <r_i_glide_energy>  (172) 
-18.9574

>  <r_i_glide_einternal>  (172) 
0.707804

>  <r_i_glide_intrahb_reward>  (172) 
-0

>  <i_i_glide_confnum>  (172) 
6

>  <i_i_glide_posenum>  (172) 
14

>  <r_i_glide_eff_state_penalty>  (172) 
0

>  <ligand_id>  (172) 
44

>  <original_smiles>  (172) 
COc1ccc2c(c1-c1csc(=N)[nH]1)OC(F)(F)O2

>  <smiles>  (172) 
[H]c1sc(N([H])[H])nc1-c1c(OC([H])([H])[H])c([H])c([H])c2c1OC(F)(F)O2

$$$$
44:0:2
     RDKit          3D

 27 29  0  0  1  0  0  0  0  0999 V2000
   -3.8639    3.4277    9.3071 C   0  0  0  0  0  0  0  0  0  0  0  0
   -3.0180    2.9937    8.2548 O   0  0  0  0  0  0  0  0  0  0  0  0
   -1.8168    2.3933    8.5633 C   0  0  0  0  0  0  0  0  0  0  0  0
   -1.4125    2.1613    9.9144 C   0  0  0  0  0  0  0  0  0  0  0  0
   -0.1974    1.5156   10.2126 C   0  0  0  0  0  0  0  0  0  0  0  0
    0.6097    1.1146    9.1428 C   0  0  0  0  0  0  0  0  0  0  0  0
    0.2408    1.3355    7.8324 C   0  0  0  0  0  0  0  0  0  0  0  0
   -0.9759    1.9744    7.4861 C   0  0  0  0  0  0  0  0  0  0  0  0
   -1.3388    2.1907    6.0601 C   0  0  0  0  0  0  0  0  0  0  0  0
   -2.2607    3.0571    5.5089 C   0  0  0  0  0  0  0  0  0  0  0  0
   -2.3390    2.9652    3.7674 S   0  0  0  0  0  0  0  0  0  0  0  0
   -1.1076    1.7225    3.8240 C   0  0  0  0  0  0  0  0  0  0  0  0
   -0.6307    1.0981    2.6814 N   0  0  0  0  0  0  0  0  0  0  0  0
   -0.7103    1.4306    5.0613 N   0  0  0  0  0  0  0  0  0  0  0  0
    1.2186    0.8414    7.0263 O   0  0  0  0  0  0  0  0  0  0  0  0
    2.2149    0.3045    7.8590 C   0  0  0  0  0  0  0  0  0  0  0  0
    2.3873   -0.9934    7.6043 F   0  0  0  0  0  0  0  0  0  0  0  0
    3.3817    0.9131    7.6404 F   0  0  0  0  0  0  0  0  0  0  0  0
    1.8103    0.4833    9.1902 O   0  0  0  0  0  0  0  0  0  0  0  0
   -4.7540    3.8931    8.8814 H   0  0  0  0  0  0  0  0  0  0  0  0
   -3.3734    4.1674    9.9424 H   0  0  0  0  0  0  0  0  0  0  0  0
   -4.1875    2.5890    9.9230 H   0  0  0  0  0  0  0  0  0  0  0  0
   -2.0299    2.4523   10.7517 H   0  0  0  0  0  0  0  0  0  0  0  0
    0.1021    1.3318   11.2358 H   0  0  0  0  0  0  0  0  0  0  0  0
   -2.9166    3.7474    6.0202 H   0  0  0  0  0  0  0  0  0  0  0  0
    0.1416    0.4504    2.7214 H   0  0  0  0  0  0  0  0  0  0  0  0
   -0.9093    1.3962    1.7558 H   0  0  0  0  0  0  0  0  0  0  0  0
  1  2  1  0
  1 20  1  0
  1 21  1  0
  1 22  1  0
  2  3  1  0
  3  8  2  0
  3  4  1  0
  4  5  2  0
  4 23  1  0
  5  6  1  0
  5 24  1  0
  6 19  1  0
  6  7  2  0
  7  8  1  0
  7 15  1  0
  8  9  1  0
  9 14  1  0
  9 10  2  0
 10 11  1  0
 10 25  1  0
 11 12  1  0
 12 13  1  0
 12 14  2  0
 13 26  1  0
 13 27  1  0
 15 16  1  0
 16 17  1  0
 16 18  1  0
 16 19  1  0
M  END
>  <i_m_ct_stereo_status>  (173) 
1

>  <s_m_source_file>  (173) 
/var/tmp/pbs.5102264.sched01/tmp6iaxk4q8/46_x9h2b30.sdf

>  <i_m_source_file_index>  (173) 
18

>  <i_lp_mmshare_version>  (173) 
48012

>  <i_f3d_flags>  (173) 
0

>  <s_epik_input>  (173) 
RkMoRikoTzEpT2MoYzEyKWMoYyhPW0NIM10pW2NIXVtjSF0yKS1jM1tjSF1zL2MoPU5cW0hdKVtuSF0z

>  <s_epik_cmdline>  (173) 
J2VwaWtfcHl0aG9uJywgJy1waHQnLCAnMi4wJywgJy1waCcsICc3LjAnLCAnLXRuJywgJzgnLCAnLW1hJywgJzIwMCcsICctaW1hZScsICc8aW5maWxlLm1hZT4nLCAnLW9tYWUnLCAnPG91dGZpbGUubWFlPic=

>  <r_lp_tautomer_probability>  (173) 
1

>  <r_epik_Ionization_Penalty>  (173) 
0.00357689

>  <r_epik_Ionization_Penalty_Charging>  (173) 
0

>  <r_epik_Ionization_Penalty_Neutral>  (173) 
0.00357689

>  <r_epik_State_Penalty>  (173) 
-0

>  <r_epik_Charging_Adjusted_Penalty>  (173) 
0

>  <i_epik_Tot_Q>  (173) 
0

>  <i_epik_Tot_abs_Q>  (173) 
0

>  <s_lp_Force_Field>  (173) 
OPLS3e

>  <r_lp_Energy>  (173) 
18.5044

>  <b_lp_Chiralities_Consistent>  (173) 
1

>  <s_lp_Variant>  (173) 
44:0-1

>  <s_i_glide_gridfile>  (173) 
pfpi4k_grid

>  <i_i_glide_lignum>  (173) 
18

>  <i_i_glide_rotatable_bonds>  (173) 
2

>  <r_i_docking_score>  (173) 
-2.58305

>  <r_i_glide_ligand_efficiency>  (173) 
-0.13595

>  <r_i_glide_ligand_efficiency_sa>  (173) 
-0.36277

>  <r_i_glide_ligand_efficiency_ln>  (173) 
-0.654859

>  <r_i_glide_gscore>  (173) 
-2.58305

>  <r_i_glide_lipo>  (173) 
-0.166956

>  <r_i_glide_hbond>  (173) 
0

>  <r_i_glide_metal>  (173) 
-0

>  <r_i_glide_rewards>  (173) 
-1.45735

>  <r_i_glide_evdw>  (173) 
-19.3677

>  <r_i_glide_ecoul>  (173) 
-1.06353

>  <r_i_glide_erotb>  (173) 
0.221583

>  <r_i_glide_esite>  (173) 
-0.0524173

>  <r_i_glide_emodel>  (173) 
-24.0519

>  <r_i_glide_energy>  (173) 
-20.4312

>  <r_i_glide_einternal>  (173) 
0.0937646

>  <r_i_glide_intrahb_reward>  (173) 
-0

>  <i_i_glide_confnum>  (173) 
1

>  <i_i_glide_posenum>  (173) 
11

>  <r_i_glide_eff_state_penalty>  (173) 
0

>  <ligand_id>  (173) 
44

>  <original_smiles>  (173) 
COc1ccc2c(c1-c1csc(=N)[nH]1)OC(F)(F)O2

>  <smiles>  (173) 
[H]c1sc(N([H])[H])nc1-c1c(OC([H])([H])[H])c([H])c([H])c2c1OC(F)(F)O2

$$$$
45:0:0
     RDKit          3D

 23 25  0  0  1  0  0  0  0  0999 V2000
   -9.7993   -9.6019  -10.0382 C   0  0  0  0  0  0  0  0  0  0  0  0
   -9.1753   -8.6366   -9.0447 C   0  0  0  0  0  0  0  0  0  0  0  0
   -7.9813   -9.0543   -8.3767 C   0  0  0  0  0  0  0  0  0  0  0  0
   -7.5425   -8.0636   -7.5066 N   0  0  0  0  0  0  0  0  0  0  0  0
   -6.3968   -8.1704   -6.6913 N   0  0  0  0  0  0  0  0  0  0  0  0
   -6.4836   -6.9972   -6.0962 C   0  0  0  0  0  0  0  0  0  0  0  0
   -5.5769   -6.4704   -5.1280 C   0  0  0  0  0  0  0  0  0  0  0  0
   -5.9651   -5.1886   -4.7376 C   0  0  0  0  0  0  0  0  0  0  0  0
   -7.4608   -4.6185   -5.5239 S   0  0  0  0  0  0  0  0  0  0  0  0
   -7.4438   -6.1161   -6.3445 C   0  0  0  0  0  0  0  0  0  0  0  0
   -8.1454   -6.8509   -7.2994 C   0  0  0  0  0  0  0  0  0  0  0  0
   -9.2742   -6.4334   -7.9329 N   0  0  0  0  0  0  0  0  0  0  0  0
   -9.7753   -7.3534   -8.7976 C   0  0  0  0  0  0  0  0  0  0  0  0
  -11.0524   -6.9001   -9.4991 C   0  0  0  0  0  0  0  0  0  0  0  0
   -9.2165  -10.5180  -10.1035 H   0  0  0  0  0  0  0  0  0  0  0  0
   -9.8357   -9.1776  -11.0424 H   0  0  0  0  0  0  0  0  0  0  0  0
  -10.8104   -9.8864   -9.7467 H   0  0  0  0  0  0  0  0  0  0  0  0
   -7.4570  -10.0002   -8.4936 H   0  0  0  0  0  0  0  0  0  0  0  0
   -4.7051   -7.0030   -4.7782 H   0  0  0  0  0  0  0  0  0  0  0  0
   -5.4720   -4.5231   -4.0358 H   0  0  0  0  0  0  0  0  0  0  0  0
  -11.4534   -7.6291  -10.1943 H   0  0  0  0  0  0  0  0  0  0  0  0
  -10.8793   -5.9905  -10.0719 H   0  0  0  0  0  0  0  0  0  0  0  0
  -11.8429   -6.6864   -8.7817 H   0  0  0  0  0  0  0  0  0  0  0  0
  1  2  1  0
  1 15  1  0
  1 16  1  0
  1 17  1  0
  2 13  1  0
  2  3  2  0
  3  4  1  0
  3 18  1  0
  4 11  1  0
  4  5  1  0
  5  6  2  0
  6 10  1  0
  6  7  1  0
  7  8  2  0
  7 19  1  0
  8  9  1  0
  8 20  1  0
  9 10  1  0
 10 11  2  0
 11 12  1  0
 12 13  2  0
 13 14  1  0
 14 21  1  0
 14 22  1  0
 14 23  1  0
M  END
>  <i_m_ct_stereo_status>  (174) 
1

>  <s_m_source_file>  (174) 
/var/tmp/pbs.5102264.sched01/tmp6iaxk4q8/46_x9h2b30.sdf

>  <i_m_source_file_index>  (174) 
19

>  <i_lp_mmshare_version>  (174) 
48012

>  <i_f3d_flags>  (174) 
0

>  <s_epik_input>  (174) 
W0NIM11jKFtjSF0xKWMoW0NIM10pbmMobjEyKWMzYyhuMilbY0hdW2NIXXMz

>  <s_epik_cmdline>  (174) 
J2VwaWtfcHl0aG9uJywgJy1waHQnLCAnMi4wJywgJy1waCcsICc3LjAnLCAnLXRuJywgJzgnLCAnLW1hJywgJzIwMCcsICctaW1hZScsICc8aW5maWxlLm1hZT4nLCAnLW9tYWUnLCAnPG91dGZpbGUubWFlPic=

>  <r_lp_tautomer_probability>  (174) 
1

>  <r_epik_Ionization_Penalty>  (174) 
3.32979e-09

>  <r_epik_Ionization_Penalty_Charging>  (174) 
0

>  <r_epik_Ionization_Penalty_Neutral>  (174) 
3.32979e-09

>  <r_epik_State_Penalty>  (174) 
-0

>  <r_epik_Charging_Adjusted_Penalty>  (174) 
0

>  <i_epik_Tot_Q>  (174) 
0

>  <i_epik_Tot_abs_Q>  (174) 
0

>  <s_lp_Force_Field>  (174) 
OPLS3e

>  <r_lp_Energy>  (174) 
15.172

>  <b_lp_Chiralities_Consistent>  (174) 
1

>  <s_lp_Variant>  (174) 
45:0-1

>  <s_i_glide_gridfile>  (174) 
pfpi4k_grid

>  <i_i_glide_lignum>  (174) 
19

>  <i_i_glide_rotatable_bonds>  (174) 
0

>  <r_i_docking_score>  (174) 
-4.63313

>  <r_i_glide_ligand_efficiency>  (174) 
-0.330938

>  <r_i_glide_ligand_efficiency_sa>  (174) 
-0.797607

>  <r_i_glide_ligand_efficiency_ln>  (174) 
-1.27317

>  <r_i_glide_gscore>  (174) 
-4.63313

>  <r_i_glide_lipo>  (174) 
-1.57304

>  <r_i_glide_hbond>  (174) 
0

>  <r_i_glide_metal>  (174) 
-0

>  <r_i_glide_rewards>  (174) 
-1.85961

>  <r_i_glide_evdw>  (174) 
-22.3756

>  <r_i_glide_ecoul>  (174) 
-0.544672

>  <r_i_glide_erotb>  (174) 
0

>  <r_i_glide_esite>  (174) 
0

>  <r_i_glide_emodel>  (174) 
-29.9531

>  <r_i_glide_energy>  (174) 
-22.9203

>  <r_i_glide_einternal>  (174) 
0

>  <r_i_glide_intrahb_reward>  (174) 
-0

>  <i_i_glide_confnum>  (174) 
2

>  <i_i_glide_posenum>  (174) 
8

>  <r_i_glide_eff_state_penalty>  (174) 
0

>  <ligand_id>  (174) 
45

>  <original_smiles>  (174) 
Cc1cn2nc3ccsc3c2nc1C

>  <smiles>  (174) 
[H]c1sc2c(nn3c([H])c(C([H])([H])[H])c(C([H])([H])[H])nc23)c1[H]

$$$$
45:0:1
     RDKit          3D

 23 25  0  0  1  0  0  0  0  0999 V2000
   -1.6312   -9.0380    2.8294 C   0  0  0  0  0  0  0  0  0  0  0  0
   -0.2567   -8.4837    2.4770 C   0  0  0  0  0  0  0  0  0  0  0  0
   -0.1979   -7.3152    1.6554 C   0  0  0  0  0  0  0  0  0  0  0  0
    1.1111   -6.9752    1.3938 N   0  0  0  0  0  0  0  0  0  0  0  0
    1.4780   -5.8542    0.6125 N   0  0  0  0  0  0  0  0  0  0  0  0
    2.7854   -5.9858    0.7322 C   0  0  0  0  0  0  0  0  0  0  0  0
    3.7756   -5.1394    0.1631 C   0  0  0  0  0  0  0  0  0  0  0  0
    5.0555   -5.5785    0.4810 C   0  0  0  0  0  0  0  0  0  0  0  0
    5.0852   -7.0500    1.4818 S   0  0  0  0  0  0  0  0  0  0  0  0
    3.3780   -6.9556    1.4198 C   0  0  0  0  0  0  0  0  0  0  0  0
    2.2267   -7.6191    1.8525 C   0  0  0  0  0  0  0  0  0  0  0  0
    2.1928   -8.7332    2.6349 N   0  0  0  0  0  0  0  0  0  0  0  0
    0.9332   -9.1478    2.9243 C   0  0  0  0  0  0  0  0  0  0  0  0
    0.8937  -10.4040    3.7825 C   0  0  0  0  0  0  0  0  0  0  0  0
   -2.4183   -8.4317    2.3930 H   0  0  0  0  0  0  0  0  0  0  0  0
   -1.7967   -9.0550    3.9054 H   0  0  0  0  0  0  0  0  0  0  0  0
   -1.7619  -10.0476    2.4414 H   0  0  0  0  0  0  0  0  0  0  0  0
   -1.0086   -6.7441    1.2537 H   0  0  0  0  0  0  0  0  0  0  0  0
    3.5288   -4.2862   -0.4493 H   0  0  0  0  0  0  0  0  0  0  0  0
    5.9820   -5.1312    0.1636 H   0  0  0  0  0  0  0  0  0  0  0  0
   -0.1096  -10.7431    4.0117 H   0  0  0  0  0  0  0  0  0  0  0  0
    1.3849  -10.2350    4.7402 H   0  0  0  0  0  0  0  0  0  0  0  0
    1.4024  -11.2359    3.2938 H   0  0  0  0  0  0  0  0  0  0  0  0
  1  2  1  0
  1 15  1  0
  1 16  1  0
  1 17  1  0
  2 13  1  0
  2  3  2  0
  3  4  1  0
  3 18  1  0
  4 11  1  0
  4  5  1  0
  5  6  2  0
  6 10  1  0
  6  7  1  0
  7  8  2  0
  7 19  1  0
  8  9  1  0
  8 20  1  0
  9 10  1  0
 10 11  2  0
 11 12  1  0
 12 13  2  0
 13 14  1  0
 14 21  1  0
 14 22  1  0
 14 23  1  0
M  END
>  <i_m_ct_stereo_status>  (175) 
1

>  <s_m_source_file>  (175) 
/var/tmp/pbs.5102264.sched01/tmp6iaxk4q8/46_x9h2b30.sdf

>  <i_m_source_file_index>  (175) 
19

>  <i_lp_mmshare_version>  (175) 
48012

>  <i_f3d_flags>  (175) 
0

>  <s_epik_input>  (175) 
W0NIM11jKFtjSF0xKWMoW0NIM10pbmMobjEyKWMzYyhuMilbY0hdW2NIXXMz

>  <s_epik_cmdline>  (175) 
J2VwaWtfcHl0aG9uJywgJy1waHQnLCAnMi4wJywgJy1waCcsICc3LjAnLCAnLXRuJywgJzgnLCAnLW1hJywgJzIwMCcsICctaW1hZScsICc8aW5maWxlLm1hZT4nLCAnLW9tYWUnLCAnPG91dGZpbGUubWFlPic=

>  <r_lp_tautomer_probability>  (175) 
1

>  <r_epik_Ionization_Penalty>  (175) 
3.32979e-09

>  <r_epik_Ionization_Penalty_Charging>  (175) 
0

>  <r_epik_Ionization_Penalty_Neutral>  (175) 
3.32979e-09

>  <r_epik_State_Penalty>  (175) 
-0

>  <r_epik_Charging_Adjusted_Penalty>  (175) 
0

>  <i_epik_Tot_Q>  (175) 
0

>  <i_epik_Tot_abs_Q>  (175) 
0

>  <s_lp_Force_Field>  (175) 
OPLS3e

>  <r_lp_Energy>  (175) 
15.172

>  <b_lp_Chiralities_Consistent>  (175) 
1

>  <s_lp_Variant>  (175) 
45:0-1

>  <s_i_glide_gridfile>  (175) 
pfpi4k_grid

>  <i_i_glide_lignum>  (175) 
19

>  <i_i_glide_rotatable_bonds>  (175) 
0

>  <r_i_docking_score>  (175) 
-3.80975

>  <r_i_glide_ligand_efficiency>  (175) 
-0.272125

>  <r_i_glide_ligand_efficiency_sa>  (175) 
-0.655861

>  <r_i_glide_ligand_efficiency_ln>  (175) 
-1.04691

>  <r_i_glide_gscore>  (175) 
-3.80975

>  <r_i_glide_lipo>  (175) 
-0.252981

>  <r_i_glide_hbond>  (175) 
-0.152934

>  <r_i_glide_metal>  (175) 
-0

>  <r_i_glide_rewards>  (175) 
-2.0232

>  <r_i_glide_evdw>  (175) 
-19.4271

>  <r_i_glide_ecoul>  (175) 
-2.21454

>  <r_i_glide_erotb>  (175) 
0

>  <r_i_glide_esite>  (175) 
-0.0771075

>  <r_i_glide_emodel>  (175) 
-27.419

>  <r_i_glide_energy>  (175) 
-21.6416

>  <r_i_glide_einternal>  (175) 
0

>  <r_i_glide_intrahb_reward>  (175) 
-0

>  <i_i_glide_confnum>  (175) 
2

>  <i_i_glide_posenum>  (175) 
15

>  <r_i_glide_eff_state_penalty>  (175) 
0

>  <ligand_id>  (175) 
45

>  <original_smiles>  (175) 
Cc1cn2nc3ccsc3c2nc1C

>  <smiles>  (175) 
[H]c1sc2c(nn3c([H])c(C([H])([H])[H])c(C([H])([H])[H])nc23)c1[H]

$$$$
45:0:2
     RDKit          3D

 23 25  0  0  1  0  0  0  0  0999 V2000
   -2.5319    3.0063   10.3286 C   0  0  0  0  0  0  0  0  0  0  0  0
   -2.0747    2.6439    8.9227 C   0  0  0  0  0  0  0  0  0  0  0  0
   -2.6809    3.3337    7.8283 C   0  0  0  0  0  0  0  0  0  0  0  0
   -2.1782    2.8641    6.6221 N   0  0  0  0  0  0  0  0  0  0  0  0
   -2.5622    3.3238    5.3519 N   0  0  0  0  0  0  0  0  0  0  0  0
   -1.7773    2.5565    4.6392 C   0  0  0  0  0  0  0  0  0  0  0  0
   -1.7081    2.5625    3.2187 C   0  0  0  0  0  0  0  0  0  0  0  0
   -0.7780    1.6449    2.7567 C   0  0  0  0  0  0  0  0  0  0  0  0
    0.0386    0.7334    4.0681 S   0  0  0  0  0  0  0  0  0  0  0  0
   -0.9290    1.6564    5.1319 C   0  0  0  0  0  0  0  0  0  0  0  0
   -1.2258    1.8864    6.4705 C   0  0  0  0  0  0  0  0  0  0  0  0
   -0.6386    1.2291    7.5014 N   0  0  0  0  0  0  0  0  0  0  0  0
   -1.0683    1.6314    8.7161 C   0  0  0  0  0  0  0  0  0  0  0  0
   -0.4137    0.9045    9.8871 C   0  0  0  0  0  0  0  0  0  0  0  0
   -3.2937    3.7882   10.2922 H   0  0  0  0  0  0  0  0  0  0  0  0
   -1.7053    3.4040   10.9233 H   0  0  0  0  0  0  0  0  0  0  0  0
   -2.9597    2.1660   10.8686 H   0  0  0  0  0  0  0  0  0  0  0  0
   -3.4183    4.1323    7.8983 H   0  0  0  0  0  0  0  0  0  0  0  0
   -2.3067    3.2127    2.5992 H   0  0  0  0  0  0  0  0  0  0  0  0
   -0.5096    1.4529    1.7126 H   0  0  0  0  0  0  0  0  0  0  0  0
   -0.7804    1.2144   10.8561 H   0  0  0  0  0  0  0  0  0  0  0  0
    0.6609    1.0664    9.8915 H   0  0  0  0  0  0  0  0  0  0  0  0
   -0.5807   -0.1647    9.8202 H   0  0  0  0  0  0  0  0  0  0  0  0
  1  2  1  0
  1 15  1  0
  1 16  1  0
  1 17  1  0
  2 13  1  0
  2  3  2  0
  3  4  1  0
  3 18  1  0
  4 11  1  0
  4  5  1  0
  5  6  2  0
  6 10  1  0
  6  7  1  0
  7  8  2  0
  7 19  1  0
  8  9  1  0
  8 20  1  0
  9 10  1  0
 10 11  2  0
 11 12  1  0
 12 13  2  0
 13 14  1  0
 14 21  1  0
 14 22  1  0
 14 23  1  0
M  END
>  <i_m_ct_stereo_status>  (176) 
1

>  <s_m_source_file>  (176) 
/var/tmp/pbs.5102264.sched01/tmp6iaxk4q8/46_x9h2b30.sdf

>  <i_m_source_file_index>  (176) 
19

>  <i_lp_mmshare_version>  (176) 
48012

>  <i_f3d_flags>  (176) 
0

>  <s_epik_input>  (176) 
W0NIM11jKFtjSF0xKWMoW0NIM10pbmMobjEyKWMzYyhuMilbY0hdW2NIXXMz

>  <s_epik_cmdline>  (176) 
J2VwaWtfcHl0aG9uJywgJy1waHQnLCAnMi4wJywgJy1waCcsICc3LjAnLCAnLXRuJywgJzgnLCAnLW1hJywgJzIwMCcsICctaW1hZScsICc8aW5maWxlLm1hZT4nLCAnLW9tYWUnLCAnPG91dGZpbGUubWFlPic=

>  <r_lp_tautomer_probability>  (176) 
1

>  <r_epik_Ionization_Penalty>  (176) 
3.32979e-09

>  <r_epik_Ionization_Penalty_Charging>  (176) 
0

>  <r_epik_Ionization_Penalty_Neutral>  (176) 
3.32979e-09

>  <r_epik_State_Penalty>  (176) 
-0

>  <r_epik_Charging_Adjusted_Penalty>  (176) 
0

>  <i_epik_Tot_Q>  (176) 
0

>  <i_epik_Tot_abs_Q>  (176) 
0

>  <s_lp_Force_Field>  (176) 
OPLS3e

>  <r_lp_Energy>  (176) 
15.172

>  <b_lp_Chiralities_Consistent>  (176) 
1

>  <s_lp_Variant>  (176) 
45:0-1

>  <s_i_glide_gridfile>  (176) 
pfpi4k_grid

>  <i_i_glide_lignum>  (176) 
19

>  <i_i_glide_rotatable_bonds>  (176) 
0

>  <r_i_docking_score>  (176) 
-3.49919

>  <r_i_glide_ligand_efficiency>  (176) 
-0.249942

>  <r_i_glide_ligand_efficiency_sa>  (176) 
-0.602395

>  <r_i_glide_ligand_efficiency_ln>  (176) 
-0.961564

>  <r_i_glide_gscore>  (176) 
-3.49919

>  <r_i_glide_lipo>  (176) 
-0.115374

>  <r_i_glide_hbond>  (176) 
0

>  <r_i_glide_metal>  (176) 
-0

>  <r_i_glide_rewards>  (176) 
-2.16098

>  <r_i_glide_evdw>  (176) 
-17.9523

>  <r_i_glide_ecoul>  (176) 
-2.08387

>  <r_i_glide_erotb>  (176) 
0

>  <r_i_glide_esite>  (176) 
-0.0126423

>  <r_i_glide_emodel>  (176) 
-25.3343

>  <r_i_glide_energy>  (176) 
-20.0361

>  <r_i_glide_einternal>  (176) 
0

>  <r_i_glide_intrahb_reward>  (176) 
-0

>  <i_i_glide_confnum>  (176) 
2

>  <i_i_glide_posenum>  (176) 
2

>  <r_i_glide_eff_state_penalty>  (176) 
0

>  <ligand_id>  (176) 
45

>  <original_smiles>  (176) 
Cc1cn2nc3ccsc3c2nc1C

>  <smiles>  (176) 
[H]c1sc2c(nn3c([H])c(C([H])([H])[H])c(C([H])([H])[H])nc23)c1[H]

$$$$
46:0:0
     RDKit          3D

 28 31  0  0  1  0  0  0  0  0999 V2000
    1.8586   -8.9642    7.5153 F   0  0  0  0  0  0  0  0  0  0  0  0
    0.5757   -8.6822    7.2931 C   0  0  0  0  0  0  0  0  0  0  0  0
   -0.0683   -9.8255    7.0650 F   0  0  0  0  0  0  0  0  0  0  0  0
    0.0701   -8.1706    8.4173 F   0  0  0  0  0  0  0  0  0  0  0  0
    0.4258   -7.7324    6.1337 C   0  0  0  0  0  0  0  0  0  0  0  0
    0.5822   -6.4322    6.2702 N   0  0  0  0  0  0  0  0  0  0  0  0
    0.3884   -5.8745    5.0408 N   0  0  0  0  0  0  0  0  0  0  0  0
    0.4804   -4.4627    4.9038 C   0  0  0  0  0  0  0  0  0  0  0  0
    1.1580   -3.8924    3.8083 C   0  0  0  0  0  0  0  0  0  0  0  0
    1.2273   -2.4938    3.6565 C   0  0  0  0  0  0  0  0  0  0  0  0
    0.6185   -1.6663    4.5912 C   0  0  0  0  0  0  0  0  0  0  0  0
    0.5374   -0.3367    4.6480 N   0  0  0  0  0  0  0  0  0  0  0  0
   -0.2042   -0.0905    5.8099 O   0  0  0  0  0  0  0  0  0  0  0  0
   -0.5837   -1.2674    6.4647 N   0  0  0  0  0  0  0  0  0  0  0  0
   -0.0684   -2.2379    5.7072 C   0  0  0  0  0  0  0  0  0  0  0  0
   -0.1263   -3.6189    5.8615 C   0  0  0  0  0  0  0  0  0  0  0  0
    0.0892   -6.8311    4.0710 C   0  0  0  0  0  0  0  0  0  0  0  0
   -0.1866   -6.6528    2.7415 N   0  0  0  0  0  0  0  0  0  0  0  0
   -0.4437   -7.7951    2.0622 C   0  0  0  0  0  0  0  0  0  0  0  0
   -0.4568   -9.0784    2.6418 C   0  0  0  0  0  0  0  0  0  0  0  0
   -0.1704   -9.2139    4.0116 C   0  0  0  0  0  0  0  0  0  0  0  0
    0.1095   -8.0614    4.7742 C   0  0  0  0  0  0  0  0  0  0  0  0
    1.6328   -4.5293    3.0726 H   0  0  0  0  0  0  0  0  0  0  0  0
    1.7430   -2.0687    2.8092 H   0  0  0  0  0  0  0  0  0  0  0  0
   -0.6417   -4.0553    6.7027 H   0  0  0  0  0  0  0  0  0  0  0  0
   -0.6484   -7.6851    1.0056 H   0  0  0  0  0  0  0  0  0  0  0  0
   -0.6729   -9.9486    2.0387 H   0  0  0  0  0  0  0  0  0  0  0  0
   -0.1848  -10.1898    4.4751 H   0  0  0  0  0  0  0  0  0  0  0  0
  1  2  1  0
  2  3  1  0
  2  4  1  0
  2  5  1  0
  5 22  1  0
  5  6  2  0
  6  7  1  0
  7  8  1  0
  7 17  1  0
  8 16  2  0
  8  9  1  0
  9 10  2  0
  9 23  1  0
 10 11  1  0
 10 24  1  0
 11 15  1  0
 11 12  2  0
 12 13  1  0
 13 14  1  0
 14 15  2  0
 15 16  1  0
 16 25  1  0
 17 22  2  0
 17 18  1  0
 18 19  2  0
 19 20  1  0
 19 26  1  0
 20 21  2  0
 20 27  1  0
 21 22  1  0
 21 28  1  0
M  END
>  <i_m_ct_stereo_status>  (177) 
1

>  <s_m_source_file>  (177) 
/var/tmp/pbs.5102264.sched01/tmp6iaxk4q8/46_x9h2b30.sdf

>  <i_m_source_file_index>  (177) 
20

>  <i_lp_mmshare_version>  (177) 
48012

>  <i_f3d_flags>  (177) 
0

>  <s_epik_input>  (177) 
bjFbY0hdW2NIXVtjSF1jKGMxMiljKEMoRikoRilGKW5uMi1jKFtjSF1bY0hdMylbY0hdYyhjMzQpbm9uNA==

>  <s_epik_cmdline>  (177) 
J2VwaWtfcHl0aG9uJywgJy1waHQnLCAnMi4wJywgJy1waCcsICc3LjAnLCAnLXRuJywgJzgnLCAnLW1hJywgJzIwMCcsICctaW1hZScsICc8aW5maWxlLm1hZT4nLCAnLW9tYWUnLCAnPG91dGZpbGUubWFlPic=

>  <r_lp_tautomer_probability>  (177) 
1

>  <r_epik_Ionization_Penalty>  (177) 
7.31175e-08

>  <r_epik_Ionization_Penalty_Charging>  (177) 
0

>  <r_epik_Ionization_Penalty_Neutral>  (177) 
7.31175e-08

>  <r_epik_State_Penalty>  (177) 
-0

>  <r_epik_Charging_Adjusted_Penalty>  (177) 
0

>  <i_epik_Tot_Q>  (177) 
0

>  <i_epik_Tot_abs_Q>  (177) 
0

>  <s_lp_Force_Field>  (177) 
OPLS3e

>  <r_lp_Energy>  (177) 
27.4764

>  <b_lp_Chiralities_Consistent>  (177) 
1

>  <s_lp_Variant>  (177) 
46:0-1

>  <s_i_glide_gridfile>  (177) 
pfpi4k_grid

>  <i_i_glide_lignum>  (177) 
20

>  <i_i_glide_rotatable_bonds>  (177) 
2

>  <r_i_docking_score>  (177) 
-3.46545

>  <r_i_glide_ligand_efficiency>  (177) 
-0.157521

>  <r_i_glide_ligand_efficiency_sa>  (177) 
-0.441379

>  <r_i_glide_ligand_efficiency_ln>  (177) 
-0.847083

>  <r_i_glide_gscore>  (177) 
-3.46545

>  <r_i_glide_lipo>  (177) 
-0.0535925

>  <r_i_glide_hbond>  (177) 
-0.16

>  <r_i_glide_metal>  (177) 
-0

>  <r_i_glide_rewards>  (177) 
-1.32808

>  <r_i_glide_evdw>  (177) 
-19.3579

>  <r_i_glide_ecoul>  (177) 
-5.44831

>  <r_i_glide_erotb>  (177) 
0.198096

>  <r_i_glide_esite>  (177) 
-0.336735

>  <r_i_glide_emodel>  (177) 
-30.3838

>  <r_i_glide_energy>  (177) 
-24.8062

>  <r_i_glide_einternal>  (177) 
0.76543

>  <r_i_glide_intrahb_reward>  (177) 
-0

>  <i_i_glide_confnum>  (177) 
1

>  <i_i_glide_posenum>  (177) 
15

>  <r_i_glide_eff_state_penalty>  (177) 
0

>  <ligand_id>  (177) 
46

>  <original_smiles>  (177) 
FC(F)(F)c1nn(-c2ccc3nonc3c2)c2ncccc12

>  <smiles>  (177) 
[H]c1nc2c(c(C(F)(F)F)nn2-c2c([H])c([H])c3nonc3c2[H])c([H])c1[H]

$$$$
46:0:1
     RDKit          3D

 28 31  0  0  1  0  0  0  0  0999 V2000
    4.3152   -7.1091    0.6153 F   0  0  0  0  0  0  0  0  0  0  0  0
    3.9156   -7.7976    1.6852 C   0  0  0  0  0  0  0  0  0  0  0  0
    3.6525   -9.0404    1.2817 F   0  0  0  0  0  0  0  0  0  0  0  0
    4.9381   -7.8606    2.5390 F   0  0  0  0  0  0  0  0  0  0  0  0
    2.7179   -7.1530    2.3255 C   0  0  0  0  0  0  0  0  0  0  0  0
    2.7292   -5.8925    2.6994 N   0  0  0  0  0  0  0  0  0  0  0  0
    1.5155   -5.6243    3.2601 N   0  0  0  0  0  0  0  0  0  0  0  0
    1.2551   -4.3150    3.7566 C   0  0  0  0  0  0  0  0  0  0  0  0
    1.8265   -3.1911    3.1235 C   0  0  0  0  0  0  0  0  0  0  0  0
    1.5792   -1.8867    3.5927 C   0  0  0  0  0  0  0  0  0  0  0  0
    0.7590   -1.6979    4.6973 C   0  0  0  0  0  0  0  0  0  0  0  0
    0.3774   -0.5758    5.3107 N   0  0  0  0  0  0  0  0  0  0  0  0
   -0.4477   -1.0221    6.3510 O   0  0  0  0  0  0  0  0  0  0  0  0
   -0.5819   -2.4171    6.3718 N   0  0  0  0  0  0  0  0  0  0  0  0
    0.1754   -2.8288    5.3512 C   0  0  0  0  0  0  0  0  0  0  0  0
    0.4279   -4.1160    4.8856 C   0  0  0  0  0  0  0  0  0  0  0  0
    0.6741   -6.7373    3.2324 C   0  0  0  0  0  0  0  0  0  0  0  0
   -0.6219   -6.8482    3.6555 N   0  0  0  0  0  0  0  0  0  0  0  0
   -1.1626   -8.0813    3.5090 C   0  0  0  0  0  0  0  0  0  0  0  0
   -0.4915   -9.1750    2.9263 C   0  0  0  0  0  0  0  0  0  0  0  0
    0.8336   -9.0151    2.4822 C   0  0  0  0  0  0  0  0  0  0  0  0
    1.4553   -7.7556    2.6270 C   0  0  0  0  0  0  0  0  0  0  0  0
    2.4606   -3.3177    2.2576 H   0  0  0  0  0  0  0  0  0  0  0  0
    2.0233   -1.0423    3.0863 H   0  0  0  0  0  0  0  0  0  0  0  0
   -0.0168   -4.9616    5.3865 H   0  0  0  0  0  0  0  0  0  0  0  0
   -2.1779   -8.1991    3.8614 H   0  0  0  0  0  0  0  0  0  0  0  0
   -0.9863  -10.1317    2.8346 H   0  0  0  0  0  0  0  0  0  0  0  0
    1.3608   -9.8453    2.0307 H   0  0  0  0  0  0  0  0  0  0  0  0
  1  2  1  0
  2  3  1  0
  2  4  1  0
  2  5  1  0
  5 22  1  0
  5  6  2  0
  6  7  1  0
  7  8  1  0
  7 17  1  0
  8 16  2  0
  8  9  1  0
  9 10  2  0
  9 23  1  0
 10 11  1  0
 10 24  1  0
 11 15  1  0
 11 12  2  0
 12 13  1  0
 13 14  1  0
 14 15  2  0
 15 16  1  0
 16 25  1  0
 17 22  2  0
 17 18  1  0
 18 19  2  0
 19 20  1  0
 19 26  1  0
 20 21  2  0
 20 27  1  0
 21 22  1  0
 21 28  1  0
M  END
>  <i_m_ct_stereo_status>  (178) 
1

>  <s_m_source_file>  (178) 
/var/tmp/pbs.5102264.sched01/tmp6iaxk4q8/46_x9h2b30.sdf

>  <i_m_source_file_index>  (178) 
20

>  <i_lp_mmshare_version>  (178) 
48012

>  <i_f3d_flags>  (178) 
0

>  <s_epik_input>  (178) 
bjFbY0hdW2NIXVtjSF1jKGMxMiljKEMoRikoRilGKW5uMi1jKFtjSF1bY0hdMylbY0hdYyhjMzQpbm9uNA==

>  <s_epik_cmdline>  (178) 
J2VwaWtfcHl0aG9uJywgJy1waHQnLCAnMi4wJywgJy1waCcsICc3LjAnLCAnLXRuJywgJzgnLCAnLW1hJywgJzIwMCcsICctaW1hZScsICc8aW5maWxlLm1hZT4nLCAnLW9tYWUnLCAnPG91dGZpbGUubWFlPic=

>  <r_lp_tautomer_probability>  (178) 
1

>  <r_epik_Ionization_Penalty>  (178) 
7.31175e-08

>  <r_epik_Ionization_Penalty_Charging>  (178) 
0

>  <r_epik_Ionization_Penalty_Neutral>  (178) 
7.31175e-08

>  <r_epik_State_Penalty>  (178) 
-0

>  <r_epik_Charging_Adjusted_Penalty>  (178) 
0

>  <i_epik_Tot_Q>  (178) 
0

>  <i_epik_Tot_abs_Q>  (178) 
0

>  <s_lp_Force_Field>  (178) 
OPLS3e

>  <r_lp_Energy>  (178) 
27.4764

>  <b_lp_Chiralities_Consistent>  (178) 
1

>  <s_lp_Variant>  (178) 
46:0-1

>  <s_i_glide_gridfile>  (178) 
pfpi4k_grid

>  <i_i_glide_lignum>  (178) 
20

>  <i_i_glide_rotatable_bonds>  (178) 
2

>  <r_i_docking_score>  (178) 
-3.09712

>  <r_i_glide_ligand_efficiency>  (178) 
-0.140778

>  <r_i_glide_ligand_efficiency_sa>  (178) 
-0.394466

>  <r_i_glide_ligand_efficiency_ln>  (178) 
-0.757049

>  <r_i_glide_gscore>  (178) 
-3.09712

>  <r_i_glide_lipo>  (178) 
-0.0331646

>  <r_i_glide_hbond>  (178) 
-0.0647609

>  <r_i_glide_metal>  (178) 
-0

>  <r_i_glide_rewards>  (178) 
-1.52168

>  <r_i_glide_evdw>  (178) 
-20.5712

>  <r_i_glide_ecoul>  (178) 
-2.87078

>  <r_i_glide_erotb>  (178) 
0.198096

>  <r_i_glide_esite>  (178) 
-0.216438

>  <r_i_glide_emodel>  (178) 
-28.7583

>  <r_i_glide_energy>  (178) 
-23.442

>  <r_i_glide_einternal>  (178) 
0.0529278

>  <r_i_glide_intrahb_reward>  (178) 
-0

>  <i_i_glide_confnum>  (178) 
1

>  <i_i_glide_posenum>  (178) 
13

>  <r_i_glide_eff_state_penalty>  (178) 
0

>  <ligand_id>  (178) 
46

>  <original_smiles>  (178) 
FC(F)(F)c1nn(-c2ccc3nonc3c2)c2ncccc12

>  <smiles>  (178) 
[H]c1nc2c(c(C(F)(F)F)nn2-c2c([H])c([H])c3nonc3c2[H])c([H])c1[H]

$$$$
46:0:2
     RDKit          3D

 28 31  0  0  1  0  0  0  0  0999 V2000
    0.0722   -9.4544    7.2421 F   0  0  0  0  0  0  0  0  0  0  0  0
    0.6786   -8.2775    7.3862 C   0  0  0  0  0  0  0  0  0  0  0  0
    0.1230   -7.6780    8.4414 F   0  0  0  0  0  0  0  0  0  0  0  0
    1.9582   -8.5076    7.6745 F   0  0  0  0  0  0  0  0  0  0  0  0
    0.5494   -7.4350    6.1454 C   0  0  0  0  0  0  0  0  0  0  0  0
    0.7671   -6.1371    6.1569 N   0  0  0  0  0  0  0  0  0  0  0  0
    0.5772   -5.6841    4.8833 N   0  0  0  0  0  0  0  0  0  0  0  0
    0.7338   -4.2945    4.6309 C   0  0  0  0  0  0  0  0  0  0  0  0
    0.2134   -3.3587    5.5510 C   0  0  0  0  0  0  0  0  0  0  0  0
    0.3614   -1.9759    5.3352 C   0  0  0  0  0  0  0  0  0  0  0  0
    1.0349   -1.5256    4.2080 C   0  0  0  0  0  0  0  0  0  0  0  0
    1.2988   -0.2820    3.8085 N   0  0  0  0  0  0  0  0  0  0  0  0
    2.0039   -0.4579    2.6114 O   0  0  0  0  0  0  0  0  0  0  0  0
    2.1806   -1.8086    2.2831 N   0  0  0  0  0  0  0  0  0  0  0  0
    1.5740   -2.4637    3.2749 C   0  0  0  0  0  0  0  0  0  0  0  0
    1.4160   -3.8314    3.4838 C   0  0  0  0  0  0  0  0  0  0  0  0
    0.2162   -6.7116    4.0086 C   0  0  0  0  0  0  0  0  0  0  0  0
   -0.0826   -6.6523    2.6715 N   0  0  0  0  0  0  0  0  0  0  0  0
   -0.3882   -7.8451    2.1073 C   0  0  0  0  0  0  0  0  0  0  0  0
   -0.4407   -9.0622    2.8109 C   0  0  0  0  0  0  0  0  0  0  0  0
   -0.1445   -9.0757    4.1846 C   0  0  0  0  0  0  0  0  0  0  0  0
    0.1970   -7.8685    4.8271 C   0  0  0  0  0  0  0  0  0  0  0  0
   -0.3044   -3.7076    6.4335 H   0  0  0  0  0  0  0  0  0  0  0  0
   -0.0314   -1.2713    6.0497 H   0  0  0  0  0  0  0  0  0  0  0  0
    1.8243   -4.5349    2.7750 H   0  0  0  0  0  0  0  0  0  0  0  0
   -0.6082   -7.8322    1.0486 H   0  0  0  0  0  0  0  0  0  0  0  0
   -0.7005   -9.9805    2.2999 H   0  0  0  0  0  0  0  0  0  0  0  0
   -0.1834  -10.0006    4.7407 H   0  0  0  0  0  0  0  0  0  0  0  0
  1  2  1  0
  2  3  1  0
  2  4  1  0
  2  5  1  0
  5 22  1  0
  5  6  2  0
  6  7  1  0
  7  8  1  0
  7 17  1  0
  8 16  2  0
  8  9  1  0
  9 10  2  0
  9 23  1  0
 10 11  1  0
 10 24  1  0
 11 15  1  0
 11 12  2  0
 12 13  1  0
 13 14  1  0
 14 15  2  0
 15 16  1  0
 16 25  1  0
 17 22  2  0
 17 18  1  0
 18 19  2  0
 19 20  1  0
 19 26  1  0
 20 21  2  0
 20 27  1  0
 21 22  1  0
 21 28  1  0
M  END
>  <i_m_ct_stereo_status>  (179) 
1

>  <s_m_source_file>  (179) 
/var/tmp/pbs.5102264.sched01/tmp6iaxk4q8/46_x9h2b30.sdf

>  <i_m_source_file_index>  (179) 
20

>  <i_lp_mmshare_version>  (179) 
48012

>  <i_f3d_flags>  (179) 
0

>  <s_epik_input>  (179) 
bjFbY0hdW2NIXVtjSF1jKGMxMiljKEMoRikoRilGKW5uMi1jKFtjSF1bY0hdMylbY0hdYyhjMzQpbm9uNA==

>  <s_epik_cmdline>  (179) 
J2VwaWtfcHl0aG9uJywgJy1waHQnLCAnMi4wJywgJy1waCcsICc3LjAnLCAnLXRuJywgJzgnLCAnLW1hJywgJzIwMCcsICctaW1hZScsICc8aW5maWxlLm1hZT4nLCAnLW9tYWUnLCAnPG91dGZpbGUubWFlPic=

>  <r_lp_tautomer_probability>  (179) 
1

>  <r_epik_Ionization_Penalty>  (179) 
7.31175e-08

>  <r_epik_Ionization_Penalty_Charging>  (179) 
0

>  <r_epik_Ionization_Penalty_Neutral>  (179) 
7.31175e-08

>  <r_epik_State_Penalty>  (179) 
-0

>  <r_epik_Charging_Adjusted_Penalty>  (179) 
0

>  <i_epik_Tot_Q>  (179) 
0

>  <i_epik_Tot_abs_Q>  (179) 
0

>  <s_lp_Force_Field>  (179) 
OPLS3e

>  <r_lp_Energy>  (179) 
27.4764

>  <b_lp_Chiralities_Consistent>  (179) 
1

>  <s_lp_Variant>  (179) 
46:0-1

>  <s_i_glide_gridfile>  (179) 
pfpi4k_grid

>  <i_i_glide_lignum>  (179) 
20

>  <i_i_glide_rotatable_bonds>  (179) 
2

>  <r_i_docking_score>  (179) 
-3.08974

>  <r_i_glide_ligand_efficiency>  (179) 
-0.140443

>  <r_i_glide_ligand_efficiency_sa>  (179) 
-0.393525

>  <r_i_glide_ligand_efficiency_ln>  (179) 
-0.755244

>  <r_i_glide_gscore>  (179) 
-3.08974

>  <r_i_glide_lipo>  (179) 
-0.0380289

>  <r_i_glide_hbond>  (179) 
-0.16

>  <r_i_glide_metal>  (179) 
-0

>  <r_i_glide_rewards>  (179) 
-1.32808

>  <r_i_glide_evdw>  (179) 
-20.2637

>  <r_i_glide_ecoul>  (179) 
-3.33165

>  <r_i_glide_erotb>  (179) 
0.198096

>  <r_i_glide_esite>  (179) 
-0.248789

>  <r_i_glide_emodel>  (179) 
-28.5442

>  <r_i_glide_energy>  (179) 
-23.5953

>  <r_i_glide_einternal>  (179) 
0.612012

>  <r_i_glide_intrahb_reward>  (179) 
-0

>  <i_i_glide_confnum>  (179) 
5

>  <i_i_glide_posenum>  (179) 
21

>  <r_i_glide_eff_state_penalty>  (179) 
0

>  <ligand_id>  (179) 
46

>  <original_smiles>  (179) 
FC(F)(F)c1nn(-c2ccc3nonc3c2)c2ncccc12

>  <smiles>  (179) 
[H]c1nc2c(c(C(F)(F)F)nn2-c2c([H])c([H])c3nonc3c2[H])c([H])c1[H]

$$$$
47:0:0
     RDKit          3D

 60 63  0  0  1  0  0  0  0  0999 V2000
    0.7009   -7.9248    2.2689 C   0  0  0  0  0  0  0  0  0  0  0  0
    2.0458   -8.5256    2.7396 C   0  0  2  0  0  0  0  0  0  0  0  0
    3.1647   -7.8554    1.9424 C   0  0  0  0  0  0  0  0  0  0  0  0
    4.4941   -8.3472    2.3417 N   0  0  0  0  0  0  0  0  0  0  0  0
    5.4752   -7.5265    2.7685 C   0  0  0  0  0  0  0  0  0  0  0  0
    5.9396   -7.6446    3.8956 O   0  0  0  0  0  0  0  0  0  0  0  0
    5.9679   -6.6281    1.8728 N   0  0  0  0  0  0  0  0  0  0  0  0
    5.1434   -5.8013    0.9526 C   0  0  0  0  0  0  0  0  0  0  0  0
    6.1431   -4.9073    0.3734 C   0  0  0  0  0  0  0  0  0  0  0  0
    7.3694   -5.1453    0.8003 C   0  0  0  0  0  0  0  0  0  0  0  0
    8.2659   -4.2979    0.1955 N   0  0  0  0  0  0  0  0  0  0  0  0
    7.5718   -3.4512   -0.6090 N   0  0  0  0  0  0  0  0  0  0  0  0
    6.2973   -3.8207   -0.5035 C   0  0  0  0  0  0  0  0  0  0  0  0
    5.2205   -3.2557   -1.1858 N   0  0  0  0  0  0  0  0  0  0  0  0
    5.2549   -1.9752   -1.6443 C   0  0  0  0  0  0  0  0  0  0  0  0
    6.0818   -1.1387   -1.2918 O   0  0  0  0  0  0  0  0  0  0  0  0
    4.2019   -1.6494   -2.5879 C   0  0  0  0  0  0  0  0  0  0  0  0
    3.2597   -2.3935   -3.1991 C   0  0  0  0  0  0  0  0  0  0  0  0
    2.6085   -1.6105   -4.1348 N   0  0  0  0  0  0  0  0  0  0  0  0
    3.0282   -0.3710   -3.8838 C   0  0  0  0  0  0  0  0  0  0  0  0
    4.0886   -0.3554   -3.0519 O   0  0  0  0  0  0  0  0  0  0  0  0
    7.4224   -6.2661    1.7424 C   0  0  0  0  0  0  0  0  0  0  0  0
    8.0643   -5.8423    3.0612 C   0  0  0  0  0  0  0  0  0  0  0  0
    8.1985   -7.4161    1.1249 C   0  0  0  0  0  0  0  0  0  0  0  0
    4.6063   -9.8230    2.3644 C   0  0  1  0  0  0  0  0  0  0  0  0
    5.9382  -10.4153    2.8994 C   0  0  0  0  0  0  0  0  0  0  0  0
    3.4403  -10.4297    3.1294 C   0  0  0  0  0  0  0  0  0  0  0  0
    2.1325   -9.9810    2.6414 N   0  0  0  0  0  0  0  0  0  0  0  0
    1.0629  -10.6182    3.4211 C   0  0  0  0  0  0  0  0  0  0  0  0
    1.0037  -12.1518    3.3581 C   0  0  0  0  0  0  0  0  0  0  0  0
    0.2472  -12.6324    4.4574 O   0  0  0  0  0  0  0  0  0  0  0  0
    9.2756   -4.3056    0.3203 H   0  0  0  0  0  0  0  0  0  0  0  0
    0.7381   -6.8358    2.1966 H   0  0  0  0  0  0  0  0  0  0  0  0
   -0.1325   -8.1747    2.9286 H   0  0  0  0  0  0  0  0  0  0  0  0
    0.4541   -8.3035    1.2836 H   0  0  0  0  0  0  0  0  0  0  0  0
    2.1758   -8.2478    3.7903 H   0  0  0  0  0  0  0  0  0  0  0  0
    3.0368   -8.0342    0.8728 H   0  0  0  0  0  0  0  0  0  0  0  0
    3.0664   -6.7883    2.1373 H   0  0  0  0  0  0  0  0  0  0  0  0
    4.6313   -6.3884    0.1831 H   0  0  0  0  0  0  0  0  0  0  0  0
    4.4484   -5.2401    1.5686 H   0  0  0  0  0  0  0  0  0  0  0  0
    2.9922   -3.4240   -3.0445 H   0  0  0  0  0  0  0  0  0  0  0  0
    2.6700    0.5096   -4.4032 H   0  0  0  0  0  0  0  0  0  0  0  0
    9.0341   -5.3826    2.8895 H   0  0  0  0  0  0  0  0  0  0  0  0
    8.2499   -6.6613    3.7536 H   0  0  0  0  0  0  0  0  0  0  0  0
    7.4168   -5.1254    3.5495 H   0  0  0  0  0  0  0  0  0  0  0  0
    9.0823   -6.8534    0.8356 H   0  0  0  0  0  0  0  0  0  0  0  0
    7.8249   -7.8490    0.2011 H   0  0  0  0  0  0  0  0  0  0  0  0
    8.4440   -8.1923    1.8577 H   0  0  0  0  0  0  0  0  0  0  0  0
    4.5265  -10.1312    1.3232 H   0  0  0  0  0  0  0  0  0  0  0  0
    5.8770  -11.5022    2.9587 H   0  0  0  0  0  0  0  0  0  0  0  0
    6.1835  -10.0739    3.9086 H   0  0  0  0  0  0  0  0  0  0  0  0
    6.7841  -10.1901    2.2498 H   0  0  0  0  0  0  0  0  0  0  0  0
    3.5346  -11.5064    2.9890 H   0  0  0  0  0  0  0  0  0  0  0  0
    3.5405  -10.1853    4.1947 H   0  0  0  0  0  0  0  0  0  0  0  0
    1.1157  -10.3243    4.4772 H   0  0  0  0  0  0  0  0  0  0  0  0
    0.0793  -10.3015    3.0686 H   0  0  0  0  0  0  0  0  0  0  0  0
    0.5514  -12.4865    2.4112 H   0  0  0  0  0  0  0  0  0  0  0  0
    2.0025  -12.5955    3.4619 H   0  0  0  0  0  0  0  0  0  0  0  0
    0.6614  -12.3683    5.2499 H   0  0  0  0  0  0  0  0  0  0  0  0
    4.4122   -3.8171   -1.3269 H   0  0  0  0  0  0  0  0  0  0  0  0
  1  2  1  0
  1 33  1  0
  1 34  1  0
  1 35  1  0
  2 28  1  0
  2  3  1  0
  2 36  1  1
  3  4  1  0
  3 37  1  0
  3 38  1  0
  4  5  1  0
  4 25  1  0
  5  6  2  0
  5  7  1  0
  7 22  1  0
  7  8  1  0
  8  9  1  0
  8 39  1  0
  8 40  1  0
  9 13  1  0
  9 10  2  0
 10 11  1  0
 10 22  1  0
 11 32  1  0
 11 12  1  0
 12 13  2  0
 13 14  1  0
 14 15  1  0
 14 60  1  0
 15 16  2  0
 15 17  1  0
 17 21  1  0
 17 18  2  0
 18 19  1  0
 18 41  1  0
 19 20  2  0
 20 21  1  0
 20 42  1  0
 22 23  1  0
 22 24  1  0
 23 43  1  0
 23 44  1  0
 23 45  1  0
 24 46  1  0
 24 47  1  0
 24 48  1  0
 25 26  1  0
 25 27  1  0
 25 49  1  6
 26 50  1  0
 26 51  1  0
 26 52  1  0
 27 28  1  0
 27 53  1  0
 27 54  1  0
 28 29  1  0
 29 30  1  0
 29 55  1  0
 29 56  1  0
 30 31  1  0
 30 57  1  0
 30 58  1  0
 31 59  1  0
M  END
>  <i_m_ct_stereo_status>  (180) 
1

>  <s_m_source_file>  (180) 
/var/tmp/pbs.5102264.sched01/tmp6iaxk4q8/46_x9h2b30.sdf

>  <i_m_source_file_index>  (180) 
21

>  <i_lp_mmshare_version>  (180) 
48012

>  <i_f3d_flags>  (180) 
0

>  <s_epik_input>  (180) 
W09IXVtDSDJdW0NIMl1OMVtDSDJdW0NASF0oW0NIM10pTihbQ0gyXVtDQEhdMVtDSDNdKUMoPU8pTihbQ0gyXTIpQyhbQ0gzXSkoW0NIM10pYyhjMjMpW25IXVtuSF1jXDM9Ti9DKD1PKWM0W2NIXW5bY0hdbzQ=

>  <s_epik_cmdline>  (180) 
J2VwaWtfcHl0aG9uJywgJy1waHQnLCAnMi4wJywgJy1waCcsICc3LjAnLCAnLXRuJywgJzgnLCAnLW1hJywgJzIwMCcsICctaW1hZScsICc8aW5maWxlLm1hZT4nLCAnLW9tYWUnLCAnPG91dGZpbGUubWFlPic=

>  <r_lp_tautomer_probability>  (180) 
0.5

>  <r_epik_Ionization_Penalty>  (180) 
0.17301

>  <r_epik_Ionization_Penalty_Charging>  (180) 
0

>  <r_epik_Ionization_Penalty_Neutral>  (180) 
0.17301

>  <r_epik_State_Penalty>  (180) 
0.572777

>  <r_epik_Charging_Adjusted_Penalty>  (180) 
0.572777

>  <i_epik_Tot_Q>  (180) 
0

>  <i_epik_Tot_abs_Q>  (180) 
0

>  <s_lp_Force_Field>  (180) 
OPLS3e

>  <r_lp_Energy>  (180) 
48.2586

>  <b_lp_Chiralities_Consistent>  (180) 
1

>  <s_lp_Variant>  (180) 
47:0-1

>  <s_i_glide_gridfile>  (180) 
pfpi4k_grid

>  <i_i_glide_lignum>  (180) 
21

>  <i_i_glide_rotatable_bonds>  (180) 
8

>  <r_i_docking_score>  (180) 
-2.62142

>  <r_i_glide_ligand_efficiency>  (180) 
-0.0845619

>  <r_i_glide_ligand_efficiency_sa>  (180) 
-0.265641

>  <r_i_glide_ligand_efficiency_ln>  (180) 
-0.59121

>  <r_i_glide_gscore>  (180) 
-2.62142

>  <r_i_glide_lipo>  (180) 
-0.922118

>  <r_i_glide_hbond>  (180) 
-0.0830412

>  <r_i_glide_metal>  (180) 
-0

>  <r_i_glide_rewards>  (180) 
-0.555917

>  <r_i_glide_evdw>  (180) 
-18.0989

>  <r_i_glide_ecoul>  (180) 
-5.75908

>  <r_i_glide_erotb>  (180) 
0.747826

>  <r_i_glide_esite>  (180) 
-0.0393586

>  <r_i_glide_emodel>  (180) 
-22.239

>  <r_i_glide_energy>  (180) 
-23.858

>  <r_i_glide_einternal>  (180) 
5.65684

>  <r_i_glide_intrahb_reward>  (180) 
-0

>  <i_i_glide_confnum>  (180) 
5

>  <i_i_glide_posenum>  (180) 
2

>  <r_i_glide_eff_state_penalty>  (180) 
0

>  <ligand_id>  (180) 
47

>  <original_smiles>  (180) 
CC1CN(C(=O)N2Cc3c([nH][nH]c3=NC(=O)c3cnco3)C2(C)C)C(C)CN1CCO

>  <smiles>  (180) 
[H]OC([H])([H])C([H])([H])N1C([H])([H])C([H])(C([H])([H])[H])N(C(=O)N2C([H])([H])c3c(N([H])C(=O)c4oc([H])nc4[H])nn([H])c3C2(C([H])([H])[H])C([H])([H])[H])C([H])([H])C1([H])C([H])([H])[H]

$$$$
47:0:1
     RDKit          3D

 60 63  0  0  1  0  0  0  0  0999 V2000
   -1.4371   -7.4882    4.3814 C   0  0  0  0  0  0  0  0  0  0  0  0
   -0.0974   -7.3932    5.1442 C   0  0  2  0  0  0  0  0  0  0  0  0
    0.4312   -8.8436    5.2591 C   0  0  0  0  0  0  0  0  0  0  0  0
    1.7130   -8.8430    5.9755 N   0  0  0  0  0  0  0  0  0  0  0  0
    2.7740   -9.5138    5.4824 C   0  0  0  0  0  0  0  0  0  0  0  0
    3.4241  -10.3145    6.1344 O   0  0  0  0  0  0  0  0  0  0  0  0
    3.0515   -9.2279    4.1909 N   0  0  0  0  0  0  0  0  0  0  0  0
    3.1775   -7.8254    3.6993 C   0  0  0  0  0  0  0  0  0  0  0  0
    3.7660   -8.0288    2.3616 C   0  0  0  0  0  0  0  0  0  0  0  0
    3.9676   -9.3125    2.1350 C   0  0  0  0  0  0  0  0  0  0  0  0
    4.4941   -9.4603    0.8887 N   0  0  0  0  0  0  0  0  0  0  0  0
    4.6460   -8.2628    0.2835 N   0  0  0  0  0  0  0  0  0  0  0  0
    4.2178   -7.3740    1.1821 C   0  0  0  0  0  0  0  0  0  0  0  0
    4.1784   -5.9956    0.9645 N   0  0  0  0  0  0  0  0  0  0  0  0
    5.1445   -5.3021    0.3419 C   0  0  0  0  0  0  0  0  0  0  0  0
    6.2899   -5.7079    0.1799 O   0  0  0  0  0  0  0  0  0  0  0  0
    4.7713   -3.9566   -0.0825 C   0  0  0  0  0  0  0  0  0  0  0  0
    5.4896   -2.9294   -0.6415 C   0  0  0  0  0  0  0  0  0  0  0  0
    4.6530   -1.8444   -0.8177 N   0  0  0  0  0  0  0  0  0  0  0  0
    3.4818   -2.2737   -0.3788 C   0  0  0  0  0  0  0  0  0  0  0  0
    3.4739   -3.5488    0.0760 O   0  0  0  0  0  0  0  0  0  0  0  0
    3.5947  -10.2273    3.2271 C   0  0  0  0  0  0  0  0  0  0  0  0
    4.8408  -10.9943    3.7317 C   0  0  0  0  0  0  0  0  0  0  0  0
    2.4809  -11.2184    2.8661 C   0  0  0  0  0  0  0  0  0  0  0  0
    1.6186   -8.2948    7.3401 C   0  0  1  0  0  0  0  0  0  0  0  0
    2.9522   -8.2226    8.1139 C   0  0  0  0  0  0  0  0  0  0  0  0
    1.1056   -6.8597    7.2125 C   0  0  0  0  0  0  0  0  0  0  0  0
   -0.1712   -6.7703    6.4925 N   0  0  0  0  0  0  0  0  0  0  0  0
   -0.7259   -5.4275    6.5186 C   0  0  0  0  0  0  0  0  0  0  0  0
   -1.2382   -4.9306    7.8723 C   0  0  0  0  0  0  0  0  0  0  0  0
   -2.1642   -3.8807    7.6237 O   0  0  0  0  0  0  0  0  0  0  0  0
    4.6459  -10.3821    0.4802 H   0  0  0  0  0  0  0  0  0  0  0  0
   -1.3874   -8.0571    3.4493 H   0  0  0  0  0  0  0  0  0  0  0  0
   -1.8811   -6.5271    4.1213 H   0  0  0  0  0  0  0  0  0  0  0  0
   -2.0981   -8.0579    5.0184 H   0  0  0  0  0  0  0  0  0  0  0  0
    0.5738   -6.8009    4.5255 H   0  0  0  0  0  0  0  0  0  0  0  0
   -0.2687   -9.5028    5.7734 H   0  0  0  0  0  0  0  0  0  0  0  0
    0.4881   -9.2810    4.2624 H   0  0  0  0  0  0  0  0  0  0  0  0
    2.2280   -7.3218    3.6167 H   0  0  0  0  0  0  0  0  0  0  0  0
    3.8227   -7.2460    4.3523 H   0  0  0  0  0  0  0  0  0  0  0  0
    6.5305   -2.8623   -0.9173 H   0  0  0  0  0  0  0  0  0  0  0  0
    2.6182   -1.6445   -0.2978 H   0  0  0  0  0  0  0  0  0  0  0  0
    5.2851  -11.5854    2.9346 H   0  0  0  0  0  0  0  0  0  0  0  0
    4.5839  -11.7118    4.5057 H   0  0  0  0  0  0  0  0  0  0  0  0
    5.6056  -10.3294    4.1352 H   0  0  0  0  0  0  0  0  0  0  0  0
    2.8729  -11.8917    2.1061 H   0  0  0  0  0  0  0  0  0  0  0  0
    1.6123  -10.6880    2.4779 H   0  0  0  0  0  0  0  0  0  0  0  0
    2.1609  -11.8026    3.7333 H   0  0  0  0  0  0  0  0  0  0  0  0
    0.9107   -8.9212    7.8908 H   0  0  0  0  0  0  0  0  0  0  0  0
    2.8889   -7.5787    8.9947 H   0  0  0  0  0  0  0  0  0  0  0  0
    3.7266   -7.7921    7.4772 H   0  0  0  0  0  0  0  0  0  0  0  0
    3.2894   -9.2081    8.4422 H   0  0  0  0  0  0  0  0  0  0  0  0
    0.9577   -6.4942    8.2223 H   0  0  0  0  0  0  0  0  0  0  0  0
    1.8739   -6.2449    6.7446 H   0  0  0  0  0  0  0  0  0  0  0  0
   -0.0801   -4.6659    6.0597 H   0  0  0  0  0  0  0  0  0  0  0  0
   -1.6465   -5.5113    5.9678 H   0  0  0  0  0  0  0  0  0  0  0  0
   -1.7704   -5.7197    8.3953 H   0  0  0  0  0  0  0  0  0  0  0  0
   -0.4292   -4.6061    8.5256 H   0  0  0  0  0  0  0  0  0  0  0  0
   -3.0202   -4.2580    7.4429 H   0  0  0  0  0  0  0  0  0  0  0  0
    3.3228   -5.5092    1.1864 H   0  0  0  0  0  0  0  0  0  0  0  0
  1  2  1  0
  1 33  1  0
  1 34  1  0
  1 35  1  0
  2 28  1  0
  2  3  1  0
  2 36  1  6
  3  4  1  0
  3 37  1  0
  3 38  1  0
  4  5  1  0
  4 25  1  0
  5  6  2  0
  5  7  1  0
  7 22  1  0
  7  8  1  0
  8  9  1  0
  8 39  1  0
  8 40  1  0
  9 13  1  0
  9 10  2  0
 10 11  1  0
 10 22  1  0
 11 32  1  0
 11 12  1  0
 12 13  2  0
 13 14  1  0
 14 15  1  0
 14 60  1  0
 15 16  2  0
 15 17  1  0
 17 21  1  0
 17 18  2  0
 18 19  1  0
 18 41  1  0
 19 20  2  0
 20 21  1  0
 20 42  1  0
 22 23  1  0
 22 24  1  0
 23 43  1  0
 23 44  1  0
 23 45  1  0
 24 46  1  0
 24 47  1  0
 24 48  1  0
 25 26  1  0
 25 27  1  0
 25 49  1  1
 26 50  1  0
 26 51  1  0
 26 52  1  0
 27 28  1  0
 27 53  1  0
 27 54  1  0
 28 29  1  0
 29 30  1  0
 29 55  1  0
 29 56  1  0
 30 31  1  0
 30 57  1  0
 30 58  1  0
 31 59  1  0
M  END
>  <i_m_ct_stereo_status>  (181) 
1

>  <s_m_source_file>  (181) 
/var/tmp/pbs.5102264.sched01/tmp6iaxk4q8/46_x9h2b30.sdf

>  <i_m_source_file_index>  (181) 
21

>  <i_lp_mmshare_version>  (181) 
48012

>  <i_f3d_flags>  (181) 
0

>  <s_epik_input>  (181) 
W09IXVtDSDJdW0NIMl1OMVtDSDJdW0NASF0oW0NIM10pTihbQ0gyXVtDQEhdMVtDSDNdKUMoPU8pTihbQ0gyXTIpQyhbQ0gzXSkoW0NIM10pYyhjMjMpW25IXVtuSF1jXDM9Ti9DKD1PKWM0W2NIXW5bY0hdbzQ=

>  <s_epik_cmdline>  (181) 
J2VwaWtfcHl0aG9uJywgJy1waHQnLCAnMi4wJywgJy1waCcsICc3LjAnLCAnLXRuJywgJzgnLCAnLW1hJywgJzIwMCcsICctaW1hZScsICc8aW5maWxlLm1hZT4nLCAnLW9tYWUnLCAnPG91dGZpbGUubWFlPic=

>  <r_lp_tautomer_probability>  (181) 
0.5

>  <r_epik_Ionization_Penalty>  (181) 
0.17301

>  <r_epik_Ionization_Penalty_Charging>  (181) 
0

>  <r_epik_Ionization_Penalty_Neutral>  (181) 
0.17301

>  <r_epik_State_Penalty>  (181) 
0.572777

>  <r_epik_Charging_Adjusted_Penalty>  (181) 
0.572777

>  <i_epik_Tot_Q>  (181) 
0

>  <i_epik_Tot_abs_Q>  (181) 
0

>  <s_lp_Force_Field>  (181) 
OPLS3e

>  <r_lp_Energy>  (181) 
48.2586

>  <b_lp_Chiralities_Consistent>  (181) 
1

>  <s_lp_Variant>  (181) 
47:0-1

>  <s_i_glide_gridfile>  (181) 
pfpi4k_grid

>  <i_i_glide_lignum>  (181) 
21

>  <i_i_glide_rotatable_bonds>  (181) 
8

>  <r_i_docking_score>  (181) 
-2.42885

>  <r_i_glide_ligand_efficiency>  (181) 
-0.07835

>  <r_i_glide_ligand_efficiency_sa>  (181) 
-0.246127

>  <r_i_glide_ligand_efficiency_ln>  (181) 
-0.54778

>  <r_i_glide_gscore>  (181) 
-2.42885

>  <r_i_glide_lipo>  (181) 
-0.260903

>  <r_i_glide_hbond>  (181) 
-0.270925

>  <r_i_glide_metal>  (181) 
-0

>  <r_i_glide_rewards>  (181) 
-0.590814

>  <r_i_glide_evdw>  (181) 
-17.3971

>  <r_i_glide_ecoul>  (181) 
-8.83943

>  <r_i_glide_erotb>  (181) 
0.747826

>  <r_i_glide_esite>  (181) 
-0.14417

>  <r_i_glide_emodel>  (181) 
-21.6232

>  <r_i_glide_energy>  (181) 
-26.2365

>  <r_i_glide_einternal>  (181) 
6.2699

>  <r_i_glide_intrahb_reward>  (181) 
-0

>  <i_i_glide_confnum>  (181) 
6

>  <i_i_glide_posenum>  (181) 
3

>  <r_i_glide_eff_state_penalty>  (181) 
0

>  <ligand_id>  (181) 
47

>  <original_smiles>  (181) 
CC1CN(C(=O)N2Cc3c([nH][nH]c3=NC(=O)c3cnco3)C2(C)C)C(C)CN1CCO

>  <smiles>  (181) 
[H]OC([H])([H])C([H])([H])N1C([H])([H])C([H])(C([H])([H])[H])N(C(=O)N2C([H])([H])c3c(N([H])C(=O)c4oc([H])nc4[H])nn([H])c3C2(C([H])([H])[H])C([H])([H])[H])C([H])([H])C1([H])C([H])([H])[H]

$$$$
47:0:2
     RDKit          3D

 60 63  0  0  1  0  0  0  0  0999 V2000
    3.6813   -8.8544    0.4971 C   0  0  0  0  0  0  0  0  0  0  0  0
    2.5088   -8.2192    1.3049 C   0  0  2  0  0  0  0  0  0  0  0  0
    2.7041   -6.7203    1.5317 C   0  0  0  0  0  0  0  0  0  0  0  0
    3.7643   -6.4954    2.5245 N   0  0  0  0  0  0  0  0  0  0  0  0
    4.8862   -5.8202    2.1934 C   0  0  0  0  0  0  0  0  0  0  0  0
    6.0082   -6.2200    2.5178 O   0  0  0  0  0  0  0  0  0  0  0  0
    4.6650   -4.6715    1.4934 N   0  0  0  0  0  0  0  0  0  0  0  0
    3.6069   -3.7073    1.9135 C   0  0  0  0  0  0  0  0  0  0  0  0
    3.8986   -2.5181    1.0840 C   0  0  0  0  0  0  0  0  0  0  0  0
    4.9412   -2.7296    0.2921 C   0  0  0  0  0  0  0  0  0  0  0  0
    5.1412   -1.6282   -0.4985 N   0  0  0  0  0  0  0  0  0  0  0  0
    4.2324   -0.6588   -0.2096 N   0  0  0  0  0  0  0  0  0  0  0  0
    3.4890   -1.1895    0.7689 C   0  0  0  0  0  0  0  0  0  0  0  0
    2.4115   -0.4697    1.3305 N   0  0  0  0  0  0  0  0  0  0  0  0
    1.7112   -0.7260    2.4332 C   0  0  0  0  0  0  0  0  0  0  0  0
    1.9392   -1.6418    3.2218 O   0  0  0  0  0  0  0  0  0  0  0  0
    0.5793    0.1794    2.6723 C   0  0  0  0  0  0  0  0  0  0  0  0
    0.1244    1.3076    2.0478 C   0  0  0  0  0  0  0  0  0  0  0  0
   -0.9935    1.7572    2.7151 N   0  0  0  0  0  0  0  0  0  0  0  0
   -1.1811    0.9251    3.7211 C   0  0  0  0  0  0  0  0  0  0  0  0
   -0.2558   -0.0798    3.7371 O   0  0  0  0  0  0  0  0  0  0  0  0
    5.5503   -4.0518    0.4584 C   0  0  0  0  0  0  0  0  0  0  0  0
    7.0201   -3.8889    0.8981 C   0  0  0  0  0  0  0  0  0  0  0  0
    5.4241   -4.8262   -0.8391 C   0  0  0  0  0  0  0  0  0  0  0  0
    3.6804   -7.3391    3.7368 C   0  0  1  0  0  0  0  0  0  0  0  0
    2.6121   -6.7549    4.6643 C   0  0  0  0  0  0  0  0  0  0  0  0
    3.3731   -8.8193    3.4475 C   0  0  0  0  0  0  0  0  0  0  0  0
    2.2275   -8.8984    2.5555 N   0  0  0  0  0  0  0  0  0  0  0  0
    1.8346  -10.2636    2.2793 C   0  0  0  0  0  0  0  0  0  0  0  0
    1.0353  -10.9489    3.3915 C   0  0  0  0  0  0  0  0  0  0  0  0
    0.6117  -12.1976    2.9372 O   0  0  0  0  0  0  0  0  0  0  0  0
    5.8287   -1.5154   -1.2186 H   0  0  0  0  0  0  0  0  0  0  0  0
    4.0157   -8.1066   -0.2291 H   0  0  0  0  0  0  0  0  0  0  0  0
    3.3459   -9.8109    0.0507 H   0  0  0  0  0  0  0  0  0  0  0  0
    4.6276   -9.0054    1.0137 H   0  0  0  0  0  0  0  0  0  0  0  0
    1.5545   -8.2462    0.7532 H   0  0  0  0  0  0  0  0  0  0  0  0
    2.8441   -6.2608    0.5495 H   0  0  0  0  0  0  0  0  0  0  0  0
    1.8006   -6.2521    1.9095 H   0  0  0  0  0  0  0  0  0  0  0  0
    2.5860   -4.0603    1.7429 H   0  0  0  0  0  0  0  0  0  0  0  0
    3.7127   -3.4985    2.9766 H   0  0  0  0  0  0  0  0  0  0  0  0
    0.5178    1.8087    1.1531 H   0  0  0  0  0  0  0  0  0  0  0  0
   -1.9997    1.0069    4.4431 H   0  0  0  0  0  0  0  0  0  0  0  0
    7.6003   -3.2899    0.1924 H   0  0  0  0  0  0  0  0  0  0  0  0
    7.5280   -4.8468    0.9754 H   0  0  0  0  0  0  0  0  0  0  0  0
    7.0542   -3.3983    1.8703 H   0  0  0  0  0  0  0  0  0  0  0  0
    5.9526   -4.2672   -1.6130 H   0  0  0  0  0  0  0  0  0  0  0  0
    4.3971   -4.9652   -1.1666 H   0  0  0  0  0  0  0  0  0  0  0  0
    5.8218   -5.8251   -0.6878 H   0  0  0  0  0  0  0  0  0  0  0  0
    4.6446   -7.3489    4.2414 H   0  0  0  0  0  0  0  0  0  0  0  0
    2.3618   -7.4701    5.4494 H   0  0  0  0  0  0  0  0  0  0  0  0
    1.6799   -6.5746    4.1302 H   0  0  0  0  0  0  0  0  0  0  0  0
    2.9413   -5.7961    5.0665 H   0  0  0  0  0  0  0  0  0  0  0  0
    4.2476   -9.3402    3.0639 H   0  0  0  0  0  0  0  0  0  0  0  0
    3.1740   -9.3758    4.3599 H   0  0  0  0  0  0  0  0  0  0  0  0
    1.1782  -10.2360    1.4010 H   0  0  0  0  0  0  0  0  0  0  0  0
    2.7229  -10.8649    2.0520 H   0  0  0  0  0  0  0  0  0  0  0  0
    1.6300  -11.1200    4.2911 H   0  0  0  0  0  0  0  0  0  0  0  0
    0.1193  -10.3915    3.6057 H   0  0  0  0  0  0  0  0  0  0  0  0
    1.3142  -12.8157    2.9350 H   0  0  0  0  0  0  0  0  0  0  0  0
    2.0474    0.2658    0.7484 H   0  0  0  0  0  0  0  0  0  0  0  0
  1  2  1  0
  1 33  1  0
  1 34  1  0
  1 35  1  0
  2 28  1  0
  2  3  1  0
  2 36  1  6
  3  4  1  0
  3 37  1  0
  3 38  1  0
  4  5  1  0
  4 25  1  0
  5  6  2  0
  5  7  1  0
  7 22  1  0
  7  8  1  0
  8  9  1  0
  8 39  1  0
  8 40  1  0
  9 13  1  0
  9 10  2  0
 10 11  1  0
 10 22  1  0
 11 32  1  0
 11 12  1  0
 12 13  2  0
 13 14  1  0
 14 15  1  0
 14 60  1  0
 15 16  2  0
 15 17  1  0
 17 21  1  0
 17 18  2  0
 18 19  1  0
 18 41  1  0
 19 20  2  0
 20 21  1  0
 20 42  1  0
 22 23  1  0
 22 24  1  0
 23 43  1  0
 23 44  1  0
 23 45  1  0
 24 46  1  0
 24 47  1  0
 24 48  1  0
 25 26  1  0
 25 27  1  0
 25 49  1  1
 26 50  1  0
 26 51  1  0
 26 52  1  0
 27 28  1  0
 27 53  1  0
 27 54  1  0
 28 29  1  0
 29 30  1  0
 29 55  1  0
 29 56  1  0
 30 31  1  0
 30 57  1  0
 30 58  1  0
 31 59  1  0
M  END
>  <i_m_ct_stereo_status>  (182) 
1

>  <s_m_source_file>  (182) 
/var/tmp/pbs.5102264.sched01/tmp6iaxk4q8/46_x9h2b30.sdf

>  <i_m_source_file_index>  (182) 
21

>  <i_lp_mmshare_version>  (182) 
48012

>  <i_f3d_flags>  (182) 
0

>  <s_epik_input>  (182) 
W09IXVtDSDJdW0NIMl1OMVtDSDJdW0NASF0oW0NIM10pTihbQ0gyXVtDQEhdMVtDSDNdKUMoPU8pTihbQ0gyXTIpQyhbQ0gzXSkoW0NIM10pYyhjMjMpW25IXVtuSF1jXDM9Ti9DKD1PKWM0W2NIXW5bY0hdbzQ=

>  <s_epik_cmdline>  (182) 
J2VwaWtfcHl0aG9uJywgJy1waHQnLCAnMi4wJywgJy1waCcsICc3LjAnLCAnLXRuJywgJzgnLCAnLW1hJywgJzIwMCcsICctaW1hZScsICc8aW5maWxlLm1hZT4nLCAnLW9tYWUnLCAnPG91dGZpbGUubWFlPic=

>  <r_lp_tautomer_probability>  (182) 
0.5

>  <r_epik_Ionization_Penalty>  (182) 
0.17301

>  <r_epik_Ionization_Penalty_Charging>  (182) 
0

>  <r_epik_Ionization_Penalty_Neutral>  (182) 
0.17301

>  <r_epik_State_Penalty>  (182) 
0.572777

>  <r_epik_Charging_Adjusted_Penalty>  (182) 
0.572777

>  <i_epik_Tot_Q>  (182) 
0

>  <i_epik_Tot_abs_Q>  (182) 
0

>  <s_lp_Force_Field>  (182) 
OPLS3e

>  <r_lp_Energy>  (182) 
48.2586

>  <b_lp_Chiralities_Consistent>  (182) 
1

>  <s_lp_Variant>  (182) 
47:0-1

>  <s_i_glide_gridfile>  (182) 
pfpi4k_grid

>  <i_i_glide_lignum>  (182) 
21

>  <i_i_glide_rotatable_bonds>  (182) 
8

>  <r_i_docking_score>  (182) 
-2.21666

>  <r_i_glide_ligand_efficiency>  (182) 
-0.0715051

>  <r_i_glide_ligand_efficiency_sa>  (182) 
-0.224625

>  <r_i_glide_ligand_efficiency_ln>  (182) 
-0.499925

>  <r_i_glide_gscore>  (182) 
-2.21666

>  <r_i_glide_lipo>  (182) 
-0.495504

>  <r_i_glide_hbond>  (182) 
-0.280027

>  <r_i_glide_metal>  (182) 
-0

>  <r_i_glide_rewards>  (182) 
-0.519554

>  <r_i_glide_evdw>  (182) 
-20.4152

>  <r_i_glide_ecoul>  (182) 
-3.42928

>  <r_i_glide_erotb>  (182) 
0.747826

>  <r_i_glide_esite>  (182) 
-0.134247

>  <r_i_glide_emodel>  (182) 
-23.5881

>  <r_i_glide_energy>  (182) 
-23.8445

>  <r_i_glide_einternal>  (182) 
3.02767

>  <r_i_glide_intrahb_reward>  (182) 
-0

>  <i_i_glide_confnum>  (182) 
4

>  <i_i_glide_posenum>  (182) 
22

>  <r_i_glide_eff_state_penalty>  (182) 
0

>  <ligand_id>  (182) 
47

>  <original_smiles>  (182) 
CC1CN(C(=O)N2Cc3c([nH][nH]c3=NC(=O)c3cnco3)C2(C)C)C(C)CN1CCO

>  <smiles>  (182) 
[H]OC([H])([H])C([H])([H])N1C([H])([H])C([H])(C([H])([H])[H])N(C(=O)N2C([H])([H])c3c(N([H])C(=O)c4oc([H])nc4[H])nn([H])c3C2(C([H])([H])[H])C([H])([H])[H])C([H])([H])C1([H])C([H])([H])[H]

$$$$
47:1:0
     RDKit          3D

 60 63  0  0  1  0  0  0  0  0999 V2000
    3.8043   -8.8143    0.4854 C   0  0  0  0  0  0  0  0  0  0  0  0
    2.6074   -8.1577    1.2682 C   0  0  2  0  0  0  0  0  0  0  0  0
    2.8511   -6.6654    1.4637 C   0  0  0  0  0  0  0  0  0  0  0  0
    3.8707   -6.4456    2.4965 N   0  0  0  0  0  0  0  0  0  0  0  0
    5.0106   -5.7738    2.2154 C   0  0  0  0  0  0  0  0  0  0  0  0
    6.1184   -6.1959    2.5651 O   0  0  0  0  0  0  0  0  0  0  0  0
    4.8721   -4.6119    1.5271 N   0  0  0  0  0  0  0  0  0  0  0  0
    3.7780   -3.6725    1.8535 C   0  0  0  0  0  0  0  0  0  0  0  0
    4.1234   -2.4404    1.0880 C   0  0  0  0  0  0  0  0  0  0  0  0
    5.2783   -2.6201    0.3420 C   0  0  0  0  0  0  0  0  0  0  0  0
    5.6251   -1.5860   -0.4225 N   0  0  0  0  0  0  0  0  0  0  0  0
    4.6346   -0.6871   -0.1324 N   0  0  0  0  0  0  0  0  0  0  0  0
    3.7328   -1.1876    0.8131 C   0  0  0  0  0  0  0  0  0  0  0  0
    2.6549   -0.4592    1.2814 N   0  0  0  0  0  0  0  0  0  0  0  0
    1.8138   -0.8106    2.2759 C   0  0  0  0  0  0  0  0  0  0  0  0
    1.9038   -1.8050    2.9889 O   0  0  0  0  0  0  0  0  0  0  0  0
    0.7139    0.1387    2.5154 C   0  0  0  0  0  0  0  0  0  0  0  0
    0.1368    1.1548    1.8015 C   0  0  0  0  0  0  0  0  0  0  0  0
   -0.9416    1.6507    2.5242 N   0  0  0  0  0  0  0  0  0  0  0  0
   -0.9712    0.9240    3.6308 C   0  0  0  0  0  0  0  0  0  0  0  0
   -0.0014   -0.0208    3.6748 O   0  0  0  0  0  0  0  0  0  0  0  0
    5.8535   -3.9596    0.5905 C   0  0  0  0  0  0  0  0  0  0  0  0
    7.2885   -3.8391    1.1201 C   0  0  0  0  0  0  0  0  0  0  0  0
    5.7820   -4.7125   -0.6969 C   0  0  0  0  0  0  0  0  0  0  0  0
    3.6804   -7.2588    3.7216 C   0  0  1  0  0  0  0  0  0  0  0  0
    2.5774   -6.6133    4.5719 C   0  0  0  0  0  0  0  0  0  0  0  0
    3.3442   -8.7440    3.4430 C   0  0  0  0  0  0  0  0  0  0  0  0
    2.2405   -8.8469    2.4874 N   0  0  0  0  0  0  0  0  0  0  0  0
    1.8332  -10.2266    2.2059 C   0  0  0  0  0  0  0  0  0  0  0  0
    0.9848  -10.8843    3.3085 C   0  0  0  0  0  0  0  0  0  0  0  0
    0.6356  -12.1975    2.8982 O   0  0  0  0  0  0  0  0  0  0  0  0
    4.6453    0.2249   -0.5638 H   0  0  0  0  0  0  0  0  0  0  0  0
    4.1949   -8.1821   -0.3178 H   0  0  0  0  0  0  0  0  0  0  0  0
    3.4793   -9.7651    0.0495 H   0  0  0  0  0  0  0  0  0  0  0  0
    4.6955   -8.9926    1.0918 H   0  0  0  0  0  0  0  0  0  0  0  0
    1.6878   -8.1841    0.6752 H   0  0  0  0  0  0  0  0  0  0  0  0
    3.0882   -6.2282    0.4909 H   0  0  0  0  0  0  0  0  0  0  0  0
    1.9424   -6.1631    1.7769 H   0  0  0  0  0  0  0  0  0  0  0  0
    2.7833   -4.0370    1.5737 H   0  0  0  0  0  0  0  0  0  0  0  0
    3.7961   -3.4859    2.9252 H   0  0  0  0  0  0  0  0  0  0  0  0
    0.3851    1.5543    0.8313 H   0  0  0  0  0  0  0  0  0  0  0  0
   -1.6968    1.0280    4.4254 H   0  0  0  0  0  0  0  0  0  0  0  0
    7.9354   -3.2810    0.4482 H   0  0  0  0  0  0  0  0  0  0  0  0
    7.7407   -4.8087    1.2486 H   0  0  0  0  0  0  0  0  0  0  0  0
    7.2037   -3.3420    2.0702 H   0  0  0  0  0  0  0  0  0  0  0  0
    6.4529   -4.2160   -1.4029 H   0  0  0  0  0  0  0  0  0  0  0  0
    4.8023   -4.8421   -1.1852 H   0  0  0  0  0  0  0  0  0  0  0  0
    6.1791   -5.6693   -0.4586 H   0  0  0  0  0  0  0  0  0  0  0  0
    4.6048   -7.2737    4.2958 H   0  0  0  0  0  0  0  0  0  0  0  0
    2.2554   -7.2938    5.3626 H   0  0  0  0  0  0  0  0  0  0  0  0
    1.6858   -6.4098    3.9771 H   0  0  0  0  0  0  0  0  0  0  0  0
    2.9102   -5.6642    4.9944 H   0  0  0  0  0  0  0  0  0  0  0  0
    4.2263   -9.2744    3.0624 H   0  0  0  0  0  0  0  0  0  0  0  0
    3.0701   -9.2504    4.3748 H   0  0  0  0  0  0  0  0  0  0  0  0
    1.2405  -10.2323    1.2796 H   0  0  0  0  0  0  0  0  0  0  0  0
    2.7298  -10.8458    2.0572 H   0  0  0  0  0  0  0  0  0  0  0  0
    1.4961  -10.9478    4.2748 H   0  0  0  0  0  0  0  0  0  0  0  0
    0.0526  -10.3261    3.4528 H   0  0  0  0  0  0  0  0  0  0  0  0
    1.3888  -12.7985    2.9338 H   0  0  0  0  0  0  0  0  0  0  0  0
    2.4648    0.3779    0.7616 H   0  0  0  0  0  0  0  0  0  0  0  0
  1  2  1  0
  1 33  1  0
  1 34  1  0
  1 35  1  0
  2 28  1  0
  2  3  1  0
  2 36  1  6
  3  4  1  0
  3 37  1  0
  3 38  1  0
  4  5  1  0
  4 25  1  0
  5  6  2  0
  5  7  1  0
  7 22  1  0
  7  8  1  0
  8  9  1  0
  8 39  1  0
  8 40  1  0
  9 13  2  0
  9 10  1  0
 10 11  2  0
 10 22  1  0
 11 12  1  0
 12 32  1  0
 12 13  1  0
 13 14  1  0
 14 15  1  0
 14 60  1  0
 15 16  2  0
 15 17  1  0
 17 21  1  0
 17 18  2  0
 18 19  1  0
 18 41  1  0
 19 20  2  0
 20 21  1  0
 20 42  1  0
 22 23  1  0
 22 24  1  0
 23 43  1  0
 23 44  1  0
 23 45  1  0
 24 46  1  0
 24 47  1  0
 24 48  1  0
 25 26  1  0
 25 27  1  0
 25 49  1  1
 26 50  1  0
 26 51  1  0
 26 52  1  0
 27 28  1  0
 27 53  1  0
 27 54  1  0
 28 29  1  0
 29 30  1  0
 29 55  1  0
 29 56  1  0
 30 31  1  0
 30 57  1  0
 30 58  1  0
 31 59  1  0
M  END
>  <i_m_ct_stereo_status>  (183) 
1

>  <s_m_source_file>  (183) 
/var/tmp/pbs.5102264.sched01/tmp6iaxk4q8/46_x9h2b30.sdf

>  <i_m_source_file_index>  (183) 
22

>  <i_lp_mmshare_version>  (183) 
48012

>  <i_f3d_flags>  (183) 
0

>  <s_epik_input>  (183) 
W09IXVtDSDJdW0NIMl1OMVtDSDJdW0NASF0oW0NIM10pTihbQ0gyXVtDQEhdMVtDSDNdKUMoPU8pTihbQ0gyXTIpQyhbQ0gzXSkoW0NIM10pYyhjMjMpW25IXVtuSF1jXDM9Ti9DKD1PKWM0W2NIXW5bY0hdbzQ=

>  <s_epik_cmdline>  (183) 
J2VwaWtfcHl0aG9uJywgJy1waHQnLCAnMi4wJywgJy1waCcsICc3LjAnLCAnLXRuJywgJzgnLCAnLW1hJywgJzIwMCcsICctaW1hZScsICc8aW5maWxlLm1hZT4nLCAnLW9tYWUnLCAnPG91dGZpbGUubWFlPic=

>  <r_lp_tautomer_probability>  (183) 
0.5

>  <r_epik_Ionization_Penalty>  (183) 
0.180023

>  <r_epik_Ionization_Penalty_Charging>  (183) 
0

>  <r_epik_Ionization_Penalty_Neutral>  (183) 
0.180023

>  <r_epik_State_Penalty>  (183) 
0.579772

>  <r_epik_Charging_Adjusted_Penalty>  (183) 
0.579772

>  <i_epik_Tot_Q>  (183) 
0

>  <i_epik_Tot_abs_Q>  (183) 
0

>  <s_lp_Force_Field>  (183) 
OPLS3e

>  <r_lp_Energy>  (183) 
45.8377

>  <b_lp_Chiralities_Consistent>  (183) 
1

>  <s_lp_Variant>  (183) 
47:0-2

>  <s_i_glide_gridfile>  (183) 
pfpi4k_grid

>  <i_i_glide_lignum>  (183) 
22

>  <i_i_glide_rotatable_bonds>  (183) 
8

>  <r_i_docking_score>  (183) 
-2.91345

>  <r_i_glide_ligand_efficiency>  (183) 
-0.0939823

>  <r_i_glide_ligand_efficiency_sa>  (183) 
-0.295234

>  <r_i_glide_ligand_efficiency_ln>  (183) 
-0.657072

>  <r_i_glide_gscore>  (183) 
-2.91345

>  <r_i_glide_lipo>  (183) 
-0.491098

>  <r_i_glide_hbond>  (183) 
-0.537109

>  <r_i_glide_metal>  (183) 
-0

>  <r_i_glide_rewards>  (183) 
-0.521686

>  <r_i_glide_evdw>  (183) 
-20.3064

>  <r_i_glide_ecoul>  (183) 
-6.5744

>  <r_i_glide_erotb>  (183) 
0.747826

>  <r_i_glide_esite>  (183) 
-0.109905

>  <r_i_glide_emodel>  (183) 
-24.1343

>  <r_i_glide_energy>  (183) 
-26.8808

>  <r_i_glide_einternal>  (183) 
4.30403

>  <r_i_glide_intrahb_reward>  (183) 
-0

>  <i_i_glide_confnum>  (183) 
5

>  <i_i_glide_posenum>  (183) 
1

>  <r_i_glide_eff_state_penalty>  (183) 
0

>  <ligand_id>  (183) 
47

>  <original_smiles>  (183) 
CC1CN(C(=O)N2Cc3c([nH][nH]c3=NC(=O)c3cnco3)C2(C)C)C(C)CN1CCO

>  <smiles>  (183) 
[H]OC([H])([H])C([H])([H])N1C([H])([H])C([H])(C([H])([H])[H])N(C(=O)N2C([H])([H])c3c(nn([H])c3N([H])C(=O)c3oc([H])nc3[H])C2(C([H])([H])[H])C([H])([H])[H])C([H])([H])C1([H])C([H])([H])[H]

$$$$
47:1:1
     RDKit          3D

 60 63  0  0  1  0  0  0  0  0999 V2000
    0.7041   -7.9079    2.2414 C   0  0  0  0  0  0  0  0  0  0  0  0
    2.0585   -8.4784    2.7326 C   0  0  2  0  0  0  0  0  0  0  0  0
    3.1691   -7.8168    1.9075 C   0  0  0  0  0  0  0  0  0  0  0  0
    4.5287   -8.2491    2.2657 N   0  0  0  0  0  0  0  0  0  0  0  0
    5.4579   -7.3597    2.6650 C   0  0  0  0  0  0  0  0  0  0  0  0
    5.9765   -7.4085    3.7812 O   0  0  0  0  0  0  0  0  0  0  0  0
    5.9719   -6.5791    1.6909 N   0  0  0  0  0  0  0  0  0  0  0  0
    5.1316   -5.7612    0.7883 C   0  0  0  0  0  0  0  0  0  0  0  0
    6.1168   -4.8614    0.1771 C   0  0  0  0  0  0  0  0  0  0  0  0
    7.4034   -5.1252    0.5659 C   0  0  0  0  0  0  0  0  0  0  0  0
    8.3622   -4.3764    0.0345 N   0  0  0  0  0  0  0  0  0  0  0  0
    7.6234   -3.5400   -0.7455 N   0  0  0  0  0  0  0  0  0  0  0  0
    6.2588   -3.8332   -0.7014 C   0  0  0  0  0  0  0  0  0  0  0  0
    5.2910   -3.2963   -1.4364 N   0  0  0  0  0  0  0  0  0  0  0  0
    5.2720   -1.9721   -1.7299 C   0  0  0  0  0  0  0  0  0  0  0  0
    6.1008   -1.2080   -1.2350 O   0  0  0  0  0  0  0  0  0  0  0  0
    4.2477   -1.5071   -2.7142 C   0  0  0  0  0  0  0  0  0  0  0  0
    3.1975   -2.1239   -3.3601 C   0  0  0  0  0  0  0  0  0  0  0  0
    2.6042   -1.2290   -4.2391 N   0  0  0  0  0  0  0  0  0  0  0  0
    3.2794   -0.1160   -4.0526 C   0  0  0  0  0  0  0  0  0  0  0  0
    4.2476   -0.1992   -3.1000 O   0  0  0  0  0  0  0  0  0  0  0  0
    7.4295   -6.2547    1.5256 C   0  0  0  0  0  0  0  0  0  0  0  0
    8.1387   -5.8055    2.7991 C   0  0  0  0  0  0  0  0  0  0  0  0
    8.1558   -7.4276    0.9370 C   0  0  0  0  0  0  0  0  0  0  0  0
    4.6560   -9.7206    2.3802 C   0  0  1  0  0  0  0  0  0  0  0  0
    5.9927  -10.2897    2.9330 C   0  0  0  0  0  0  0  0  0  0  0  0
    3.4923  -10.3162    3.1621 C   0  0  0  0  0  0  0  0  0  0  0  0
    2.1600   -9.9394    2.6785 N   0  0  0  0  0  0  0  0  0  0  0  0
    1.1070  -10.5930    3.4966 C   0  0  0  0  0  0  0  0  0  0  0  0
    1.0031  -12.1114    3.3767 C   0  0  0  0  0  0  0  0  0  0  0  0
    0.2115  -12.5901    4.4260 O   0  0  0  0  0  0  0  0  0  0  0  0
    8.0661   -2.9810   -1.4718 H   0  0  0  0  0  0  0  0  0  0  0  0
    0.7168   -6.8218    2.0984 H   0  0  0  0  0  0  0  0  0  0  0  0
   -0.1346   -8.1399    2.8993 H   0  0  0  0  0  0  0  0  0  0  0  0
    0.4651   -8.3621    1.2911 H   0  0  0  0  0  0  0  0  0  0  0  0
    2.1883   -8.1650    3.7701 H   0  0  0  0  0  0  0  0  0  0  0  0
    3.0383   -8.0535    0.8610 H   0  0  0  0  0  0  0  0  0  0  0  0
    3.0513   -6.7443    2.0429 H   0  0  0  0  0  0  0  0  0  0  0  0
    4.5847   -6.3742    0.0575 H   0  0  0  0  0  0  0  0  0  0  0  0
    4.4715   -5.1802    1.4159 H   0  0  0  0  0  0  0  0  0  0  0  0
    2.8592   -3.1217   -3.1843 H   0  0  0  0  0  0  0  0  0  0  0  0
    3.0042    0.8192   -4.5053 H   0  0  0  0  0  0  0  0  0  0  0  0
    9.1228   -5.3809    2.6136 H   0  0  0  0  0  0  0  0  0  0  0  0
    8.3133   -6.6059    3.5000 H   0  0  0  0  0  0  0  0  0  0  0  0
    7.5091   -5.0342    3.2854 H   0  0  0  0  0  0  0  0  0  0  0  0
    9.0297   -7.0066    0.4894 H   0  0  0  0  0  0  0  0  0  0  0  0
    7.7701   -8.0164    0.1537 H   0  0  0  0  0  0  0  0  0  0  0  0
    8.4404   -8.1138    1.7008 H   0  0  0  0  0  0  0  0  0  0  0  0
    4.5639  -10.0955    1.3646 H   0  0  0  0  0  0  0  0  0  0  0  0
    5.9476  -11.3794    3.0677 H   0  0  0  0  0  0  0  0  0  0  0  0
    6.2366   -9.9202    3.9303 H   0  0  0  0  0  0  0  0  0  0  0  0
    6.8253  -10.0645    2.2653 H   0  0  0  0  0  0  0  0  0  0  0  0
    3.6335  -11.3896    3.0721 H   0  0  0  0  0  0  0  0  0  0  0  0
    3.5798  -10.0584    4.2186 H   0  0  0  0  0  0  0  0  0  0  0  0
    1.2188  -10.3192    4.5543 H   0  0  0  0  0  0  0  0  0  0  0  0
    0.1181  -10.2632    3.1685 H   0  0  0  0  0  0  0  0  0  0  0  0
    0.5418  -12.3874    2.4241 H   0  0  0  0  0  0  0  0  0  0  0  0
    1.9694  -12.5960    3.4478 H   0  0  0  0  0  0  0  0  0  0  0  0
    0.6316  -12.3776    5.2487 H   0  0  0  0  0  0  0  0  0  0  0  0
    4.4971   -3.8697   -1.7223 H   0  0  0  0  0  0  0  0  0  0  0  0
  1  2  1  0
  1 33  1  0
  1 34  1  0
  1 35  1  0
  2 28  1  0
  2  3  1  0
  2 36  1  1
  3  4  1  0
  3 37  1  0
  3 38  1  0
  4  5  1  0
  4 25  1  0
  5  6  2  0
  5  7  1  0
  7 22  1  0
  7  8  1  0
  8  9  1  0
  8 39  1  0
  8 40  1  0
  9 13  2  0
  9 10  1  0
 10 11  2  0
 10 22  1  0
 11 12  1  0
 12 32  1  0
 12 13  1  0
 13 14  1  0
 14 15  1  0
 14 60  1  0
 15 16  2  0
 15 17  1  0
 17 21  1  0
 17 18  2  0
 18 19  1  0
 18 41  1  0
 19 20  2  0
 20 21  1  0
 20 42  1  0
 22 23  1  0
 22 24  1  0
 23 43  1  0
 23 44  1  0
 23 45  1  0
 24 46  1  0
 24 47  1  0
 24 48  1  0
 25 26  1  0
 25 27  1  0
 25 49  1  6
 26 50  1  0
 26 51  1  0
 26 52  1  0
 27 28  1  0
 27 53  1  0
 27 54  1  0
 28 29  1  0
 29 30  1  0
 29 55  1  0
 29 56  1  0
 30 31  1  0
 30 57  1  0
 30 58  1  0
 31 59  1  0
M  END
>  <i_m_ct_stereo_status>  (184) 
1

>  <s_m_source_file>  (184) 
/var/tmp/pbs.5102264.sched01/tmp6iaxk4q8/46_x9h2b30.sdf

>  <i_m_source_file_index>  (184) 
22

>  <i_lp_mmshare_version>  (184) 
48012

>  <i_f3d_flags>  (184) 
0

>  <s_epik_input>  (184) 
W09IXVtDSDJdW0NIMl1OMVtDSDJdW0NASF0oW0NIM10pTihbQ0gyXVtDQEhdMVtDSDNdKUMoPU8pTihbQ0gyXTIpQyhbQ0gzXSkoW0NIM10pYyhjMjMpW25IXVtuSF1jXDM9Ti9DKD1PKWM0W2NIXW5bY0hdbzQ=

>  <s_epik_cmdline>  (184) 
J2VwaWtfcHl0aG9uJywgJy1waHQnLCAnMi4wJywgJy1waCcsICc3LjAnLCAnLXRuJywgJzgnLCAnLW1hJywgJzIwMCcsICctaW1hZScsICc8aW5maWxlLm1hZT4nLCAnLW9tYWUnLCAnPG91dGZpbGUubWFlPic=

>  <r_lp_tautomer_probability>  (184) 
0.5

>  <r_epik_Ionization_Penalty>  (184) 
0.180023

>  <r_epik_Ionization_Penalty_Charging>  (184) 
0

>  <r_epik_Ionization_Penalty_Neutral>  (184) 
0.180023

>  <r_epik_State_Penalty>  (184) 
0.579772

>  <r_epik_Charging_Adjusted_Penalty>  (184) 
0.579772

>  <i_epik_Tot_Q>  (184) 
0

>  <i_epik_Tot_abs_Q>  (184) 
0

>  <s_lp_Force_Field>  (184) 
OPLS3e

>  <r_lp_Energy>  (184) 
45.8377

>  <b_lp_Chiralities_Consistent>  (184) 
1

>  <s_lp_Variant>  (184) 
47:0-2

>  <s_i_glide_gridfile>  (184) 
pfpi4k_grid

>  <i_i_glide_lignum>  (184) 
22

>  <i_i_glide_rotatable_bonds>  (184) 
8

>  <r_i_docking_score>  (184) 
-2.72896

>  <r_i_glide_ligand_efficiency>  (184) 
-0.088031

>  <r_i_glide_ligand_efficiency_sa>  (184) 
-0.276539

>  <r_i_glide_ligand_efficiency_ln>  (184) 
-0.615464

>  <r_i_glide_gscore>  (184) 
-2.72896

>  <r_i_glide_lipo>  (184) 
-0.87565

>  <r_i_glide_hbond>  (184) 
-0.0905369

>  <r_i_glide_metal>  (184) 
-0

>  <r_i_glide_rewards>  (184) 
-0.577232

>  <r_i_glide_evdw>  (184) 
-15.2397

>  <r_i_glide_ecoul>  (184) 
-7.57695

>  <r_i_glide_erotb>  (184) 
0.747826

>  <r_i_glide_esite>  (184) 
-0.0348393

>  <r_i_glide_emodel>  (184) 
-18.3723

>  <r_i_glide_energy>  (184) 
-22.8166

>  <r_i_glide_einternal>  (184) 
6.78123

>  <r_i_glide_intrahb_reward>  (184) 
-0

>  <i_i_glide_confnum>  (184) 
13

>  <i_i_glide_posenum>  (184) 
2

>  <r_i_glide_eff_state_penalty>  (184) 
0

>  <ligand_id>  (184) 
47

>  <original_smiles>  (184) 
CC1CN(C(=O)N2Cc3c([nH][nH]c3=NC(=O)c3cnco3)C2(C)C)C(C)CN1CCO

>  <smiles>  (184) 
[H]OC([H])([H])C([H])([H])N1C([H])([H])C([H])(C([H])([H])[H])N(C(=O)N2C([H])([H])c3c(nn([H])c3N([H])C(=O)c3oc([H])nc3[H])C2(C([H])([H])[H])C([H])([H])[H])C([H])([H])C1([H])C([H])([H])[H]

$$$$
47:1:2
     RDKit          3D

 60 63  0  0  1  0  0  0  0  0999 V2000
    4.0158   -8.7433    0.3644 C   0  0  0  0  0  0  0  0  0  0  0  0
    2.8391   -8.1249    1.1754 C   0  0  2  0  0  0  0  0  0  0  0  0
    3.0639   -6.6337    1.4021 C   0  0  0  0  0  0  0  0  0  0  0  0
    4.0936   -6.4168    2.4266 N   0  0  0  0  0  0  0  0  0  0  0  0
    5.2131   -5.6964    2.1709 C   0  0  0  0  0  0  0  0  0  0  0  0
    6.3325   -6.0813    2.5079 O   0  0  0  0  0  0  0  0  0  0  0  0
    5.0360   -4.5226    1.5100 N   0  0  0  0  0  0  0  0  0  0  0  0
    3.9079   -3.6296    1.7994 C   0  0  0  0  0  0  0  0  0  0  0  0
    4.2207   -2.4089    1.0176 C   0  0  0  0  0  0  0  0  0  0  0  0
    5.3947   -2.5482    0.2936 C   0  0  0  0  0  0  0  0  0  0  0  0
    5.6998   -1.5210   -0.4978 N   0  0  0  0  0  0  0  0  0  0  0  0
    4.6803   -0.6590   -0.2344 N   0  0  0  0  0  0  0  0  0  0  0  0
    3.7818   -1.1526    0.7101 C   0  0  0  0  0  0  0  0  0  0  0  0
    2.7168   -0.4582    1.1925 N   0  0  0  0  0  0  0  0  0  0  0  0
    1.9187   -0.7840    2.2325 C   0  0  0  0  0  0  0  0  0  0  0  0
    2.0652   -1.7699    2.9634 O   0  0  0  0  0  0  0  0  0  0  0  0
    0.8124    0.1401    2.5059 C   0  0  0  0  0  0  0  0  0  0  0  0
    0.2521    1.1958    1.8314 C   0  0  0  0  0  0  0  0  0  0  0  0
   -0.8279    1.6806    2.5615 N   0  0  0  0  0  0  0  0  0  0  0  0
   -0.8708    0.9014    3.6319 C   0  0  0  0  0  0  0  0  0  0  0  0
    0.0843   -0.0572    3.6504 O   0  0  0  0  0  0  0  0  0  0  0  0
    5.9959   -3.8777    0.5477 C   0  0  0  0  0  0  0  0  0  0  0  0
    7.4145   -3.7188    1.0921 C   0  0  0  0  0  0  0  0  0  0  0  0
    5.9761   -4.6736   -0.7159 C   0  0  0  0  0  0  0  0  0  0  0  0
    3.9357   -7.2440    3.6404 C   0  0  1  0  0  0  0  0  0  0  0  0
    2.8151   -6.6443    4.4997 C   0  0  0  0  0  0  0  0  0  0  0  0
    3.6442   -8.7199    3.3357 C   0  0  0  0  0  0  0  0  0  0  0  0
    2.5166   -8.8381    2.4037 N   0  0  0  0  0  0  0  0  0  0  0  0
    2.1690  -10.2448    2.1271 C   0  0  0  0  0  0  0  0  0  0  0  0
    1.3310  -10.9798    3.1786 C   0  0  0  0  0  0  0  0  0  0  0  0
    2.1120  -11.3111    4.3080 O   0  0  0  0  0  0  0  0  0  0  0  0
    4.6611    0.2600   -0.6614 H   0  0  0  0  0  0  0  0  0  0  0  0
    4.2615   -8.1097   -0.4913 H   0  0  0  0  0  0  0  0  0  0  0  0
    3.7500   -9.7219   -0.0346 H   0  0  0  0  0  0  0  0  0  0  0  0
    4.9411   -8.8580    0.9389 H   0  0  0  0  0  0  0  0  0  0  0  0
    1.9129   -8.1676    0.6177 H   0  0  0  0  0  0  0  0  0  0  0  0
    3.2958   -6.1784    0.4370 H   0  0  0  0  0  0  0  0  0  0  0  0
    2.1453   -6.1598    1.7322 H   0  0  0  0  0  0  0  0  0  0  0  0
    2.9286   -4.0344    1.5125 H   0  0  0  0  0  0  0  0  0  0  0  0
    3.9224   -3.4337    2.8696 H   0  0  0  0  0  0  0  0  0  0  0  0
    0.5319    1.6576    0.9028 H   0  0  0  0  0  0  0  0  0  0  0  0
   -1.5967    0.9765    4.4270 H   0  0  0  0  0  0  0  0  0  0  0  0
    8.0536   -3.1033    0.4523 H   0  0  0  0  0  0  0  0  0  0  0  0
    7.9124   -4.6772    1.1906 H   0  0  0  0  0  0  0  0  0  0  0  0
    7.3463   -3.2688    2.0722 H   0  0  0  0  0  0  0  0  0  0  0  0
    6.5995   -4.1327   -1.4311 H   0  0  0  0  0  0  0  0  0  0  0  0
    4.9791   -4.7970   -1.1667 H   0  0  0  0  0  0  0  0  0  0  0  0
    6.3647   -5.6408   -0.3411 H   0  0  0  0  0  0  0  0  0  0  0  0
    4.8579   -7.2367    4.2212 H   0  0  0  0  0  0  0  0  0  0  0  0
    2.5159   -7.3444    5.2847 H   0  0  0  0  0  0  0  0  0  0  0  0
    1.9153   -6.4587    3.9121 H   0  0  0  0  0  0  0  0  0  0  0  0
    3.1173   -5.6975    4.9475 H   0  0  0  0  0  0  0  0  0  0  0  0
    4.5309   -9.2299    2.9334 H   0  0  0  0  0  0  0  0  0  0  0  0
    3.4060   -9.2341    4.2737 H   0  0  0  0  0  0  0  0  0  0  0  0
    1.5510  -10.2629    1.2364 H   0  0  0  0  0  0  0  0  0  0  0  0
    3.0565  -10.8220    1.8884 H   0  0  0  0  0  0  0  0  0  0  0  0
    0.4532  -10.3931    3.4603 H   0  0  0  0  0  0  0  0  0  0  0  0
    0.9593  -11.9224    2.7662 H   0  0  0  0  0  0  0  0  0  0  0  0
    1.5873  -11.7801    4.9397 H   0  0  0  0  0  0  0  0  0  0  0  0
    2.4670    0.3649    0.6493 H   0  0  0  0  0  0  0  0  0  0  0  0
  1  2  1  0
  1 33  1  0
  1 34  1  0
  1 35  1  0
  2 28  1  0
  2  3  1  0
  2 36  1  6
  3  4  1  0
  3 37  1  0
  3 38  1  0
  4  5  1  0
  4 25  1  0
  5  6  2  0
  5  7  1  0
  7 22  1  0
  7  8  1  0
  8  9  1  0
  8 39  1  0
  8 40  1  0
  9 13  2  0
  9 10  1  0
 10 11  2  0
 10 22  1  0
 11 12  1  0
 12 32  1  0
 12 13  1  0
 13 14  1  0
 14 15  1  0
 14 60  1  0
 15 16  2  0
 15 17  1  0
 17 21  1  0
 17 18  2  0
 18 19  1  0
 18 41  1  0
 19 20  2  0
 20 21  1  0
 20 42  1  0
 22 23  1  0
 22 24  1  0
 23 43  1  0
 23 44  1  0
 23 45  1  0
 24 46  1  0
 24 47  1  0
 24 48  1  0
 25 26  1  0
 25 27  1  0
 25 49  1  1
 26 50  1  0
 26 51  1  0
 26 52  1  0
 27 28  1  0
 27 53  1  0
 27 54  1  0
 28 29  1  0
 29 30  1  0
 29 55  1  0
 29 56  1  0
 30 31  1  0
 30 57  1  0
 30 58  1  0
 31 59  1  0
M  END
>  <i_m_ct_stereo_status>  (185) 
1

>  <s_m_source_file>  (185) 
/var/tmp/pbs.5102264.sched01/tmp6iaxk4q8/46_x9h2b30.sdf

>  <i_m_source_file_index>  (185) 
22

>  <i_lp_mmshare_version>  (185) 
48012

>  <i_f3d_flags>  (185) 
0

>  <s_epik_input>  (185) 
W09IXVtDSDJdW0NIMl1OMVtDSDJdW0NASF0oW0NIM10pTihbQ0gyXVtDQEhdMVtDSDNdKUMoPU8pTihbQ0gyXTIpQyhbQ0gzXSkoW0NIM10pYyhjMjMpW25IXVtuSF1jXDM9Ti9DKD1PKWM0W2NIXW5bY0hdbzQ=

>  <s_epik_cmdline>  (185) 
J2VwaWtfcHl0aG9uJywgJy1waHQnLCAnMi4wJywgJy1waCcsICc3LjAnLCAnLXRuJywgJzgnLCAnLW1hJywgJzIwMCcsICctaW1hZScsICc8aW5maWxlLm1hZT4nLCAnLW9tYWUnLCAnPG91dGZpbGUubWFlPic=

>  <r_lp_tautomer_probability>  (185) 
0.5

>  <r_epik_Ionization_Penalty>  (185) 
0.180023

>  <r_epik_Ionization_Penalty_Charging>  (185) 
0

>  <r_epik_Ionization_Penalty_Neutral>  (185) 
0.180023

>  <r_epik_State_Penalty>  (185) 
0.579772

>  <r_epik_Charging_Adjusted_Penalty>  (185) 
0.579772

>  <i_epik_Tot_Q>  (185) 
0

>  <i_epik_Tot_abs_Q>  (185) 
0

>  <s_lp_Force_Field>  (185) 
OPLS3e

>  <r_lp_Energy>  (185) 
45.8377

>  <b_lp_Chiralities_Consistent>  (185) 
1

>  <s_lp_Variant>  (185) 
47:0-2

>  <s_i_glide_gridfile>  (185) 
pfpi4k_grid

>  <i_i_glide_lignum>  (185) 
22

>  <i_i_glide_rotatable_bonds>  (185) 
8

>  <r_i_docking_score>  (185) 
-2.12448

>  <r_i_glide_ligand_efficiency>  (185) 
-0.0685318

>  <r_i_glide_ligand_efficiency_sa>  (185) 
-0.215284

>  <r_i_glide_ligand_efficiency_ln>  (185) 
-0.479136

>  <r_i_glide_gscore>  (185) 
-2.12448

>  <r_i_glide_lipo>  (185) 
-0.477992

>  <r_i_glide_hbond>  (185) 
-0.32

>  <r_i_glide_metal>  (185) 
-0

>  <r_i_glide_rewards>  (185) 
-0.532395

>  <r_i_glide_evdw>  (185) 
-19.5998

>  <r_i_glide_ecoul>  (185) 
-2.97988

>  <r_i_glide_erotb>  (185) 
0.747826

>  <r_i_glide_esite>  (185) 
-0.114949

>  <r_i_glide_emodel>  (185) 
-18.2283

>  <r_i_glide_energy>  (185) 
-22.5797

>  <r_i_glide_einternal>  (185) 
8.4984

>  <r_i_glide_intrahb_reward>  (185) 
-0

>  <i_i_glide_confnum>  (185) 
10

>  <i_i_glide_posenum>  (185) 
22

>  <r_i_glide_eff_state_penalty>  (185) 
0

>  <ligand_id>  (185) 
47

>  <original_smiles>  (185) 
CC1CN(C(=O)N2Cc3c([nH][nH]c3=NC(=O)c3cnco3)C2(C)C)C(C)CN1CCO

>  <smiles>  (185) 
[H]OC([H])([H])C([H])([H])N1C([H])([H])C([H])(C([H])([H])[H])N(C(=O)N2C([H])([H])c3c(nn([H])c3N([H])C(=O)c3oc([H])nc3[H])C2(C([H])([H])[H])C([H])([H])[H])C([H])([H])C1([H])C([H])([H])[H]

$$$$
47:2:0
     RDKit          3D

 61 64  0  0  1  0  0  0  0  0999 V2000
    3.1620   -1.3672    3.5584 C   0  0  0  0  0  0  0  0  0  0  0  0
    2.3498   -1.3967    2.2230 C   0  0  2  0  0  0  0  0  0  0  0  0
    2.6952   -2.6381    1.4242 C   0  0  0  0  0  0  0  0  0  0  0  0
    4.0879   -2.5642    0.9294 N   0  0  0  0  0  0  0  0  0  0  0  0
    5.0890   -3.3374    1.4246 C   0  0  0  0  0  0  0  0  0  0  0  0
    6.1967   -2.8496    1.6802 O   0  0  0  0  0  0  0  0  0  0  0  0
    4.8736   -4.6876    1.4528 N   0  0  0  0  0  0  0  0  0  0  0  0
    3.5439   -5.3450    1.4767 C   0  0  0  0  0  0  0  0  0  0  0  0
    3.8230   -6.7679    1.4706 C   0  0  0  0  0  0  0  0  0  0  0  0
    5.1667   -7.0249    1.4743 C   0  0  0  0  0  0  0  0  0  0  0  0
    5.5005   -8.3143    1.5347 N   0  0  0  0  0  0  0  0  0  0  0  0
    4.2748   -8.9186    1.5787 N   0  0  0  0  0  0  0  0  0  0  0  0
    3.2286   -7.9956    1.5355 C   0  0  0  0  0  0  0  0  0  0  0  0
    1.9166   -8.2738    1.6738 N   0  0  0  0  0  0  0  0  0  0  0  0
    0.8642   -7.4310    1.6208 C   0  0  0  0  0  0  0  0  0  0  0  0
    0.8365   -6.3131    1.0881 O   0  0  0  0  0  0  0  0  0  0  0  0
   -0.3358   -7.9124    2.2743 C   0  0  0  0  0  0  0  0  0  0  0  0
   -0.8632   -9.1684    2.4598 C   0  0  0  0  0  0  0  0  0  0  0  0
   -2.0684   -9.0375    3.1053 N   0  0  0  0  0  0  0  0  0  0  0  0
   -2.1678   -7.7437    3.3613 C   0  0  0  0  0  0  0  0  0  0  0  0
   -1.1787   -6.9945    2.8280 O   0  0  0  0  0  0  0  0  0  0  0  0
    5.9459   -5.7426    1.4570 C   0  0  0  0  0  0  0  0  0  0  0  0
    6.7633   -5.6543    0.1728 C   0  0  0  0  0  0  0  0  0  0  0  0
    6.8333   -5.6333    2.6925 C   0  0  0  0  0  0  0  0  0  0  0  0
    4.3991   -1.3277    0.1627 C   0  0  1  0  0  0  0  0  0  0  0  0
    3.7950   -1.4262   -1.2528 C   0  0  0  0  0  0  0  0  0  0  0  0
    3.9299   -0.0499    0.9186 C   0  0  0  0  0  0  0  0  0  0  0  0
    2.5207   -0.1721    1.3928 N   0  0  2  0  0  0  0  0  0  0  0  0
    2.0168    1.0543    2.0799 C   0  0  0  0  0  0  0  0  0  0  0  0
    0.5222    1.2756    1.8055 C   0  0  0  0  0  0  0  0  0  0  0  0
    0.1628    2.4312    2.5276 O   0  0  0  0  0  0  0  0  0  0  0  0
    4.1780   -9.9316    1.6332 H   0  0  0  0  0  0  0  0  0  0  0  0
    3.0696   -2.3186    4.0960 H   0  0  0  0  0  0  0  0  0  0  0  0
    2.8253   -0.5563    4.2198 H   0  0  0  0  0  0  0  0  0  0  0  0
    4.2366   -1.2320    3.3855 H   0  0  0  0  0  0  0  0  0  0  0  0
    1.2934   -1.5091    2.4535 H   0  0  0  0  0  0  0  0  0  0  0  0
    2.5382   -3.3850    2.1794 H   0  0  0  0  0  0  0  0  0  0  0  0
    2.0369   -2.8184    0.5636 H   0  0  0  0  0  0  0  0  0  0  0  0
    3.0201   -5.1182    2.4054 H   0  0  0  0  0  0  0  0  0  0  0  0
    2.9309   -5.0690    0.6171 H   0  0  0  0  0  0  0  0  0  0  0  0
   -0.4866  -10.1203    2.1225 H   0  0  0  0  0  0  0  0  0  0  0  0
   -2.9596   -7.2724    3.9164 H   0  0  0  0  0  0  0  0  0  0  0  0
    7.4573   -6.4979    0.1011 H   0  0  0  0  0  0  0  0  0  0  0  0
    7.3563   -4.7391    0.1112 H   0  0  0  0  0  0  0  0  0  0  0  0
    6.0698   -5.6709   -0.6711 H   0  0  0  0  0  0  0  0  0  0  0  0
    7.5330   -6.4681    2.7555 H   0  0  0  0  0  0  0  0  0  0  0  0
    6.2440   -5.5926    3.6136 H   0  0  0  0  0  0  0  0  0  0  0  0
    7.4399   -4.7390    2.5957 H   0  0  0  0  0  0  0  0  0  0  0  0
    5.4852   -1.2101    0.0113 H   0  0  0  0  0  0  0  0  0  0  0  0
    3.9087   -0.4944   -1.8163 H   0  0  0  0  0  0  0  0  0  0  0  0
    2.7339   -1.6487   -1.1929 H   0  0  0  0  0  0  0  0  0  0  0  0
    4.2516   -2.2417   -1.8198 H   0  0  0  0  0  0  0  0  0  0  0  0
    4.5850    0.1114    1.7753 H   0  0  0  0  0  0  0  0  0  0  0  0
    4.0715    0.8425    0.3075 H   0  0  0  0  0  0  0  0  0  0  0  0
    2.1767    0.9650    3.1605 H   0  0  0  0  0  0  0  0  0  0  0  0
    2.5986    1.9140    1.7259 H   0  0  0  0  0  0  0  0  0  0  0  0
    0.3148    1.3819    0.7363 H   0  0  0  0  0  0  0  0  0  0  0  0
   -0.0748    0.4359    2.1651 H   0  0  0  0  0  0  0  0  0  0  0  0
    0.2117    3.1720    1.9105 H   0  0  0  0  0  0  0  0  0  0  0  0
    1.6807   -9.2314    1.9117 H   0  0  0  0  0  0  0  0  0  0  0  0
    1.9587   -0.3467    0.5488 H   0  0  0  0  0  0  0  0  0  0  0  0
  1  2  1  0
  1 33  1  0
  1 34  1  0
  1 35  1  0
  2 28  1  0
  2  3  1  0
  2 36  1  1
  3  4  1  0
  3 37  1  0
  3 38  1  0
  4  5  1  0
  4 25  1  0
  5  6  2  0
  5  7  1  0
  7 22  1  0
  7  8  1  0
  8  9  1  0
  8 39  1  0
  8 40  1  0
  9 13  2  0
  9 10  1  0
 10 11  2  0
 10 22  1  0
 11 12  1  0
 12 32  1  0
 12 13  1  0
 13 14  1  0
 14 15  1  0
 14 60  1  0
 15 16  2  0
 15 17  1  0
 17 21  1  0
 17 18  2  0
 18 19  1  0
 18 41  1  0
 19 20  2  0
 20 21  1  0
 20 42  1  0
 22 23  1  0
 22 24  1  0
 23 43  1  0
 23 44  1  0
 23 45  1  0
 24 46  1  0
 24 47  1  0
 24 48  1  0
 25 26  1  0
 25 27  1  0
 25 49  1  6
 26 50  1  0
 26 51  1  0
 26 52  1  0
 27 28  1  0
 27 53  1  0
 27 54  1  0
 28 29  1  0
 28 61  1  6
 29 30  1  0
 29 55  1  0
 29 56  1  0
 30 31  1  0
 30 57  1  0
 30 58  1  0
 31 59  1  0
M  CHG  1  28   1
M  END
>  <i_m_ct_stereo_status>  (186) 
1

>  <s_m_source_file>  (186) 
/var/tmp/pbs.5102264.sched01/tmp6iaxk4q8/46_x9h2b30.sdf

>  <i_m_source_file_index>  (186) 
23

>  <i_lp_mmshare_version>  (186) 
48012

>  <i_f3d_flags>  (186) 
0

>  <s_epik_input>  (186) 
W09IXVtDSDJdW0NIMl1OMVtDSDJdW0NASF0oW0NIM10pTihbQ0gyXVtDQEhdMVtDSDNdKUMoPU8pTihbQ0gyXTIpQyhbQ0gzXSkoW0NIM10pYyhjMjMpW25IXVtuSF1jXDM9Ti9DKD1PKWM0W2NIXW5bY0hdbzQ=

>  <s_epik_cmdline>  (186) 
J2VwaWtfcHl0aG9uJywgJy1waHQnLCAnMi4wJywgJy1waCcsICc3LjAnLCAnLXRuJywgJzgnLCAnLW1hJywgJzIwMCcsICctaW1hZScsICc8aW5maWxlLm1hZT4nLCAnLW9tYWUnLCAnPG91dGZpbGUubWFlPic=

>  <r_lp_tautomer_probability>  (186) 
0.5

>  <r_epik_Ionization_Penalty>  (186) 
0.795328

>  <r_epik_Ionization_Penalty_Charging>  (186) 
0.794883

>  <r_epik_Ionization_Penalty_Neutral>  (186) 
0.000445278

>  <r_epik_State_Penalty>  (186) 
1.24339

>  <r_epik_Charging_Adjusted_Penalty>  (186) 
2.03827

>  <i_epik_Tot_Q>  (186) 
1

>  <i_epik_Tot_abs_Q>  (186) 
1

>  <s_lp_Force_Field>  (186) 
OPLS3e

>  <r_lp_Energy>  (186) 
46.3867

>  <b_lp_Chiralities_Consistent>  (186) 
1

>  <s_lp_Variant>  (186) 
47:0-3

>  <s_i_glide_gridfile>  (186) 
pfpi4k_grid

>  <i_i_glide_lignum>  (186) 
23

>  <i_i_glide_rotatable_bonds>  (186) 
8

>  <r_i_docking_score>  (186) 
-4.84908

>  <r_i_glide_ligand_efficiency>  (186) 
-0.156422

>  <r_i_glide_ligand_efficiency_sa>  (186) 
-0.491381

>  <r_i_glide_ligand_efficiency_ln>  (186) 
-1.09362

>  <r_i_glide_gscore>  (186) 
-4.84908

>  <r_i_glide_lipo>  (186) 
-0.511359

>  <r_i_glide_hbond>  (186) 
-0.68

>  <r_i_glide_metal>  (186) 
-0

>  <r_i_glide_rewards>  (186) 
-0.552938

>  <r_i_glide_evdw>  (186) 
-24.9336

>  <r_i_glide_ecoul>  (186) 
-16.0814

>  <r_i_glide_erotb>  (186) 
0.744671

>  <r_i_glide_esite>  (186) 
-0.19057

>  <r_i_glide_emodel>  (186) 
-46.8753

>  <r_i_glide_energy>  (186) 
-41.0149

>  <r_i_glide_einternal>  (186) 
13.5863

>  <r_i_glide_intrahb_reward>  (186) 
-0

>  <i_i_glide_confnum>  (186) 
1

>  <i_i_glide_posenum>  (186) 
39

>  <r_i_glide_eff_state_penalty>  (186) 
0

>  <ligand_id>  (186) 
47

>  <original_smiles>  (186) 
CC1CN(C(=O)N2Cc3c([nH][nH]c3=NC(=O)c3cnco3)C2(C)C)C(C)CN1CCO

>  <smiles>  (186) 
[H]OC([H])([H])C([H])([H])[N+]1([H])C([H])([H])C([H])(C([H])([H])[H])N(C(=O)N2C([H])([H])c3c(nn([H])c3N([H])C(=O)c3oc([H])nc3[H])C2(C([H])([H])[H])C([H])([H])[H])C([H])([H])C1([H])C([H])([H])[H]

$$$$
47:2:1
     RDKit          3D

 61 64  0  0  1  0  0  0  0  0999 V2000
    4.3240   -1.6252    4.1930 C   0  0  0  0  0  0  0  0  0  0  0  0
    3.1926   -1.6239    3.1277 C   0  0  2  0  0  0  0  0  0  0  0  0
    3.2541   -2.8772    2.2870 C   0  0  0  0  0  0  0  0  0  0  0  0
    4.4170   -2.8706    1.3889 N   0  0  0  0  0  0  0  0  0  0  0  0
    5.4569   -3.7123    1.5851 C   0  0  0  0  0  0  0  0  0  0  0  0
    6.6131   -3.2779    1.5734 O   0  0  0  0  0  0  0  0  0  0  0  0
    5.1714   -5.0377    1.7223 N   0  0  0  0  0  0  0  0  0  0  0  0
    3.7997   -5.6247    1.6407 C   0  0  0  0  0  0  0  0  0  0  0  0
    4.0394   -7.0616    1.7319 C   0  0  0  0  0  0  0  0  0  0  0  0
    5.3693   -7.3728    1.8745 C   0  0  0  0  0  0  0  0  0  0  0  0
    5.6420   -8.6649    2.0520 N   0  0  0  0  0  0  0  0  0  0  0  0
    4.3887   -9.2121    2.0471 N   0  0  0  0  0  0  0  0  0  0  0  0
    3.3893   -8.2590    1.8524 C   0  0  0  0  0  0  0  0  0  0  0  0
    2.0596   -8.4757    1.9272 N   0  0  0  0  0  0  0  0  0  0  0  0
    1.0353   -7.5911    1.8333 C   0  0  0  0  0  0  0  0  0  0  0  0
    1.0847   -6.4449    1.3758 O   0  0  0  0  0  0  0  0  0  0  0  0
   -0.2418   -8.0592    2.3430 C   0  0  0  0  0  0  0  0  0  0  0  0
   -0.8361   -9.2936    2.3749 C   0  0  0  0  0  0  0  0  0  0  0  0
   -2.1003   -9.1346    2.8913 N   0  0  0  0  0  0  0  0  0  0  0  0
   -2.1876   -7.8609    3.2246 C   0  0  0  0  0  0  0  0  0  0  0  0
   -1.1096   -7.1282    2.8577 O   0  0  0  0  0  0  0  0  0  0  0  0
    6.2067   -6.1303    1.8380 C   0  0  0  0  0  0  0  0  0  0  0  0
    7.1175   -6.1750    0.5978 C   0  0  0  0  0  0  0  0  0  0  0  0
    7.0277   -5.9682    3.1265 C   0  0  0  0  0  0  0  0  0  0  0  0
    4.5758   -1.6318    0.5830 C   0  0  1  0  0  0  0  0  0  0  0  0
    3.6094   -1.6680   -0.6059 C   0  0  0  0  0  0  0  0  0  0  0  0
    4.4107   -0.3343    1.4247 C   0  0  0  0  0  0  0  0  0  0  0  0
    3.1925   -0.4042    2.2840 N   0  0  2  0  0  0  0  0  0  0  0  0
    2.9678    0.8091    3.1027 C   0  0  0  0  0  0  0  0  0  0  0  0
    2.2661    1.9080    2.3333 C   0  0  0  0  0  0  0  0  0  0  0  0
    0.8740    1.7420    2.3963 O   0  0  0  0  0  0  0  0  0  0  0  0
    4.2387  -10.2135    2.1537 H   0  0  0  0  0  0  0  0  0  0  0  0
    4.3183   -2.5427    4.7879 H   0  0  0  0  0  0  0  0  0  0  0  0
    4.2249   -0.7881    4.8889 H   0  0  0  0  0  0  0  0  0  0  0  0
    5.3208   -1.5687    3.7458 H   0  0  0  0  0  0  0  0  0  0  0  0
    2.2343   -1.6878    3.6323 H   0  0  0  0  0  0  0  0  0  0  0  0
    3.3172   -3.6451    3.0467 H   0  0  0  0  0  0  0  0  0  0  0  0
    2.3589   -3.0439    1.6864 H   0  0  0  0  0  0  0  0  0  0  0  0
    3.1861   -5.3659    2.5025 H   0  0  0  0  0  0  0  0  0  0  0  0
    3.2969   -5.3517    0.7076 H   0  0  0  0  0  0  0  0  0  0  0  0
   -0.4644  -10.2361    1.9991 H   0  0  0  0  0  0  0  0  0  0  0  0
   -3.0753   -7.4501    3.6781 H   0  0  0  0  0  0  0  0  0  0  0  0
    7.7680   -7.0582    0.6199 H   0  0  0  0  0  0  0  0  0  0  0  0
    7.7635   -5.2970    0.5124 H   0  0  0  0  0  0  0  0  0  0  0  0
    6.4920   -6.2124   -0.2955 H   0  0  0  0  0  0  0  0  0  0  0  0
    7.6850   -6.8284    3.2784 H   0  0  0  0  0  0  0  0  0  0  0  0
    6.3760   -5.8651    3.9979 H   0  0  0  0  0  0  0  0  0  0  0  0
    7.6685   -5.0867    3.0604 H   0  0  0  0  0  0  0  0  0  0  0  0
    5.5857   -1.5852    0.1514 H   0  0  0  0  0  0  0  0  0  0  0  0
    3.6147   -0.7323   -1.1734 H   0  0  0  0  0  0  0  0  0  0  0  0
    2.6158   -1.8321   -0.2274 H   0  0  0  0  0  0  0  0  0  0  0  0
    3.8344   -2.5038   -1.2686 H   0  0  0  0  0  0  0  0  0  0  0  0
    5.3041   -0.2296    2.0510 H   0  0  0  0  0  0  0  0  0  0  0  0
    4.4102    0.5602    0.7850 H   0  0  0  0  0  0  0  0  0  0  0  0
    2.3917    0.5790    3.9961 H   0  0  0  0  0  0  0  0  0  0  0  0
    3.9388    1.1453    3.4509 H   0  0  0  0  0  0  0  0  0  0  0  0
    2.5585    2.8706    2.7438 H   0  0  0  0  0  0  0  0  0  0  0  0
    2.5547    1.8682    1.2942 H   0  0  0  0  0  0  0  0  0  0  0  0
    0.4798    2.4509    1.9029 H   0  0  0  0  0  0  0  0  0  0  0  0
    1.7819   -9.4208    2.1711 H   0  0  0  0  0  0  0  0  0  0  0  0
    2.4033   -0.5044    1.6513 H   0  0  0  0  0  0  0  0  0  0  0  0
  1  2  1  0
  1 33  1  0
  1 34  1  0
  1 35  1  0
  2 28  1  0
  2  3  1  0
  2 36  1  1
  3  4  1  0
  3 37  1  0
  3 38  1  0
  4  5  1  0
  4 25  1  0
  5  6  2  0
  5  7  1  0
  7 22  1  0
  7  8  1  0
  8  9  1  0
  8 39  1  0
  8 40  1  0
  9 13  2  0
  9 10  1  0
 10 11  2  0
 10 22  1  0
 11 12  1  0
 12 32  1  0
 12 13  1  0
 13 14  1  0
 14 15  1  0
 14 60  1  0
 15 16  2  0
 15 17  1  0
 17 21  1  0
 17 18  2  0
 18 19  1  0
 18 41  1  0
 19 20  2  0
 20 21  1  0
 20 42  1  0
 22 23  1  0
 22 24  1  0
 23 43  1  0
 23 44  1  0
 23 45  1  0
 24 46  1  0
 24 47  1  0
 24 48  1  0
 25 26  1  0
 25 27  1  0
 25 49  1  6
 26 50  1  0
 26 51  1  0
 26 52  1  0
 27 28  1  0
 27 53  1  0
 27 54  1  0
 28 29  1  0
 28 61  1  6
 29 30  1  0
 29 55  1  0
 29 56  1  0
 30 31  1  0
 30 57  1  0
 30 58  1  0
 31 59  1  0
M  CHG  1  28   1
M  END
>  <i_m_ct_stereo_status>  (187) 
1

>  <s_m_source_file>  (187) 
/var/tmp/pbs.5102264.sched01/tmp6iaxk4q8/46_x9h2b30.sdf

>  <i_m_source_file_index>  (187) 
23

>  <i_lp_mmshare_version>  (187) 
48012

>  <i_f3d_flags>  (187) 
0

>  <s_epik_input>  (187) 
W09IXVtDSDJdW0NIMl1OMVtDSDJdW0NASF0oW0NIM10pTihbQ0gyXVtDQEhdMVtDSDNdKUMoPU8pTihbQ0gyXTIpQyhbQ0gzXSkoW0NIM10pYyhjMjMpW25IXVtuSF1jXDM9Ti9DKD1PKWM0W2NIXW5bY0hdbzQ=

>  <s_epik_cmdline>  (187) 
J2VwaWtfcHl0aG9uJywgJy1waHQnLCAnMi4wJywgJy1waCcsICc3LjAnLCAnLXRuJywgJzgnLCAnLW1hJywgJzIwMCcsICctaW1hZScsICc8aW5maWxlLm1hZT4nLCAnLW9tYWUnLCAnPG91dGZpbGUubWFlPic=

>  <r_lp_tautomer_probability>  (187) 
0.5

>  <r_epik_Ionization_Penalty>  (187) 
0.795328

>  <r_epik_Ionization_Penalty_Charging>  (187) 
0.794883

>  <r_epik_Ionization_Penalty_Neutral>  (187) 
0.000445278

>  <r_epik_State_Penalty>  (187) 
1.24339

>  <r_epik_Charging_Adjusted_Penalty>  (187) 
2.03827

>  <i_epik_Tot_Q>  (187) 
1

>  <i_epik_Tot_abs_Q>  (187) 
1

>  <s_lp_Force_Field>  (187) 
OPLS3e

>  <r_lp_Energy>  (187) 
46.3867

>  <b_lp_Chiralities_Consistent>  (187) 
1

>  <s_lp_Variant>  (187) 
47:0-3

>  <s_i_glide_gridfile>  (187) 
pfpi4k_grid

>  <i_i_glide_lignum>  (187) 
23

>  <i_i_glide_rotatable_bonds>  (187) 
8

>  <r_i_docking_score>  (187) 
-3.63279

>  <r_i_glide_ligand_efficiency>  (187) 
-0.117187

>  <r_i_glide_ligand_efficiency_sa>  (187) 
-0.368128

>  <r_i_glide_ligand_efficiency_ln>  (187) 
-0.819306

>  <r_i_glide_gscore>  (187) 
-3.63279

>  <r_i_glide_lipo>  (187) 
-0.600777

>  <r_i_glide_hbond>  (187) 
-0.320088

>  <r_i_glide_metal>  (187) 
-0

>  <r_i_glide_rewards>  (187) 
-0.591691

>  <r_i_glide_evdw>  (187) 
-27.4048

>  <r_i_glide_ecoul>  (187) 
-9.26404

>  <r_i_glide_erotb>  (187) 
0.744671

>  <r_i_glide_esite>  (187) 
-0.105058

>  <r_i_glide_emodel>  (187) 
-41.5604

>  <r_i_glide_energy>  (187) 
-36.6689

>  <r_i_glide_einternal>  (187) 
9.27428

>  <r_i_glide_intrahb_reward>  (187) 
-0

>  <i_i_glide_confnum>  (187) 
6

>  <i_i_glide_posenum>  (187) 
13

>  <r_i_glide_eff_state_penalty>  (187) 
0

>  <ligand_id>  (187) 
47

>  <original_smiles>  (187) 
CC1CN(C(=O)N2Cc3c([nH][nH]c3=NC(=O)c3cnco3)C2(C)C)C(C)CN1CCO

>  <smiles>  (187) 
[H]OC([H])([H])C([H])([H])[N+]1([H])C([H])([H])C([H])(C([H])([H])[H])N(C(=O)N2C([H])([H])c3c(nn([H])c3N([H])C(=O)c3oc([H])nc3[H])C2(C([H])([H])[H])C([H])([H])[H])C([H])([H])C1([H])C([H])([H])[H]

$$$$
47:2:2
     RDKit          3D

 61 64  0  0  1  0  0  0  0  0999 V2000
    3.1377   -9.6844    2.6747 C   0  0  0  0  0  0  0  0  0  0  0  0
    1.7426   -9.0272    2.8137 C   0  0  2  0  0  0  0  0  0  0  0  0
    1.6095   -7.8030    1.8831 C   0  0  0  0  0  0  0  0  0  0  0  0
    2.4118   -6.6609    2.3355 N   0  0  0  0  0  0  0  0  0  0  0  0
    3.5404   -6.3199    1.6525 C   0  0  0  0  0  0  0  0  0  0  0  0
    4.2845   -7.1839    1.1906 O   0  0  0  0  0  0  0  0  0  0  0  0
    3.7614   -4.9867    1.4795 N   0  0  0  0  0  0  0  0  0  0  0  0
    2.7838   -3.9226    1.8216 C   0  0  0  0  0  0  0  0  0  0  0  0
    3.4362   -2.6886    1.3892 C   0  0  0  0  0  0  0  0  0  0  0  0
    4.6917   -2.9232    0.8662 C   0  0  0  0  0  0  0  0  0  0  0  0
    5.3678   -1.8453    0.4820 N   0  0  0  0  0  0  0  0  0  0  0  0
    4.4654   -0.8619    0.7746 N   0  0  0  0  0  0  0  0  0  0  0  0
    3.2982   -1.3344    1.3415 C   0  0  0  0  0  0  0  0  0  0  0  0
    2.2449   -0.5796    1.7340 N   0  0  0  0  0  0  0  0  0  0  0  0
    1.3636   -0.8365    2.7225 C   0  0  0  0  0  0  0  0  0  0  0  0
    1.3932   -1.8173    3.4678 O   0  0  0  0  0  0  0  0  0  0  0  0
    0.3182    0.1798    2.9045 C   0  0  0  0  0  0  0  0  0  0  0  0
   -0.0156    1.3014    2.1977 C   0  0  0  0  0  0  0  0  0  0  0  0
   -1.0951    1.9210    2.8048 N   0  0  0  0  0  0  0  0  0  0  0  0
   -1.3751    1.1448    3.8413 C   0  0  0  0  0  0  0  0  0  0  0  0
   -0.5576    0.0651    3.9581 O   0  0  0  0  0  0  0  0  0  0  0  0
    4.9966   -4.3891    0.8617 C   0  0  0  0  0  0  0  0  0  0  0  0
    6.2160   -4.7016    1.7409 C   0  0  0  0  0  0  0  0  0  0  0  0
    5.1811   -4.8658   -0.5853 C   0  0  0  0  0  0  0  0  0  0  0  0
    2.2200   -6.3094    3.7635 C   0  0  1  0  0  0  0  0  0  0  0  0
    0.8741   -5.5579    3.9507 C   0  0  0  0  0  0  0  0  0  0  0  0
    2.3060   -7.5406    4.6895 C   0  0  0  0  0  0  0  0  0  0  0  0
    1.4247   -8.6450    4.2221 N   0  0  2  0  0  0  0  0  0  0  0  0
    1.3846   -9.8218    5.1406 C   0  0  0  0  0  0  0  0  0  0  0  0
    0.8108   -9.4927    6.5211 C   0  0  0  0  0  0  0  0  0  0  0  0
   -0.5907   -9.4291    6.4630 O   0  0  0  0  0  0  0  0  0  0  0  0
    4.6697    0.1085    0.5939 H   0  0  0  0  0  0  0  0  0  0  0  0
    3.3638   -9.9288    1.6354 H   0  0  0  0  0  0  0  0  0  0  0  0
    3.2020  -10.6125    3.2403 H   0  0  0  0  0  0  0  0  0  0  0  0
    3.9285   -9.0295    3.0358 H   0  0  0  0  0  0  0  0  0  0  0  0
    0.9969   -9.7352    2.4714 H   0  0  0  0  0  0  0  0  0  0  0  0
    1.8915   -8.1008    0.8802 H   0  0  0  0  0  0  0  0  0  0  0  0
    0.5665   -7.4769    1.7992 H   0  0  0  0  0  0  0  0  0  0  0  0
    1.8335   -4.0890    1.3148 H   0  0  0  0  0  0  0  0  0  0  0  0
    2.6370   -3.8861    2.8891 H   0  0  0  0  0  0  0  0  0  0  0  0
    0.4190    1.7178    1.3027 H   0  0  0  0  0  0  0  0  0  0  0  0
   -2.1711    1.3072    4.5490 H   0  0  0  0  0  0  0  0  0  0  0  0
    7.0924   -4.1623    1.3911 H   0  0  0  0  0  0  0  0  0  0  0  0
    6.4578   -5.7656    1.7361 H   0  0  0  0  0  0  0  0  0  0  0  0
    6.0361   -4.4148    2.7751 H   0  0  0  0  0  0  0  0  0  0  0  0
    5.9978   -4.3277   -1.0595 H   0  0  0  0  0  0  0  0  0  0  0  0
    4.2841   -4.6890   -1.1751 H   0  0  0  0  0  0  0  0  0  0  0  0
    5.4106   -5.9284   -0.6489 H   0  0  0  0  0  0  0  0  0  0  0  0
    3.0411   -5.6587    4.0925 H   0  0  0  0  0  0  0  0  0  0  0  0
    0.7008   -5.3470    5.0116 H   0  0  0  0  0  0  0  0  0  0  0  0
    0.0387   -6.1774    3.6043 H   0  0  0  0  0  0  0  0  0  0  0  0
    0.8328   -4.6101    3.4109 H   0  0  0  0  0  0  0  0  0  0  0  0
    3.3382   -7.9049    4.7464 H   0  0  0  0  0  0  0  0  0  0  0  0
    2.0546   -7.2021    5.6970 H   0  0  0  0  0  0  0  0  0  0  0  0
    0.8278  -10.6312    4.6618 H   0  0  0  0  0  0  0  0  0  0  0  0
    2.4105  -10.1741    5.2664 H   0  0  0  0  0  0  0  0  0  0  0  0
    1.1131  -10.2632    7.2125 H   0  0  0  0  0  0  0  0  0  0  0  0
    1.1802   -8.5741    6.9492 H   0  0  0  0  0  0  0  0  0  0  0  0
   -0.9523  -10.1718    5.9830 H   0  0  0  0  0  0  0  0  0  0  0  0
    2.0967    0.2702    1.2089 H   0  0  0  0  0  0  0  0  0  0  0  0
    0.4822   -8.2714    4.2019 H   0  0  0  0  0  0  0  0  0  0  0  0
  1  2  1  0
  1 33  1  0
  1 34  1  0
  1 35  1  0
  2 28  1  0
  2  3  1  0
  2 36  1  6
  3  4  1  0
  3 37  1  0
  3 38  1  0
  4  5  1  0
  4 25  1  0
  5  6  2  0
  5  7  1  0
  7 22  1  0
  7  8  1  0
  8  9  1  0
  8 39  1  0
  8 40  1  0
  9 13  2  0
  9 10  1  0
 10 11  2  0
 10 22  1  0
 11 12  1  0
 12 32  1  0
 12 13  1  0
 13 14  1  0
 14 15  1  0
 14 60  1  0
 15 16  2  0
 15 17  1  0
 17 21  1  0
 17 18  2  0
 18 19  1  0
 18 41  1  0
 19 20  2  0
 20 21  1  0
 20 42  1  0
 22 23  1  0
 22 24  1  0
 23 43  1  0
 23 44  1  0
 23 45  1  0
 24 46  1  0
 24 47  1  0
 24 48  1  0
 25 26  1  0
 25 27  1  0
 25 49  1  1
 26 50  1  0
 26 51  1  0
 26 52  1  0
 27 28  1  0
 27 53  1  0
 27 54  1  0
 28 29  1  0
 28 61  1  6
 29 30  1  0
 29 55  1  0
 29 56  1  0
 30 31  1  0
 30 57  1  0
 30 58  1  0
 31 59  1  0
M  CHG  1  28   1
M  END
>  <i_m_ct_stereo_status>  (188) 
1

>  <s_m_source_file>  (188) 
/var/tmp/pbs.5102264.sched01/tmp6iaxk4q8/46_x9h2b30.sdf

>  <i_m_source_file_index>  (188) 
23

>  <i_lp_mmshare_version>  (188) 
48012

>  <i_f3d_flags>  (188) 
0

>  <s_epik_input>  (188) 
W09IXVtDSDJdW0NIMl1OMVtDSDJdW0NASF0oW0NIM10pTihbQ0gyXVtDQEhdMVtDSDNdKUMoPU8pTihbQ0gyXTIpQyhbQ0gzXSkoW0NIM10pYyhjMjMpW25IXVtuSF1jXDM9Ti9DKD1PKWM0W2NIXW5bY0hdbzQ=

>  <s_epik_cmdline>  (188) 
J2VwaWtfcHl0aG9uJywgJy1waHQnLCAnMi4wJywgJy1waCcsICc3LjAnLCAnLXRuJywgJzgnLCAnLW1hJywgJzIwMCcsICctaW1hZScsICc8aW5maWxlLm1hZT4nLCAnLW9tYWUnLCAnPG91dGZpbGUubWFlPic=

>  <r_lp_tautomer_probability>  (188) 
0.5

>  <r_epik_Ionization_Penalty>  (188) 
0.795328

>  <r_epik_Ionization_Penalty_Charging>  (188) 
0.794883

>  <r_epik_Ionization_Penalty_Neutral>  (188) 
0.000445278

>  <r_epik_State_Penalty>  (188) 
1.24339

>  <r_epik_Charging_Adjusted_Penalty>  (188) 
2.03827

>  <i_epik_Tot_Q>  (188) 
1

>  <i_epik_Tot_abs_Q>  (188) 
1

>  <s_lp_Force_Field>  (188) 
OPLS3e

>  <r_lp_Energy>  (188) 
46.3867

>  <b_lp_Chiralities_Consistent>  (188) 
1

>  <s_lp_Variant>  (188) 
47:0-3

>  <s_i_glide_gridfile>  (188) 
pfpi4k_grid

>  <i_i_glide_lignum>  (188) 
23

>  <i_i_glide_rotatable_bonds>  (188) 
8

>  <r_i_docking_score>  (188) 
-2.80794

>  <r_i_glide_ligand_efficiency>  (188) 
-0.0905789

>  <r_i_glide_ligand_efficiency_sa>  (188) 
-0.284543

>  <r_i_glide_ligand_efficiency_ln>  (188) 
-0.633278

>  <r_i_glide_gscore>  (188) 
-2.80794

>  <r_i_glide_lipo>  (188) 
-0.126325

>  <r_i_glide_hbond>  (188) 
-0.16

>  <r_i_glide_metal>  (188) 
-0

>  <r_i_glide_rewards>  (188) 
-0.535624

>  <r_i_glide_evdw>  (188) 
-28.551

>  <r_i_glide_ecoul>  (188) 
-7.89896

>  <r_i_glide_erotb>  (188) 
0.744671

>  <r_i_glide_esite>  (188) 
-0.118271

>  <r_i_glide_emodel>  (188) 
-41.2118

>  <r_i_glide_energy>  (188) 
-36.45

>  <r_i_glide_einternal>  (188) 
6.81435

>  <r_i_glide_intrahb_reward>  (188) 
-0

>  <i_i_glide_confnum>  (188) 
5

>  <i_i_glide_posenum>  (188) 
2

>  <r_i_glide_eff_state_penalty>  (188) 
0

>  <ligand_id>  (188) 
47

>  <original_smiles>  (188) 
CC1CN(C(=O)N2Cc3c([nH][nH]c3=NC(=O)c3cnco3)C2(C)C)C(C)CN1CCO

>  <smiles>  (188) 
[H]OC([H])([H])C([H])([H])[N+]1([H])C([H])([H])C([H])(C([H])([H])[H])N(C(=O)N2C([H])([H])c3c(nn([H])c3N([H])C(=O)c3oc([H])nc3[H])C2(C([H])([H])[H])C([H])([H])[H])C([H])([H])C1([H])C([H])([H])[H]

$$$$
47:3:0
     RDKit          3D

 61 64  0  0  1  0  0  0  0  0999 V2000
    2.3298   -9.7698    2.1462 C   0  0  0  0  0  0  0  0  0  0  0  0
    1.5606   -8.4823    2.5279 C   0  0  2  0  0  0  0  0  0  0  0  0
    2.4842   -7.2825    2.5540 C   0  0  0  0  0  0  0  0  0  0  0  0
    3.4089   -7.3964    3.6914 N   0  0  0  0  0  0  0  0  0  0  0  0
    4.7305   -7.6866    3.5060 C   0  0  0  0  0  0  0  0  0  0  0  0
    5.2667   -8.5671    4.1841 O   0  0  0  0  0  0  0  0  0  0  0  0
    5.4431   -6.8570    2.6960 N   0  0  0  0  0  0  0  0  0  0  0  0
    4.8932   -5.9648    1.6225 C   0  0  0  0  0  0  0  0  0  0  0  0
    6.0726   -5.2847    1.0920 C   0  0  0  0  0  0  0  0  0  0  0  0
    7.1842   -5.6891    1.7099 C   0  0  0  0  0  0  0  0  0  0  0  0
    8.2641   -5.0633    1.1476 N   0  0  0  0  0  0  0  0  0  0  0  0
    7.8593   -4.2179    0.1524 N   0  0  0  0  0  0  0  0  0  0  0  0
    6.5292   -4.3455    0.1362 C   0  0  0  0  0  0  0  0  0  0  0  0
    5.6737   -3.7067   -0.7986 N   0  0  0  0  0  0  0  0  0  0  0  0
    5.8011   -2.4517   -1.2072 C   0  0  0  0  0  0  0  0  0  0  0  0
    6.5952   -1.6410   -0.7208 O   0  0  0  0  0  0  0  0  0  0  0  0
    4.8817   -2.0292   -2.2792 C   0  0  0  0  0  0  0  0  0  0  0  0
    4.2230   -2.7418   -3.2411 C   0  0  0  0  0  0  0  0  0  0  0  0
    3.5221   -1.8573   -4.0499 N   0  0  0  0  0  0  0  0  0  0  0  0
    3.7481   -0.6606   -3.5166 C   0  0  0  0  0  0  0  0  0  0  0  0
    4.6009   -0.6974   -2.4560 O   0  0  0  0  0  0  0  0  0  0  0  0
    6.9395   -6.6957    2.7678 C   0  0  0  0  0  0  0  0  0  0  0  0
    7.3686   -6.1284    4.1363 C   0  0  0  0  0  0  0  0  0  0  0  0
    7.6724   -8.0184    2.4633 C   0  0  0  0  0  0  0  0  0  0  0  0
    2.7585   -7.6234    5.0128 C   0  0  1  0  0  0  0  0  0  0  0  0
    2.1626   -6.2949    5.5374 C   0  0  0  0  0  0  0  0  0  0  0  0
    1.7013   -8.7598    4.9820 C   0  0  0  0  0  0  0  0  0  0  0  0
    0.7988   -8.6101    3.8055 N   0  0  2  0  0  0  0  0  0  0  0  0
   -0.2802   -9.6387    3.7287 C   0  0  0  0  0  0  0  0  0  0  0  0
   -1.6403   -8.9977    3.3612 C   0  0  0  0  0  0  0  0  0  0  0  0
   -1.5654   -8.3645    2.0959 O   0  0  0  0  0  0  0  0  0  0  0  0
    9.2260   -5.1860    1.4479 H   0  0  0  0  0  0  0  0  0  0  0  0
    2.9024   -9.6201    1.2265 H   0  0  0  0  0  0  0  0  0  0  0  0
    1.6358  -10.6068    2.0414 H   0  0  0  0  0  0  0  0  0  0  0  0
    3.0539  -10.0602    2.9077 H   0  0  0  0  0  0  0  0  0  0  0  0
    0.8623   -8.2327    1.7406 H   0  0  0  0  0  0  0  0  0  0  0  0
    2.9571   -7.3436    1.5851 H   0  0  0  0  0  0  0  0  0  0  0  0
    1.9686   -6.3190    2.6483 H   0  0  0  0  0  0  0  0  0  0  0  0
    4.4343   -6.5632    0.8369 H   0  0  0  0  0  0  0  0  0  0  0  0
    4.1562   -5.2476    1.9964 H   0  0  0  0  0  0  0  0  0  0  0  0
    4.2134   -3.8103   -3.4216 H   0  0  0  0  0  0  0  0  0  0  0  0
    3.3404    0.2714   -3.8981 H   0  0  0  0  0  0  0  0  0  0  0  0
    8.4284   -5.8651    4.1296 H   0  0  0  0  0  0  0  0  0  0  0  0
    7.2160   -6.8456    4.9411 H   0  0  0  0  0  0  0  0  0  0  0  0
    6.8113   -5.2254    4.3914 H   0  0  0  0  0  0  0  0  0  0  0  0
    8.7422   -7.8479    2.3736 H   0  0  0  0  0  0  0  0  0  0  0  0
    7.3167   -8.4651    1.5370 H   0  0  0  0  0  0  0  0  0  0  0  0
    7.5552   -8.7570    3.2534 H   0  0  0  0  0  0  0  0  0  0  0  0
    3.5109   -7.9261    5.7518 H   0  0  0  0  0  0  0  0  0  0  0  0
    1.6020   -6.4353    6.4708 H   0  0  0  0  0  0  0  0  0  0  0  0
    1.4752   -5.8556    4.8112 H   0  0  0  0  0  0  0  0  0  0  0  0
    2.9557   -5.5579    5.7174 H   0  0  0  0  0  0  0  0  0  0  0  0
    2.2197   -9.7125    4.9078 H   0  0  0  0  0  0  0  0  0  0  0  0
    1.1462   -8.7823    5.9320 H   0  0  0  0  0  0  0  0  0  0  0  0
   -0.0312  -10.4241    3.0000 H   0  0  0  0  0  0  0  0  0  0  0  0
   -0.3310  -10.1185    4.7181 H   0  0  0  0  0  0  0  0  0  0  0  0
   -2.3661   -9.7877    3.2803 H   0  0  0  0  0  0  0  0  0  0  0  0
   -2.0131   -8.3073    4.1264 H   0  0  0  0  0  0  0  0  0  0  0  0
   -1.2647   -8.9903    1.4496 H   0  0  0  0  0  0  0  0  0  0  0  0
    4.9133   -4.2477   -1.1876 H   0  0  0  0  0  0  0  0  0  0  0  0
    0.3469   -7.7104    3.9576 H   0  0  0  0  0  0  0  0  0  0  0  0
  1  2  1  0
  1 33  1  0
  1 34  1  0
  1 35  1  0
  2 28  1  0
  2  3  1  0
  2 36  1  6
  3  4  1  0
  3 37  1  0
  3 38  1  0
  4  5  1  0
  4 25  1  0
  5  6  2  0
  5  7  1  0
  7 22  1  0
  7  8  1  0
  8  9  1  0
  8 39  1  0
  8 40  1  0
  9 13  1  0
  9 10  2  0
 10 11  1  0
 10 22  1  0
 11 32  1  0
 11 12  1  0
 12 13  2  0
 13 14  1  0
 14 15  1  0
 14 60  1  0
 15 16  2  0
 15 17  1  0
 17 21  1  0
 17 18  2  0
 18 19  1  0
 18 41  1  0
 19 20  2  0
 20 21  1  0
 20 42  1  0
 22 23  1  0
 22 24  1  0
 23 43  1  0
 23 44  1  0
 23 45  1  0
 24 46  1  0
 24 47  1  0
 24 48  1  0
 25 26  1  0
 25 27  1  0
 25 49  1  1
 26 50  1  0
 26 51  1  0
 26 52  1  0
 27 28  1  0
 27 53  1  0
 27 54  1  0
 28 29  1  0
 28 61  1  1
 29 30  1  0
 29 55  1  0
 29 56  1  0
 30 31  1  0
 30 57  1  0
 30 58  1  0
 31 59  1  0
M  CHG  1  28   1
M  END
>  <i_m_ct_stereo_status>  (189) 
1

>  <s_m_source_file>  (189) 
/var/tmp/pbs.5102264.sched01/tmp148in4kv/69urs0mf0h.sdf

>  <i_m_source_file_index>  (189) 
1

>  <i_lp_mmshare_version>  (189) 
48012

>  <i_f3d_flags>  (189) 
0

>  <s_epik_input>  (189) 
W09IXVtDSDJdW0NIMl1OMVtDSDJdW0NASF0oW0NIM10pTihbQ0gyXVtDQEhdMVtDSDNdKUMoPU8pTihbQ0gyXTIpQyhbQ0gzXSkoW0NIM10pYyhjMjMpW25IXVtuSF1jXDM9Ti9DKD1PKWM0W2NIXW5bY0hdbzQ=

>  <s_epik_cmdline>  (189) 
J2VwaWtfcHl0aG9uJywgJy1waHQnLCAnMi4wJywgJy1waCcsICc3LjAnLCAnLXRuJywgJzgnLCAnLW1hJywgJzIwMCcsICctaW1hZScsICc8aW5maWxlLm1hZT4nLCAnLW9tYWUnLCAnPG91dGZpbGUubWFlPic=

>  <r_lp_tautomer_probability>  (189) 
0.5

>  <r_epik_Ionization_Penalty>  (189) 
0.814541

>  <r_epik_Ionization_Penalty_Charging>  (189) 
0.814361

>  <r_epik_Ionization_Penalty_Neutral>  (189) 
0.000179953

>  <r_epik_State_Penalty>  (189) 
1.25038

>  <r_epik_Charging_Adjusted_Penalty>  (189) 
2.06474

>  <i_epik_Tot_Q>  (189) 
1

>  <i_epik_Tot_abs_Q>  (189) 
1

>  <s_lp_Force_Field>  (189) 
OPLS3e

>  <r_lp_Energy>  (189) 
51.0215

>  <b_lp_Chiralities_Consistent>  (189) 
1

>  <s_lp_Variant>  (189) 
47:0-4

>  <s_i_glide_gridfile>  (189) 
pfpi4k_grid

>  <i_i_glide_lignum>  (189) 
1

>  <i_i_glide_rotatable_bonds>  (189) 
8

>  <r_i_docking_score>  (189) 
-4.15565

>  <r_i_glide_ligand_efficiency>  (189) 
-0.134053

>  <r_i_glide_ligand_efficiency_sa>  (189) 
-0.421112

>  <r_i_glide_ligand_efficiency_ln>  (189) 
-0.937227

>  <r_i_glide_gscore>  (189) 
-4.15565

>  <r_i_glide_lipo>  (189) 
-0.723312

>  <r_i_glide_hbond>  (189) 
-0.391255

>  <r_i_glide_metal>  (189) 
-0

>  <r_i_glide_rewards>  (189) 
-0.466771

>  <r_i_glide_evdw>  (189) 
-33.0327

>  <r_i_glide_ecoul>  (189) 
-10.8075

>  <r_i_glide_erotb>  (189) 
0.744671

>  <r_i_glide_esite>  (189) 
-0.0462255

>  <r_i_glide_emodel>  (189) 
-50.9259

>  <r_i_glide_energy>  (189) 
-43.8402

>  <r_i_glide_einternal>  (189) 
9.85279

>  <r_i_glide_intrahb_reward>  (189) 
-0

>  <i_i_glide_confnum>  (189) 
4

>  <i_i_glide_posenum>  (189) 
1

>  <r_i_glide_eff_state_penalty>  (189) 
0

>  <ligand_id>  (189) 
47

>  <original_smiles>  (189) 
CC1CN(C(=O)N2Cc3c([nH][nH]c3=NC(=O)c3cnco3)C2(C)C)C(C)CN1CCO

>  <smiles>  (189) 
[H]OC([H])([H])C([H])([H])[N+]1([H])C([H])([H])C([H])(C([H])([H])[H])N(C(=O)N2C([H])([H])c3c(N([H])C(=O)c4oc([H])nc4[H])nn([H])c3C2(C([H])([H])[H])C([H])([H])[H])C([H])([H])C1([H])C([H])([H])[H]

$$$$
47:3:1
     RDKit          3D

 61 64  0  0  1  0  0  0  0  0999 V2000
    4.6248   -0.8617   -0.6612 C   0  0  0  0  0  0  0  0  0  0  0  0
    3.6445   -1.7938   -1.4405 C   0  0  2  0  0  0  0  0  0  0  0  0
    3.9283   -3.2418   -1.1137 C   0  0  0  0  0  0  0  0  0  0  0  0
    5.1799   -3.6696   -1.7426 N   0  0  0  0  0  0  0  0  0  0  0  0
    6.2636   -3.7878   -0.9595 C   0  0  0  0  0  0  0  0  0  0  0  0
    7.2887   -3.1625   -1.2256 O   0  0  0  0  0  0  0  0  0  0  0  0
    6.2128   -4.7651   -0.0058 N   0  0  0  0  0  0  0  0  0  0  0  0
    5.0218   -5.6269    0.2665 C   0  0  0  0  0  0  0  0  0  0  0  0
    5.4884   -6.4737    1.3688 C   0  0  0  0  0  0  0  0  0  0  0  0
    6.7503   -6.2130    1.6936 C   0  0  0  0  0  0  0  0  0  0  0  0
    7.1170   -7.0052    2.7524 N   0  0  0  0  0  0  0  0  0  0  0  0
    6.0629   -7.7786    3.1342 N   0  0  0  0  0  0  0  0  0  0  0  0
    5.0739   -7.4563    2.2998 C   0  0  0  0  0  0  0  0  0  0  0  0
    3.7886   -8.0337    2.4119 N   0  0  0  0  0  0  0  0  0  0  0  0
    2.5953   -7.6074    1.9413 C   0  0  0  0  0  0  0  0  0  0  0  0
    2.3889   -6.5654    1.3187 O   0  0  0  0  0  0  0  0  0  0  0  0
    1.4746   -8.4833    2.2761 C   0  0  0  0  0  0  0  0  0  0  0  0
    1.4261   -9.7675    2.7492 C   0  0  0  0  0  0  0  0  0  0  0  0
    0.0890  -10.1302    2.9026 N   0  0  0  0  0  0  0  0  0  0  0  0
   -0.6007   -9.0698    2.4901 C   0  0  0  0  0  0  0  0  0  0  0  0
    0.1891   -8.0295    2.1069 O   0  0  0  0  0  0  0  0  0  0  0  0
    7.3767   -5.1830    0.8448 C   0  0  0  0  0  0  0  0  0  0  0  0
    8.5636   -5.7856    0.0836 C   0  0  0  0  0  0  0  0  0  0  0  0
    7.8657   -3.9933    1.6353 C   0  0  0  0  0  0  0  0  0  0  0  0
    5.2780   -3.3468   -3.1930 C   0  0  1  0  0  0  0  0  0  0  0  0
    4.4746   -4.3439   -4.0350 C   0  0  0  0  0  0  0  0  0  0  0  0
    4.8096   -1.9357   -3.5602 C   0  0  0  0  0  0  0  0  0  0  0  0
    3.5125   -1.5904   -2.9195 N   0  0  2  0  0  0  0  0  0  0  0  0
    3.0962   -0.2170   -3.3015 C   0  0  0  0  0  0  0  0  0  0  0  0
    2.7702   -0.0286   -4.7969 C   0  0  0  0  0  0  0  0  0  0  0  0
    2.9900    1.3276   -5.1463 O   0  0  0  0  0  0  0  0  0  0  0  0
    8.0341   -7.0409    3.1941 H   0  0  0  0  0  0  0  0  0  0  0  0
    4.6225   -1.0844    0.4090 H   0  0  0  0  0  0  0  0  0  0  0  0
    4.2736    0.1438   -0.7593 H   0  0  0  0  0  0  0  0  0  0  0  0
    5.6628   -0.9207   -0.9987 H   0  0  0  0  0  0  0  0  0  0  0  0
    2.6867   -1.6411   -0.9861 H   0  0  0  0  0  0  0  0  0  0  0  0
    3.9653   -3.2412   -0.0159 H   0  0  0  0  0  0  0  0  0  0  0  0
    3.1331   -3.9322   -1.4256 H   0  0  0  0  0  0  0  0  0  0  0  0
    4.1633   -5.0681    0.6228 H   0  0  0  0  0  0  0  0  0  0  0  0
    4.7401   -6.2120   -0.6131 H   0  0  0  0  0  0  0  0  0  0  0  0
    2.2089  -10.4542    2.9881 H   0  0  0  0  0  0  0  0  0  0  0  0
   -1.6761   -9.0145    2.4600 H   0  0  0  0  0  0  0  0  0  0  0  0
    9.3194   -6.1450    0.7748 H   0  0  0  0  0  0  0  0  0  0  0  0
    9.0347   -5.0482   -0.5700 H   0  0  0  0  0  0  0  0  0  0  0  0
    8.2756   -6.6604   -0.4954 H   0  0  0  0  0  0  0  0  0  0  0  0
    8.6158   -4.3388    2.3532 H   0  0  0  0  0  0  0  0  0  0  0  0
    6.9801   -3.5189    2.0709 H   0  0  0  0  0  0  0  0  0  0  0  0
    8.3388   -3.2188    1.0316 H   0  0  0  0  0  0  0  0  0  0  0  0
    6.3332   -3.4551   -3.4787 H   0  0  0  0  0  0  0  0  0  0  0  0
    4.5284   -4.1418   -5.1117 H   0  0  0  0  0  0  0  0  0  0  0  0
    3.4226   -4.2448   -3.7421 H   0  0  0  0  0  0  0  0  0  0  0  0
    4.8099   -5.3665   -3.8636 H   0  0  0  0  0  0  0  0  0  0  0  0
    5.4185   -1.1742   -3.1088 H   0  0  0  0  0  0  0  0  0  0  0  0
    4.8335   -1.7800   -4.6445 H   0  0  0  0  0  0  0  0  0  0  0  0
    2.2077    0.0245   -2.7218 H   0  0  0  0  0  0  0  0  0  0  0  0
    3.8630    0.5136   -3.0003 H   0  0  0  0  0  0  0  0  0  0  0  0
    3.4083   -0.6031   -5.4823 H   0  0  0  0  0  0  0  0  0  0  0  0
    1.7308   -0.3165   -4.9842 H   0  0  0  0  0  0  0  0  0  0  0  0
    2.5872    1.8860   -4.4370 H   0  0  0  0  0  0  0  0  0  0  0  0
    3.7515   -8.8717    2.9684 H   0  0  0  0  0  0  0  0  0  0  0  0
    2.8111   -2.2536   -3.2548 H   0  0  0  0  0  0  0  0  0  0  0  0
  1  2  1  0
  1 33  1  0
  1 34  1  0
  1 35  1  0
  2 28  1  0
  2  3  1  0
  2 36  1  1
  3  4  1  0
  3 37  1  0
  3 38  1  0
  4  5  1  0
  4 25  1  0
  5  6  2  0
  5  7  1  0
  7 22  1  0
  7  8  1  0
  8  9  1  0
  8 39  1  0
  8 40  1  0
  9 13  1  0
  9 10  2  0
 10 11  1  0
 10 22  1  0
 11 32  1  0
 11 12  1  0
 12 13  2  0
 13 14  1  0
 14 15  1  0
 14 60  1  0
 15 16  2  0
 15 17  1  0
 17 21  1  0
 17 18  2  0
 18 19  1  0
 18 41  1  0
 19 20  2  0
 20 21  1  0
 20 42  1  0
 22 23  1  0
 22 24  1  0
 23 43  1  0
 23 44  1  0
 23 45  1  0
 24 46  1  0
 24 47  1  0
 24 48  1  0
 25 26  1  0
 25 27  1  0
 25 49  1  6
 26 50  1  0
 26 51  1  0
 26 52  1  0
 27 28  1  0
 27 53  1  0
 27 54  1  0
 28 29  1  0
 28 61  1  6
 29 30  1  0
 29 55  1  0
 29 56  1  0
 30 31  1  0
 30 57  1  0
 30 58  1  0
 31 59  1  0
M  CHG  1  28   1
M  END
>  <i_m_ct_stereo_status>  (190) 
1

>  <s_m_source_file>  (190) 
/var/tmp/pbs.5102264.sched01/tmp148in4kv/69urs0mf0h.sdf

>  <i_m_source_file_index>  (190) 
1

>  <i_lp_mmshare_version>  (190) 
48012

>  <i_f3d_flags>  (190) 
0

>  <s_epik_input>  (190) 
W09IXVtDSDJdW0NIMl1OMVtDSDJdW0NASF0oW0NIM10pTihbQ0gyXVtDQEhdMVtDSDNdKUMoPU8pTihbQ0gyXTIpQyhbQ0gzXSkoW0NIM10pYyhjMjMpW25IXVtuSF1jXDM9Ti9DKD1PKWM0W2NIXW5bY0hdbzQ=

>  <s_epik_cmdline>  (190) 
J2VwaWtfcHl0aG9uJywgJy1waHQnLCAnMi4wJywgJy1waCcsICc3LjAnLCAnLXRuJywgJzgnLCAnLW1hJywgJzIwMCcsICctaW1hZScsICc8aW5maWxlLm1hZT4nLCAnLW9tYWUnLCAnPG91dGZpbGUubWFlPic=

>  <r_lp_tautomer_probability>  (190) 
0.5

>  <r_epik_Ionization_Penalty>  (190) 
0.814541

>  <r_epik_Ionization_Penalty_Charging>  (190) 
0.814361

>  <r_epik_Ionization_Penalty_Neutral>  (190) 
0.000179953

>  <r_epik_State_Penalty>  (190) 
1.25038

>  <r_epik_Charging_Adjusted_Penalty>  (190) 
2.06474

>  <i_epik_Tot_Q>  (190) 
1

>  <i_epik_Tot_abs_Q>  (190) 
1

>  <s_lp_Force_Field>  (190) 
OPLS3e

>  <r_lp_Energy>  (190) 
51.0215

>  <b_lp_Chiralities_Consistent>  (190) 
1

>  <s_lp_Variant>  (190) 
47:0-4

>  <s_i_glide_gridfile>  (190) 
pfpi4k_grid

>  <i_i_glide_lignum>  (190) 
1

>  <i_i_glide_rotatable_bonds>  (190) 
8

>  <r_i_docking_score>  (190) 
-3.87102

>  <r_i_glide_ligand_efficiency>  (190) 
-0.124872

>  <r_i_glide_ligand_efficiency_sa>  (190) 
-0.392269

>  <r_i_glide_ligand_efficiency_ln>  (190) 
-0.873033

>  <r_i_glide_gscore>  (190) 
-3.87102

>  <r_i_glide_lipo>  (190) 
-0.973113

>  <r_i_glide_hbond>  (190) 
-0.32

>  <r_i_glide_metal>  (190) 
-0

>  <r_i_glide_rewards>  (190) 
-0.710078

>  <r_i_glide_evdw>  (190) 
-26.2433

>  <r_i_glide_ecoul>  (190) 
-8.51892

>  <r_i_glide_erotb>  (190) 
0.744671

>  <r_i_glide_esite>  (190) 
-0.0224951

>  <r_i_glide_emodel>  (190) 
-43.2595

>  <r_i_glide_energy>  (190) 
-34.7622

>  <r_i_glide_einternal>  (190) 
2.95314

>  <r_i_glide_intrahb_reward>  (190) 
-0

>  <i_i_glide_confnum>  (190) 
7

>  <i_i_glide_posenum>  (190) 
19

>  <r_i_glide_eff_state_penalty>  (190) 
0

>  <ligand_id>  (190) 
47

>  <original_smiles>  (190) 
CC1CN(C(=O)N2Cc3c([nH][nH]c3=NC(=O)c3cnco3)C2(C)C)C(C)CN1CCO

>  <smiles>  (190) 
[H]OC([H])([H])C([H])([H])[N+]1([H])C([H])([H])C([H])(C([H])([H])[H])N(C(=O)N2C([H])([H])c3c(N([H])C(=O)c4oc([H])nc4[H])nn([H])c3C2(C([H])([H])[H])C([H])([H])[H])C([H])([H])C1([H])C([H])([H])[H]

$$$$
47:3:2
     RDKit          3D

 61 64  0  0  1  0  0  0  0  0999 V2000
    5.0371  -11.2287    3.1588 C   0  0  0  0  0  0  0  0  0  0  0  0
    3.8274  -10.2889    2.9293 C   0  0  2  0  0  0  0  0  0  0  0  0
    4.2989   -8.8407    2.7810 C   0  0  0  0  0  0  0  0  0  0  0  0
    4.7548   -8.3007    4.0597 N   0  0  0  0  0  0  0  0  0  0  0  0
    6.0740   -8.0819    4.2608 C   0  0  0  0  0  0  0  0  0  0  0  0
    6.6507   -8.5901    5.2110 O   0  0  0  0  0  0  0  0  0  0  0  0
    6.6806   -7.1876    3.4148 N   0  0  0  0  0  0  0  0  0  0  0  0
    6.0289   -6.4639    2.2725 C   0  0  0  0  0  0  0  0  0  0  0  0
    7.1372   -5.6344    1.7484 C   0  0  0  0  0  0  0  0  0  0  0  0
    8.2465   -5.8277    2.4407 C   0  0  0  0  0  0  0  0  0  0  0  0
    9.2571   -5.0657    1.9150 N   0  0  0  0  0  0  0  0  0  0  0  0
    8.8044   -4.3653    0.8389 N   0  0  0  0  0  0  0  0  0  0  0  0
    7.5072   -4.6859    0.7471 C   0  0  0  0  0  0  0  0  0  0  0  0
    6.6180   -4.2075   -0.2406 N   0  0  0  0  0  0  0  0  0  0  0  0
    6.7507   -3.0650   -0.9402 C   0  0  0  0  0  0  0  0  0  0  0  0
    7.6531   -2.2420   -0.7822 O   0  0  0  0  0  0  0  0  0  0  0  0
    5.6787   -2.7929   -1.9036 C   0  0  0  0  0  0  0  0  0  0  0  0
    4.9559   -3.6019   -2.7457 C   0  0  0  0  0  0  0  0  0  0  0  0
    4.0643   -2.8268   -3.4687 N   0  0  0  0  0  0  0  0  0  0  0  0
    4.2542   -1.5945   -3.0107 C   0  0  0  0  0  0  0  0  0  0  0  0
    5.2599   -1.4981   -2.0967 O   0  0  0  0  0  0  0  0  0  0  0  0
    8.1161   -6.7573    3.5760 C   0  0  0  0  0  0  0  0  0  0  0  0
    8.3519   -6.0309    4.9177 C   0  0  0  0  0  0  0  0  0  0  0  0
    9.0831   -7.9398    3.4275 C   0  0  0  0  0  0  0  0  0  0  0  0
    3.8246   -8.4830    5.2048 C   0  0  1  0  0  0  0  0  0  0  0  0
    2.7096   -7.4280    5.1146 C   0  0  0  0  0  0  0  0  0  0  0  0
    3.2630   -9.9244    5.3055 C   0  0  0  0  0  0  0  0  0  0  0  0
    2.7924  -10.4127    3.9905 N   0  0  2  0  0  0  0  0  0  0  0  0
    2.1876  -11.7736    4.0229 C   0  0  0  0  0  0  0  0  0  0  0  0
    0.6661  -11.7036    3.9245 C   0  0  0  0  0  0  0  0  0  0  0  0
    0.3384  -10.8355    2.8621 O   0  0  0  0  0  0  0  0  0  0  0  0
   10.1592   -4.9258    2.3534 H   0  0  0  0  0  0  0  0  0  0  0  0
    5.7800  -11.1041    2.3693 H   0  0  0  0  0  0  0  0  0  0  0  0
    4.7441  -12.2740    3.1496 H   0  0  0  0  0  0  0  0  0  0  0  0
    5.5318  -11.0288    4.1079 H   0  0  0  0  0  0  0  0  0  0  0  0
    3.3507  -10.5164    1.9802 H   0  0  0  0  0  0  0  0  0  0  0  0
    5.0884   -8.8655    2.0293 H   0  0  0  0  0  0  0  0  0  0  0  0
    3.5226   -8.1779    2.3911 H   0  0  0  0  0  0  0  0  0  0  0  0
    5.6996   -7.1285    1.4849 H   0  0  0  0  0  0  0  0  0  0  0  0
    5.1826   -5.8648    2.6124 H   0  0  0  0  0  0  0  0  0  0  0  0
    5.0035   -4.6729   -2.8757 H   0  0  0  0  0  0  0  0  0  0  0  0
    3.7219   -0.7179   -3.3447 H   0  0  0  0  0  0  0  0  0  0  0  0
    9.3466   -5.5892    4.9562 H   0  0  0  0  0  0  0  0  0  0  0  0
    8.2846   -6.7049    5.7734 H   0  0  0  0  0  0  0  0  0  0  0  0
    7.6335   -5.2267    5.0840 H   0  0  0  0  0  0  0  0  0  0  0  0
   10.1126   -7.5834    3.3878 H   0  0  0  0  0  0  0  0  0  0  0  0
    8.8834   -8.4781    2.5009 H   0  0  0  0  0  0  0  0  0  0  0  0
    9.0243   -8.6516    4.2532 H   0  0  0  0  0  0  0  0  0  0  0  0
    4.3614   -8.2884    6.1372 H   0  0  0  0  0  0  0  0  0  0  0  0
    1.9591   -7.5704    5.8994 H   0  0  0  0  0  0  0  0  0  0  0  0
    2.1845   -7.4808    4.1547 H   0  0  0  0  0  0  0  0  0  0  0  0
    3.1164   -6.4190    5.2097 H   0  0  0  0  0  0  0  0  0  0  0  0
    4.0636  -10.5740    5.6635 H   0  0  0  0  0  0  0  0  0  0  0  0
    2.4660   -9.9727    6.0561 H   0  0  0  0  0  0  0  0  0  0  0  0
    2.5251  -12.3447    3.1534 H   0  0  0  0  0  0  0  0  0  0  0  0
    2.5099  -12.3198    4.9151 H   0  0  0  0  0  0  0  0  0  0  0  0
    0.2874  -12.7109    3.7381 H   0  0  0  0  0  0  0  0  0  0  0  0
    0.2184  -11.3685    4.8649 H   0  0  0  0  0  0  0  0  0  0  0  0
    0.5369  -11.2695    2.0328 H   0  0  0  0  0  0  0  0  0  0  0  0
    5.8092   -4.7773   -0.4487 H   0  0  0  0  0  0  0  0  0  0  0  0
    2.0338   -9.7978    3.7116 H   0  0  0  0  0  0  0  0  0  0  0  0
  1  2  1  0
  1 33  1  0
  1 34  1  0
  1 35  1  0
  2 28  1  0
  2  3  1  0
  2 36  1  6
  3  4  1  0
  3 37  1  0
  3 38  1  0
  4  5  1  0
  4 25  1  0
  5  6  2  0
  5  7  1  0
  7 22  1  0
  7  8  1  0
  8  9  1  0
  8 39  1  0
  8 40  1  0
  9 13  1  0
  9 10  2  0
 10 11  1  0
 10 22  1  0
 11 32  1  0
 11 12  1  0
 12 13  2  0
 13 14  1  0
 14 15  1  0
 14 60  1  0
 15 16  2  0
 15 17  1  0
 17 21  1  0
 17 18  2  0
 18 19  1  0
 18 41  1  0
 19 20  2  0
 20 21  1  0
 20 42  1  0
 22 23  1  0
 22 24  1  0
 23 43  1  0
 23 44  1  0
 23 45  1  0
 24 46  1  0
 24 47  1  0
 24 48  1  0
 25 26  1  0
 25 27  1  0
 25 49  1  1
 26 50  1  0
 26 51  1  0
 26 52  1  0
 27 28  1  0
 27 53  1  0
 27 54  1  0
 28 29  1  0
 28 61  1  6
 29 30  1  0
 29 55  1  0
 29 56  1  0
 30 31  1  0
 30 57  1  0
 30 58  1  0
 31 59  1  0
M  CHG  1  28   1
M  END
>  <i_m_ct_stereo_status>  (191) 
1

>  <s_m_source_file>  (191) 
/var/tmp/pbs.5102264.sched01/tmp148in4kv/69urs0mf0h.sdf

>  <i_m_source_file_index>  (191) 
1

>  <i_lp_mmshare_version>  (191) 
48012

>  <i_f3d_flags>  (191) 
0

>  <s_epik_input>  (191) 
W09IXVtDSDJdW0NIMl1OMVtDSDJdW0NASF0oW0NIM10pTihbQ0gyXVtDQEhdMVtDSDNdKUMoPU8pTihbQ0gyXTIpQyhbQ0gzXSkoW0NIM10pYyhjMjMpW25IXVtuSF1jXDM9Ti9DKD1PKWM0W2NIXW5bY0hdbzQ=

>  <s_epik_cmdline>  (191) 
J2VwaWtfcHl0aG9uJywgJy1waHQnLCAnMi4wJywgJy1waCcsICc3LjAnLCAnLXRuJywgJzgnLCAnLW1hJywgJzIwMCcsICctaW1hZScsICc8aW5maWxlLm1hZT4nLCAnLW9tYWUnLCAnPG91dGZpbGUubWFlPic=

>  <r_lp_tautomer_probability>  (191) 
0.5

>  <r_epik_Ionization_Penalty>  (191) 
0.814541

>  <r_epik_Ionization_Penalty_Charging>  (191) 
0.814361

>  <r_epik_Ionization_Penalty_Neutral>  (191) 
0.000179953

>  <r_epik_State_Penalty>  (191) 
1.25038

>  <r_epik_Charging_Adjusted_Penalty>  (191) 
2.06474

>  <i_epik_Tot_Q>  (191) 
1

>  <i_epik_Tot_abs_Q>  (191) 
1

>  <s_lp_Force_Field>  (191) 
OPLS3e

>  <r_lp_Energy>  (191) 
51.0215

>  <b_lp_Chiralities_Consistent>  (191) 
1

>  <s_lp_Variant>  (191) 
47:0-4

>  <s_i_glide_gridfile>  (191) 
pfpi4k_grid

>  <i_i_glide_lignum>  (191) 
1

>  <i_i_glide_rotatable_bonds>  (191) 
8

>  <r_i_docking_score>  (191) 
-3.60285

>  <r_i_glide_ligand_efficiency>  (191) 
-0.116221

>  <r_i_glide_ligand_efficiency_sa>  (191) 
-0.365094

>  <r_i_glide_ligand_efficiency_ln>  (191) 
-0.812553

>  <r_i_glide_gscore>  (191) 
-3.60285

>  <r_i_glide_lipo>  (191) 
-0.41223

>  <r_i_glide_hbond>  (191) 
-0.297391

>  <r_i_glide_metal>  (191) 
-0

>  <r_i_glide_rewards>  (191) 
-0.534885

>  <r_i_glide_evdw>  (191) 
-29.2797

>  <r_i_glide_ecoul>  (191) 
-10.538

>  <r_i_glide_erotb>  (191) 
0.744671

>  <r_i_glide_esite>  (191) 
-0.0583288

>  <r_i_glide_emodel>  (191) 
-46.0352

>  <r_i_glide_energy>  (191) 
-39.8177

>  <r_i_glide_einternal>  (191) 
7.79797

>  <r_i_glide_intrahb_reward>  (191) 
-0

>  <i_i_glide_confnum>  (191) 
4

>  <i_i_glide_posenum>  (191) 
12

>  <r_i_glide_eff_state_penalty>  (191) 
0

>  <ligand_id>  (191) 
47

>  <original_smiles>  (191) 
CC1CN(C(=O)N2Cc3c([nH][nH]c3=NC(=O)c3cnco3)C2(C)C)C(C)CN1CCO

>  <smiles>  (191) 
[H]OC([H])([H])C([H])([H])[N+]1([H])C([H])([H])C([H])(C([H])([H])[H])N(C(=O)N2C([H])([H])c3c(N([H])C(=O)c4oc([H])nc4[H])nn([H])c3C2(C([H])([H])[H])C([H])([H])[H])C([H])([H])C1([H])C([H])([H])[H]

$$$$
48:0:0
     RDKit          3D

 34 36  0  0  1  0  0  0  0  0999 V2000
    6.2907   -2.4354   -1.5294 C   0  0  0  0  0  0  0  0  0  0  0  0
    4.7784   -2.6021   -1.7325 C   0  0  0  0  0  0  0  0  0  0  0  0
    4.4915   -2.7421   -3.2392 C   0  0  0  0  0  0  0  0  0  0  0  0
    4.3531   -3.8757   -1.0204 C   0  0  0  0  0  0  0  0  0  0  0  0
    3.6267   -3.9446    0.1148 C   0  0  0  0  0  0  0  0  0  0  0  0
    3.3180   -5.2438    0.6987 C   0  0  0  0  0  0  0  0  0  0  0  0
    4.1098   -6.3627    0.5953 N   0  0  0  0  0  0  0  0  0  0  0  0
    3.4915   -7.3773    1.2668 C   0  0  0  0  0  0  0  0  0  0  0  0
    3.7742   -8.7334    1.4832 C   0  0  0  0  0  0  0  0  0  0  0  0
    2.8293   -9.4717    2.2172 C   0  0  0  0  0  0  0  0  0  0  0  0
    3.0280  -10.7960    2.4817 O   0  0  0  0  0  0  0  0  0  0  0  0
    1.6595   -8.8127    2.6746 C   0  0  0  0  0  0  0  0  0  0  0  0
    1.3720   -7.5069    2.4463 N   0  0  0  0  0  0  0  0  0  0  0  0
    2.2849   -6.8195    1.7570 C   0  0  0  0  0  0  0  0  0  0  0  0
    2.1905   -5.4866    1.3853 N   0  0  0  0  0  0  0  0  0  0  0  0
    3.1656   -2.6968    0.8658 C   0  0  0  0  0  0  0  0  0  0  0  0
    3.8165   -1.4236    0.3263 C   0  0  0  0  0  0  0  0  0  0  0  0
    4.1434   -0.4919    1.0590 O   0  0  0  0  0  0  0  0  0  0  0  0
    4.0134   -1.3707   -1.1851 C   0  0  0  0  0  0  0  0  0  0  0  0
    6.6171   -1.5409   -2.0468 H   0  0  0  0  0  0  0  0  0  0  0  0
    6.8499   -3.2798   -1.9400 H   0  0  0  0  0  0  0  0  0  0  0  0
    6.5601   -2.3295   -0.4768 H   0  0  0  0  0  0  0  0  0  0  0  0
    4.8303   -1.8633   -3.7864 H   0  0  0  0  0  0  0  0  0  0  0  0
    3.4251   -2.8599   -3.4363 H   0  0  0  0  0  0  0  0  0  0  0  0
    4.9965   -3.6100   -3.6654 H   0  0  0  0  0  0  0  0  0  0  0  0
    4.6624   -4.7886   -1.5068 H   0  0  0  0  0  0  0  0  0  0  0  0
    4.6683   -9.1957    1.0894 H   0  0  0  0  0  0  0  0  0  0  0  0
    3.5378  -11.2679    1.8213 H   0  0  0  0  0  0  0  0  0  0  0  0
    0.9164   -9.3589    3.2400 H   0  0  0  0  0  0  0  0  0  0  0  0
    2.0797   -2.6202    0.8172 H   0  0  0  0  0  0  0  0  0  0  0  0
    3.4477   -2.8037    1.9126 H   0  0  0  0  0  0  0  0  0  0  0  0
    4.5253   -0.4479   -1.4473 H   0  0  0  0  0  0  0  0  0  0  0  0
    3.0182   -1.3163   -1.6266 H   0  0  0  0  0  0  0  0  0  0  0  0
    4.9904   -6.4284    0.1021 H   0  0  0  0  0  0  0  0  0  0  0  0
  1  2  1  0
  1 20  1  0
  1 21  1  0
  1 22  1  0
  2 19  1  0
  2  3  1  0
  2  4  1  0
  3 23  1  0
  3 24  1  0
  3 25  1  0
  4  5  2  0
  4 26  1  0
  5  6  1  0
  5 16  1  0
  6 15  2  0
  6  7  1  0
  7  8  1  0
  7 34  1  0
  8 14  2  0
  8  9  1  0
  9 10  2  0
  9 27  1  0
 10 11  1  0
 10 12  1  0
 11 28  1  0
 12 13  2  0
 12 29  1  0
 13 14  1  0
 14 15  1  0
 16 17  1  0
 16 30  1  0
 16 31  1  0
 17 18  2  0
 17 19  1  0
 19 32  1  0
 19 33  1  0
M  END
>  <i_m_ct_stereo_status>  (192) 
1

>  <s_m_source_file>  (192) 
/var/tmp/pbs.5102264.sched01/tmp148in4kv/69urs0mf0h.sdf

>  <i_m_source_file_index>  (192) 
2

>  <i_lp_mmshare_version>  (192) 
48012

>  <i_f3d_flags>  (192) 
0

>  <s_epik_input>  (192) 
W0NIM11DMShbQ0gzXSlbQ0hdPUMoW0NIMl1DKD1PKVtDSDJdMSljKG4yKVtuSF1jKGMyMyluW2NIXWMoW2NIXTMpW09IXQ==

>  <s_epik_cmdline>  (192) 
J2VwaWtfcHl0aG9uJywgJy1waHQnLCAnMi4wJywgJy1waCcsICc3LjAnLCAnLXRuJywgJzgnLCAnLW1hJywgJzIwMCcsICctaW1hZScsICc8aW5maWxlLm1hZT4nLCAnLW9tYWUnLCAnPG91dGZpbGUubWFlPic=

>  <r_lp_tautomer_probability>  (192) 
0.99995

>  <r_epik_Ionization_Penalty>  (192) 
0.0657844

>  <r_epik_Ionization_Penalty_Charging>  (192) 
0

>  <r_epik_Ionization_Penalty_Neutral>  (192) 
0.0657844

>  <r_epik_State_Penalty>  (192) 
0.441846

>  <r_epik_Charging_Adjusted_Penalty>  (192) 
0.441846

>  <i_epik_Tot_Q>  (192) 
0

>  <i_epik_Tot_abs_Q>  (192) 
0

>  <s_lp_Force_Field>  (192) 
OPLS3e

>  <r_lp_Energy>  (192) 
14.2

>  <b_lp_Chiralities_Consistent>  (192) 
1

>  <s_lp_Variant>  (192) 
48:0-1

>  <s_i_glide_gridfile>  (192) 
pfpi4k_grid

>  <i_i_glide_lignum>  (192) 
2

>  <i_i_glide_rotatable_bonds>  (192) 
2

>  <r_i_docking_score>  (192) 
-3.72211

>  <r_i_glide_ligand_efficiency>  (192) 
-0.195901

>  <r_i_glide_ligand_efficiency_sa>  (192) 
-0.522742

>  <r_i_glide_ligand_efficiency_ln>  (192) 
-0.943636

>  <r_i_glide_gscore>  (192) 
-3.72211

>  <r_i_glide_lipo>  (192) 
-0.204315

>  <r_i_glide_hbond>  (192) 
-0.16

>  <r_i_glide_metal>  (192) 
-0

>  <r_i_glide_rewards>  (192) 
-1.65486

>  <r_i_glide_evdw>  (192) 
-25.578

>  <r_i_glide_ecoul>  (192) 
-4.12441

>  <r_i_glide_erotb>  (192) 
0.266519

>  <r_i_glide_esite>  (192) 
-0.0718999

>  <r_i_glide_emodel>  (192) 
-36.3734

>  <r_i_glide_energy>  (192) 
-29.7024

>  <r_i_glide_einternal>  (192) 
1.69951

>  <r_i_glide_intrahb_reward>  (192) 
-0

>  <i_i_glide_confnum>  (192) 
3

>  <i_i_glide_posenum>  (192) 
1

>  <r_i_glide_eff_state_penalty>  (192) 
0

>  <ligand_id>  (192) 
48

>  <original_smiles>  (192) 
CC1(C)C=C(c2nc3cc(O)cnc3[nH]2)CC(=O)C1

>  <smiles>  (192) 
[H]Oc1c([H])nc2nc(C3=C([H])C(C([H])([H])[H])(C([H])([H])[H])C([H])([H])C(=O)C3([H])[H])n([H])c2c1[H]

$$$$
48:0:1
     RDKit          3D

 34 36  0  0  1  0  0  0  0  0999 V2000
    6.8747   -1.6542    0.4932 C   0  0  0  0  0  0  0  0  0  0  0  0
    6.1961   -2.4219   -0.6498 C   0  0  0  0  0  0  0  0  0  0  0  0
    7.2962   -3.0358   -1.5329 C   0  0  0  0  0  0  0  0  0  0  0  0
    5.3736   -3.5583   -0.0594 C   0  0  0  0  0  0  0  0  0  0  0  0
    4.1058   -3.8710   -0.4024 C   0  0  0  0  0  0  0  0  0  0  0  0
    3.4571   -5.0060    0.2392 C   0  0  0  0  0  0  0  0  0  0  0  0
    4.0998   -6.1091    0.7454 N   0  0  0  0  0  0  0  0  0  0  0  0
    3.1592   -6.9340    1.2844 C   0  0  0  0  0  0  0  0  0  0  0  0
    3.1823   -8.1835    1.9183 C   0  0  0  0  0  0  0  0  0  0  0  0
    1.9442   -8.7103    2.3314 C   0  0  0  0  0  0  0  0  0  0  0  0
    1.8715   -9.9262    2.9438 O   0  0  0  0  0  0  0  0  0  0  0  0
    0.7673   -7.9578    2.0860 C   0  0  0  0  0  0  0  0  0  0  0  0
    0.7391   -6.7457    1.4755 N   0  0  0  0  0  0  0  0  0  0  0  0
    1.9255   -6.2691    1.0851 C   0  0  0  0  0  0  0  0  0  0  0  0
    2.1343   -5.0702    0.4310 N   0  0  0  0  0  0  0  0  0  0  0  0
    3.3331   -3.1135   -1.4852 C   0  0  0  0  0  0  0  0  0  0  0  0
    4.2331   -2.1672   -2.2774 C   0  0  0  0  0  0  0  0  0  0  0  0
    4.1023   -1.9766   -3.4866 O   0  0  0  0  0  0  0  0  0  0  0  0
    5.3043   -1.4506   -1.4646 C   0  0  0  0  0  0  0  0  0  0  0  0
    7.5095   -0.8540    0.1183 H   0  0  0  0  0  0  0  0  0  0  0  0
    7.5066   -2.3146    1.0844 H   0  0  0  0  0  0  0  0  0  0  0  0
    6.1484   -1.2050    1.1686 H   0  0  0  0  0  0  0  0  0  0  0  0
    7.9631   -2.2751   -1.9388 H   0  0  0  0  0  0  0  0  0  0  0  0
    6.8736   -3.5720   -2.3827 H   0  0  0  0  0  0  0  0  0  0  0  0
    7.9145   -3.7422   -0.9741 H   0  0  0  0  0  0  0  0  0  0  0  0
    5.8731   -4.1347    0.7053 H   0  0  0  0  0  0  0  0  0  0  0  0
    4.1112   -8.7135    2.0732 H   0  0  0  0  0  0  0  0  0  0  0  0
    2.6819  -10.4134    2.9594 H   0  0  0  0  0  0  0  0  0  0  0  0
   -0.1924   -8.3552    2.3890 H   0  0  0  0  0  0  0  0  0  0  0  0
    2.9141   -3.8407   -2.1823 H   0  0  0  0  0  0  0  0  0  0  0  0
    2.5039   -2.5662   -1.0345 H   0  0  0  0  0  0  0  0  0  0  0  0
    4.7926   -0.7561   -0.7962 H   0  0  0  0  0  0  0  0  0  0  0  0
    5.9010   -0.8503   -2.1441 H   0  0  0  0  0  0  0  0  0  0  0  0
    5.0956   -6.2860    0.7120 H   0  0  0  0  0  0  0  0  0  0  0  0
  1  2  1  0
  1 20  1  0
  1 21  1  0
  1 22  1  0
  2 19  1  0
  2  3  1  0
  2  4  1  0
  3 23  1  0
  3 24  1  0
  3 25  1  0
  4  5  2  0
  4 26  1  0
  5  6  1  0
  5 16  1  0
  6 15  2  0
  6  7  1  0
  7  8  1  0
  7 34  1  0
  8 14  2  0
  8  9  1  0
  9 10  2  0
  9 27  1  0
 10 11  1  0
 10 12  1  0
 11 28  1  0
 12 13  2  0
 12 29  1  0
 13 14  1  0
 14 15  1  0
 16 17  1  0
 16 30  1  0
 16 31  1  0
 17 18  2  0
 17 19  1  0
 19 32  1  0
 19 33  1  0
M  END
>  <i_m_ct_stereo_status>  (193) 
1

>  <s_m_source_file>  (193) 
/var/tmp/pbs.5102264.sched01/tmp148in4kv/69urs0mf0h.sdf

>  <i_m_source_file_index>  (193) 
2

>  <i_lp_mmshare_version>  (193) 
48012

>  <i_f3d_flags>  (193) 
0

>  <s_epik_input>  (193) 
W0NIM11DMShbQ0gzXSlbQ0hdPUMoW0NIMl1DKD1PKVtDSDJdMSljKG4yKVtuSF1jKGMyMyluW2NIXWMoW2NIXTMpW09IXQ==

>  <s_epik_cmdline>  (193) 
J2VwaWtfcHl0aG9uJywgJy1waHQnLCAnMi4wJywgJy1waCcsICc3LjAnLCAnLXRuJywgJzgnLCAnLW1hJywgJzIwMCcsICctaW1hZScsICc8aW5maWxlLm1hZT4nLCAnLW9tYWUnLCAnPG91dGZpbGUubWFlPic=

>  <r_lp_tautomer_probability>  (193) 
0.99995

>  <r_epik_Ionization_Penalty>  (193) 
0.0657844

>  <r_epik_Ionization_Penalty_Charging>  (193) 
0

>  <r_epik_Ionization_Penalty_Neutral>  (193) 
0.0657844

>  <r_epik_State_Penalty>  (193) 
0.441846

>  <r_epik_Charging_Adjusted_Penalty>  (193) 
0.441846

>  <i_epik_Tot_Q>  (193) 
0

>  <i_epik_Tot_abs_Q>  (193) 
0

>  <s_lp_Force_Field>  (193) 
OPLS3e

>  <r_lp_Energy>  (193) 
14.2

>  <b_lp_Chiralities_Consistent>  (193) 
1

>  <s_lp_Variant>  (193) 
48:0-1

>  <s_i_glide_gridfile>  (193) 
pfpi4k_grid

>  <i_i_glide_lignum>  (193) 
2

>  <i_i_glide_rotatable_bonds>  (193) 
2

>  <r_i_docking_score>  (193) 
-3.55867

>  <r_i_glide_ligand_efficiency>  (193) 
-0.187298

>  <r_i_glide_ligand_efficiency_sa>  (193) 
-0.499787

>  <r_i_glide_ligand_efficiency_ln>  (193) 
-0.902198

>  <r_i_glide_gscore>  (193) 
-3.55867

>  <r_i_glide_lipo>  (193) 
-0.128194

>  <r_i_glide_hbond>  (193) 
-0.0570214

>  <r_i_glide_metal>  (193) 
-0

>  <r_i_glide_rewards>  (193) 
-1.67744

>  <r_i_glide_evdw>  (193) 
-27.1436

>  <r_i_glide_ecoul>  (193) 
-3.64975

>  <r_i_glide_erotb>  (193) 
0.266519

>  <r_i_glide_esite>  (193) 
-0.0578868

>  <r_i_glide_emodel>  (193) 
-37.8033

>  <r_i_glide_energy>  (193) 
-30.7933

>  <r_i_glide_einternal>  (193) 
0.966459

>  <r_i_glide_intrahb_reward>  (193) 
-0

>  <i_i_glide_confnum>  (193) 
6

>  <i_i_glide_posenum>  (193) 
10

>  <r_i_glide_eff_state_penalty>  (193) 
0

>  <ligand_id>  (193) 
48

>  <original_smiles>  (193) 
CC1(C)C=C(c2nc3cc(O)cnc3[nH]2)CC(=O)C1

>  <smiles>  (193) 
[H]Oc1c([H])nc2nc(C3=C([H])C(C([H])([H])[H])(C([H])([H])[H])C([H])([H])C(=O)C3([H])[H])n([H])c2c1[H]

$$$$
48:0:2
     RDKit          3D

 34 36  0  0  1  0  0  0  0  0999 V2000
    4.1128   -1.8771   -1.3726 C   0  0  0  0  0  0  0  0  0  0  0  0
    4.2922   -2.0343    0.1499 C   0  0  0  0  0  0  0  0  0  0  0  0
    3.7272   -0.7796    0.8432 C   0  0  0  0  0  0  0  0  0  0  0  0
    3.4953   -3.2565    0.5964 C   0  0  0  0  0  0  0  0  0  0  0  0
    4.0183   -4.4495    0.9704 C   0  0  0  0  0  0  0  0  0  0  0  0
    3.1389   -5.5461    1.3800 C   0  0  0  0  0  0  0  0  0  0  0  0
    3.5795   -6.7911    1.7632 N   0  0  0  0  0  0  0  0  0  0  0  0
    2.4965   -7.5565    2.0707 C   0  0  0  0  0  0  0  0  0  0  0  0
    2.3041   -8.8750    2.5108 C   0  0  0  0  0  0  0  0  0  0  0  0
    0.9755   -9.2818    2.7353 C   0  0  0  0  0  0  0  0  0  0  0  0
    0.7073  -10.5424    3.1853 O   0  0  0  0  0  0  0  0  0  0  0  0
   -0.0715   -8.3575    2.4874 C   0  0  0  0  0  0  0  0  0  0  0  0
    0.1089   -7.0812    2.0632 N   0  0  0  0  0  0  0  0  0  0  0  0
    1.3798   -6.7131    1.8631 C   0  0  0  0  0  0  0  0  0  0  0  0
    1.8012   -5.4670    1.4262 N   0  0  0  0  0  0  0  0  0  0  0  0
    5.5233   -4.7007    1.0087 C   0  0  0  0  0  0  0  0  0  0  0  0
    6.3124   -3.5942    0.3173 C   0  0  0  0  0  0  0  0  0  0  0  0
    7.3392   -3.8247   -0.3195 O   0  0  0  0  0  0  0  0  0  0  0  0
    5.7906   -2.1769    0.5149 C   0  0  0  0  0  0  0  0  0  0  0  0
    4.6351   -0.9957   -1.7452 H   0  0  0  0  0  0  0  0  0  0  0  0
    3.0596   -1.7622   -1.6375 H   0  0  0  0  0  0  0  0  0  0  0  0
    4.4874   -2.7445   -1.9171 H   0  0  0  0  0  0  0  0  0  0  0  0
    4.2337    0.1244    0.5046 H   0  0  0  0  0  0  0  0  0  0  0  0
    3.8312   -0.8299    1.9273 H   0  0  0  0  0  0  0  0  0  0  0  0
    2.6652   -0.6479    0.6297 H   0  0  0  0  0  0  0  0  0  0  0  0
    2.4233   -3.1141    0.5927 H   0  0  0  0  0  0  0  0  0  0  0  0
    3.1406   -9.5410    2.6732 H   0  0  0  0  0  0  0  0  0  0  0  0
   -0.1929  -10.6802    3.4380 H   0  0  0  0  0  0  0  0  0  0  0  0
   -1.1003   -8.6549    2.6363 H   0  0  0  0  0  0  0  0  0  0  0  0
    5.8496   -4.8098    2.0432 H   0  0  0  0  0  0  0  0  0  0  0  0
    5.7338   -5.6317    0.4861 H   0  0  0  0  0  0  0  0  0  0  0  0
    6.3922   -1.4867   -0.0714 H   0  0  0  0  0  0  0  0  0  0  0  0
    5.9475   -1.9275    1.5640 H   0  0  0  0  0  0  0  0  0  0  0  0
    4.5471   -7.0867    1.8097 H   0  0  0  0  0  0  0  0  0  0  0  0
  1  2  1  0
  1 20  1  0
  1 21  1  0
  1 22  1  0
  2 19  1  0
  2  3  1  0
  2  4  1  0
  3 23  1  0
  3 24  1  0
  3 25  1  0
  4  5  2  0
  4 26  1  0
  5  6  1  0
  5 16  1  0
  6 15  2  0
  6  7  1  0
  7  8  1  0
  7 34  1  0
  8 14  2  0
  8  9  1  0
  9 10  2  0
  9 27  1  0
 10 11  1  0
 10 12  1  0
 11 28  1  0
 12 13  2  0
 12 29  1  0
 13 14  1  0
 14 15  1  0
 16 17  1  0
 16 30  1  0
 16 31  1  0
 17 18  2  0
 17 19  1  0
 19 32  1  0
 19 33  1  0
M  END
>  <i_m_ct_stereo_status>  (194) 
1

>  <s_m_source_file>  (194) 
/var/tmp/pbs.5102264.sched01/tmp148in4kv/69urs0mf0h.sdf

>  <i_m_source_file_index>  (194) 
2

>  <i_lp_mmshare_version>  (194) 
48012

>  <i_f3d_flags>  (194) 
0

>  <s_epik_input>  (194) 
W0NIM11DMShbQ0gzXSlbQ0hdPUMoW0NIMl1DKD1PKVtDSDJdMSljKG4yKVtuSF1jKGMyMyluW2NIXWMoW2NIXTMpW09IXQ==

>  <s_epik_cmdline>  (194) 
J2VwaWtfcHl0aG9uJywgJy1waHQnLCAnMi4wJywgJy1waCcsICc3LjAnLCAnLXRuJywgJzgnLCAnLW1hJywgJzIwMCcsICctaW1hZScsICc8aW5maWxlLm1hZT4nLCAnLW9tYWUnLCAnPG91dGZpbGUubWFlPic=

>  <r_lp_tautomer_probability>  (194) 
0.99995

>  <r_epik_Ionization_Penalty>  (194) 
0.0657844

>  <r_epik_Ionization_Penalty_Charging>  (194) 
0

>  <r_epik_Ionization_Penalty_Neutral>  (194) 
0.0657844

>  <r_epik_State_Penalty>  (194) 
0.441846

>  <r_epik_Charging_Adjusted_Penalty>  (194) 
0.441846

>  <i_epik_Tot_Q>  (194) 
0

>  <i_epik_Tot_abs_Q>  (194) 
0

>  <s_lp_Force_Field>  (194) 
OPLS3e

>  <r_lp_Energy>  (194) 
14.2

>  <b_lp_Chiralities_Consistent>  (194) 
1

>  <s_lp_Variant>  (194) 
48:0-1

>  <s_i_glide_gridfile>  (194) 
pfpi4k_grid

>  <i_i_glide_lignum>  (194) 
2

>  <i_i_glide_rotatable_bonds>  (194) 
2

>  <r_i_docking_score>  (194) 
-3.47929

>  <r_i_glide_ligand_efficiency>  (194) 
-0.183121

>  <r_i_glide_ligand_efficiency_sa>  (194) 
-0.48864

>  <r_i_glide_ligand_efficiency_ln>  (194) 
-0.882076

>  <r_i_glide_gscore>  (194) 
-3.47929

>  <r_i_glide_lipo>  (194) 
-0.161935

>  <r_i_glide_hbond>  (194) 
-0.0674169

>  <r_i_glide_metal>  (194) 
-0

>  <r_i_glide_rewards>  (194) 
-1.79444

>  <r_i_glide_evdw>  (194) 
-24.5232

>  <r_i_glide_ecoul>  (194) 
-2.9974

>  <r_i_glide_erotb>  (194) 
0.266519

>  <r_i_glide_esite>  (194) 
-0.0462531

>  <r_i_glide_emodel>  (194) 
-34.7738

>  <r_i_glide_energy>  (194) 
-27.5206

>  <r_i_glide_einternal>  (194) 
0.168216

>  <r_i_glide_intrahb_reward>  (194) 
-0

>  <i_i_glide_confnum>  (194) 
4

>  <i_i_glide_posenum>  (194) 
23

>  <r_i_glide_eff_state_penalty>  (194) 
0

>  <ligand_id>  (194) 
48

>  <original_smiles>  (194) 
CC1(C)C=C(c2nc3cc(O)cnc3[nH]2)CC(=O)C1

>  <smiles>  (194) 
[H]Oc1c([H])nc2nc(C3=C([H])C(C([H])([H])[H])(C([H])([H])[H])C([H])([H])C(=O)C3([H])[H])n([H])c2c1[H]

$$$$
48:1:0
     RDKit          3D

 34 36  0  0  1  0  0  0  0  0999 V2000
    0.5213   -1.3633    5.0995 C   0  0  0  0  0  0  0  0  0  0  0  0
    2.0500   -1.3670    4.9092 C   0  0  0  0  0  0  0  0  0  0  0  0
    2.6430   -2.4934    5.7783 C   0  0  0  0  0  0  0  0  0  0  0  0
    2.3719   -1.6623    3.4461 C   0  0  0  0  0  0  0  0  0  0  0  0
    3.2704   -1.0022    2.6784 C   0  0  0  0  0  0  0  0  0  0  0  0
    3.4949   -1.4084    1.2919 C   0  0  0  0  0  0  0  0  0  0  0  0
    3.0030   -2.5469    0.7935 N   0  0  0  0  0  0  0  0  0  0  0  0
    3.4234   -2.4867   -0.5254 C   0  0  0  0  0  0  0  0  0  0  0  0
    3.2321   -3.3541   -1.6151 C   0  0  0  0  0  0  0  0  0  0  0  0
    3.8206   -3.0208   -2.8562 C   0  0  0  0  0  0  0  0  0  0  0  0
    3.6872   -3.8535   -3.9206 O   0  0  0  0  0  0  0  0  0  0  0  0
    4.5688   -1.8285   -2.9706 C   0  0  0  0  0  0  0  0  0  0  0  0
    4.8000   -0.9677   -1.9523 N   0  0  0  0  0  0  0  0  0  0  0  0
    4.2040   -1.3255   -0.7773 C   0  0  0  0  0  0  0  0  0  0  0  0
    4.2187   -0.6626    0.4314 N   0  0  0  0  0  0  0  0  0  0  0  0
    4.1015    0.1507    3.2286 C   0  0  0  0  0  0  0  0  0  0  0  0
    3.9977    0.2839    4.7445 C   0  0  0  0  0  0  0  0  0  0  0  0
    4.9525    0.6391    5.4326 O   0  0  0  0  0  0  0  0  0  0  0  0
    2.6222    0.0061    5.3420 C   0  0  0  0  0  0  0  0  0  0  0  0
    4.6468    0.2259    0.6325 H   0  0  0  0  0  0  0  0  0  0  0  0
    0.2635   -1.1845    6.1424 H   0  0  0  0  0  0  0  0  0  0  0  0
    0.0852   -2.3223    4.8168 H   0  0  0  0  0  0  0  0  0  0  0  0
    0.0420   -0.5905    4.4985 H   0  0  0  0  0  0  0  0  0  0  0  0
    2.3878   -2.3513    6.8287 H   0  0  0  0  0  0  0  0  0  0  0  0
    3.7305   -2.5344    5.7025 H   0  0  0  0  0  0  0  0  0  0  0  0
    2.2567   -3.4689    5.4767 H   0  0  0  0  0  0  0  0  0  0  0  0
    1.8097   -2.4798    3.0229 H   0  0  0  0  0  0  0  0  0  0  0  0
    2.6517   -4.2539   -1.4850 H   0  0  0  0  0  0  0  0  0  0  0  0
    3.3103   -4.6891   -3.6494 H   0  0  0  0  0  0  0  0  0  0  0  0
    5.0065   -1.5697   -3.9247 H   0  0  0  0  0  0  0  0  0  0  0  0
    5.1483   -0.0216    2.9864 H   0  0  0  0  0  0  0  0  0  0  0  0
    3.7952    1.0820    2.7494 H   0  0  0  0  0  0  0  0  0  0  0  0
    1.9615    0.8097    5.0163 H   0  0  0  0  0  0  0  0  0  0  0  0
    2.6815    0.0701    6.4246 H   0  0  0  0  0  0  0  0  0  0  0  0
  1  2  1  0
  1 21  1  0
  1 22  1  0
  1 23  1  0
  2 19  1  0
  2  3  1  0
  2  4  1  0
  3 24  1  0
  3 25  1  0
  3 26  1  0
  4  5  2  0
  4 27  1  0
  5  6  1  0
  5 16  1  0
  6 15  1  0
  6  7  2  0
  7  8  1  0
  8 14  2  0
  8  9  1  0
  9 10  2  0
  9 28  1  0
 10 11  1  0
 10 12  1  0
 11 29  1  0
 12 13  2  0
 12 30  1  0
 13 14  1  0
 14 15  1  0
 15 20  1  0
 16 17  1  0
 16 31  1  0
 16 32  1  0
 17 18  2  0
 17 19  1  0
 19 33  1  0
 19 34  1  0
M  END
>  <i_m_ct_stereo_status>  (195) 
1

>  <s_m_source_file>  (195) 
/var/tmp/pbs.5102264.sched01/tmp148in4kv/69urs0mf0h.sdf

>  <i_m_source_file_index>  (195) 
3

>  <i_lp_mmshare_version>  (195) 
48012

>  <i_f3d_flags>  (195) 
0

>  <s_epik_input>  (195) 
W0NIM11DMShbQ0gzXSlbQ0hdPUMoW0NIMl1DKD1PKVtDSDJdMSljKG4yKVtuSF1jKGMyMyluW2NIXWMoW2NIXTMpW09IXQ==

>  <s_epik_cmdline>  (195) 
J2VwaWtfcHl0aG9uJywgJy1waHQnLCAnMi4wJywgJy1waCcsICc3LjAnLCAnLXRuJywgJzgnLCAnLW1hJywgJzIwMCcsICctaW1hZScsICc8aW5maWxlLm1hZT4nLCAnLW9tYWUnLCAnPG91dGZpbGUubWFlPic=

>  <r_epik_Ionization_Penalty>  (195) 
0.0626563

>  <r_epik_Ionization_Penalty_Charging>  (195) 
0.0215223

>  <r_epik_Ionization_Penalty_Neutral>  (195) 
0.0411341

>  <r_epik_State_Penalty>  (195) 
0.490988

>  <r_epik_Charging_Adjusted_Penalty>  (195) 
0.512511

>  <i_epik_Tot_Q>  (195) 
0

>  <i_epik_Tot_abs_Q>  (195) 
0

>  <s_lp_Force_Field>  (195) 
OPLS3e

>  <r_lp_Energy>  (195) 
13.6082

>  <b_lp_Chiralities_Consistent>  (195) 
1

>  <s_lp_Variant>  (195) 
48:0-2

>  <s_i_glide_gridfile>  (195) 
pfpi4k_grid

>  <i_i_glide_lignum>  (195) 
3

>  <i_i_glide_rotatable_bonds>  (195) 
2

>  <r_i_docking_score>  (195) 
-3.94056

>  <r_i_glide_ligand_efficiency>  (195) 
-0.207398

>  <r_i_glide_ligand_efficiency_sa>  (195) 
-0.553421

>  <r_i_glide_ligand_efficiency_ln>  (195) 
-0.999016

>  <r_i_glide_gscore>  (195) 
-3.94056

>  <r_i_glide_lipo>  (195) 
-0.139803

>  <r_i_glide_hbond>  (195) 
-0.32

>  <r_i_glide_metal>  (195) 
-0

>  <r_i_glide_rewards>  (195) 
-1.65926

>  <r_i_glide_evdw>  (195) 
-20.6559

>  <r_i_glide_ecoul>  (195) 
-6.55088

>  <r_i_glide_erotb>  (195) 
0.266519

>  <r_i_glide_esite>  (195) 
-0.072583

>  <r_i_glide_emodel>  (195) 
-34.3391

>  <r_i_glide_energy>  (195) 
-27.2068

>  <r_i_glide_einternal>  (195) 
0.326362

>  <r_i_glide_intrahb_reward>  (195) 
-0

>  <i_i_glide_confnum>  (195) 
6

>  <i_i_glide_posenum>  (195) 
3

>  <r_i_glide_eff_state_penalty>  (195) 
0

>  <ligand_id>  (195) 
48

>  <original_smiles>  (195) 
CC1(C)C=C(c2nc3cc(O)cnc3[nH]2)CC(=O)C1

>  <smiles>  (195) 
[H]Oc1c([H])nc2c(nc(C3=C([H])C(C([H])([H])[H])(C([H])([H])[H])C([H])([H])C(=O)C3([H])[H])n2[H])c1[H]

$$$$
48:1:1
     RDKit          3D

 34 36  0  0  1  0  0  0  0  0999 V2000
    2.4004   -2.4003    5.8331 C   0  0  0  0  0  0  0  0  0  0  0  0
    3.7831   -2.0390    5.2616 C   0  0  0  0  0  0  0  0  0  0  0  0
    4.8097   -3.0513    5.8008 C   0  0  0  0  0  0  0  0  0  0  0  0
    3.7439   -2.1629    3.7410 C   0  0  0  0  0  0  0  0  0  0  0  0
    4.2510   -1.2725    2.8571 C   0  0  0  0  0  0  0  0  0  0  0  0
    4.1413   -1.5170    1.4148 C   0  0  0  0  0  0  0  0  0  0  0  0
    3.5779   -2.6215    0.9163 N   0  0  0  0  0  0  0  0  0  0  0  0
    3.6900   -2.4197   -0.4479 C   0  0  0  0  0  0  0  0  0  0  0  0
    3.2952   -3.2037   -1.5481 C   0  0  0  0  0  0  0  0  0  0  0  0
    3.5599   -2.7176   -2.8457 C   0  0  0  0  0  0  0  0  0  0  0  0
    3.2000   -3.4587   -3.9277 O   0  0  0  0  0  0  0  0  0  0  0  0
    4.2090   -1.4730   -3.0059 C   0  0  0  0  0  0  0  0  0  0  0  0
    4.6281   -0.6916   -1.9831 N   0  0  0  0  0  0  0  0  0  0  0  0
    4.3372   -1.1952   -0.7479 C   0  0  0  0  0  0  0  0  0  0  0  0
    4.6101   -0.6524    0.4899 N   0  0  0  0  0  0  0  0  0  0  0  0
    4.9328    0.0134    3.3149 C   0  0  0  0  0  0  0  0  0  0  0  0
    5.2248    0.0226    4.8116 C   0  0  0  0  0  0  0  0  0  0  0  0
    6.2423    0.5378    5.2706 O   0  0  0  0  0  0  0  0  0  0  0  0
    4.1547   -0.6012    5.7004 C   0  0  0  0  0  0  0  0  0  0  0  0
    5.0427    0.2370    0.6737 H   0  0  0  0  0  0  0  0  0  0  0  0
    2.4050   -2.3534    6.9207 H   0  0  0  0  0  0  0  0  0  0  0  0
    2.1056   -3.4125    5.5558 H   0  0  0  0  0  0  0  0  0  0  0  0
    1.6241   -1.7245    5.4757 H   0  0  0  0  0  0  0  0  0  0  0  0
    4.8314   -3.0392    6.8896 H   0  0  0  0  0  0  0  0  0  0  0  0
    5.8177   -2.8387    5.4462 H   0  0  0  0  0  0  0  0  0  0  0  0
    4.5625   -4.0676    5.4921 H   0  0  0  0  0  0  0  0  0  0  0  0
    3.2623   -3.0594    3.3779 H   0  0  0  0  0  0  0  0  0  0  0  0
    2.8110   -4.1531   -1.3803 H   0  0  0  0  0  0  0  0  0  0  0  0
    2.8245   -4.2956   -3.6797 H   0  0  0  0  0  0  0  0  0  0  0  0
    4.4152   -1.0944   -3.9985 H   0  0  0  0  0  0  0  0  0  0  0  0
    5.8881    0.1070    2.7989 H   0  0  0  0  0  0  0  0  0  0  0  0
    4.3102    0.8692    3.0492 H   0  0  0  0  0  0  0  0  0  0  0  0
    3.2791    0.0458    5.6530 H   0  0  0  0  0  0  0  0  0  0  0  0
    4.4939   -0.5966    6.7337 H   0  0  0  0  0  0  0  0  0  0  0  0
  1  2  1  0
  1 21  1  0
  1 22  1  0
  1 23  1  0
  2 19  1  0
  2  3  1  0
  2  4  1  0
  3 24  1  0
  3 25  1  0
  3 26  1  0
  4  5  2  0
  4 27  1  0
  5  6  1  0
  5 16  1  0
  6 15  1  0
  6  7  2  0
  7  8  1  0
  8 14  2  0
  8  9  1  0
  9 10  2  0
  9 28  1  0
 10 11  1  0
 10 12  1  0
 11 29  1  0
 12 13  2  0
 12 30  1  0
 13 14  1  0
 14 15  1  0
 15 20  1  0
 16 17  1  0
 16 31  1  0
 16 32  1  0
 17 18  2  0
 17 19  1  0
 19 33  1  0
 19 34  1  0
M  END
>  <i_m_ct_stereo_status>  (196) 
1

>  <s_m_source_file>  (196) 
/var/tmp/pbs.5102264.sched01/tmp148in4kv/69urs0mf0h.sdf

>  <i_m_source_file_index>  (196) 
3

>  <i_lp_mmshare_version>  (196) 
48012

>  <i_f3d_flags>  (196) 
0

>  <s_epik_input>  (196) 
W0NIM11DMShbQ0gzXSlbQ0hdPUMoW0NIMl1DKD1PKVtDSDJdMSljKG4yKVtuSF1jKGMyMyluW2NIXWMoW2NIXTMpW09IXQ==

>  <s_epik_cmdline>  (196) 
J2VwaWtfcHl0aG9uJywgJy1waHQnLCAnMi4wJywgJy1waCcsICc3LjAnLCAnLXRuJywgJzgnLCAnLW1hJywgJzIwMCcsICctaW1hZScsICc8aW5maWxlLm1hZT4nLCAnLW9tYWUnLCAnPG91dGZpbGUubWFlPic=

>  <r_epik_Ionization_Penalty>  (196) 
0.0626563

>  <r_epik_Ionization_Penalty_Charging>  (196) 
0.0215223

>  <r_epik_Ionization_Penalty_Neutral>  (196) 
0.0411341

>  <r_epik_State_Penalty>  (196) 
0.490988

>  <r_epik_Charging_Adjusted_Penalty>  (196) 
0.512511

>  <i_epik_Tot_Q>  (196) 
0

>  <i_epik_Tot_abs_Q>  (196) 
0

>  <s_lp_Force_Field>  (196) 
OPLS3e

>  <r_lp_Energy>  (196) 
13.6082

>  <b_lp_Chiralities_Consistent>  (196) 
1

>  <s_lp_Variant>  (196) 
48:0-2

>  <s_i_glide_gridfile>  (196) 
pfpi4k_grid

>  <i_i_glide_lignum>  (196) 
3

>  <i_i_glide_rotatable_bonds>  (196) 
2

>  <r_i_docking_score>  (196) 
-3.79456

>  <r_i_glide_ligand_efficiency>  (196) 
-0.199714

>  <r_i_glide_ligand_efficiency_sa>  (196) 
-0.532916

>  <r_i_glide_ligand_efficiency_ln>  (196) 
-0.962002

>  <r_i_glide_gscore>  (196) 
-3.79456

>  <r_i_glide_lipo>  (196) 
-0.171786

>  <r_i_glide_hbond>  (196) 
-0.287908

>  <r_i_glide_metal>  (196) 
-0

>  <r_i_glide_rewards>  (196) 
-1.7532

>  <r_i_glide_evdw>  (196) 
-22.4302

>  <r_i_glide_ecoul>  (196) 
-4.53678

>  <r_i_glide_erotb>  (196) 
0.266519

>  <r_i_glide_esite>  (196) 
-0.0461531

>  <r_i_glide_emodel>  (196) 
-33.9998

>  <r_i_glide_energy>  (196) 
-26.9669

>  <r_i_glide_einternal>  (196) 
0.065331

>  <r_i_glide_intrahb_reward>  (196) 
-0

>  <i_i_glide_confnum>  (196) 
2

>  <i_i_glide_posenum>  (196) 
12

>  <r_i_glide_eff_state_penalty>  (196) 
0

>  <ligand_id>  (196) 
48

>  <original_smiles>  (196) 
CC1(C)C=C(c2nc3cc(O)cnc3[nH]2)CC(=O)C1

>  <smiles>  (196) 
[H]Oc1c([H])nc2c(nc(C3=C([H])C(C([H])([H])[H])(C([H])([H])[H])C([H])([H])C(=O)C3([H])[H])n2[H])c1[H]

$$$$
48:1:2
     RDKit          3D

 34 36  0  0  1  0  0  0  0  0999 V2000
   -1.3016   -7.4990    4.3123 C   0  0  0  0  0  0  0  0  0  0  0  0
   -0.4566   -8.3232    3.3248 C   0  0  0  0  0  0  0  0  0  0  0  0
   -1.4233   -9.0718    2.3920 C   0  0  0  0  0  0  0  0  0  0  0  0
    0.4047   -7.3822    2.4898 C   0  0  0  0  0  0  0  0  0  0  0  0
    1.7211   -7.5372    2.2097 C   0  0  0  0  0  0  0  0  0  0  0  0
    2.4190   -6.5471    1.3840 C   0  0  0  0  0  0  0  0  0  0  0  0
    1.7711   -5.5790    0.7259 N   0  0  0  0  0  0  0  0  0  0  0  0
    2.8088   -4.8854    0.1200 C   0  0  0  0  0  0  0  0  0  0  0  0
    2.8283   -3.7501   -0.7212 C   0  0  0  0  0  0  0  0  0  0  0  0
    4.0741   -3.2912   -1.1950 C   0  0  0  0  0  0  0  0  0  0  0  0
    4.1211   -2.2147   -2.0288 O   0  0  0  0  0  0  0  0  0  0  0  0
    5.2591   -3.9649   -0.8047 C   0  0  0  0  0  0  0  0  0  0  0  0
    5.2965   -5.0442    0.0097 N   0  0  0  0  0  0  0  0  0  0  0  0
    4.0694   -5.4641    0.4281 C   0  0  0  0  0  0  0  0  0  0  0  0
    3.7577   -6.5348    1.2468 N   0  0  0  0  0  0  0  0  0  0  0  0
    2.5128   -8.7373    2.7186 C   0  0  0  0  0  0  0  0  0  0  0  0
    1.6136   -9.8216    3.3128 C   0  0  0  0  0  0  0  0  0  0  0  0
    1.8733  -11.0166    3.1996 O   0  0  0  0  0  0  0  0  0  0  0  0
    0.4164   -9.3270    4.1168 C   0  0  0  0  0  0  0  0  0  0  0  0
    4.3928   -7.1927    1.6732 H   0  0  0  0  0  0  0  0  0  0  0  0
   -1.9381   -8.1697    4.8825 H   0  0  0  0  0  0  0  0  0  0  0  0
   -1.9547   -6.7920    3.8002 H   0  0  0  0  0  0  0  0  0  0  0  0
   -0.6814   -6.9406    5.0148 H   0  0  0  0  0  0  0  0  0  0  0  0
   -2.0937   -9.7211    2.9528 H   0  0  0  0  0  0  0  0  0  0  0  0
   -0.8851   -9.7005    1.6894 H   0  0  0  0  0  0  0  0  0  0  0  0
   -2.0350   -8.3814    1.8130 H   0  0  0  0  0  0  0  0  0  0  0  0
   -0.1240   -6.5268    2.1095 H   0  0  0  0  0  0  0  0  0  0  0  0
    1.9108   -3.2546   -1.0106 H   0  0  0  0  0  0  0  0  0  0  0  0
    4.9910   -1.9997   -2.3204 H   0  0  0  0  0  0  0  0  0  0  0  0
    6.2197   -3.6262   -1.1680 H   0  0  0  0  0  0  0  0  0  0  0  0
    3.0495   -9.1799    1.8802 H   0  0  0  0  0  0  0  0  0  0  0  0
    3.2435   -8.4082    3.4581 H   0  0  0  0  0  0  0  0  0  0  0  0
    0.8090   -8.8642    5.0211 H   0  0  0  0  0  0  0  0  0  0  0  0
   -0.1774  -10.1805    4.4352 H   0  0  0  0  0  0  0  0  0  0  0  0
  1  2  1  0
  1 21  1  0
  1 22  1  0
  1 23  1  0
  2 19  1  0
  2  3  1  0
  2  4  1  0
  3 24  1  0
  3 25  1  0
  3 26  1  0
  4  5  2  0
  4 27  1  0
  5  6  1  0
  5 16  1  0
  6 15  1  0
  6  7  2  0
  7  8  1  0
  8 14  2  0
  8  9  1  0
  9 10  2  0
  9 28  1  0
 10 11  1  0
 10 12  1  0
 11 29  1  0
 12 13  2  0
 12 30  1  0
 13 14  1  0
 14 15  1  0
 15 20  1  0
 16 17  1  0
 16 31  1  0
 16 32  1  0
 17 18  2  0
 17 19  1  0
 19 33  1  0
 19 34  1  0
M  END
>  <i_m_ct_stereo_status>  (197) 
1

>  <s_m_source_file>  (197) 
/var/tmp/pbs.5102264.sched01/tmp148in4kv/69urs0mf0h.sdf

>  <i_m_source_file_index>  (197) 
3

>  <i_lp_mmshare_version>  (197) 
48012

>  <i_f3d_flags>  (197) 
0

>  <s_epik_input>  (197) 
W0NIM11DMShbQ0gzXSlbQ0hdPUMoW0NIMl1DKD1PKVtDSDJdMSljKG4yKVtuSF1jKGMyMyluW2NIXWMoW2NIXTMpW09IXQ==

>  <s_epik_cmdline>  (197) 
J2VwaWtfcHl0aG9uJywgJy1waHQnLCAnMi4wJywgJy1waCcsICc3LjAnLCAnLXRuJywgJzgnLCAnLW1hJywgJzIwMCcsICctaW1hZScsICc8aW5maWxlLm1hZT4nLCAnLW9tYWUnLCAnPG91dGZpbGUubWFlPic=

>  <r_epik_Ionization_Penalty>  (197) 
0.0626563

>  <r_epik_Ionization_Penalty_Charging>  (197) 
0.0215223

>  <r_epik_Ionization_Penalty_Neutral>  (197) 
0.0411341

>  <r_epik_State_Penalty>  (197) 
0.490988

>  <r_epik_Charging_Adjusted_Penalty>  (197) 
0.512511

>  <i_epik_Tot_Q>  (197) 
0

>  <i_epik_Tot_abs_Q>  (197) 
0

>  <s_lp_Force_Field>  (197) 
OPLS3e

>  <r_lp_Energy>  (197) 
13.6082

>  <b_lp_Chiralities_Consistent>  (197) 
1

>  <s_lp_Variant>  (197) 
48:0-2

>  <s_i_glide_gridfile>  (197) 
pfpi4k_grid

>  <i_i_glide_lignum>  (197) 
3

>  <i_i_glide_rotatable_bonds>  (197) 
2

>  <r_i_docking_score>  (197) 
-3.28014

>  <r_i_glide_ligand_efficiency>  (197) 
-0.172639

>  <r_i_glide_ligand_efficiency_sa>  (197) 
-0.46067

>  <r_i_glide_ligand_efficiency_ln>  (197) 
-0.831587

>  <r_i_glide_gscore>  (197) 
-3.28014

>  <r_i_glide_lipo>  (197) 
-0.281402

>  <r_i_glide_hbond>  (197) 
-0.110453

>  <r_i_glide_metal>  (197) 
-0

>  <r_i_glide_rewards>  (197) 
-1.76052

>  <r_i_glide_evdw>  (197) 
-25.6402

>  <r_i_glide_ecoul>  (197) 
-0.675209

>  <r_i_glide_erotb>  (197) 
0.266519

>  <r_i_glide_esite>  (197) 
-0.011

>  <r_i_glide_emodel>  (197) 
-32.3308

>  <r_i_glide_energy>  (197) 
-26.3154

>  <r_i_glide_einternal>  (197) 
0.175092

>  <r_i_glide_intrahb_reward>  (197) 
-0

>  <i_i_glide_confnum>  (197) 
2

>  <i_i_glide_posenum>  (197) 
22

>  <r_i_glide_eff_state_penalty>  (197) 
0

>  <ligand_id>  (197) 
48

>  <original_smiles>  (197) 
CC1(C)C=C(c2nc3cc(O)cnc3[nH]2)CC(=O)C1

>  <smiles>  (197) 
[H]Oc1c([H])nc2c(nc(C3=C([H])C(C([H])([H])[H])(C([H])([H])[H])C([H])([H])C(=O)C3([H])[H])n2[H])c1[H]

$$$$
48:2:0
     RDKit          3D

 33 35  0  0  1  0  0  0  0  0999 V2000
    6.0018   -4.3780    1.7138 C   0  0  0  0  0  0  0  0  0  0  0  0
    4.7522   -4.2764    0.8208 C   0  0  0  0  0  0  0  0  0  0  0  0
    4.2970   -5.7024    0.4621 C   0  0  0  0  0  0  0  0  0  0  0  0
    3.6504   -3.5797    1.6148 C   0  0  0  0  0  0  0  0  0  0  0  0
    3.2030   -2.3169    1.4231 C   0  0  0  0  0  0  0  0  0  0  0  0
    2.1449   -1.7768    2.2751 C   0  0  0  0  0  0  0  0  0  0  0  0
    1.6230   -2.4683    3.2961 N   0  0  0  0  0  0  0  0  0  0  0  0
    0.6858   -1.5807    3.7954 C   0  0  0  0  0  0  0  0  0  0  0  0
   -0.2310   -1.6713    4.8575 C   0  0  0  0  0  0  0  0  0  0  0  0
   -1.1144   -0.5902    5.0832 C   0  0  0  0  0  0  0  0  0  0  0  0
   -2.0603   -0.6498    6.0718 O   0  0  0  0  0  0  0  0  0  0  0  0
   -1.0206    0.5595    4.2634 C   0  0  0  0  0  0  0  0  0  0  0  0
   -0.1544    0.7048    3.2356 N   0  0  0  0  0  0  0  0  0  0  0  0
    0.6604   -0.3688    3.0457 C   0  0  0  0  0  0  0  0  0  0  0  0
    1.6266   -0.5515    2.0816 N   0  0  0  0  0  0  0  0  0  0  0  0
    3.7779   -1.4137    0.3317 C   0  0  0  0  0  0  0  0  0  0  0  0
    5.0486   -1.9881   -0.2866 C   0  0  0  0  0  0  0  0  0  0  0  0
    5.9783   -1.2721   -0.6513 O   0  0  0  0  0  0  0  0  0  0  0  0
    5.0728   -3.5003   -0.4797 C   0  0  0  0  0  0  0  0  0  0  0  0
    1.8416    0.0739    1.3164 H   0  0  0  0  0  0  0  0  0  0  0  0
    6.8050   -4.8973    1.1950 H   0  0  0  0  0  0  0  0  0  0  0  0
    5.7868   -4.9358    2.6258 H   0  0  0  0  0  0  0  0  0  0  0  0
    6.3700   -3.3952    2.0088 H   0  0  0  0  0  0  0  0  0  0  0  0
    5.0882   -6.2383   -0.0568 H   0  0  0  0  0  0  0  0  0  0  0  0
    3.4230   -5.6945   -0.1881 H   0  0  0  0  0  0  0  0  0  0  0  0
    4.0424   -6.2749    1.3535 H   0  0  0  0  0  0  0  0  0  0  0  0
    3.2185   -4.1880    2.3977 H   0  0  0  0  0  0  0  0  0  0  0  0
   -0.2547   -2.5641    5.4634 H   0  0  0  0  0  0  0  0  0  0  0  0
   -1.6822    1.3923    4.4519 H   0  0  0  0  0  0  0  0  0  0  0  0
    3.0203   -1.2503   -0.4350 H   0  0  0  0  0  0  0  0  0  0  0  0
    4.0222   -0.4496    0.7750 H   0  0  0  0  0  0  0  0  0  0  0  0
    6.0448   -3.7959   -0.8637 H   0  0  0  0  0  0  0  0  0  0  0  0
    4.3428   -3.7389   -1.2529 H   0  0  0  0  0  0  0  0  0  0  0  0
  1  2  1  0
  1 21  1  0
  1 22  1  0
  1 23  1  0
  2 19  1  0
  2  3  1  0
  2  4  1  0
  3 24  1  0
  3 25  1  0
  3 26  1  0
  4  5  2  0
  4 27  1  0
  5  6  1  0
  5 16  1  0
  6 15  1  0
  6  7  2  0
  7  8  1  0
  8 14  2  0
  8  9  1  0
  9 10  2  0
  9 28  1  0
 10 11  1  0
 10 12  1  0
 12 13  2  0
 12 29  1  0
 13 14  1  0
 14 15  1  0
 15 20  1  0
 16 17  1  0
 16 30  1  0
 16 31  1  0
 17 18  2  0
 17 19  1  0
 19 32  1  0
 19 33  1  0
M  CHG  1  11  -1
M  END
>  <i_m_ct_stereo_status>  (198) 
1

>  <s_m_source_file>  (198) 
/var/tmp/pbs.5102264.sched01/tmp148in4kv/69urs0mf0h.sdf

>  <i_m_source_file_index>  (198) 
4

>  <i_lp_mmshare_version>  (198) 
48012

>  <i_f3d_flags>  (198) 
0

>  <s_epik_input>  (198) 
W0NIM11DMShbQ0gzXSlbQ0hdPUMoW0NIMl1DKD1PKVtDSDJdMSljKG4yKVtuSF1jKGMyMyluW2NIXWMoW2NIXTMpW09IXQ==

>  <s_epik_cmdline>  (198) 
J2VwaWtfcHl0aG9uJywgJy1waHQnLCAnMi4wJywgJy1waCcsICc3LjAnLCAnLXRuJywgJzgnLCAnLW1hJywgJzIwMCcsICctaW1hZScsICc8aW5maWxlLm1hZT4nLCAnLW9tYWUnLCAnPG91dGZpbGUubWFlPic=

>  <r_epik_Ionization_Penalty>  (198) 
2.39058

>  <r_epik_Ionization_Penalty_Charging>  (198) 
2.39014

>  <r_epik_Ionization_Penalty_Neutral>  (198) 
0.000442054

>  <r_epik_State_Penalty>  (198) 
2.0864

>  <r_epik_Charging_Adjusted_Penalty>  (198) 
4.47654

>  <i_epik_Tot_Q>  (198) 
-1

>  <i_epik_Tot_abs_Q>  (198) 
1

>  <s_lp_Force_Field>  (198) 
OPLS3e

>  <r_lp_Energy>  (198) 
14.0693

>  <b_lp_Chiralities_Consistent>  (198) 
1

>  <s_lp_Variant>  (198) 
48:0-3

>  <s_i_glide_gridfile>  (198) 
pfpi4k_grid

>  <i_i_glide_lignum>  (198) 
4

>  <i_i_glide_rotatable_bonds>  (198) 
1

>  <r_i_docking_score>  (198) 
-3.57073

>  <r_i_glide_ligand_efficiency>  (198) 
-0.187933

>  <r_i_glide_ligand_efficiency_sa>  (198) 
-0.501482

>  <r_i_glide_ligand_efficiency_ln>  (198) 
-0.905258

>  <r_i_glide_gscore>  (198) 
-3.57073

>  <r_i_glide_lipo>  (198) 
-0.233171

>  <r_i_glide_hbond>  (198) 
-0.199616

>  <r_i_glide_metal>  (198) 
-0

>  <r_i_glide_rewards>  (198) 
-1.66173

>  <r_i_glide_evdw>  (198) 
-19.4057

>  <r_i_glide_ecoul>  (198) 
-4.33694

>  <r_i_glide_erotb>  (198) 
0.268325

>  <r_i_glide_esite>  (198) 
-0.123716

>  <r_i_glide_emodel>  (198) 
-33.1808

>  <r_i_glide_energy>  (198) 
-23.7427

>  <r_i_glide_einternal>  (198) 
0.0664018

>  <r_i_glide_intrahb_reward>  (198) 
-0

>  <i_i_glide_confnum>  (198) 
4

>  <i_i_glide_posenum>  (198) 
9

>  <r_i_glide_eff_state_penalty>  (198) 
0

>  <ligand_id>  (198) 
48

>  <original_smiles>  (198) 
CC1(C)C=C(c2nc3cc(O)cnc3[nH]2)CC(=O)C1

>  <smiles>  (198) 
[H]C1=C(c2nc3c([H])c([O-])c([H])nc3n2[H])C([H])([H])C(=O)C([H])([H])C1(C([H])([H])[H])C([H])([H])[H]

$$$$
48:2:1
     RDKit          3D

 33 35  0  0  1  0  0  0  0  0999 V2000
    5.4871   -1.2941   -0.0049 C   0  0  0  0  0  0  0  0  0  0  0  0
    4.9194   -2.3886   -0.9248 C   0  0  0  0  0  0  0  0  0  0  0  0
    6.0855   -3.0772   -1.6613 C   0  0  0  0  0  0  0  0  0  0  0  0
    4.2218   -3.4407   -0.0669 C   0  0  0  0  0  0  0  0  0  0  0  0
    3.0205   -4.0065   -0.3271 C   0  0  0  0  0  0  0  0  0  0  0  0
    2.4681   -5.0191    0.5857 C   0  0  0  0  0  0  0  0  0  0  0  0
    1.4358   -5.7952    0.2371 N   0  0  0  0  0  0  0  0  0  0  0  0
    1.2337   -6.5510    1.3748 C   0  0  0  0  0  0  0  0  0  0  0  0
    0.2761   -7.5300    1.6905 C   0  0  0  0  0  0  0  0  0  0  0  0
    0.3187   -8.1245    2.9613 C   0  0  0  0  0  0  0  0  0  0  0  0
   -0.6001   -9.0727    3.2696 O   0  0  0  0  0  0  0  0  0  0  0  0
    1.3275   -7.7421    3.8783 C   0  0  0  0  0  0  0  0  0  0  0  0
    2.2551   -6.7853    3.6319 N   0  0  0  0  0  0  0  0  0  0  0  0
    2.1703   -6.2323    2.3936 C   0  0  0  0  0  0  0  0  0  0  0  0
    2.9398   -5.2310    1.8359 N   0  0  0  0  0  0  0  0  0  0  0  0
    2.1667   -3.5602   -1.5214 C   0  0  0  0  0  0  0  0  0  0  0  0
    2.9715   -2.7521   -2.5366 C   0  0  0  0  0  0  0  0  0  0  0  0
    2.8292   -2.8806   -3.7536 O   0  0  0  0  0  0  0  0  0  0  0  0
    3.9426   -1.7440   -1.9393 C   0  0  0  0  0  0  0  0  0  0  0  0
    3.7009   -4.7421    2.2784 H   0  0  0  0  0  0  0  0  0  0  0  0
    6.0162   -0.5407   -0.5819 H   0  0  0  0  0  0  0  0  0  0  0  0
    6.1885   -1.7036    0.7225 H   0  0  0  0  0  0  0  0  0  0  0  0
    4.6987   -0.7848    0.5496 H   0  0  0  0  0  0  0  0  0  0  0  0
    6.6614   -2.3669   -2.2515 H   0  0  0  0  0  0  0  0  0  0  0  0
    5.7336   -3.8576   -2.3372 H   0  0  0  0  0  0  0  0  0  0  0  0
    6.7695   -3.5519   -0.9575 H   0  0  0  0  0  0  0  0  0  0  0  0
    4.7866   -3.7458    0.8019 H   0  0  0  0  0  0  0  0  0  0  0  0
   -0.4590   -7.8348    0.9664 H   0  0  0  0  0  0  0  0  0  0  0  0
    1.3971   -8.2267    4.8455 H   0  0  0  0  0  0  0  0  0  0  0  0
    1.8069   -4.4479   -2.0298 H   0  0  0  0  0  0  0  0  0  0  0  0
    1.2779   -3.0498   -1.1873 H   0  0  0  0  0  0  0  0  0  0  0  0
    3.3300   -0.9850   -1.4531 H   0  0  0  0  0  0  0  0  0  0  0  0
    4.4860   -1.2589   -2.7449 H   0  0  0  0  0  0  0  0  0  0  0  0
  1  2  1  0
  1 21  1  0
  1 22  1  0
  1 23  1  0
  2 19  1  0
  2  3  1  0
  2  4  1  0
  3 24  1  0
  3 25  1  0
  3 26  1  0
  4  5  2  0
  4 27  1  0
  5  6  1  0
  5 16  1  0
  6 15  1  0
  6  7  2  0
  7  8  1  0
  8 14  2  0
  8  9  1  0
  9 10  2  0
  9 28  1  0
 10 11  1  0
 10 12  1  0
 12 13  2  0
 12 29  1  0
 13 14  1  0
 14 15  1  0
 15 20  1  0
 16 17  1  0
 16 30  1  0
 16 31  1  0
 17 18  2  0
 17 19  1  0
 19 32  1  0
 19 33  1  0
M  CHG  1  11  -1
M  END
>  <i_m_ct_stereo_status>  (199) 
1

>  <s_m_source_file>  (199) 
/var/tmp/pbs.5102264.sched01/tmp148in4kv/69urs0mf0h.sdf

>  <i_m_source_file_index>  (199) 
4

>  <i_lp_mmshare_version>  (199) 
48012

>  <i_f3d_flags>  (199) 
0

>  <s_epik_input>  (199) 
W0NIM11DMShbQ0gzXSlbQ0hdPUMoW0NIMl1DKD1PKVtDSDJdMSljKG4yKVtuSF1jKGMyMyluW2NIXWMoW2NIXTMpW09IXQ==

>  <s_epik_cmdline>  (199) 
J2VwaWtfcHl0aG9uJywgJy1waHQnLCAnMi4wJywgJy1waCcsICc3LjAnLCAnLXRuJywgJzgnLCAnLW1hJywgJzIwMCcsICctaW1hZScsICc8aW5maWxlLm1hZT4nLCAnLW9tYWUnLCAnPG91dGZpbGUubWFlPic=

>  <r_epik_Ionization_Penalty>  (199) 
2.39058

>  <r_epik_Ionization_Penalty_Charging>  (199) 
2.39014

>  <r_epik_Ionization_Penalty_Neutral>  (199) 
0.000442054

>  <r_epik_State_Penalty>  (199) 
2.0864

>  <r_epik_Charging_Adjusted_Penalty>  (199) 
4.47654

>  <i_epik_Tot_Q>  (199) 
-1

>  <i_epik_Tot_abs_Q>  (199) 
1

>  <s_lp_Force_Field>  (199) 
OPLS3e

>  <r_lp_Energy>  (199) 
14.0693

>  <b_lp_Chiralities_Consistent>  (199) 
1

>  <s_lp_Variant>  (199) 
48:0-3

>  <s_i_glide_gridfile>  (199) 
pfpi4k_grid

>  <i_i_glide_lignum>  (199) 
4

>  <i_i_glide_rotatable_bonds>  (199) 
1

>  <r_i_docking_score>  (199) 
-3.35401

>  <r_i_glide_ligand_efficiency>  (199) 
-0.176527

>  <r_i_glide_ligand_efficiency_sa>  (199) 
-0.471044

>  <r_i_glide_ligand_efficiency_ln>  (199) 
-0.850313

>  <r_i_glide_gscore>  (199) 
-3.35401

>  <r_i_glide_lipo>  (199) 
-0.188294

>  <r_i_glide_hbond>  (199) 
-0.145564

>  <r_i_glide_metal>  (199) 
-0

>  <r_i_glide_rewards>  (199) 
-1.66173

>  <r_i_glide_evdw>  (199) 
-23.3209

>  <r_i_glide_ecoul>  (199) 
-2.42582

>  <r_i_glide_erotb>  (199) 
0.268325

>  <r_i_glide_esite>  (199) 
-0.0968296

>  <r_i_glide_emodel>  (199) 
-34.5569

>  <r_i_glide_energy>  (199) 
-25.7467

>  <r_i_glide_einternal>  (199) 
0.150314

>  <r_i_glide_intrahb_reward>  (199) 
-0

>  <i_i_glide_confnum>  (199) 
1

>  <i_i_glide_posenum>  (199) 
7

>  <r_i_glide_eff_state_penalty>  (199) 
0

>  <ligand_id>  (199) 
48

>  <original_smiles>  (199) 
CC1(C)C=C(c2nc3cc(O)cnc3[nH]2)CC(=O)C1

>  <smiles>  (199) 
[H]C1=C(c2nc3c([H])c([O-])c([H])nc3n2[H])C([H])([H])C(=O)C([H])([H])C1(C([H])([H])[H])C([H])([H])[H]

$$$$
48:2:2
     RDKit          3D

 33 35  0  0  1  0  0  0  0  0999 V2000
    5.8452   -4.5075    1.6706 C   0  0  0  0  0  0  0  0  0  0  0  0
    4.9326   -3.7017    0.7299 C   0  0  0  0  0  0  0  0  0  0  0  0
    4.3437   -4.6634   -0.3144 C   0  0  0  0  0  0  0  0  0  0  0  0
    3.7790   -3.1067    1.5310 C   0  0  0  0  0  0  0  0  0  0  0  0
    3.3106   -1.8387    1.4299 C   0  0  0  0  0  0  0  0  0  0  0  0
    2.2113   -1.3975    2.2834 C   0  0  0  0  0  0  0  0  0  0  0  0
    1.7382   -2.1375    3.2903 N   0  0  0  0  0  0  0  0  0  0  0  0
    0.7285   -1.3401    3.7920 C   0  0  0  0  0  0  0  0  0  0  0  0
   -0.1807   -1.5182    4.8452 C   0  0  0  0  0  0  0  0  0  0  0  0
   -1.1486   -0.5083    5.0889 C   0  0  0  0  0  0  0  0  0  0  0  0
   -2.0808   -0.6504    6.0642 O   0  0  0  0  0  0  0  0  0  0  0  0
   -1.1419    0.6576    4.2810 C   0  0  0  0  0  0  0  0  0  0  0  0
   -0.2855    0.8818    3.2610 N   0  0  0  0  0  0  0  0  0  0  0  0
    0.6130   -0.1252    3.0574 C   0  0  0  0  0  0  0  0  0  0  0  0
    1.5923   -0.2131    2.0939 N   0  0  0  0  0  0  0  0  0  0  0  0
    3.9431   -0.8192    0.4892 C   0  0  0  0  0  0  0  0  0  0  0  0
    4.8999   -1.4625   -0.5096 C   0  0  0  0  0  0  0  0  0  0  0  0
    5.0218   -1.0569   -1.6628 O   0  0  0  0  0  0  0  0  0  0  0  0
    5.7633   -2.5923    0.0404 C   0  0  0  0  0  0  0  0  0  0  0  0
    1.7691    0.4399    1.3449 H   0  0  0  0  0  0  0  0  0  0  0  0
    6.6601   -4.9689    1.1157 H   0  0  0  0  0  0  0  0  0  0  0  0
    5.2958   -5.3063    2.1677 H   0  0  0  0  0  0  0  0  0  0  0  0
    6.2759   -3.8769    2.4462 H   0  0  0  0  0  0  0  0  0  0  0  0
    5.1340   -5.1596   -0.8734 H   0  0  0  0  0  0  0  0  0  0  0  0
    3.7028   -4.1486   -1.0295 H   0  0  0  0  0  0  0  0  0  0  0  0
    3.7453   -5.4402    0.1613 H   0  0  0  0  0  0  0  0  0  0  0  0
    3.3181   -3.7921    2.2280 H   0  0  0  0  0  0  0  0  0  0  0  0
   -0.1422   -2.4143    5.4437 H   0  0  0  0  0  0  0  0  0  0  0  0
   -1.8668    1.4274    4.4775 H   0  0  0  0  0  0  0  0  0  0  0  0
    3.1402   -0.3440   -0.0685 H   0  0  0  0  0  0  0  0  0  0  0  0
    4.4494   -0.0482    1.0711 H   0  0  0  0  0  0  0  0  0  0  0  0
    6.4646   -2.1480    0.7470 H   0  0  0  0  0  0  0  0  0  0  0  0
    6.3540   -3.0155   -0.7684 H   0  0  0  0  0  0  0  0  0  0  0  0
  1  2  1  0
  1 21  1  0
  1 22  1  0
  1 23  1  0
  2 19  1  0
  2  3  1  0
  2  4  1  0
  3 24  1  0
  3 25  1  0
  3 26  1  0
  4  5  2  0
  4 27  1  0
  5  6  1  0
  5 16  1  0
  6 15  1  0
  6  7  2  0
  7  8  1  0
  8 14  2  0
  8  9  1  0
  9 10  2  0
  9 28  1  0
 10 11  1  0
 10 12  1  0
 12 13  2  0
 12 29  1  0
 13 14  1  0
 14 15  1  0
 15 20  1  0
 16 17  1  0
 16 30  1  0
 16 31  1  0
 17 18  2  0
 17 19  1  0
 19 32  1  0
 19 33  1  0
M  CHG  1  11  -1
M  END
>  <i_m_ct_stereo_status>  (200) 
1

>  <s_m_source_file>  (200) 
/var/tmp/pbs.5102264.sched01/tmp148in4kv/69urs0mf0h.sdf

>  <i_m_source_file_index>  (200) 
4

>  <i_lp_mmshare_version>  (200) 
48012

>  <i_f3d_flags>  (200) 
0

>  <s_epik_input>  (200) 
W0NIM11DMShbQ0gzXSlbQ0hdPUMoW0NIMl1DKD1PKVtDSDJdMSljKG4yKVtuSF1jKGMyMyluW2NIXWMoW2NIXTMpW09IXQ==

>  <s_epik_cmdline>  (200) 
J2VwaWtfcHl0aG9uJywgJy1waHQnLCAnMi4wJywgJy1waCcsICc3LjAnLCAnLXRuJywgJzgnLCAnLW1hJywgJzIwMCcsICctaW1hZScsICc8aW5maWxlLm1hZT4nLCAnLW9tYWUnLCAnPG91dGZpbGUubWFlPic=

>  <r_epik_Ionization_Penalty>  (200) 
2.39058

>  <r_epik_Ionization_Penalty_Charging>  (200) 
2.39014

>  <r_epik_Ionization_Penalty_Neutral>  (200) 
0.000442054

>  <r_epik_State_Penalty>  (200) 
2.0864

>  <r_epik_Charging_Adjusted_Penalty>  (200) 
4.47654

>  <i_epik_Tot_Q>  (200) 
-1

>  <i_epik_Tot_abs_Q>  (200) 
1

>  <s_lp_Force_Field>  (200) 
OPLS3e

>  <r_lp_Energy>  (200) 
14.0693

>  <b_lp_Chiralities_Consistent>  (200) 
1

>  <s_lp_Variant>  (200) 
48:0-3

>  <s_i_glide_gridfile>  (200) 
pfpi4k_grid

>  <i_i_glide_lignum>  (200) 
4

>  <i_i_glide_rotatable_bonds>  (200) 
1

>  <r_i_docking_score>  (200) 
-3.2418

>  <r_i_glide_ligand_efficiency>  (200) 
-0.170621

>  <r_i_glide_ligand_efficiency_sa>  (200) 
-0.455286

>  <r_i_glide_ligand_efficiency_ln>  (200) 
-0.821867

>  <r_i_glide_gscore>  (200) 
-3.2418

>  <r_i_glide_lipo>  (200) 
-0.112228

>  <r_i_glide_hbond>  (200) 
-0.13604

>  <r_i_glide_metal>  (200) 
-0

>  <r_i_glide_rewards>  (200) 
-1.66173

>  <r_i_glide_evdw>  (200) 
-20.9001

>  <r_i_glide_ecoul>  (200) 
-2.7445

>  <r_i_glide_erotb>  (200) 
0.268325

>  <r_i_glide_esite>  (200) 
-0.143453

>  <r_i_glide_emodel>  (200) 
-32.12

>  <r_i_glide_energy>  (200) 
-23.6446

>  <r_i_glide_einternal>  (200) 
0.129433

>  <r_i_glide_intrahb_reward>  (200) 
-0

>  <i_i_glide_confnum>  (200) 
2

>  <i_i_glide_posenum>  (200) 
23

>  <r_i_glide_eff_state_penalty>  (200) 
0

>  <ligand_id>  (200) 
48

>  <original_smiles>  (200) 
CC1(C)C=C(c2nc3cc(O)cnc3[nH]2)CC(=O)C1

>  <smiles>  (200) 
[H]C1=C(c2nc3c([H])c([O-])c([H])nc3n2[H])C([H])([H])C(=O)C([H])([H])C1(C([H])([H])[H])C([H])([H])[H]

$$$$
48:3:0
     RDKit          3D

 33 35  0  0  1  0  0  0  0  0999 V2000
   -0.1522    2.4014    4.6273 C   0  0  0  0  0  0  0  0  0  0  0  0
   -0.5292    1.3194    3.6008 C   0  0  0  0  0  0  0  0  0  0  0  0
   -1.4755    1.9490    2.5711 C   0  0  0  0  0  0  0  0  0  0  0  0
    0.7391    0.8554    2.8945 C   0  0  0  0  0  0  0  0  0  0  0  0
    1.3648   -0.3206    3.1106 C   0  0  0  0  0  0  0  0  0  0  0  0
    2.5594   -0.6225    2.3474 C   0  0  0  0  0  0  0  0  0  0  0  0
    2.6140   -0.7424    0.9869 N   0  0  0  0  0  0  0  0  0  0  0  0
    3.8942   -1.0562    0.6542 C   0  0  0  0  0  0  0  0  0  0  0  0
    4.5614   -1.3232   -0.5453 C   0  0  0  0  0  0  0  0  0  0  0  0
    5.9260   -1.6172   -0.4572 C   0  0  0  0  0  0  0  0  0  0  0  0
    6.6196   -1.8919   -1.5867 O   0  0  0  0  0  0  0  0  0  0  0  0
    6.5452   -1.6351    0.8109 C   0  0  0  0  0  0  0  0  0  0  0  0
    5.9038   -1.3989    1.9813 N   0  0  0  0  0  0  0  0  0  0  0  0
    4.6008   -1.1181    1.8844 C   0  0  0  0  0  0  0  0  0  0  0  0
    3.7425   -0.8614    2.9388 N   0  0  0  0  0  0  0  0  0  0  0  0
    0.8198   -1.3834    4.0607 C   0  0  0  0  0  0  0  0  0  0  0  0
   -0.2877   -0.8356    4.9613 C   0  0  0  0  0  0  0  0  0  0  0  0
   -0.4428   -1.2095    6.1239 O   0  0  0  0  0  0  0  0  0  0  0  0
   -1.2500    0.1461    4.3053 C   0  0  0  0  0  0  0  0  0  0  0  0
   -1.0437    2.8047    5.1090 H   0  0  0  0  0  0  0  0  0  0  0  0
    0.3660    3.2328    4.1466 H   0  0  0  0  0  0  0  0  0  0  0  0
    0.5012    2.0095    5.4075 H   0  0  0  0  0  0  0  0  0  0  0  0
   -2.3831    2.3232    3.0459 H   0  0  0  0  0  0  0  0  0  0  0  0
   -1.7743    1.2381    1.7982 H   0  0  0  0  0  0  0  0  0  0  0  0
   -0.9969    2.7965    2.0818 H   0  0  0  0  0  0  0  0  0  0  0  0
    1.1659    1.5504    2.1858 H   0  0  0  0  0  0  0  0  0  0  0  0
    4.0443   -1.3038   -1.4926 H   0  0  0  0  0  0  0  0  0  0  0  0
    7.5955   -1.8562    0.8879 H   0  0  0  0  0  0  0  0  0  0  0  0
    0.4594   -2.2370    3.4833 H   0  0  0  0  0  0  0  0  0  0  0  0
    1.6379   -1.7329    4.6889 H   0  0  0  0  0  0  0  0  0  0  0  0
   -1.9542    0.5183    5.0457 H   0  0  0  0  0  0  0  0  0  0  0  0
   -1.8381   -0.4171    3.5861 H   0  0  0  0  0  0  0  0  0  0  0  0
    1.8386   -0.6674    0.3108 H   0  0  0  0  0  0  0  0  0  0  0  0
  1  2  1  0
  1 20  1  0
  1 21  1  0
  1 22  1  0
  2 19  1  0
  2  3  1  0
  2  4  1  0
  3 23  1  0
  3 24  1  0
  3 25  1  0
  4  5  2  0
  4 26  1  0
  5  6  1  0
  5 16  1  0
  6 15  2  0
  6  7  1  0
  7  8  1  0
  7 33  1  0
  8 14  2  0
  8  9  1  0
  9 10  2  0
  9 27  1  0
 10 11  1  0
 10 12  1  0
 12 13  2  0
 12 28  1  0
 13 14  1  0
 14 15  1  0
 16 17  1  0
 16 29  1  0
 16 30  1  0
 17 18  2  0
 17 19  1  0
 19 31  1  0
 19 32  1  0
M  CHG  1  11  -1
M  END
>  <i_m_ct_stereo_status>  (201) 
1

>  <s_m_source_file>  (201) 
/var/tmp/pbs.5102264.sched01/tmp148in4kv/69urs0mf0h.sdf

>  <i_m_source_file_index>  (201) 
5

>  <i_lp_mmshare_version>  (201) 
48012

>  <i_f3d_flags>  (201) 
0

>  <s_epik_input>  (201) 
W0NIM11DMShbQ0gzXSlbQ0hdPUMoW0NIMl1DKD1PKVtDSDJdMSljKG4yKVtuSF1jKGMyMyluW2NIXWMoW2NIXTMpW09IXQ==

>  <s_epik_cmdline>  (201) 
J2VwaWtfcHl0aG9uJywgJy1waHQnLCAnMi4wJywgJy1waCcsICc3LjAnLCAnLXRuJywgJzgnLCAnLW1hJywgJzIwMCcsICctaW1hZScsICc8aW5maWxlLm1hZT4nLCAnLW9tYWUnLCAnPG91dGZpbGUubWFlPic=

>  <r_lp_tautomer_probability>  (201) 
0.99995

>  <r_epik_Ionization_Penalty>  (201) 
2.12704

>  <r_epik_Ionization_Penalty_Charging>  (201) 
1.51181

>  <r_epik_Ionization_Penalty_Neutral>  (201) 
0.615233

>  <r_epik_State_Penalty>  (201) 
2.19351

>  <r_epik_Charging_Adjusted_Penalty>  (201) 
3.70532

>  <i_epik_Tot_Q>  (201) 
-1

>  <i_epik_Tot_abs_Q>  (201) 
1

>  <s_lp_Force_Field>  (201) 
OPLS3e

>  <r_lp_Energy>  (201) 
13.6925

>  <b_lp_Chiralities_Consistent>  (201) 
1

>  <s_lp_Variant>  (201) 
48:0-4

>  <s_i_glide_gridfile>  (201) 
pfpi4k_grid

>  <i_i_glide_lignum>  (201) 
5

>  <i_i_glide_rotatable_bonds>  (201) 
1

>  <r_i_docking_score>  (201) 
-4.30297

>  <r_i_glide_ligand_efficiency>  (201) 
-0.226472

>  <r_i_glide_ligand_efficiency_sa>  (201) 
-0.604319

>  <r_i_glide_ligand_efficiency_ln>  (201) 
-1.0909

>  <r_i_glide_gscore>  (201) 
-4.30297

>  <r_i_glide_lipo>  (201) 
-0.0516434

>  <r_i_glide_hbond>  (201) 
-0.36

>  <r_i_glide_metal>  (201) 
-0

>  <r_i_glide_rewards>  (201) 
-1.74479

>  <r_i_glide_evdw>  (201) 
-18.2038

>  <r_i_glide_ecoul>  (201) 
-9.34121

>  <r_i_glide_erotb>  (201) 
0.268325

>  <r_i_glide_esite>  (201) 
-0.103496

>  <r_i_glide_emodel>  (201) 
-37.7104

>  <r_i_glide_energy>  (201) 
-27.545

>  <r_i_glide_einternal>  (201) 
3.01926

>  <r_i_glide_intrahb_reward>  (201) 
-0

>  <i_i_glide_confnum>  (201) 
3

>  <i_i_glide_posenum>  (201) 
9

>  <r_i_glide_eff_state_penalty>  (201) 
0

>  <ligand_id>  (201) 
48

>  <original_smiles>  (201) 
CC1(C)C=C(c2nc3cc(O)cnc3[nH]2)CC(=O)C1

>  <smiles>  (201) 
[H]C1=C(c2nc3nc([H])c([O-])c([H])c3n2[H])C([H])([H])C(=O)C([H])([H])C1(C([H])([H])[H])C([H])([H])[H]

$$$$
48:3:1
     RDKit          3D

 33 35  0  0  1  0  0  0  0  0999 V2000
   -0.5833   -1.4577    5.7082 C   0  0  0  0  0  0  0  0  0  0  0  0
   -0.0970   -0.1625    5.0295 C   0  0  0  0  0  0  0  0  0  0  0  0
    0.3030    0.8437    6.1238 C   0  0  0  0  0  0  0  0  0  0  0  0
    1.1303   -0.4678    4.1802 C   0  0  0  0  0  0  0  0  0  0  0  0
    1.3260   -0.0588    2.9073 C   0  0  0  0  0  0  0  0  0  0  0  0
    2.5590   -0.4034    2.2216 C   0  0  0  0  0  0  0  0  0  0  0  0
    2.6212   -0.6725    0.8812 N   0  0  0  0  0  0  0  0  0  0  0  0
    3.9056   -0.9765    0.5727 C   0  0  0  0  0  0  0  0  0  0  0  0
    4.5794   -1.3434   -0.5946 C   0  0  0  0  0  0  0  0  0  0  0  0
    5.9572   -1.5950   -0.4884 C   0  0  0  0  0  0  0  0  0  0  0  0
    6.6631   -1.9755   -1.5833 O   0  0  0  0  0  0  0  0  0  0  0  0
    6.5755   -1.4571    0.7771 C   0  0  0  0  0  0  0  0  0  0  0  0
    5.9296   -1.1106    1.9147 N   0  0  0  0  0  0  0  0  0  0  0  0
    4.6162   -0.8830    1.7991 C   0  0  0  0  0  0  0  0  0  0  0  0
    3.7509   -0.5440    2.8268 N   0  0  0  0  0  0  0  0  0  0  0  0
    0.3345    0.8239    2.1618 C   0  0  0  0  0  0  0  0  0  0  0  0
   -0.7566    1.3670    3.0808 C   0  0  0  0  0  0  0  0  0  0  0  0
   -1.2537    2.4813    2.9363 O   0  0  0  0  0  0  0  0  0  0  0  0
   -1.2446    0.4127    4.1643 C   0  0  0  0  0  0  0  0  0  0  0  0
   -1.4272   -1.2482    6.3631 H   0  0  0  0  0  0  0  0  0  0  0  0
    0.2060   -1.8990    6.3197 H   0  0  0  0  0  0  0  0  0  0  0  0
   -0.8999   -2.2062    4.9790 H   0  0  0  0  0  0  0  0  0  0  0  0
   -0.5443    1.0678    6.7747 H   0  0  0  0  0  0  0  0  0  0  0  0
    0.6571    1.7825    5.6946 H   0  0  0  0  0  0  0  0  0  0  0  0
    1.1049    0.4441    6.7478 H   0  0  0  0  0  0  0  0  0  0  0  0
    1.8856   -1.0745    4.6556 H   0  0  0  0  0  0  0  0  0  0  0  0
    4.0590   -1.4364   -1.5367 H   0  0  0  0  0  0  0  0  0  0  0  0
    7.6288   -1.6330    0.8825 H   0  0  0  0  0  0  0  0  0  0  0  0
    0.8782    1.6678    1.7376 H   0  0  0  0  0  0  0  0  0  0  0  0
   -0.0957    0.2648    1.3303 H   0  0  0  0  0  0  0  0  0  0  0  0
   -1.7812   -0.3928    3.6666 H   0  0  0  0  0  0  0  0  0  0  0  0
   -1.9774    0.9262    4.7813 H   0  0  0  0  0  0  0  0  0  0  0  0
    1.8186   -0.6732    0.2185 H   0  0  0  0  0  0  0  0  0  0  0  0
  1  2  1  0
  1 20  1  0
  1 21  1  0
  1 22  1  0
  2 19  1  0
  2  3  1  0
  2  4  1  0
  3 23  1  0
  3 24  1  0
  3 25  1  0
  4  5  2  0
  4 26  1  0
  5  6  1  0
  5 16  1  0
  6 15  2  0
  6  7  1  0
  7  8  1  0
  7 33  1  0
  8 14  2  0
  8  9  1  0
  9 10  2  0
  9 27  1  0
 10 11  1  0
 10 12  1  0
 12 13  2  0
 12 28  1  0
 13 14  1  0
 14 15  1  0
 16 17  1  0
 16 29  1  0
 16 30  1  0
 17 18  2  0
 17 19  1  0
 19 31  1  0
 19 32  1  0
M  CHG  1  11  -1
M  END
>  <i_m_ct_stereo_status>  (202) 
1

>  <s_m_source_file>  (202) 
/var/tmp/pbs.5102264.sched01/tmp148in4kv/69urs0mf0h.sdf

>  <i_m_source_file_index>  (202) 
5

>  <i_lp_mmshare_version>  (202) 
48012

>  <i_f3d_flags>  (202) 
0

>  <s_epik_input>  (202) 
W0NIM11DMShbQ0gzXSlbQ0hdPUMoW0NIMl1DKD1PKVtDSDJdMSljKG4yKVtuSF1jKGMyMyluW2NIXWMoW2NIXTMpW09IXQ==

>  <s_epik_cmdline>  (202) 
J2VwaWtfcHl0aG9uJywgJy1waHQnLCAnMi4wJywgJy1waCcsICc3LjAnLCAnLXRuJywgJzgnLCAnLW1hJywgJzIwMCcsICctaW1hZScsICc8aW5maWxlLm1hZT4nLCAnLW9tYWUnLCAnPG91dGZpbGUubWFlPic=

>  <r_lp_tautomer_probability>  (202) 
0.99995

>  <r_epik_Ionization_Penalty>  (202) 
2.12704

>  <r_epik_Ionization_Penalty_Charging>  (202) 
1.51181

>  <r_epik_Ionization_Penalty_Neutral>  (202) 
0.615233

>  <r_epik_State_Penalty>  (202) 
2.19351

>  <r_epik_Charging_Adjusted_Penalty>  (202) 
3.70532

>  <i_epik_Tot_Q>  (202) 
-1

>  <i_epik_Tot_abs_Q>  (202) 
1

>  <s_lp_Force_Field>  (202) 
OPLS3e

>  <r_lp_Energy>  (202) 
13.6925

>  <b_lp_Chiralities_Consistent>  (202) 
1

>  <s_lp_Variant>  (202) 
48:0-4

>  <s_i_glide_gridfile>  (202) 
pfpi4k_grid

>  <i_i_glide_lignum>  (202) 
5

>  <i_i_glide_rotatable_bonds>  (202) 
1

>  <r_i_docking_score>  (202) 
-4.12642

>  <r_i_glide_ligand_efficiency>  (202) 
-0.21718

>  <r_i_glide_ligand_efficiency_sa>  (202) 
-0.579523

>  <r_i_glide_ligand_efficiency_ln>  (202) 
-1.04614

>  <r_i_glide_gscore>  (202) 
-4.12642

>  <r_i_glide_lipo>  (202) 
-0.0334706

>  <r_i_glide_hbond>  (202) 
-0.354813

>  <r_i_glide_metal>  (202) 
-0

>  <r_i_glide_rewards>  (202) 
-1.77459

>  <r_i_glide_evdw>  (202) 
-18.9918

>  <r_i_glide_ecoul>  (202) 
-7.66792

>  <r_i_glide_erotb>  (202) 
0.268325

>  <r_i_glide_esite>  (202) 
-0.132089

>  <r_i_glide_emodel>  (202) 
-37.2986

>  <r_i_glide_energy>  (202) 
-26.6597

>  <r_i_glide_einternal>  (202) 
1.19412

>  <r_i_glide_intrahb_reward>  (202) 
-0

>  <i_i_glide_confnum>  (202) 
6

>  <i_i_glide_posenum>  (202) 
18

>  <r_i_glide_eff_state_penalty>  (202) 
0

>  <ligand_id>  (202) 
48

>  <original_smiles>  (202) 
CC1(C)C=C(c2nc3cc(O)cnc3[nH]2)CC(=O)C1

>  <smiles>  (202) 
[H]C1=C(c2nc3nc([H])c([O-])c([H])c3n2[H])C([H])([H])C(=O)C([H])([H])C1(C([H])([H])[H])C([H])([H])[H]

$$$$
48:3:2
     RDKit          3D

 33 35  0  0  1  0  0  0  0  0999 V2000
   -1.4828   -1.0059    5.4414 C   0  0  0  0  0  0  0  0  0  0  0  0
   -0.6699    0.2712    5.1732 C   0  0  0  0  0  0  0  0  0  0  0  0
   -0.2266    0.8557    6.5228 C   0  0  0  0  0  0  0  0  0  0  0  0
    0.5727   -0.0839    4.3633 C   0  0  0  0  0  0  0  0  0  0  0  0
    0.9978    0.5731    3.2639 C   0  0  0  0  0  0  0  0  0  0  0  0
    2.2046    0.1315    2.5953 C   0  0  0  0  0  0  0  0  0  0  0  0
    2.2485   -0.2391    1.2799 N   0  0  0  0  0  0  0  0  0  0  0  0
    3.5309   -0.5901    0.9808 C   0  0  0  0  0  0  0  0  0  0  0  0
    4.1862   -1.0545   -0.1755 C   0  0  0  0  0  0  0  0  0  0  0  0
    5.5624   -1.3195   -0.0767 C   0  0  0  0  0  0  0  0  0  0  0  0
    6.2581   -1.7770   -1.1544 O   0  0  0  0  0  0  0  0  0  0  0  0
    6.1899   -1.1033    1.1688 C   0  0  0  0  0  0  0  0  0  0  0  0
    5.5622   -0.6655    2.2928 N   0  0  0  0  0  0  0  0  0  0  0  0
    4.2511   -0.4191    2.1824 C   0  0  0  0  0  0  0  0  0  0  0  0
    3.3998    0.0171    3.1905 N   0  0  0  0  0  0  0  0  0  0  0  0
    0.3054    1.8128    2.7108 C   0  0  0  0  0  0  0  0  0  0  0  0
   -0.7640    2.3430    3.6634 C   0  0  0  0  0  0  0  0  0  0  0  0
   -1.0013    3.5425    3.7966 O   0  0  0  0  0  0  0  0  0  0  0  0
   -1.5618    1.2853    4.4159 C   0  0  0  0  0  0  0  0  0  0  0  0
   -2.3537   -0.7878    6.0589 H   0  0  0  0  0  0  0  0  0  0  0  0
   -0.8837   -1.7547    5.9621 H   0  0  0  0  0  0  0  0  0  0  0  0
   -1.8393   -1.4554    4.5147 H   0  0  0  0  0  0  0  0  0  0  0  0
   -1.0889    1.0964    7.1458 H   0  0  0  0  0  0  0  0  0  0  0  0
    0.3544    1.7694    6.3900 H   0  0  0  0  0  0  0  0  0  0  0  0
    0.3952    0.1456    7.0703 H   0  0  0  0  0  0  0  0  0  0  0  0
    1.1342   -0.9445    4.7046 H   0  0  0  0  0  0  0  0  0  0  0  0
    3.6417   -1.1986   -1.0942 H   0  0  0  0  0  0  0  0  0  0  0  0
    7.2467   -1.2854    1.2830 H   0  0  0  0  0  0  0  0  0  0  0  0
    1.0551    2.5907    2.5678 H   0  0  0  0  0  0  0  0  0  0  0  0
   -0.1179    1.5829    1.7336 H   0  0  0  0  0  0  0  0  0  0  0  0
   -2.1765    0.7709    3.6799 H   0  0  0  0  0  0  0  0  0  0  0  0
   -2.2503    1.7768    5.0969 H   0  0  0  0  0  0  0  0  0  0  0  0
    1.4792   -0.2785    0.6045 H   0  0  0  0  0  0  0  0  0  0  0  0
  1  2  1  0
  1 20  1  0
  1 21  1  0
  1 22  1  0
  2 19  1  0
  2  3  1  0
  2  4  1  0
  3 23  1  0
  3 24  1  0
  3 25  1  0
  4  5  2  0
  4 26  1  0
  5  6  1  0
  5 16  1  0
  6 15  2  0
  6  7  1  0
  7  8  1  0
  7 33  1  0
  8 14  2  0
  8  9  1  0
  9 10  2  0
  9 27  1  0
 10 11  1  0
 10 12  1  0
 12 13  2  0
 12 28  1  0
 13 14  1  0
 14 15  1  0
 16 17  1  0
 16 29  1  0
 16 30  1  0
 17 18  2  0
 17 19  1  0
 19 31  1  0
 19 32  1  0
M  CHG  1  11  -1
M  END
>  <i_m_ct_stereo_status>  (203) 
1

>  <s_m_source_file>  (203) 
/var/tmp/pbs.5102264.sched01/tmp148in4kv/69urs0mf0h.sdf

>  <i_m_source_file_index>  (203) 
5

>  <i_lp_mmshare_version>  (203) 
48012

>  <i_f3d_flags>  (203) 
0

>  <s_epik_input>  (203) 
W0NIM11DMShbQ0gzXSlbQ0hdPUMoW0NIMl1DKD1PKVtDSDJdMSljKG4yKVtuSF1jKGMyMyluW2NIXWMoW2NIXTMpW09IXQ==

>  <s_epik_cmdline>  (203) 
J2VwaWtfcHl0aG9uJywgJy1waHQnLCAnMi4wJywgJy1waCcsICc3LjAnLCAnLXRuJywgJzgnLCAnLW1hJywgJzIwMCcsICctaW1hZScsICc8aW5maWxlLm1hZT4nLCAnLW9tYWUnLCAnPG91dGZpbGUubWFlPic=

>  <r_lp_tautomer_probability>  (203) 
0.99995

>  <r_epik_Ionization_Penalty>  (203) 
2.12704

>  <r_epik_Ionization_Penalty_Charging>  (203) 
1.51181

>  <r_epik_Ionization_Penalty_Neutral>  (203) 
0.615233

>  <r_epik_State_Penalty>  (203) 
2.19351

>  <r_epik_Charging_Adjusted_Penalty>  (203) 
3.70532

>  <i_epik_Tot_Q>  (203) 
-1

>  <i_epik_Tot_abs_Q>  (203) 
1

>  <s_lp_Force_Field>  (203) 
OPLS3e

>  <r_lp_Energy>  (203) 
13.6925

>  <b_lp_Chiralities_Consistent>  (203) 
1

>  <s_lp_Variant>  (203) 
48:0-4

>  <s_i_glide_gridfile>  (203) 
pfpi4k_grid

>  <i_i_glide_lignum>  (203) 
5

>  <i_i_glide_rotatable_bonds>  (203) 
1

>  <r_i_docking_score>  (203) 
-4.04152

>  <r_i_glide_ligand_efficiency>  (203) 
-0.212711

>  <r_i_glide_ligand_efficiency_sa>  (203) 
-0.567599

>  <r_i_glide_ligand_efficiency_ln>  (203) 
-1.02461

>  <r_i_glide_gscore>  (203) 
-4.04152

>  <r_i_glide_lipo>  (203) 
-0.131661

>  <r_i_glide_hbond>  (203) 
-0.340547

>  <r_i_glide_metal>  (203) 
-0

>  <r_i_glide_rewards>  (203) 
-1.76587

>  <r_i_glide_evdw>  (203) 
-20.8617

>  <r_i_glide_ecoul>  (203) 
-5.93185

>  <r_i_glide_erotb>  (203) 
0.268325

>  <r_i_glide_esite>  (203) 
-0.138901

>  <r_i_glide_emodel>  (203) 
-36.3396

>  <r_i_glide_energy>  (203) 
-26.7936

>  <r_i_glide_einternal>  (203) 
2.90403

>  <r_i_glide_intrahb_reward>  (203) 
-0

>  <i_i_glide_confnum>  (203) 
2

>  <i_i_glide_posenum>  (203) 
38

>  <r_i_glide_eff_state_penalty>  (203) 
0

>  <ligand_id>  (203) 
48

>  <original_smiles>  (203) 
CC1(C)C=C(c2nc3cc(O)cnc3[nH]2)CC(=O)C1

>  <smiles>  (203) 
[H]C1=C(c2nc3nc([H])c([O-])c([H])c3n2[H])C([H])([H])C(=O)C([H])([H])C1(C([H])([H])[H])C([H])([H])[H]

$$$$
48:4:0
     RDKit          3D

 34 36  0  0  1  0  0  0  0  0999 V2000
   -0.7399   -1.5593    5.5294 C   0  0  0  0  0  0  0  0  0  0  0  0
   -0.1847   -0.2404    4.9588 C   0  0  0  0  0  0  0  0  0  0  0  0
    0.2122    0.6655    6.1370 C   0  0  0  0  0  0  0  0  0  0  0  0
    1.0609   -0.5312    4.1258 C   0  0  0  0  0  0  0  0  0  0  0  0
    1.3151   -0.0399    2.8933 C   0  0  0  0  0  0  0  0  0  0  0  0
    2.5563   -0.3801    2.2177 C   0  0  0  0  0  0  0  0  0  0  0  0
    2.6144   -0.6547    0.8799 N   0  0  0  0  0  0  0  0  0  0  0  0
    3.9025   -0.9649    0.5714 C   0  0  0  0  0  0  0  0  0  0  0  0
    4.5807   -1.3489   -0.5964 C   0  0  0  0  0  0  0  0  0  0  0  0
    5.9599   -1.5948   -0.4939 C   0  0  0  0  0  0  0  0  0  0  0  0
    6.6501   -1.9730   -1.5967 O   0  0  0  0  0  0  0  0  0  0  0  0
    6.6171   -1.4484    0.7526 C   0  0  0  0  0  0  0  0  0  0  0  0
    5.9171   -1.0813    1.8547 N   0  0  0  0  0  0  0  0  0  0  0  0
    4.6133   -0.8539    1.7938 C   0  0  0  0  0  0  0  0  0  0  0  0
    3.7536   -0.5083    2.8238 N   0  0  0  0  0  0  0  0  0  0  0  0
    0.3739    0.9334    2.1878 C   0  0  0  0  0  0  0  0  0  0  0  0
   -0.7282    1.4493    3.1133 C   0  0  0  0  0  0  0  0  0  0  0  0
   -1.1792    2.5896    3.0432 O   0  0  0  0  0  0  0  0  0  0  0  0
   -1.2821    0.4400    4.1081 C   0  0  0  0  0  0  0  0  0  0  0  0
   -1.6012   -1.3685    6.1690 H   0  0  0  0  0  0  0  0  0  0  0  0
    0.0128   -2.0716    6.1318 H   0  0  0  0  0  0  0  0  0  0  0  0
   -1.0536   -2.2473    4.7426 H   0  0  0  0  0  0  0  0  0  0  0  0
   -0.6496    0.8749    6.7745 H   0  0  0  0  0  0  0  0  0  0  0  0
    0.6142    1.6184    5.7884 H   0  0  0  0  0  0  0  0  0  0  0  0
    0.9758    0.1853    6.7529 H   0  0  0  0  0  0  0  0  0  0  0  0
    1.7729   -1.2032    4.5795 H   0  0  0  0  0  0  0  0  0  0  0  0
    4.0554   -1.4473   -1.5330 H   0  0  0  0  0  0  0  0  0  0  0  0
    7.6742   -1.6071    0.8794 H   0  0  0  0  0  0  0  0  0  0  0  0
    0.9539    1.7887    1.8412 H   0  0  0  0  0  0  0  0  0  0  0  0
   -0.0551    0.4554    1.3057 H   0  0  0  0  0  0  0  0  0  0  0  0
   -1.8274   -0.3022    3.5319 H   0  0  0  0  0  0  0  0  0  0  0  0
   -2.0196    0.9302    4.7400 H   0  0  0  0  0  0  0  0  0  0  0  0
    1.8093   -0.6677    0.2215 H   0  0  0  0  0  0  0  0  0  0  0  0
    6.3819   -0.9731    2.7549 H   0  0  0  0  0  0  0  0  0  0  0  0
  1  2  1  0
  1 20  1  0
  1 21  1  0
  1 22  1  0
  2 19  1  0
  2  3  1  0
  2  4  1  0
  3 23  1  0
  3 24  1  0
  3 25  1  0
  4  5  2  0
  4 26  1  0
  5  6  1  0
  5 16  1  0
  6 15  2  0
  6  7  1  0
  7  8  1  0
  7 33  1  0
  8 14  2  0
  8  9  1  0
  9 10  2  0
  9 27  1  0
 10 11  1  0
 10 12  1  0
 12 13  2  0
 12 28  1  0
 13 14  1  0
 13 34  1  0
 14 15  1  0
 16 17  1  0
 16 29  1  0
 16 30  1  0
 17 18  2  0
 17 19  1  0
 19 31  1  0
 19 32  1  0
M  CHG  2  11  -1  13   1
M  END
>  <i_m_ct_stereo_status>  (204) 
1

>  <s_m_source_file>  (204) 
/var/tmp/pbs.5102264.sched01/tmp148in4kv/69urs0mf0h.sdf

>  <i_m_source_file_index>  (204) 
6

>  <i_lp_mmshare_version>  (204) 
48012

>  <i_f3d_flags>  (204) 
0

>  <s_epik_input>  (204) 
W0NIM11DMShbQ0gzXSlbQ0hdPUMoW0NIMl1DKD1PKVtDSDJdMSljKG4yKVtuSF1jKGMyMyluW2NIXWMoW2NIXTMpW09IXQ==

>  <s_epik_cmdline>  (204) 
J2VwaWtfcHl0aG9uJywgJy1waHQnLCAnMi4wJywgJy1waCcsICc3LjAnLCAnLXRuJywgJzgnLCAnLW1hJywgJzIwMCcsICctaW1hZScsICc8aW5maWxlLm1hZT4nLCAnLW9tYWUnLCAnPG91dGZpbGUubWFlPic=

>  <r_epik_Ionization_Penalty>  (204) 
0.382765

>  <r_epik_Ionization_Penalty_Charging>  (204) 
0.376329

>  <r_epik_Ionization_Penalty_Neutral>  (204) 
0.00643613

>  <r_epik_State_Penalty>  (204) 
2.47073

>  <r_epik_Charging_Adjusted_Penalty>  (204) 
2.84706

>  <i_epik_Tot_Q>  (204) 
0

>  <i_epik_Tot_abs_Q>  (204) 
2

>  <s_lp_Force_Field>  (204) 
OPLS3e

>  <r_lp_Energy>  (204) 
8.76172

>  <b_lp_Chiralities_Consistent>  (204) 
1

>  <s_lp_Variant>  (204) 
48:0-5

>  <s_i_glide_gridfile>  (204) 
pfpi4k_grid

>  <i_i_glide_lignum>  (204) 
6

>  <i_i_glide_rotatable_bonds>  (204) 
1

>  <r_i_docking_score>  (204) 
-4.63529

>  <r_i_glide_ligand_efficiency>  (204) 
-0.243963

>  <r_i_glide_ligand_efficiency_sa>  (204) 
-0.65099

>  <r_i_glide_ligand_efficiency_ln>  (204) 
-1.17515

>  <r_i_glide_gscore>  (204) 
-4.63529

>  <r_i_glide_lipo>  (204) 
-0.0203682

>  <r_i_glide_hbond>  (204) 
-0.353327

>  <r_i_glide_metal>  (204) 
-0

>  <r_i_glide_rewards>  (204) 
-2.07094

>  <r_i_glide_evdw>  (204) 
-17.2128

>  <r_i_glide_ecoul>  (204) 
-9.76492

>  <r_i_glide_erotb>  (204) 
0.266519

>  <r_i_glide_esite>  (204) 
-0.131802

>  <r_i_glide_emodel>  (204) 
-38.5105

>  <r_i_glide_energy>  (204) 
-26.9777

>  <r_i_glide_einternal>  (204) 
1.58555

>  <r_i_glide_intrahb_reward>  (204) 
-0

>  <i_i_glide_confnum>  (204) 
5

>  <i_i_glide_posenum>  (204) 
6

>  <r_i_glide_eff_state_penalty>  (204) 
0

>  <ligand_id>  (204) 
48

>  <original_smiles>  (204) 
CC1(C)C=C(c2nc3cc(O)cnc3[nH]2)CC(=O)C1

>  <smiles>  (204) 
[H]C1=C(c2nc3c(c([H])c([O-])c([H])[n+]3[H])n2[H])C([H])([H])C(=O)C([H])([H])C1(C([H])([H])[H])C([H])([H])[H]

$$$$
48:4:1
     RDKit          3D

 34 36  0  0  1  0  0  0  0  0999 V2000
   -0.2118    2.5879    4.9678 C   0  0  0  0  0  0  0  0  0  0  0  0
   -0.6060    1.5596    3.8951 C   0  0  0  0  0  0  0  0  0  0  0  0
   -1.5132    2.2634    2.8789 C   0  0  0  0  0  0  0  0  0  0  0  0
    0.6632    1.0829    3.1977 C   0  0  0  0  0  0  0  0  0  0  0  0
    1.2389   -0.1237    3.3764 C   0  0  0  0  0  0  0  0  0  0  0  0
    2.4380   -0.4458    2.6243 C   0  0  0  0  0  0  0  0  0  0  0  0
    2.4703   -0.6947    1.2776 N   0  0  0  0  0  0  0  0  0  0  0  0
    3.7616   -0.9903    0.9285 C   0  0  0  0  0  0  0  0  0  0  0  0
    4.4297   -1.3268   -0.2660 C   0  0  0  0  0  0  0  0  0  0  0  0
    5.8244   -1.5492   -0.1982 C   0  0  0  0  0  0  0  0  0  0  0  0
    6.5327   -1.8568   -1.3253 O   0  0  0  0  0  0  0  0  0  0  0  0
    6.4860   -1.4512    1.0485 C   0  0  0  0  0  0  0  0  0  0  0  0
    5.7929   -1.1335    2.1666 N   0  0  0  0  0  0  0  0  0  0  0  0
    4.4845   -0.9100    2.1376 C   0  0  0  0  0  0  0  0  0  0  0  0
    3.6417   -0.5864    3.1920 N   0  0  0  0  0  0  0  0  0  0  0  0
    0.6416   -1.2050    4.2729 C   0  0  0  0  0  0  0  0  0  0  0  0
   -0.4650   -0.6529    5.1681 C   0  0  0  0  0  0  0  0  0  0  0  0
   -0.6455   -1.0569    6.3162 O   0  0  0  0  0  0  0  0  0  0  0  0
   -1.3826    0.3821    4.5315 C   0  0  0  0  0  0  0  0  0  0  0  0
   -1.0968    3.0044    5.4482 H   0  0  0  0  0  0  0  0  0  0  0  0
    0.3438    3.4190    4.5303 H   0  0  0  0  0  0  0  0  0  0  0  0
    0.4127    2.1465    5.7441 H   0  0  0  0  0  0  0  0  0  0  0  0
   -2.4177    2.6500    3.3488 H   0  0  0  0  0  0  0  0  0  0  0  0
   -1.8153    1.5919    2.0742 H   0  0  0  0  0  0  0  0  0  0  0  0
   -0.9985    3.1093    2.4242 H   0  0  0  0  0  0  0  0  0  0  0  0
    1.1299    1.7893    2.5233 H   0  0  0  0  0  0  0  0  0  0  0  0
    3.8839   -1.3986   -1.1932 H   0  0  0  0  0  0  0  0  0  0  0  0
    7.5411   -1.6124    1.1633 H   0  0  0  0  0  0  0  0  0  0  0  0
    0.2617   -2.0236    3.6581 H   0  0  0  0  0  0  0  0  0  0  0  0
    1.4339   -1.6062    4.9042 H   0  0  0  0  0  0  0  0  0  0  0  0
   -2.0865    0.7538    5.2736 H   0  0  0  0  0  0  0  0  0  0  0  0
   -1.9720   -0.1312    3.7742 H   0  0  0  0  0  0  0  0  0  0  0  0
    1.6847   -0.6703    0.6127 H   0  0  0  0  0  0  0  0  0  0  0  0
    6.2721   -1.0542    3.0598 H   0  0  0  0  0  0  0  0  0  0  0  0
  1  2  1  0
  1 20  1  0
  1 21  1  0
  1 22  1  0
  2 19  1  0
  2  3  1  0
  2  4  1  0
  3 23  1  0
  3 24  1  0
  3 25  1  0
  4  5  2  0
  4 26  1  0
  5  6  1  0
  5 16  1  0
  6 15  2  0
  6  7  1  0
  7  8  1  0
  7 33  1  0
  8 14  2  0
  8  9  1  0
  9 10  2  0
  9 27  1  0
 10 11  1  0
 10 12  1  0
 12 13  2  0
 12 28  1  0
 13 14  1  0
 13 34  1  0
 14 15  1  0
 16 17  1  0
 16 29  1  0
 16 30  1  0
 17 18  2  0
 17 19  1  0
 19 31  1  0
 19 32  1  0
M  CHG  2  11  -1  13   1
M  END
>  <i_m_ct_stereo_status>  (205) 
1

>  <s_m_source_file>  (205) 
/var/tmp/pbs.5102264.sched01/tmp148in4kv/69urs0mf0h.sdf

>  <i_m_source_file_index>  (205) 
6

>  <i_lp_mmshare_version>  (205) 
48012

>  <i_f3d_flags>  (205) 
0

>  <s_epik_input>  (205) 
W0NIM11DMShbQ0gzXSlbQ0hdPUMoW0NIMl1DKD1PKVtDSDJdMSljKG4yKVtuSF1jKGMyMyluW2NIXWMoW2NIXTMpW09IXQ==

>  <s_epik_cmdline>  (205) 
J2VwaWtfcHl0aG9uJywgJy1waHQnLCAnMi4wJywgJy1waCcsICc3LjAnLCAnLXRuJywgJzgnLCAnLW1hJywgJzIwMCcsICctaW1hZScsICc8aW5maWxlLm1hZT4nLCAnLW9tYWUnLCAnPG91dGZpbGUubWFlPic=

>  <r_epik_Ionization_Penalty>  (205) 
0.382765

>  <r_epik_Ionization_Penalty_Charging>  (205) 
0.376329

>  <r_epik_Ionization_Penalty_Neutral>  (205) 
0.00643613

>  <r_epik_State_Penalty>  (205) 
2.47073

>  <r_epik_Charging_Adjusted_Penalty>  (205) 
2.84706

>  <i_epik_Tot_Q>  (205) 
0

>  <i_epik_Tot_abs_Q>  (205) 
2

>  <s_lp_Force_Field>  (205) 
OPLS3e

>  <r_lp_Energy>  (205) 
8.76172

>  <b_lp_Chiralities_Consistent>  (205) 
1

>  <s_lp_Variant>  (205) 
48:0-5

>  <s_i_glide_gridfile>  (205) 
pfpi4k_grid

>  <i_i_glide_lignum>  (205) 
6

>  <i_i_glide_rotatable_bonds>  (205) 
1

>  <r_i_docking_score>  (205) 
-4.44616

>  <r_i_glide_ligand_efficiency>  (205) 
-0.234009

>  <r_i_glide_ligand_efficiency_sa>  (205) 
-0.624429

>  <r_i_glide_ligand_efficiency_ln>  (205) 
-1.1272

>  <r_i_glide_gscore>  (205) 
-4.44616

>  <r_i_glide_lipo>  (205) 
-0.0832847

>  <r_i_glide_hbond>  (205) 
-0.36

>  <r_i_glide_metal>  (205) 
-0

>  <r_i_glide_rewards>  (205) 
-1.74328

>  <r_i_glide_evdw>  (205) 
-17.9911

>  <r_i_glide_ecoul>  (205) 
-10.0843

>  <r_i_glide_erotb>  (205) 
0.266519

>  <r_i_glide_esite>  (205) 
-0.113925

>  <r_i_glide_emodel>  (205) 
-38.1494

>  <r_i_glide_energy>  (205) 
-28.0754

>  <r_i_glide_einternal>  (205) 
3.52756

>  <r_i_glide_intrahb_reward>  (205) 
-0

>  <i_i_glide_confnum>  (205) 
3

>  <i_i_glide_posenum>  (205) 
9

>  <r_i_glide_eff_state_penalty>  (205) 
0

>  <ligand_id>  (205) 
48

>  <original_smiles>  (205) 
CC1(C)C=C(c2nc3cc(O)cnc3[nH]2)CC(=O)C1

>  <smiles>  (205) 
[H]C1=C(c2nc3c(c([H])c([O-])c([H])[n+]3[H])n2[H])C([H])([H])C(=O)C([H])([H])C1(C([H])([H])[H])C([H])([H])[H]

$$$$
48:4:2
     RDKit          3D

 34 36  0  0  1  0  0  0  0  0999 V2000
   -0.5778   -0.1835    6.4833 C   0  0  0  0  0  0  0  0  0  0  0  0
   -0.2587    0.9198    5.4663 C   0  0  0  0  0  0  0  0  0  0  0  0
    0.1178    2.1948    6.2400 C   0  0  0  0  0  0  0  0  0  0  0  0
    0.9374    0.4948    4.6240 C   0  0  0  0  0  0  0  0  0  0  0  0
    1.0208    0.5950    3.2815 C   0  0  0  0  0  0  0  0  0  0  0  0
    2.2291    0.1672    2.5928 C   0  0  0  0  0  0  0  0  0  0  0  0
    2.2510   -0.2321    1.2796 N   0  0  0  0  0  0  0  0  0  0  0  0
    3.5238   -0.5869    0.9574 C   0  0  0  0  0  0  0  0  0  0  0  0
    4.1681   -1.0605   -0.1990 C   0  0  0  0  0  0  0  0  0  0  0  0
    5.5519   -1.3266   -0.1240 C   0  0  0  0  0  0  0  0  0  0  0  0
    6.2172   -1.7789   -1.2213 O   0  0  0  0  0  0  0  0  0  0  0  0
    6.2303   -1.1122    1.1003 C   0  0  0  0  0  0  0  0  0  0  0  0
    5.5611   -0.6599    2.1907 N   0  0  0  0  0  0  0  0  0  0  0  0
    4.2603   -0.4019    2.1465 C   0  0  0  0  0  0  0  0  0  0  0  0
    3.4406    0.0547    3.1670 N   0  0  0  0  0  0  0  0  0  0  0  0
   -0.0993    1.1824    2.4265 C   0  0  0  0  0  0  0  0  0  0  0  0
   -1.1750    1.8605    3.2712 C   0  0  0  0  0  0  0  0  0  0  0  0
   -1.7761    2.8642    2.8984 O   0  0  0  0  0  0  0  0  0  0  0  0
   -1.5071    1.1698    4.5875 C   0  0  0  0  0  0  0  0  0  0  0  0
   -1.3858    0.1418    7.1384 H   0  0  0  0  0  0  0  0  0  0  0  0
    0.2832   -0.3981    7.1187 H   0  0  0  0  0  0  0  0  0  0  0  0
   -0.8740   -1.1159    5.9991 H   0  0  0  0  0  0  0  0  0  0  0  0
   -0.7013    2.5161    6.8861 H   0  0  0  0  0  0  0  0  0  0  0  0
    0.3565    3.0199    5.5675 H   0  0  0  0  0  0  0  0  0  0  0  0
    0.9888    2.0240    6.8754 H   0  0  0  0  0  0  0  0  0  0  0  0
    1.7677    0.0818    5.1816 H   0  0  0  0  0  0  0  0  0  0  0  0
    3.6106   -1.2085   -1.1145 H   0  0  0  0  0  0  0  0  0  0  0  0
    7.2880   -1.2806    1.2328 H   0  0  0  0  0  0  0  0  0  0  0  0
    0.3318    1.9266    1.7568 H   0  0  0  0  0  0  0  0  0  0  0  0
   -0.5327    0.3990    1.8052 H   0  0  0  0  0  0  0  0  0  0  0  0
   -1.9999    0.2291    4.3418 H   0  0  0  0  0  0  0  0  0  0  0  0
   -2.2362    1.7734    5.1247 H   0  0  0  0  0  0  0  0  0  0  0  0
    1.4649   -0.2825    0.6194 H   0  0  0  0  0  0  0  0  0  0  0  0
    6.0532   -0.5063    3.0687 H   0  0  0  0  0  0  0  0  0  0  0  0
  1  2  1  0
  1 20  1  0
  1 21  1  0
  1 22  1  0
  2 19  1  0
  2  3  1  0
  2  4  1  0
  3 23  1  0
  3 24  1  0
  3 25  1  0
  4  5  2  0
  4 26  1  0
  5  6  1  0
  5 16  1  0
  6 15  2  0
  6  7  1  0
  7  8  1  0
  7 33  1  0
  8 14  2  0
  8  9  1  0
  9 10  2  0
  9 27  1  0
 10 11  1  0
 10 12  1  0
 12 13  2  0
 12 28  1  0
 13 14  1  0
 13 34  1  0
 14 15  1  0
 16 17  1  0
 16 29  1  0
 16 30  1  0
 17 18  2  0
 17 19  1  0
 19 31  1  0
 19 32  1  0
M  CHG  2  11  -1  13   1
M  END
>  <i_m_ct_stereo_status>  (206) 
1

>  <s_m_source_file>  (206) 
/var/tmp/pbs.5102264.sched01/tmp148in4kv/69urs0mf0h.sdf

>  <i_m_source_file_index>  (206) 
6

>  <i_lp_mmshare_version>  (206) 
48012

>  <i_f3d_flags>  (206) 
0

>  <s_epik_input>  (206) 
W0NIM11DMShbQ0gzXSlbQ0hdPUMoW0NIMl1DKD1PKVtDSDJdMSljKG4yKVtuSF1jKGMyMyluW2NIXWMoW2NIXTMpW09IXQ==

>  <s_epik_cmdline>  (206) 
J2VwaWtfcHl0aG9uJywgJy1waHQnLCAnMi4wJywgJy1waCcsICc3LjAnLCAnLXRuJywgJzgnLCAnLW1hJywgJzIwMCcsICctaW1hZScsICc8aW5maWxlLm1hZT4nLCAnLW9tYWUnLCAnPG91dGZpbGUubWFlPic=

>  <r_epik_Ionization_Penalty>  (206) 
0.382765

>  <r_epik_Ionization_Penalty_Charging>  (206) 
0.376329

>  <r_epik_Ionization_Penalty_Neutral>  (206) 
0.00643613

>  <r_epik_State_Penalty>  (206) 
2.47073

>  <r_epik_Charging_Adjusted_Penalty>  (206) 
2.84706

>  <i_epik_Tot_Q>  (206) 
0

>  <i_epik_Tot_abs_Q>  (206) 
2

>  <s_lp_Force_Field>  (206) 
OPLS3e

>  <r_lp_Energy>  (206) 
8.76172

>  <b_lp_Chiralities_Consistent>  (206) 
1

>  <s_lp_Variant>  (206) 
48:0-5

>  <s_i_glide_gridfile>  (206) 
pfpi4k_grid

>  <i_i_glide_lignum>  (206) 
6

>  <i_i_glide_rotatable_bonds>  (206) 
1

>  <r_i_docking_score>  (206) 
-4.3821

>  <r_i_glide_ligand_efficiency>  (206) 
-0.230637

>  <r_i_glide_ligand_efficiency_sa>  (206) 
-0.615432

>  <r_i_glide_ligand_efficiency_ln>  (206) 
-1.11096

>  <r_i_glide_gscore>  (206) 
-4.3821

>  <r_i_glide_lipo>  (206) 
-0.120454

>  <r_i_glide_hbond>  (206) 
-0.337807

>  <r_i_glide_metal>  (206) 
-0

>  <r_i_glide_rewards>  (206) 
-2.06389

>  <r_i_glide_evdw>  (206) 
-18.7445

>  <r_i_glide_ecoul>  (206) 
-7.0453

>  <r_i_glide_erotb>  (206) 
0.266519

>  <r_i_glide_esite>  (206) 
-0.132449

>  <r_i_glide_emodel>  (206) 
-37.1889

>  <r_i_glide_energy>  (206) 
-25.7898

>  <r_i_glide_einternal>  (206) 
0.573697

>  <r_i_glide_intrahb_reward>  (206) 
-0

>  <i_i_glide_confnum>  (206) 
2

>  <i_i_glide_posenum>  (206) 
32

>  <r_i_glide_eff_state_penalty>  (206) 
0

>  <ligand_id>  (206) 
48

>  <original_smiles>  (206) 
CC1(C)C=C(c2nc3cc(O)cnc3[nH]2)CC(=O)C1

>  <smiles>  (206) 
[H]C1=C(c2nc3c(c([H])c([O-])c([H])[n+]3[H])n2[H])C([H])([H])C(=O)C([H])([H])C1(C([H])([H])[H])C([H])([H])[H]

$$$$
48:5:0
     RDKit          3D

 35 37  0  0  1  0  0  0  0  0999 V2000
    4.3170   -4.3338   -0.0892 C   0  0  0  0  0  0  0  0  0  0  0  0
    4.3587   -2.9572   -0.7775 C   0  0  0  0  0  0  0  0  0  0  0  0
    3.7397   -3.0834   -2.1799 C   0  0  0  0  0  0  0  0  0  0  0  0
    3.5247   -1.9902    0.0535 C   0  0  0  0  0  0  0  0  0  0  0  0
    4.0123   -1.0051    0.8426 C   0  0  0  0  0  0  0  0  0  0  0  0
    3.0997   -0.1287    1.5805 C   0  0  0  0  0  0  0  0  0  0  0  0
    1.7979    0.1420    1.2797 N   0  0  0  0  0  0  0  0  0  0  0  0
    1.2647    1.0146    2.2357 C   0  0  0  0  0  0  0  0  0  0  0  0
    0.0112    1.6164    2.4071 C   0  0  0  0  0  0  0  0  0  0  0  0
   -0.1441    2.4795    3.5298 C   0  0  0  0  0  0  0  0  0  0  0  0
   -1.3363    3.0959    3.7706 O   0  0  0  0  0  0  0  0  0  0  0  0
    0.9455    2.7075    4.3956 C   0  0  0  0  0  0  0  0  0  0  0  0
    2.1254    2.1080    4.1798 N   0  0  0  0  0  0  0  0  0  0  0  0
    2.3197    1.2716    3.1262 C   0  0  0  0  0  0  0  0  0  0  0  0
    3.4246    0.5475    2.7099 N   0  0  0  0  0  0  0  0  0  0  0  0
    5.5015   -0.7191    0.9600 C   0  0  0  0  0  0  0  0  0  0  0  0
    6.3415   -1.8383    0.3645 C   0  0  0  0  0  0  0  0  0  0  0  0
    7.4131   -2.1691    0.8513 O   0  0  0  0  0  0  0  0  0  0  0  0
    5.8161   -2.4650   -0.9178 C   0  0  0  0  0  0  0  0  0  0  0  0
    4.3391    0.5422    3.1419 H   0  0  0  0  0  0  0  0  0  0  0  0
    4.8520   -5.0766   -0.6784 H   0  0  0  0  0  0  0  0  0  0  0  0
    3.2909   -4.6852    0.0201 H   0  0  0  0  0  0  0  0  0  0  0  0
    4.7647   -4.3080    0.9054 H   0  0  0  0  0  0  0  0  0  0  0  0
    4.2941   -3.8085   -2.7751 H   0  0  0  0  0  0  0  0  0  0  0  0
    3.7321   -2.1336   -2.7160 H   0  0  0  0  0  0  0  0  0  0  0  0
    2.7116   -3.4421   -2.1221 H   0  0  0  0  0  0  0  0  0  0  0  0
    2.4614   -2.1513   -0.0023 H   0  0  0  0  0  0  0  0  0  0  0  0
   -0.7914    1.4248    1.7035 H   0  0  0  0  0  0  0  0  0  0  0  0
   -1.9583    2.9693    3.0710 H   0  0  0  0  0  0  0  0  0  0  0  0
    0.8791    3.3576    5.2583 H   0  0  0  0  0  0  0  0  0  0  0  0
    5.7348    0.2308    0.4804 H   0  0  0  0  0  0  0  0  0  0  0  0
    5.7650   -0.6330    2.0141 H   0  0  0  0  0  0  0  0  0  0  0  0
    6.4683   -3.2869   -1.2031 H   0  0  0  0  0  0  0  0  0  0  0  0
    5.8934   -1.7133   -1.7027 H   0  0  0  0  0  0  0  0  0  0  0  0
    1.3537   -0.2130    0.4009 H   0  0  0  0  0  0  0  0  0  0  0  0
  1  2  1  0
  1 21  1  0
  1 22  1  0
  1 23  1  0
  2 19  1  0
  2  3  1  0
  2  4  1  0
  3 24  1  0
  3 25  1  0
  3 26  1  0
  4  5  2  0
  4 27  1  0
  5  6  1  0
  5 16  1  0
  6 15  1  0
  6  7  2  0
  7  8  1  0
  7 35  1  0
  8 14  2  0
  8  9  1  0
  9 10  2  0
  9 28  1  0
 10 11  1  0
 10 12  1  0
 11 29  1  0
 12 13  2  0
 12 30  1  0
 13 14  1  0
 14 15  1  0
 15 20  1  0
 16 17  1  0
 16 31  1  0
 16 32  1  0
 17 18  2  0
 17 19  1  0
 19 33  1  0
 19 34  1  0
M  CHG  1   7   1
M  END
>  <i_m_ct_stereo_status>  (207) 
1

>  <s_m_source_file>  (207) 
/var/tmp/pbs.5102264.sched01/tmp148in4kv/69urs0mf0h.sdf

>  <i_m_source_file_index>  (207) 
7

>  <i_lp_mmshare_version>  (207) 
48012

>  <i_f3d_flags>  (207) 
0

>  <s_epik_input>  (207) 
W0NIM11DMShbQ0gzXSlbQ0hdPUMoW0NIMl1DKD1PKVtDSDJdMSljKG4yKVtuSF1jKGMyMyluW2NIXWMoW2NIXTMpW09IXQ==

>  <s_epik_cmdline>  (207) 
J2VwaWtfcHl0aG9uJywgJy1waHQnLCAnMi4wJywgJy1waCcsICc3LjAnLCAnLXRuJywgJzgnLCAnLW1hJywgJzIwMCcsICctaW1hZScsICc8aW5maWxlLm1hZT4nLCAnLW9tYWUnLCAnPG91dGZpbGUubWFlPic=

>  <r_epik_Ionization_Penalty>  (207) 
4.64045

>  <r_epik_Ionization_Penalty_Charging>  (207) 
0

>  <r_epik_Ionization_Penalty_Neutral>  (207) 
4.64045

>  <r_epik_State_Penalty>  (207) 
2.64463

>  <r_epik_Charging_Adjusted_Penalty>  (207) 
2.64463

>  <i_epik_Tot_Q>  (207) 
1

>  <i_epik_Tot_abs_Q>  (207) 
1

>  <s_lp_Force_Field>  (207) 
OPLS3e

>  <r_lp_Energy>  (207) 
16.3359

>  <b_lp_Chiralities_Consistent>  (207) 
1

>  <s_lp_Variant>  (207) 
48:0-6

>  <s_i_glide_gridfile>  (207) 
pfpi4k_grid

>  <i_i_glide_lignum>  (207) 
7

>  <i_i_glide_rotatable_bonds>  (207) 
2

>  <r_i_docking_score>  (207) 
-4.25967

>  <r_i_glide_ligand_efficiency>  (207) 
-0.224193

>  <r_i_glide_ligand_efficiency_sa>  (207) 
-0.598237

>  <r_i_glide_ligand_efficiency_ln>  (207) 
-1.07992

>  <r_i_glide_gscore>  (207) 
-4.25967

>  <r_i_glide_lipo>  (207) 
-0.123933

>  <r_i_glide_hbond>  (207) 
-0.2

>  <r_i_glide_metal>  (207) 
-0

>  <r_i_glide_rewards>  (207) 
-1.72376

>  <r_i_glide_evdw>  (207) 
-21.5068

>  <r_i_glide_ecoul>  (207) 
-8.64713

>  <r_i_glide_erotb>  (207) 
0.264732

>  <r_i_glide_esite>  (207) 
-0.104302

>  <r_i_glide_emodel>  (207) 
-39.7727

>  <r_i_glide_energy>  (207) 
-30.1539

>  <r_i_glide_einternal>  (207) 
0.669099

>  <r_i_glide_intrahb_reward>  (207) 
-0

>  <i_i_glide_confnum>  (207) 
3

>  <i_i_glide_posenum>  (207) 
38

>  <r_i_glide_eff_state_penalty>  (207) 
0

>  <ligand_id>  (207) 
48

>  <original_smiles>  (207) 
CC1(C)C=C(c2nc3cc(O)cnc3[nH]2)CC(=O)C1

>  <smiles>  (207) 
[H]Oc1c([H])nc2c(c1[H])[n+]([H])c(C1=C([H])C(C([H])([H])[H])(C([H])([H])[H])C([H])([H])C(=O)C1([H])[H])n2[H]

$$$$
48:5:1
     RDKit          3D

 35 37  0  0  1  0  0  0  0  0999 V2000
    6.2141   -2.9154   -1.9400 C   0  0  0  0  0  0  0  0  0  0  0  0
    6.0639   -2.7870   -0.4205 C   0  0  0  0  0  0  0  0  0  0  0  0
    5.4403   -1.4146   -0.1108 C   0  0  0  0  0  0  0  0  0  0  0  0
    5.1205   -3.8858    0.0485 C   0  0  0  0  0  0  0  0  0  0  0  0
    5.4753   -5.0013    0.7240 C   0  0  0  0  0  0  0  0  0  0  0  0
    4.4358   -5.9544    1.1380 C   0  0  0  0  0  0  0  0  0  0  0  0
    4.6418   -7.2508    1.5304 N   0  0  0  0  0  0  0  0  0  0  0  0
    3.4092   -7.8460    1.8273 C   0  0  0  0  0  0  0  0  0  0  0  0
    3.0607   -9.1311    2.2592 C   0  0  0  0  0  0  0  0  0  0  0  0
    1.6774   -9.3720    2.4747 C   0  0  0  0  0  0  0  0  0  0  0  0
    1.2421  -10.5959    2.8926 O   0  0  0  0  0  0  0  0  0  0  0  0
    0.7360   -8.3459    2.2361 C   0  0  0  0  0  0  0  0  0  0  0  0
    1.1262   -7.1299    1.8084 N   0  0  0  0  0  0  0  0  0  0  0  0
    2.4401   -6.8486    1.6024 C   0  0  0  0  0  0  0  0  0  0  0  0
    3.0951   -5.7040    1.1758 N   0  0  0  0  0  0  0  0  0  0  0  0
    6.9133   -5.2735    1.1601 C   0  0  0  0  0  0  0  0  0  0  0  0
    7.9054   -4.3317    0.4805 C   0  0  0  0  0  0  0  0  0  0  0  0
    9.0178   -4.7089    0.1190 O   0  0  0  0  0  0  0  0  0  0  0  0
    7.4387   -2.8923    0.2879 C   0  0  0  0  0  0  0  0  0  0  0  0
    2.6757   -4.8181    0.9327 H   0  0  0  0  0  0  0  0  0  0  0  0
    6.8530   -2.1264   -2.3207 H   0  0  0  0  0  0  0  0  0  0  0  0
    5.2536   -2.8536   -2.4513 H   0  0  0  0  0  0  0  0  0  0  0  0
    6.6745   -3.8525   -2.2329 H   0  0  0  0  0  0  0  0  0  0  0  0
    6.0775   -0.6058   -0.4645 H   0  0  0  0  0  0  0  0  0  0  0  0
    5.2897   -1.2626    0.9587 H   0  0  0  0  0  0  0  0  0  0  0  0
    4.4711   -1.2910   -0.5979 H   0  0  0  0  0  0  0  0  0  0  0  0
    4.0846   -3.7240   -0.2126 H   0  0  0  0  0  0  0  0  0  0  0  0
    3.8061   -9.9019    2.4178 H   0  0  0  0  0  0  0  0  0  0  0  0
    1.9148  -11.2586    2.9790 H   0  0  0  0  0  0  0  0  0  0  0  0
   -0.3231   -8.5081    2.3673 H   0  0  0  0  0  0  0  0  0  0  0  0
    6.9922   -5.1862    2.2456 H   0  0  0  0  0  0  0  0  0  0  0  0
    7.1786   -6.2950    0.8831 H   0  0  0  0  0  0  0  0  0  0  0  0
    8.1958   -2.3474   -0.2723 H   0  0  0  0  0  0  0  0  0  0  0  0
    7.3874   -2.4398    1.2783 H   0  0  0  0  0  0  0  0  0  0  0  0
    5.5533   -7.6906    1.5884 H   0  0  0  0  0  0  0  0  0  0  0  0
  1  2  1  0
  1 21  1  0
  1 22  1  0
  1 23  1  0
  2 19  1  0
  2  3  1  0
  2  4  1  0
  3 24  1  0
  3 25  1  0
  3 26  1  0
  4  5  2  0
  4 27  1  0
  5  6  1  0
  5 16  1  0
  6 15  1  0
  6  7  2  0
  7  8  1  0
  7 35  1  0
  8 14  2  0
  8  9  1  0
  9 10  2  0
  9 28  1  0
 10 11  1  0
 10 12  1  0
 11 29  1  0
 12 13  2  0
 12 30  1  0
 13 14  1  0
 14 15  1  0
 15 20  1  0
 16 17  1  0
 16 31  1  0
 16 32  1  0
 17 18  2  0
 17 19  1  0
 19 33  1  0
 19 34  1  0
M  CHG  1   7   1
M  END
>  <i_m_ct_stereo_status>  (208) 
1

>  <s_m_source_file>  (208) 
/var/tmp/pbs.5102264.sched01/tmp148in4kv/69urs0mf0h.sdf

>  <i_m_source_file_index>  (208) 
7

>  <i_lp_mmshare_version>  (208) 
48012

>  <i_f3d_flags>  (208) 
0

>  <s_epik_input>  (208) 
W0NIM11DMShbQ0gzXSlbQ0hdPUMoW0NIMl1DKD1PKVtDSDJdMSljKG4yKVtuSF1jKGMyMyluW2NIXWMoW2NIXTMpW09IXQ==

>  <s_epik_cmdline>  (208) 
J2VwaWtfcHl0aG9uJywgJy1waHQnLCAnMi4wJywgJy1waCcsICc3LjAnLCAnLXRuJywgJzgnLCAnLW1hJywgJzIwMCcsICctaW1hZScsICc8aW5maWxlLm1hZT4nLCAnLW9tYWUnLCAnPG91dGZpbGUubWFlPic=

>  <r_epik_Ionization_Penalty>  (208) 
4.64045

>  <r_epik_Ionization_Penalty_Charging>  (208) 
0

>  <r_epik_Ionization_Penalty_Neutral>  (208) 
4.64045

>  <r_epik_State_Penalty>  (208) 
2.64463

>  <r_epik_Charging_Adjusted_Penalty>  (208) 
2.64463

>  <i_epik_Tot_Q>  (208) 
1

>  <i_epik_Tot_abs_Q>  (208) 
1

>  <s_lp_Force_Field>  (208) 
OPLS3e

>  <r_lp_Energy>  (208) 
16.3359

>  <b_lp_Chiralities_Consistent>  (208) 
1

>  <s_lp_Variant>  (208) 
48:0-6

>  <s_i_glide_gridfile>  (208) 
pfpi4k_grid

>  <i_i_glide_lignum>  (208) 
7

>  <i_i_glide_rotatable_bonds>  (208) 
2

>  <r_i_docking_score>  (208) 
-4.13951

>  <r_i_glide_ligand_efficiency>  (208) 
-0.217869

>  <r_i_glide_ligand_efficiency_sa>  (208) 
-0.581362

>  <r_i_glide_ligand_efficiency_ln>  (208) 
-1.04945

>  <r_i_glide_gscore>  (208) 
-4.13951

>  <r_i_glide_lipo>  (208) 
-0.520516

>  <r_i_glide_hbond>  (208) 
-0.0484411

>  <r_i_glide_metal>  (208) 
-0

>  <r_i_glide_rewards>  (208) 
-1.98137

>  <r_i_glide_evdw>  (208) 
-23.5098

>  <r_i_glide_ecoul>  (208) 
-4.46263

>  <r_i_glide_erotb>  (208) 
0.264732

>  <r_i_glide_esite>  (208) 
-0.00903244

>  <r_i_glide_emodel>  (208) 
-37.5069

>  <r_i_glide_energy>  (208) 
-27.9725

>  <r_i_glide_einternal>  (208) 
0.463936

>  <r_i_glide_intrahb_reward>  (208) 
-0

>  <i_i_glide_confnum>  (208) 
4

>  <i_i_glide_posenum>  (208) 
3

>  <r_i_glide_eff_state_penalty>  (208) 
0

>  <ligand_id>  (208) 
48

>  <original_smiles>  (208) 
CC1(C)C=C(c2nc3cc(O)cnc3[nH]2)CC(=O)C1

>  <smiles>  (208) 
[H]Oc1c([H])nc2c(c1[H])[n+]([H])c(C1=C([H])C(C([H])([H])[H])(C([H])([H])[H])C([H])([H])C(=O)C1([H])[H])n2[H]

$$$$
48:5:2
     RDKit          3D

 35 37  0  0  1  0  0  0  0  0999 V2000
    2.6677    5.4247    5.5031 C   0  0  0  0  0  0  0  0  0  0  0  0
    1.6805    5.0436    4.3875 C   0  0  0  0  0  0  0  0  0  0  0  0
    1.7525    6.1213    3.2979 C   0  0  0  0  0  0  0  0  0  0  0  0
    2.1009    3.7152    3.7760 C   0  0  0  0  0  0  0  0  0  0  0  0
    1.2751    2.6804    3.5012 C   0  0  0  0  0  0  0  0  0  0  0  0
    1.8201    1.4712    2.8805 C   0  0  0  0  0  0  0  0  0  0  0  0
    1.2400    0.2297    2.8885 N   0  0  0  0  0  0  0  0  0  0  0  0
    2.0831   -0.6772    2.2362 C   0  0  0  0  0  0  0  0  0  0  0  0
    1.9934   -2.0478    1.9787 C   0  0  0  0  0  0  0  0  0  0  0  0
    3.0530   -2.6398    1.2398 C   0  0  0  0  0  0  0  0  0  0  0  0
    3.0011   -3.9663    0.9235 O   0  0  0  0  0  0  0  0  0  0  0  0
    4.1488   -1.8487    0.8304 C   0  0  0  0  0  0  0  0  0  0  0  0
    4.2014   -0.5394    1.1283 N   0  0  0  0  0  0  0  0  0  0  0  0
    3.1951    0.0694    1.8092 C   0  0  0  0  0  0  0  0  0  0  0  0
    3.0142    1.3711    2.2272 N   0  0  0  0  0  0  0  0  0  0  0  0
   -0.2235    2.7255    3.7670 C   0  0  0  0  0  0  0  0  0  0  0  0
   -0.6924    4.1319    4.1060 C   0  0  0  0  0  0  0  0  0  0  0  0
   -1.7971    4.5432    3.7635 O   0  0  0  0  0  0  0  0  0  0  0  0
    0.2509    4.9619    4.9715 C   0  0  0  0  0  0  0  0  0  0  0  0
    3.6768    2.1334    2.0947 H   0  0  0  0  0  0  0  0  0  0  0  0
    2.4223    6.4011    5.9198 H   0  0  0  0  0  0  0  0  0  0  0  0
    3.6906    5.4821    5.1277 H   0  0  0  0  0  0  0  0  0  0  0  0
    2.6566    4.7023    6.3196 H   0  0  0  0  0  0  0  0  0  0  0  0
    1.4892    7.1032    3.6915 H   0  0  0  0  0  0  0  0  0  0  0  0
    1.0619    5.9067    2.4795 H   0  0  0  0  0  0  0  0  0  0  0  0
    2.7548    6.1931    2.8742 H   0  0  0  0  0  0  0  0  0  0  0  0
    3.1530    3.6369    3.5490 H   0  0  0  0  0  0  0  0  0  0  0  0
    1.1408   -2.6253    2.2995 H   0  0  0  0  0  0  0  0  0  0  0  0
    3.7359   -4.2339    0.3901 H   0  0  0  0  0  0  0  0  0  0  0  0
    4.9894   -2.2502    0.2782 H   0  0  0  0  0  0  0  0  0  0  0  0
   -0.7426    2.4132    2.8592 H   0  0  0  0  0  0  0  0  0  0  0  0
   -0.4810    2.0309    4.5684 H   0  0  0  0  0  0  0  0  0  0  0  0
    0.2741    4.4994    5.9572 H   0  0  0  0  0  0  0  0  0  0  0  0
   -0.1582    5.9590    5.1059 H   0  0  0  0  0  0  0  0  0  0  0  0
    0.3450    0.0259    3.3171 H   0  0  0  0  0  0  0  0  0  0  0  0
  1  2  1  0
  1 21  1  0
  1 22  1  0
  1 23  1  0
  2 19  1  0
  2  3  1  0
  2  4  1  0
  3 24  1  0
  3 25  1  0
  3 26  1  0
  4  5  2  0
  4 27  1  0
  5  6  1  0
  5 16  1  0
  6 15  1  0
  6  7  2  0
  7  8  1  0
  7 35  1  0
  8 14  2  0
  8  9  1  0
  9 10  2  0
  9 28  1  0
 10 11  1  0
 10 12  1  0
 11 29  1  0
 12 13  2  0
 12 30  1  0
 13 14  1  0
 14 15  1  0
 15 20  1  0
 16 17  1  0
 16 31  1  0
 16 32  1  0
 17 18  2  0
 17 19  1  0
 19 33  1  0
 19 34  1  0
M  CHG  1   7   1
M  END
>  <i_m_ct_stereo_status>  (209) 
1

>  <s_m_source_file>  (209) 
/var/tmp/pbs.5102264.sched01/tmp148in4kv/69urs0mf0h.sdf

>  <i_m_source_file_index>  (209) 
7

>  <i_lp_mmshare_version>  (209) 
48012

>  <i_f3d_flags>  (209) 
0

>  <s_epik_input>  (209) 
W0NIM11DMShbQ0gzXSlbQ0hdPUMoW0NIMl1DKD1PKVtDSDJdMSljKG4yKVtuSF1jKGMyMyluW2NIXWMoW2NIXTMpW09IXQ==

>  <s_epik_cmdline>  (209) 
J2VwaWtfcHl0aG9uJywgJy1waHQnLCAnMi4wJywgJy1waCcsICc3LjAnLCAnLXRuJywgJzgnLCAnLW1hJywgJzIwMCcsICctaW1hZScsICc8aW5maWxlLm1hZT4nLCAnLW9tYWUnLCAnPG91dGZpbGUubWFlPic=

>  <r_epik_Ionization_Penalty>  (209) 
4.64045

>  <r_epik_Ionization_Penalty_Charging>  (209) 
0

>  <r_epik_Ionization_Penalty_Neutral>  (209) 
4.64045

>  <r_epik_State_Penalty>  (209) 
2.64463

>  <r_epik_Charging_Adjusted_Penalty>  (209) 
2.64463

>  <i_epik_Tot_Q>  (209) 
1

>  <i_epik_Tot_abs_Q>  (209) 
1

>  <s_lp_Force_Field>  (209) 
OPLS3e

>  <r_lp_Energy>  (209) 
16.3359

>  <b_lp_Chiralities_Consistent>  (209) 
1

>  <s_lp_Variant>  (209) 
48:0-6

>  <s_i_glide_gridfile>  (209) 
pfpi4k_grid

>  <i_i_glide_lignum>  (209) 
7

>  <i_i_glide_rotatable_bonds>  (209) 
2

>  <r_i_docking_score>  (209) 
-4.11267

>  <r_i_glide_ligand_efficiency>  (209) 
-0.216456

>  <r_i_glide_ligand_efficiency_sa>  (209) 
-0.577593

>  <r_i_glide_ligand_efficiency_ln>  (209) 
-1.04265

>  <r_i_glide_gscore>  (209) 
-4.11267

>  <r_i_glide_lipo>  (209) 
0

>  <r_i_glide_hbond>  (209) 
-0.16

>  <r_i_glide_metal>  (209) 
-0

>  <r_i_glide_rewards>  (209) 
-1.67976

>  <r_i_glide_evdw>  (209) 
-17.9902

>  <r_i_glide_ecoul>  (209) 
-10.1993

>  <r_i_glide_erotb>  (209) 
0.264732

>  <r_i_glide_esite>  (209) 
-0.108236

>  <r_i_glide_emodel>  (209) 
-37.59

>  <r_i_glide_energy>  (209) 
-28.1895

>  <r_i_glide_einternal>  (209) 
0.596711

>  <r_i_glide_intrahb_reward>  (209) 
-0

>  <i_i_glide_confnum>  (209) 
2

>  <i_i_glide_posenum>  (209) 
16

>  <r_i_glide_eff_state_penalty>  (209) 
0

>  <ligand_id>  (209) 
48

>  <original_smiles>  (209) 
CC1(C)C=C(c2nc3cc(O)cnc3[nH]2)CC(=O)C1

>  <smiles>  (209) 
[H]Oc1c([H])nc2c(c1[H])[n+]([H])c(C1=C([H])C(C([H])([H])[H])(C([H])([H])[H])C([H])([H])C(=O)C1([H])[H])n2[H]

$$$$
49:0:0
     RDKit          3D

 48 51  0  0  1  0  0  0  0  0999 V2000
    4.5950   -4.7487   -4.2806 C   0  0  0  0  0  0  0  0  0  0  0  0
    4.8013   -4.1729   -3.0961 C   0  0  0  0  0  0  0  0  0  0  0  0
    4.5876   -2.8178   -2.7498 C   0  0  0  0  0  0  0  0  0  0  0  0
    3.7219   -1.7682   -3.8419 S   0  0  0  0  0  0  0  0  0  0  0  0
    3.8974   -0.4428   -2.7403 C   0  0  0  0  0  0  0  0  0  0  0  0
    4.5621   -0.7932   -1.5941 C   0  0  0  0  0  0  0  0  0  0  0  0
    4.9673   -2.1523   -1.6109 C   0  0  0  0  0  0  0  0  0  0  0  0
    5.8460   -2.8157   -0.2209 S   0  0  0  0  0  0  0  0  0  0  0  0
    6.7623   -3.8509   -0.7086 O   0  0  0  0  0  0  0  0  0  0  0  0
    6.3185   -1.6846    0.5867 O   0  0  0  0  0  0  0  0  0  0  0  0
    4.6187   -3.6355    0.6751 N   0  0  0  0  0  0  0  0  0  0  0  0
    4.2220   -4.9516    0.4362 C   0  0  0  0  0  0  0  0  0  0  0  0
    3.1951   -5.3036    1.2848 C   0  0  0  0  0  0  0  0  0  0  0  0
    2.5028   -6.6527    1.3147 C   0  0  2  0  0  0  0  0  0  0  0  0
    1.5874   -6.7997    2.5400 C   0  0  0  0  0  0  0  0  0  0  0  0
    0.9739   -8.1773    2.7030 C   0  0  0  0  0  0  0  0  0  0  0  0
    2.0105   -9.2288    2.7128 N   0  0  1  0  0  0  0  0  0  0  0  0
    1.4131  -10.5527    2.9735 C   0  0  0  0  0  0  0  0  0  0  0  0
    2.8129   -9.1886    1.4606 C   0  0  0  0  0  0  0  0  0  0  0  0
    3.5106   -7.8230    1.2722 C   0  0  0  0  0  0  0  0  0  0  0  0
    2.9469   -4.1306    2.0959 C   0  0  0  0  0  0  0  0  0  0  0  0
    2.0557   -3.7740    3.1541 C   0  0  0  0  0  0  0  0  0  0  0  0
    2.1073   -2.4874    3.7077 C   0  0  0  0  0  0  0  0  0  0  0  0
    3.0591   -1.5652    3.2280 C   0  0  0  0  0  0  0  0  0  0  0  0
    3.9310   -1.8468    2.2356 N   0  0  0  0  0  0  0  0  0  0  0  0
    3.8495   -3.1005    1.6978 C   0  0  0  0  0  0  0  0  0  0  0  0
    4.2680   -4.1700   -5.1257 H   0  0  0  0  0  0  0  0  0  0  0  0
    4.7265   -5.8066   -4.3883 H   0  0  0  0  0  0  0  0  0  0  0  0
    5.1313   -4.8247   -2.3003 H   0  0  0  0  0  0  0  0  0  0  0  0
    3.4588    0.5060   -3.0158 H   0  0  0  0  0  0  0  0  0  0  0  0
    4.7609   -0.1521   -0.7513 H   0  0  0  0  0  0  0  0  0  0  0  0
    4.7122   -5.5670   -0.3148 H   0  0  0  0  0  0  0  0  0  0  0  0
    1.8420   -6.7159    0.4490 H   0  0  0  0  0  0  0  0  0  0  0  0
    2.1570   -6.5693    3.4451 H   0  0  0  0  0  0  0  0  0  0  0  0
    0.7452   -6.1055    2.4549 H   0  0  0  0  0  0  0  0  0  0  0  0
    0.4238   -8.1779    3.6444 H   0  0  0  0  0  0  0  0  0  0  0  0
    0.2486   -8.3377    1.9022 H   0  0  0  0  0  0  0  0  0  0  0  0
    0.7121  -10.8019    2.1722 H   0  0  0  0  0  0  0  0  0  0  0  0
    0.8543  -10.5543    3.9147 H   0  0  0  0  0  0  0  0  0  0  0  0
    2.1854  -11.3247    3.0337 H   0  0  0  0  0  0  0  0  0  0  0  0
    3.5714   -9.9745    1.4738 H   0  0  0  0  0  0  0  0  0  0  0  0
    2.1692   -9.3870    0.6001 H   0  0  0  0  0  0  0  0  0  0  0  0
    4.0709   -7.8183    0.3267 H   0  0  0  0  0  0  0  0  0  0  0  0
    4.2555   -7.6836    2.0617 H   0  0  0  0  0  0  0  0  0  0  0  0
    1.3210   -4.4583    3.5604 H   0  0  0  0  0  0  0  0  0  0  0  0
    1.4123   -2.2408    4.4958 H   0  0  0  0  0  0  0  0  0  0  0  0
    3.1008   -0.5771    3.6655 H   0  0  0  0  0  0  0  0  0  0  0  0
    2.6447   -9.0136    3.4729 H   0  0  0  0  0  0  0  0  0  0  0  0
  1  2  2  0
  1 27  1  0
  1 28  1  0
  2  3  1  0
  2 29  1  0
  3  7  2  0
  3  4  1  0
  4  5  1  0
  5  6  2  0
  5 30  1  0
  6  7  1  0
  6 31  1  0
  7  8  1  0
  8  9  2  0
  8 10  2  0
  8 11  1  0
 11 26  1  0
 11 12  1  0
 12 13  2  0
 12 32  1  0
 13 14  1  0
 13 21  1  0
 14 20  1  0
 14 15  1  0
 14 33  1  6
 15 16  1  0
 15 34  1  0
 15 35  1  0
 16 17  1  0
 16 36  1  0
 16 37  1  0
 17 18  1  0
 17 19  1  0
 17 48  1  1
 18 38  1  0
 18 39  1  0
 18 40  1  0
 19 20  1  0
 19 41  1  0
 19 42  1  0
 20 43  1  0
 20 44  1  0
 21 26  2  0
 21 22  1  0
 22 23  2  0
 22 45  1  0
 23 24  1  0
 23 46  1  0
 24 25  2  0
 24 47  1  0
 25 26  1  0
M  CHG  1  17   1
M  END
>  <i_m_ct_stereo_status>  (210) 
1

>  <s_m_source_file>  (210) 
/var/tmp/pbs.5102264.sched01/tmp148in4kv/69urs0mf0h.sdf

>  <i_m_source_file_index>  (210) 
8

>  <i_lp_mmshare_version>  (210) 
48012

>  <i_f3d_flags>  (210) 
0

>  <s_epik_input>  (210) 
W0NIMl09W0NIXWMxc1tjSF1bY0hdYzFTKD1PKSg9TyluKGMoYzIzKW5bY0hdW2NIXVtjSF0zKVtjSF1jMltDSF00W0NIMl1bQ0gyXU4oW0NIM10pW0NIMl1bQ0gyXTQ=

>  <s_epik_cmdline>  (210) 
J2VwaWtfcHl0aG9uJywgJy1waHQnLCAnMi4wJywgJy1waCcsICc3LjAnLCAnLXRuJywgJzgnLCAnLW1hJywgJzIwMCcsICctaW1hZScsICc8aW5maWxlLm1hZT4nLCAnLW9tYWUnLCAnPG91dGZpbGUubWFlPic=

>  <r_epik_Ionization_Penalty>  (210) 
0.00222917

>  <r_epik_Ionization_Penalty_Charging>  (210) 
0.00215996

>  <r_epik_Ionization_Penalty_Neutral>  (210) 
6.92019e-05

>  <r_epik_State_Penalty>  (210) 
0.00148317

>  <r_epik_Charging_Adjusted_Penalty>  (210) 
0.00364313

>  <i_epik_Tot_Q>  (210) 
1

>  <i_epik_Tot_abs_Q>  (210) 
1

>  <s_lp_Force_Field>  (210) 
OPLS3e

>  <r_lp_Energy>  (210) 
30.4451

>  <b_lp_Chiralities_Consistent>  (210) 
1

>  <s_lp_Variant>  (210) 
49:0-1

>  <s_i_glide_gridfile>  (210) 
pfpi4k_grid

>  <i_i_glide_lignum>  (210) 
8

>  <i_i_glide_rotatable_bonds>  (210) 
4

>  <r_i_docking_score>  (210) 
-2.78076

>  <r_i_glide_ligand_efficiency>  (210) 
-0.106952

>  <r_i_glide_ligand_efficiency_sa>  (210) 
-0.316846

>  <r_i_glide_ligand_efficiency_ln>  (210) 
-0.653053

>  <r_i_glide_gscore>  (210) 
-2.78076

>  <r_i_glide_lipo>  (210) 
-0.543142

>  <r_i_glide_hbond>  (210) 
0

>  <r_i_glide_metal>  (210) 
-0

>  <r_i_glide_rewards>  (210) 
-0.830574

>  <r_i_glide_evdw>  (210) 
-28.486

>  <r_i_glide_ecoul>  (210) 
-3.32709

>  <r_i_glide_erotb>  (210) 
0.516312

>  <r_i_glide_esite>  (210) 
0

>  <r_i_glide_emodel>  (210) 
-36.9747

>  <r_i_glide_energy>  (210) 
-31.813

>  <r_i_glide_einternal>  (210) 
3.2077

>  <r_i_glide_intrahb_reward>  (210) 
-0

>  <i_i_glide_confnum>  (210) 
6

>  <i_i_glide_posenum>  (210) 
40

>  <r_i_glide_eff_state_penalty>  (210) 
0

>  <ligand_id>  (210) 
49

>  <original_smiles>  (210) 
C=Cc1sccc1S(=O)(=O)n1cc(C2CCN(C)CC2)c2cccnc21

>  <smiles>  (210) 
[H]C([H])=C([H])c1sc([H])c([H])c1S(=O)(=O)n1c([H])c(C2([H])C([H])([H])C([H])([H])[N+]([H])(C([H])([H])[H])C([H])([H])C2([H])[H])c2c([H])c([H])c([H])nc21

$$$$
49:0:1
     RDKit          3D

 48 51  0  0  1  0  0  0  0  0999 V2000
    5.0451   -4.5610    5.3003 C   0  0  0  0  0  0  0  0  0  0  0  0
    3.7265   -4.6322    5.5518 C   0  0  0  0  0  0  0  0  0  0  0  0
    2.6409   -3.8913    4.9964 C   0  0  0  0  0  0  0  0  0  0  0  0
    2.9440   -2.5989    3.8585 S   0  0  0  0  0  0  0  0  0  0  0  0
    1.2399   -2.2624    3.7262 C   0  0  0  0  0  0  0  0  0  0  0  0
    0.4873   -3.1143    4.4925 C   0  0  0  0  0  0  0  0  0  0  0  0
    1.2890   -4.0606    5.2029 C   0  0  0  0  0  0  0  0  0  0  0  0
    0.5113   -5.2854    6.2351 S   0  0  0  0  0  0  0  0  0  0  0  0
    1.2358   -5.3390    7.5111 O   0  0  0  0  0  0  0  0  0  0  0  0
   -0.9487   -5.0764    6.2002 O   0  0  0  0  0  0  0  0  0  0  0  0
    0.8399   -6.7853    5.4456 N   0  0  0  0  0  0  0  0  0  0  0  0
    1.9811   -7.5576    5.6816 C   0  0  0  0  0  0  0  0  0  0  0  0
    2.0242   -8.6079    4.8029 C   0  0  0  0  0  0  0  0  0  0  0  0
    3.1252   -9.6134    4.6661 C   0  0  2  0  0  0  0  0  0  0  0  0
    3.7527   -9.5560    3.2555 C   0  0  0  0  0  0  0  0  0  0  0  0
    4.7621  -10.6867    3.0363 C   0  0  0  0  0  0  0  0  0  0  0  0
    4.1599  -12.0183    3.3075 N   0  0  1  0  0  0  0  0  0  0  0  0
    5.0848  -13.1221    2.9963 C   0  0  0  0  0  0  0  0  0  0  0  0
    3.6429  -12.1036    4.7017 C   0  0  0  0  0  0  0  0  0  0  0  0
    2.5990  -11.0247    4.9822 C   0  0  0  0  0  0  0  0  0  0  0  0
    0.7991   -8.5579    4.0660 C   0  0  0  0  0  0  0  0  0  0  0  0
    0.1903   -9.3547    3.0618 C   0  0  0  0  0  0  0  0  0  0  0  0
   -1.0719   -9.0015    2.5627 C   0  0  0  0  0  0  0  0  0  0  0  0
   -1.7051   -7.8540    3.0708 C   0  0  0  0  0  0  0  0  0  0  0  0
   -1.1628   -7.0320    3.9991 N   0  0  0  0  0  0  0  0  0  0  0  0
    0.0581   -7.4135    4.4780 C   0  0  0  0  0  0  0  0  0  0  0  0
    5.4689   -3.8467    4.6036 H   0  0  0  0  0  0  0  0  0  0  0  0
    5.7128   -5.2384    5.8094 H   0  0  0  0  0  0  0  0  0  0  0  0
    3.4510   -5.3609    6.3033 H   0  0  0  0  0  0  0  0  0  0  0  0
    0.9173   -1.4616    3.0820 H   0  0  0  0  0  0  0  0  0  0  0  0
   -0.5904   -3.0914    4.5561 H   0  0  0  0  0  0  0  0  0  0  0  0
    2.7201   -7.3234    6.4356 H   0  0  0  0  0  0  0  0  0  0  0  0
    3.9212   -9.3916    5.3833 H   0  0  0  0  0  0  0  0  0  0  0  0
    2.9737   -9.6488    2.4958 H   0  0  0  0  0  0  0  0  0  0  0  0
    4.2281   -8.5820    3.0853 H   0  0  0  0  0  0  0  0  0  0  0  0
    5.1250  -10.6445    2.0099 H   0  0  0  0  0  0  0  0  0  0  0  0
    5.6253  -10.5418    3.6904 H   0  0  0  0  0  0  0  0  0  0  0  0
    5.9502  -13.0822    3.6593 H   0  0  0  0  0  0  0  0  0  0  0  0
    5.4508  -13.0655    1.9730 H   0  0  0  0  0  0  0  0  0  0  0  0
    4.6036  -14.0919    3.1223 H   0  0  0  0  0  0  0  0  0  0  0  0
    3.1946  -13.0788    4.8841 H   0  0  0  0  0  0  0  0  0  0  0  0
    4.4723  -11.9985    5.4047 H   0  0  0  0  0  0  0  0  0  0  0  0
    2.2612  -11.0612    6.0242 H   0  0  0  0  0  0  0  0  0  0  0  0
    1.7231  -11.2558    4.3756 H   0  0  0  0  0  0  0  0  0  0  0  0
    0.6948  -10.2322    2.6869 H   0  0  0  0  0  0  0  0  0  0  0  0
   -1.5290   -9.6137    1.7988 H   0  0  0  0  0  0  0  0  0  0  0  0
   -2.6722   -7.5607    2.6901 H   0  0  0  0  0  0  0  0  0  0  0  0
    3.3785  -12.1191    2.6680 H   0  0  0  0  0  0  0  0  0  0  0  0
  1  2  2  0
  1 27  1  0
  1 28  1  0
  2  3  1  0
  2 29  1  0
  3  7  2  0
  3  4  1  0
  4  5  1  0
  5  6  2  0
  5 30  1  0
  6  7  1  0
  6 31  1  0
  7  8  1  0
  8  9  2  0
  8 10  2  0
  8 11  1  0
 11 26  1  0
 11 12  1  0
 12 13  2  0
 12 32  1  0
 13 14  1  0
 13 21  1  0
 14 20  1  0
 14 15  1  0
 14 33  1  1
 15 16  1  0
 15 34  1  0
 15 35  1  0
 16 17  1  0
 16 36  1  0
 16 37  1  0
 17 18  1  0
 17 19  1  0
 17 48  1  6
 18 38  1  0
 18 39  1  0
 18 40  1  0
 19 20  1  0
 19 41  1  0
 19 42  1  0
 20 43  1  0
 20 44  1  0
 21 26  2  0
 21 22  1  0
 22 23  2  0
 22 45  1  0
 23 24  1  0
 23 46  1  0
 24 25  2  0
 24 47  1  0
 25 26  1  0
M  CHG  1  17   1
M  END
>  <i_m_ct_stereo_status>  (211) 
1

>  <s_m_source_file>  (211) 
/var/tmp/pbs.5102264.sched01/tmp148in4kv/69urs0mf0h.sdf

>  <i_m_source_file_index>  (211) 
8

>  <i_lp_mmshare_version>  (211) 
48012

>  <i_f3d_flags>  (211) 
0

>  <s_epik_input>  (211) 
W0NIMl09W0NIXWMxc1tjSF1bY0hdYzFTKD1PKSg9TyluKGMoYzIzKW5bY0hdW2NIXVtjSF0zKVtjSF1jMltDSF00W0NIMl1bQ0gyXU4oW0NIM10pW0NIMl1bQ0gyXTQ=

>  <s_epik_cmdline>  (211) 
J2VwaWtfcHl0aG9uJywgJy1waHQnLCAnMi4wJywgJy1waCcsICc3LjAnLCAnLXRuJywgJzgnLCAnLW1hJywgJzIwMCcsICctaW1hZScsICc8aW5maWxlLm1hZT4nLCAnLW9tYWUnLCAnPG91dGZpbGUubWFlPic=

>  <r_epik_Ionization_Penalty>  (211) 
0.00222917

>  <r_epik_Ionization_Penalty_Charging>  (211) 
0.00215996

>  <r_epik_Ionization_Penalty_Neutral>  (211) 
6.92019e-05

>  <r_epik_State_Penalty>  (211) 
0.00148317

>  <r_epik_Charging_Adjusted_Penalty>  (211) 
0.00364313

>  <i_epik_Tot_Q>  (211) 
1

>  <i_epik_Tot_abs_Q>  (211) 
1

>  <s_lp_Force_Field>  (211) 
OPLS3e

>  <r_lp_Energy>  (211) 
30.4451

>  <b_lp_Chiralities_Consistent>  (211) 
1

>  <s_lp_Variant>  (211) 
49:0-1

>  <s_i_glide_gridfile>  (211) 
pfpi4k_grid

>  <i_i_glide_lignum>  (211) 
8

>  <i_i_glide_rotatable_bonds>  (211) 
4

>  <r_i_docking_score>  (211) 
-2.52827

>  <r_i_glide_ligand_efficiency>  (211) 
-0.097241

>  <r_i_glide_ligand_efficiency_sa>  (211) 
-0.288076

>  <r_i_glide_ligand_efficiency_ln>  (211) 
-0.593755

>  <r_i_glide_gscore>  (211) 
-2.52827

>  <r_i_glide_lipo>  (211) 
-0.139218

>  <r_i_glide_hbond>  (211) 
0

>  <r_i_glide_metal>  (211) 
-0

>  <r_i_glide_rewards>  (211) 
-0.76003

>  <r_i_glide_evdw>  (211) 
-23.1399

>  <r_i_glide_ecoul>  (211) 
-5.96653

>  <r_i_glide_erotb>  (211) 
0.516312

>  <r_i_glide_esite>  (211) 
-0.093359

>  <r_i_glide_emodel>  (211) 
-35.1841

>  <r_i_glide_energy>  (211) 
-29.1064

>  <r_i_glide_einternal>  (211) 
0.477548

>  <r_i_glide_intrahb_reward>  (211) 
-0

>  <i_i_glide_confnum>  (211) 
6

>  <i_i_glide_posenum>  (211) 
23

>  <r_i_glide_eff_state_penalty>  (211) 
0

>  <ligand_id>  (211) 
49

>  <original_smiles>  (211) 
C=Cc1sccc1S(=O)(=O)n1cc(C2CCN(C)CC2)c2cccnc21

>  <smiles>  (211) 
[H]C([H])=C([H])c1sc([H])c([H])c1S(=O)(=O)n1c([H])c(C2([H])C([H])([H])C([H])([H])[N+]([H])(C([H])([H])[H])C([H])([H])C2([H])[H])c2c([H])c([H])c([H])nc21

$$$$
49:0:2
     RDKit          3D

 48 51  0  0  1  0  0  0  0  0999 V2000
   -2.0796   -3.8425    6.8880 C   0  0  0  0  0  0  0  0  0  0  0  0
   -0.8842   -3.3594    6.5425 C   0  0  0  0  0  0  0  0  0  0  0  0
   -0.5554   -2.2457    5.7046 C   0  0  0  0  0  0  0  0  0  0  0  0
   -1.7665   -1.0540    5.2802 S   0  0  0  0  0  0  0  0  0  0  0  0
   -0.6229   -0.1689    4.3127 C   0  0  0  0  0  0  0  0  0  0  0  0
    0.6112   -0.7660    4.3042 C   0  0  0  0  0  0  0  0  0  0  0  0
    0.6436   -1.9531    5.0982 C   0  0  0  0  0  0  0  0  0  0  0  0
    2.1726   -2.8623    5.2124 S   0  0  0  0  0  0  0  0  0  0  0  0
    3.2668   -2.0011    4.7339 O   0  0  0  0  0  0  0  0  0  0  0  0
    2.2423   -3.5222    6.5271 O   0  0  0  0  0  0  0  0  0  0  0  0
    2.0051   -4.1458    4.0690 N   0  0  0  0  0  0  0  0  0  0  0  0
    1.5444   -5.4155    4.3917 C   0  0  0  0  0  0  0  0  0  0  0  0
    1.5452   -6.2252    3.2775 C   0  0  0  0  0  0  0  0  0  0  0  0
    1.1556   -7.6772    3.1981 C   0  0  2  0  0  0  0  0  0  0  0  0
    0.4961   -8.1582    4.5059 C   0  0  0  0  0  0  0  0  0  0  0  0
    0.2114   -9.6612    4.4901 C   0  0  0  0  0  0  0  0  0  0  0  0
    1.4419  -10.4353    4.2060 N   0  0  1  0  0  0  0  0  0  0  0  0
    1.2153  -11.8848    4.3123 C   0  0  0  0  0  0  0  0  0  0  0  0
    2.0325  -10.0533    2.8982 C   0  0  0  0  0  0  0  0  0  0  0  0
    2.3784   -8.5567    2.8599 C   0  0  0  0  0  0  0  0  0  0  0  0
    2.0370   -5.4058    2.2096 C   0  0  0  0  0  0  0  0  0  0  0  0
    2.3025   -5.5955    0.8350 C   0  0  0  0  0  0  0  0  0  0  0  0
    2.8045   -4.5235    0.0756 C   0  0  0  0  0  0  0  0  0  0  0  0
    3.0264   -3.2780    0.6982 C   0  0  0  0  0  0  0  0  0  0  0  0
    2.7912   -3.0396    2.0047 N   0  0  0  0  0  0  0  0  0  0  0  0
    2.3132   -4.1021    2.7174 C   0  0  0  0  0  0  0  0  0  0  0  0
   -2.9904   -3.4044    6.5077 H   0  0  0  0  0  0  0  0  0  0  0  0
   -2.1627   -4.6921    7.5536 H   0  0  0  0  0  0  0  0  0  0  0  0
   -0.0561   -3.8912    6.9811 H   0  0  0  0  0  0  0  0  0  0  0  0
   -0.9403    0.7341    3.8004 H   0  0  0  0  0  0  0  0  0  0  0  0
    1.4696   -0.3932    3.7623 H   0  0  0  0  0  0  0  0  0  0  0  0
    1.2624   -5.6536    5.4081 H   0  0  0  0  0  0  0  0  0  0  0  0
    0.4268   -7.8116    2.3953 H   0  0  0  0  0  0  0  0  0  0  0  0
    1.1592   -7.9607    5.3507 H   0  0  0  0  0  0  0  0  0  0  0  0
   -0.4318   -7.6052    4.6894 H   0  0  0  0  0  0  0  0  0  0  0  0
   -0.1880   -9.9476    5.4654 H   0  0  0  0  0  0  0  0  0  0  0  0
   -0.5529   -9.8894    3.7430 H   0  0  0  0  0  0  0  0  0  0  0  0
    0.5207  -12.2208    3.5457 H   0  0  0  0  0  0  0  0  0  0  0  0
    0.7942  -12.1532    5.2802 H   0  0  0  0  0  0  0  0  0  0  0  0
    2.1516  -12.4278    4.1946 H   0  0  0  0  0  0  0  0  0  0  0  0
    2.9349  -10.6383    2.7059 H   0  0  0  0  0  0  0  0  0  0  0  0
    1.3283  -10.2868    2.0969 H   0  0  0  0  0  0  0  0  0  0  0  0
    2.7766   -8.3088    1.8711 H   0  0  0  0  0  0  0  0  0  0  0  0
    3.1828   -8.3547    3.5706 H   0  0  0  0  0  0  0  0  0  0  0  0
    2.1209   -6.5559    0.3821 H   0  0  0  0  0  0  0  0  0  0  0  0
    3.0207   -4.6522   -0.9767 H   0  0  0  0  0  0  0  0  0  0  0  0
    3.4227   -2.4472    0.1309 H   0  0  0  0  0  0  0  0  0  0  0  0
    2.1150  -10.1983    4.9227 H   0  0  0  0  0  0  0  0  0  0  0  0
  1  2  2  0
  1 27  1  0
  1 28  1  0
  2  3  1  0
  2 29  1  0
  3  7  2  0
  3  4  1  0
  4  5  1  0
  5  6  2  0
  5 30  1  0
  6  7  1  0
  6 31  1  0
  7  8  1  0
  8  9  2  0
  8 10  2  0
  8 11  1  0
 11 26  1  0
 11 12  1  0
 12 13  2  0
 12 32  1  0
 13 14  1  0
 13 21  1  0
 14 20  1  0
 14 15  1  0
 14 33  1  6
 15 16  1  0
 15 34  1  0
 15 35  1  0
 16 17  1  0
 16 36  1  0
 16 37  1  0
 17 18  1  0
 17 19  1  0
 17 48  1  1
 18 38  1  0
 18 39  1  0
 18 40  1  0
 19 20  1  0
 19 41  1  0
 19 42  1  0
 20 43  1  0
 20 44  1  0
 21 26  2  0
 21 22  1  0
 22 23  2  0
 22 45  1  0
 23 24  1  0
 23 46  1  0
 24 25  2  0
 24 47  1  0
 25 26  1  0
M  CHG  1  17   1
M  END
>  <i_m_ct_stereo_status>  (212) 
1

>  <s_m_source_file>  (212) 
/var/tmp/pbs.5102264.sched01/tmp148in4kv/69urs0mf0h.sdf

>  <i_m_source_file_index>  (212) 
8

>  <i_lp_mmshare_version>  (212) 
48012

>  <i_f3d_flags>  (212) 
0

>  <s_epik_input>  (212) 
W0NIMl09W0NIXWMxc1tjSF1bY0hdYzFTKD1PKSg9TyluKGMoYzIzKW5bY0hdW2NIXVtjSF0zKVtjSF1jMltDSF00W0NIMl1bQ0gyXU4oW0NIM10pW0NIMl1bQ0gyXTQ=

>  <s_epik_cmdline>  (212) 
J2VwaWtfcHl0aG9uJywgJy1waHQnLCAnMi4wJywgJy1waCcsICc3LjAnLCAnLXRuJywgJzgnLCAnLW1hJywgJzIwMCcsICctaW1hZScsICc8aW5maWxlLm1hZT4nLCAnLW9tYWUnLCAnPG91dGZpbGUubWFlPic=

>  <r_epik_Ionization_Penalty>  (212) 
0.00222917

>  <r_epik_Ionization_Penalty_Charging>  (212) 
0.00215996

>  <r_epik_Ionization_Penalty_Neutral>  (212) 
6.92019e-05

>  <r_epik_State_Penalty>  (212) 
0.00148317

>  <r_epik_Charging_Adjusted_Penalty>  (212) 
0.00364313

>  <i_epik_Tot_Q>  (212) 
1

>  <i_epik_Tot_abs_Q>  (212) 
1

>  <s_lp_Force_Field>  (212) 
OPLS3e

>  <r_lp_Energy>  (212) 
30.4451

>  <b_lp_Chiralities_Consistent>  (212) 
1

>  <s_lp_Variant>  (212) 
49:0-1

>  <s_i_glide_gridfile>  (212) 
pfpi4k_grid

>  <i_i_glide_lignum>  (212) 
8

>  <i_i_glide_rotatable_bonds>  (212) 
4

>  <r_i_docking_score>  (212) 
-2.34446

>  <r_i_glide_ligand_efficiency>  (212) 
-0.0901717

>  <r_i_glide_ligand_efficiency_sa>  (212) 
-0.267133

>  <r_i_glide_ligand_efficiency_ln>  (212) 
-0.55059

>  <r_i_glide_gscore>  (212) 
-2.34446

>  <r_i_glide_lipo>  (212) 
-0.0559533

>  <r_i_glide_hbond>  (212) 
0

>  <r_i_glide_metal>  (212) 
-0

>  <r_i_glide_rewards>  (212) 
-0.760188

>  <r_i_glide_evdw>  (212) 
-24.6818

>  <r_i_glide_ecoul>  (212) 
-5.27703

>  <r_i_glide_erotb>  (212) 
0.516312

>  <r_i_glide_esite>  (212) 
-0.0189918

>  <r_i_glide_emodel>  (212) 
-35.3402

>  <r_i_glide_energy>  (212) 
-29.9588

>  <r_i_glide_einternal>  (212) 
1.29336

>  <r_i_glide_intrahb_reward>  (212) 
-0

>  <i_i_glide_confnum>  (212) 
5

>  <i_i_glide_posenum>  (212) 
21

>  <r_i_glide_eff_state_penalty>  (212) 
0

>  <ligand_id>  (212) 
49

>  <original_smiles>  (212) 
C=Cc1sccc1S(=O)(=O)n1cc(C2CCN(C)CC2)c2cccnc21

>  <smiles>  (212) 
[H]C([H])=C([H])c1sc([H])c([H])c1S(=O)(=O)n1c([H])c(C2([H])C([H])([H])C([H])([H])[N+]([H])(C([H])([H])[H])C([H])([H])C2([H])[H])c2c([H])c([H])c([H])nc21

$$$$
50:0:0
     RDKit          3D

 39 42  0  0  1  0  0  0  0  0999 V2000
   -1.7914    4.5434    4.2702 O   0  0  0  0  0  0  0  0  0  0  0  0
   -1.8409    3.4903    3.5995 C   0  0  0  0  0  0  0  0  0  0  0  0
   -2.9212    3.0056    3.1965 O   0  0  0  0  0  0  0  0  0  0  0  0
   -0.5639    2.8254    3.3073 C   0  0  0  0  0  0  0  0  0  0  0  0
    0.7016    3.1575    3.7164 C   0  0  0  0  0  0  0  0  0  0  0  0
    1.6838    2.3030    3.2248 N   0  0  0  0  0  0  0  0  0  0  0  0
    1.1841    1.3990    2.3835 C   0  0  0  0  0  0  0  0  0  0  0  0
    1.9624    0.4636    1.7302 N   0  0  0  0  0  0  0  0  0  0  0  0
    3.3637    0.1582    1.9625 C   0  0  0  0  0  0  0  0  0  0  0  0
    3.8082   -1.1725    1.3411 C   0  0  2  0  0  0  0  0  0  0  0  0
    2.8087   -2.3190    1.6648 C   0  0  0  0  0  0  0  0  0  0  0  0
    3.2933   -3.6343    1.0327 C   0  0  1  0  0  0  0  0  0  0  0  0
    3.3958   -3.4556   -0.4964 C   0  0  0  0  0  0  0  0  0  0  0  0
    4.4259   -2.3525   -0.8153 C   0  0  2  0  0  0  0  0  0  0  0  0
    5.8049   -2.7133   -0.2294 C   0  0  0  0  0  0  0  0  0  0  0  0
    5.6799   -2.8819    1.2956 C   0  0  2  0  0  0  0  0  0  0  0  0
    4.6709   -4.0028    1.6152 C   0  0  0  0  0  0  0  0  0  0  0  0
    5.1955   -1.5557    1.9177 C   0  0  0  0  0  0  0  0  0  0  0  0
    3.9547   -1.0278   -0.1935 C   0  0  0  0  0  0  0  0  0  0  0  0
   -0.5680    1.4266    2.2642 S   0  0  0  0  0  0  0  0  0  0  0  0
    0.9955    3.9823    4.3554 H   0  0  0  0  0  0  0  0  0  0  0  0
    3.9470    0.9733    1.5417 H   0  0  0  0  0  0  0  0  0  0  0  0
    3.5574    0.1484    3.0388 H   0  0  0  0  0  0  0  0  0  0  0  0
    2.6942   -2.4270    2.7443 H   0  0  0  0  0  0  0  0  0  0  0  0
    1.8139   -2.1089    1.2737 H   0  0  0  0  0  0  0  0  0  0  0  0
    2.5765   -4.4222    1.2615 H   0  0  0  0  0  0  0  0  0  0  0  0
    3.6884   -4.3925   -0.9718 H   0  0  0  0  0  0  0  0  0  0  0  0
    2.4208   -3.1796   -0.9042 H   0  0  0  0  0  0  0  0  0  0  0  0
    4.5057   -2.2304   -1.8951 H   0  0  0  0  0  0  0  0  0  0  0  0
    6.1864   -3.6275   -0.6829 H   0  0  0  0  0  0  0  0  0  0  0  0
    6.5203   -1.9218   -0.4546 H   0  0  0  0  0  0  0  0  0  0  0  0
    6.6516   -3.1397    1.7126 H   0  0  0  0  0  0  0  0  0  0  0  0
    4.5937   -4.1416    2.6935 H   0  0  0  0  0  0  0  0  0  0  0  0
    5.0142   -4.9513    1.2030 H   0  0  0  0  0  0  0  0  0  0  0  0
    5.9194   -0.7598    1.7283 H   0  0  0  0  0  0  0  0  0  0  0  0
    5.1319   -1.6580    3.0018 H   0  0  0  0  0  0  0  0  0  0  0  0
    3.0159   -0.7354   -0.6471 H   0  0  0  0  0  0  0  0  0  0  0  0
    4.6533   -0.2299   -0.4374 H   0  0  0  0  0  0  0  0  0  0  0  0
    1.4968   -0.0761    1.0052 H   0  0  0  0  0  0  0  0  0  0  0  0
  1  2  2  0
  2  3  1  0
  2  4  1  0
  4 20  1  0
  4  5  2  0
  5  6  1  0
  5 21  1  0
  6  7  2  0
  7  8  1  0
  7 20  1  0
  8  9  1  0
  8 39  1  0
 10  9  1  1
  9 22  1  0
  9 23  1  0
 10 18  1  0
 10 19  1  0
 10 11  1  0
 11 12  1  0
 11 24  1  0
 11 25  1  0
 12 17  1  0
 12 13  1  0
 12 26  1  6
 13 14  1  0
 13 27  1  0
 13 28  1  0
 14 15  1  0
 14 19  1  0
 14 29  1  6
 15 16  1  0
 15 30  1  0
 15 31  1  0
 16 17  1  0
 16 18  1  0
 16 32  1  1
 17 33  1  0
 17 34  1  0
 18 35  1  0
 18 36  1  0
 19 37  1  0
 19 38  1  0
M  CHG  1   3  -1
M  END
>  <i_m_ct_stereo_status>  (213) 
1

>  <s_m_source_file>  (213) 
/var/tmp/pbs.5102264.sched01/tmp148in4kv/69urs0mf0h.sdf

>  <i_m_source_file_index>  (213) 
9

>  <i_lp_mmshare_version>  (213) 
48012

>  <i_f3d_flags>  (213) 
0

>  <s_epik_input>  (213) 
Tz1DKFtPSF0pYzFbY0hdW25IXS9jKHMxKT1OXFtDSDJdQzIzW0NIMl1bQ0BASF00W0NIMl1bQ0BIXShbQ0gyXTMpW0NIMl1bQ0BASF0oW0NIMl00KVtDSDJdMg==

>  <s_epik_cmdline>  (213) 
J2VwaWtfcHl0aG9uJywgJy1waHQnLCAnMi4wJywgJy1waCcsICc3LjAnLCAnLXRuJywgJzgnLCAnLW1hJywgJzIwMCcsICctaW1hZScsICc8aW5maWxlLm1hZT4nLCAnLW9tYWUnLCAnPG91dGZpbGUubWFlPic=

>  <r_epik_Ionization_Penalty>  (213) 
0.0640431

>  <r_epik_Ionization_Penalty_Charging>  (213) 
0.000463925

>  <r_epik_Ionization_Penalty_Neutral>  (213) 
0.0635792

>  <r_epik_State_Penalty>  (213) 
0.0559154

>  <r_epik_Charging_Adjusted_Penalty>  (213) 
0.0563793

>  <i_epik_Tot_Q>  (213) 
-1

>  <i_epik_Tot_abs_Q>  (213) 
1

>  <s_lp_Force_Field>  (213) 
OPLS3e

>  <r_lp_Energy>  (213) 
5.8573

>  <b_lp_Chiralities_Consistent>  (213) 
1

>  <s_lp_Variant>  (213) 
50:0-1

>  <s_i_glide_gridfile>  (213) 
pfpi4k_grid

>  <i_i_glide_lignum>  (213) 
9

>  <i_i_glide_rotatable_bonds>  (213) 
4

>  <r_i_docking_score>  (213) 
-2.96452

>  <r_i_glide_ligand_efficiency>  (213) 
-0.148226

>  <r_i_glide_ligand_efficiency_sa>  (213) 
-0.402348

>  <r_i_glide_ligand_efficiency_ln>  (213) 
-0.741922

>  <r_i_glide_gscore>  (213) 
-2.96452

>  <r_i_glide_lipo>  (213) 
-0.281707

>  <r_i_glide_hbond>  (213) 
-0.264174

>  <r_i_glide_metal>  (213) 
-0

>  <r_i_glide_rewards>  (213) 
-1.42234

>  <r_i_glide_evdw>  (213) 
-20.9102

>  <r_i_glide_ecoul>  (213) 
-3.20526

>  <r_i_glide_erotb>  (213) 
0.644472

>  <r_i_glide_esite>  (213) 
-0.114469

>  <r_i_glide_emodel>  (213) 
-29.992

>  <r_i_glide_energy>  (213) 
-24.1155

>  <r_i_glide_einternal>  (213) 
1.86686

>  <r_i_glide_intrahb_reward>  (213) 
-0

>  <i_i_glide_confnum>  (213) 
2

>  <i_i_glide_posenum>  (213) 
11

>  <r_i_glide_eff_state_penalty>  (213) 
0

>  <ligand_id>  (213) 
50

>  <original_smiles>  (213) 
O=C(O)c1c[nH]c(=NCC23CC4CC(CC(C4)C2)C3)s1

>  <smiles>  (213) 
[H]c1nc(N([H])C([H])([H])C23C([H])([H])C4([H])C([H])([H])C([H])(C([H])([H])C([H])(C4([H])[H])C2([H])[H])C3([H])[H])sc1C(=O)[O-]

$$$$
50:0:1
     RDKit          3D

 39 42  0  0  1  0  0  0  0  0999 V2000
   -1.7857    4.9446    3.6722 O   0  0  0  0  0  0  0  0  0  0  0  0
   -1.9445    3.7611    3.3024 C   0  0  0  0  0  0  0  0  0  0  0  0
   -3.0592    3.3167    2.9493 O   0  0  0  0  0  0  0  0  0  0  0  0
   -0.7661    2.8957    3.3068 C   0  0  0  0  0  0  0  0  0  0  0  0
    0.4716    3.1297    3.8512 C   0  0  0  0  0  0  0  0  0  0  0  0
    1.3652    2.0818    3.6532 N   0  0  0  0  0  0  0  0  0  0  0  0
    0.8373    1.1120    2.9103 C   0  0  0  0  0  0  0  0  0  0  0  0
    1.5341   -0.0228    2.5700 N   0  0  0  0  0  0  0  0  0  0  0  0
    2.8623   -0.4168    2.9975 C   0  0  0  0  0  0  0  0  0  0  0  0
    3.2930   -1.7782    2.4379 C   0  0  2  0  0  0  0  0  0  0  0  0
    2.2991   -2.8923    2.8629 C   0  0  0  0  0  0  0  0  0  0  0  0
    2.7625   -4.2503    2.3025 C   0  0  1  0  0  0  0  0  0  0  0  0
    2.8205   -4.1737    0.7612 C   0  0  0  0  0  0  0  0  0  0  0  0
    3.8347   -3.0886    0.3384 C   0  0  2  0  0  0  0  0  0  0  0  0
    5.2337   -3.4094    0.9002 C   0  0  0  0  0  0  0  0  0  0  0  0
    5.1578   -3.4864    2.4378 C   0  0  2  0  0  0  0  0  0  0  0  0
    4.1610   -4.5846    2.8602 C   0  0  0  0  0  0  0  0  0  0  0  0
    4.6930   -2.1276    2.9947 C   0  0  0  0  0  0  0  0  0  0  0  0
    3.3794   -1.7269    0.8935 C   0  0  0  0  0  0  0  0  0  0  0  0
   -0.8440    1.3505    2.4889 S   0  0  0  0  0  0  0  0  0  0  0  0
    0.7885    4.0041    4.3983 H   0  0  0  0  0  0  0  0  0  0  0  0
    3.5649    0.3598    2.6836 H   0  0  0  0  0  0  0  0  0  0  0  0
    2.8784   -0.4454    4.0908 H   0  0  0  0  0  0  0  0  0  0  0  0
    2.2250   -2.9346    3.9506 H   0  0  0  0  0  0  0  0  0  0  0  0
    1.2926   -2.6789    2.4995 H   0  0  0  0  0  0  0  0  0  0  0  0
    2.0551   -5.0222    2.6062 H   0  0  0  0  0  0  0  0  0  0  0  0
    3.0902   -5.1417    0.3369 H   0  0  0  0  0  0  0  0  0  0  0  0
    1.8379   -3.9262    0.3601 H   0  0  0  0  0  0  0  0  0  0  0  0
    3.8775   -3.0389   -0.7501 H   0  0  0  0  0  0  0  0  0  0  0  0
    5.6079   -4.3461    0.4883 H   0  0  0  0  0  0  0  0  0  0  0  0
    5.9397   -2.6332    0.6020 H   0  0  0  0  0  0  0  0  0  0  0  0
    6.1426   -3.7189    2.8367 H   0  0  0  0  0  0  0  0  0  0  0  0
    4.1241   -4.6592    3.9473 H   0  0  0  0  0  0  0  0  0  0  0  0
    4.4932   -5.5561    2.4945 H   0  0  0  0  0  0  0  0  0  0  0  0
    5.4062   -1.3459    2.7307 H   0  0  0  0  0  0  0  0  0  0  0  0
    4.6636   -2.1576    4.0839 H   0  0  0  0  0  0  0  0  0  0  0  0
    2.4054   -1.4772    0.4829 H   0  0  0  0  0  0  0  0  0  0  0  0
    4.0571   -0.9356    0.5695 H   0  0  0  0  0  0  0  0  0  0  0  0
    1.1296   -0.5707    1.8215 H   0  0  0  0  0  0  0  0  0  0  0  0
  1  2  2  0
  2  3  1  0
  2  4  1  0
  4 20  1  0
  4  5  2  0
  5  6  1  0
  5 21  1  0
  6  7  2  0
  7  8  1  0
  7 20  1  0
  8  9  1  0
  8 39  1  0
 10  9  1  1
  9 22  1  0
  9 23  1  0
 10 18  1  0
 10 19  1  0
 10 11  1  0
 11 12  1  0
 11 24  1  0
 11 25  1  0
 12 17  1  0
 12 13  1  0
 12 26  1  6
 13 14  1  0
 13 27  1  0
 13 28  1  0
 14 15  1  0
 14 19  1  0
 14 29  1  6
 15 16  1  0
 15 30  1  0
 15 31  1  0
 16 17  1  0
 16 18  1  0
 16 32  1  1
 17 33  1  0
 17 34  1  0
 18 35  1  0
 18 36  1  0
 19 37  1  0
 19 38  1  0
M  CHG  1   3  -1
M  END
>  <i_m_ct_stereo_status>  (214) 
1

>  <s_m_source_file>  (214) 
/var/tmp/pbs.5102264.sched01/tmp148in4kv/69urs0mf0h.sdf

>  <i_m_source_file_index>  (214) 
9

>  <i_lp_mmshare_version>  (214) 
48012

>  <i_f3d_flags>  (214) 
0

>  <s_epik_input>  (214) 
Tz1DKFtPSF0pYzFbY0hdW25IXS9jKHMxKT1OXFtDSDJdQzIzW0NIMl1bQ0BASF00W0NIMl1bQ0BIXShbQ0gyXTMpW0NIMl1bQ0BASF0oW0NIMl00KVtDSDJdMg==

>  <s_epik_cmdline>  (214) 
J2VwaWtfcHl0aG9uJywgJy1waHQnLCAnMi4wJywgJy1waCcsICc3LjAnLCAnLXRuJywgJzgnLCAnLW1hJywgJzIwMCcsICctaW1hZScsICc8aW5maWxlLm1hZT4nLCAnLW9tYWUnLCAnPG91dGZpbGUubWFlPic=

>  <r_epik_Ionization_Penalty>  (214) 
0.0640431

>  <r_epik_Ionization_Penalty_Charging>  (214) 
0.000463925

>  <r_epik_Ionization_Penalty_Neutral>  (214) 
0.0635792

>  <r_epik_State_Penalty>  (214) 
0.0559154

>  <r_epik_Charging_Adjusted_Penalty>  (214) 
0.0563793

>  <i_epik_Tot_Q>  (214) 
-1

>  <i_epik_Tot_abs_Q>  (214) 
1

>  <s_lp_Force_Field>  (214) 
OPLS3e

>  <r_lp_Energy>  (214) 
5.8573

>  <b_lp_Chiralities_Consistent>  (214) 
1

>  <s_lp_Variant>  (214) 
50:0-1

>  <s_i_glide_gridfile>  (214) 
pfpi4k_grid

>  <i_i_glide_lignum>  (214) 
9

>  <i_i_glide_rotatable_bonds>  (214) 
4

>  <r_i_docking_score>  (214) 
-2.76127

>  <r_i_glide_ligand_efficiency>  (214) 
-0.138064

>  <r_i_glide_ligand_efficiency_sa>  (214) 
-0.374762

>  <r_i_glide_ligand_efficiency_ln>  (214) 
-0.691056

>  <r_i_glide_gscore>  (214) 
-2.76127

>  <r_i_glide_lipo>  (214) 
-0.127511

>  <r_i_glide_hbond>  (214) 
-0.2

>  <r_i_glide_metal>  (214) 
-0

>  <r_i_glide_rewards>  (214) 
-1.42234

>  <r_i_glide_evdw>  (214) 
-16.0551

>  <r_i_glide_ecoul>  (214) 
-4.93938

>  <r_i_glide_erotb>  (214) 
0.644472

>  <r_i_glide_esite>  (214) 
-0.112227

>  <r_i_glide_emodel>  (214) 
-26.7269

>  <r_i_glide_energy>  (214) 
-20.9945

>  <r_i_glide_einternal>  (214) 
0.99773

>  <r_i_glide_intrahb_reward>  (214) 
-0

>  <i_i_glide_confnum>  (214) 
4

>  <i_i_glide_posenum>  (214) 
6

>  <r_i_glide_eff_state_penalty>  (214) 
0

>  <ligand_id>  (214) 
50

>  <original_smiles>  (214) 
O=C(O)c1c[nH]c(=NCC23CC4CC(CC(C4)C2)C3)s1

>  <smiles>  (214) 
[H]c1nc(N([H])C([H])([H])C23C([H])([H])C4([H])C([H])([H])C([H])(C([H])([H])C([H])(C4([H])[H])C2([H])[H])C3([H])[H])sc1C(=O)[O-]

$$$$
50:0:2
     RDKit          3D

 39 42  0  0  1  0  0  0  0  0999 V2000
    6.8630   -1.8629   -1.1822 O   0  0  0  0  0  0  0  0  0  0  0  0
    5.7317   -2.3679   -1.3556 C   0  0  0  0  0  0  0  0  0  0  0  0
    5.0803   -2.2143   -2.4157 O   0  0  0  0  0  0  0  0  0  0  0  0
    5.1797   -3.1802   -0.2753 C   0  0  0  0  0  0  0  0  0  0  0  0
    5.7162   -3.4958    0.9502 C   0  0  0  0  0  0  0  0  0  0  0  0
    4.8965   -4.3109    1.7296 N   0  0  0  0  0  0  0  0  0  0  0  0
    3.7694   -4.6388    1.1040 C   0  0  0  0  0  0  0  0  0  0  0  0
    2.8061   -5.4528    1.6646 N   0  0  0  0  0  0  0  0  0  0  0  0
    2.7364   -5.9589    3.0203 C   0  0  0  0  0  0  0  0  0  0  0  0
    1.5765   -6.9397    3.2302 C   0  0  2  0  0  0  0  0  0  0  0  0
    1.7427   -8.2081    2.3485 C   0  0  0  0  0  0  0  0  0  0  0  0
    0.5889   -9.1933    2.6180 C   0  0  1  0  0  0  0  0  0  0  0  0
    0.6050   -9.6090    4.0981 C   0  0  0  0  0  0  0  0  0  0  0  0
    0.4022   -8.3640    4.9775 C   0  0  2  0  0  0  0  0  0  0  0  0
   -0.9373   -7.6816    4.6438 C   0  0  0  0  0  0  0  0  0  0  0  0
   -0.9451   -7.2705    3.1639 C   0  0  2  0  0  0  0  0  0  0  0  0
   -0.7585   -8.5207    2.2830 C   0  0  0  0  0  0  0  0  0  0  0  0
    0.2122   -6.2779    2.9060 C   0  0  0  0  0  0  0  0  0  0  0  0
    1.5550   -7.3737    4.7201 C   0  0  0  0  0  0  0  0  0  0  0  0
    3.5827   -3.8636   -0.4674 S   0  0  0  0  0  0  0  0  0  0  0  0
    6.6748   -3.1915    1.3424 H   0  0  0  0  0  0  0  0  0  0  0  0
    3.6833   -6.4482    3.2604 H   0  0  0  0  0  0  0  0  0  0  0  0
    2.6363   -5.1162    3.7099 H   0  0  0  0  0  0  0  0  0  0  0  0
    1.7529   -7.9616    1.2868 H   0  0  0  0  0  0  0  0  0  0  0  0
    2.6986   -8.6880    2.5579 H   0  0  0  0  0  0  0  0  0  0  0  0
    0.7260  -10.0793    2.0002 H   0  0  0  0  0  0  0  0  0  0  0  0
   -0.1805  -10.3375    4.2950 H   0  0  0  0  0  0  0  0  0  0  0  0
    1.5562  -10.0854    4.3369 H   0  0  0  0  0  0  0  0  0  0  0  0
    0.4104   -8.6591    6.0251 H   0  0  0  0  0  0  0  0  0  0  0  0
   -1.7662   -8.3599    4.8450 H   0  0  0  0  0  0  0  0  0  0  0  0
   -1.0692   -6.8006    5.2719 H   0  0  0  0  0  0  0  0  0  0  0  0
   -1.9061   -6.8133    2.9269 H   0  0  0  0  0  0  0  0  0  0  0  0
   -0.7860   -8.2368    1.2332 H   0  0  0  0  0  0  0  0  0  0  0  0
   -1.5782   -9.2238    2.4355 H   0  0  0  0  0  0  0  0  0  0  0  0
    0.1026   -5.3827    3.5191 H   0  0  0  0  0  0  0  0  0  0  0  0
    0.1732   -5.9703    1.8632 H   0  0  0  0  0  0  0  0  0  0  0  0
    2.5054   -7.8366    4.9892 H   0  0  0  0  0  0  0  0  0  0  0  0
    1.4425   -6.5021    5.3673 H   0  0  0  0  0  0  0  0  0  0  0  0
    2.1257   -5.8393    1.0210 H   0  0  0  0  0  0  0  0  0  0  0  0
  1  2  2  0
  2  3  1  0
  2  4  1  0
  4 20  1  0
  4  5  2  0
  5  6  1  0
  5 21  1  0
  6  7  2  0
  7  8  1  0
  7 20  1  0
  8  9  1  0
  8 39  1  0
 10  9  1  1
  9 22  1  0
  9 23  1  0
 10 18  1  0
 10 19  1  0
 10 11  1  0
 11 12  1  0
 11 24  1  0
 11 25  1  0
 12 17  1  0
 12 13  1  0
 12 26  1  6
 13 14  1  0
 13 27  1  0
 13 28  1  0
 14 15  1  0
 14 19  1  0
 14 29  1  1
 15 16  1  0
 15 30  1  0
 15 31  1  0
 16 17  1  0
 16 18  1  0
 16 32  1  6
 17 33  1  0
 17 34  1  0
 18 35  1  0
 18 36  1  0
 19 37  1  0
 19 38  1  0
M  CHG  1   3  -1
M  END
>  <i_m_ct_stereo_status>  (215) 
1

>  <s_m_source_file>  (215) 
/var/tmp/pbs.5102264.sched01/tmp148in4kv/69urs0mf0h.sdf

>  <i_m_source_file_index>  (215) 
9

>  <i_lp_mmshare_version>  (215) 
48012

>  <i_f3d_flags>  (215) 
0

>  <s_epik_input>  (215) 
Tz1DKFtPSF0pYzFbY0hdW25IXS9jKHMxKT1OXFtDSDJdQzIzW0NIMl1bQ0BASF00W0NIMl1bQ0BIXShbQ0gyXTMpW0NIMl1bQ0BASF0oW0NIMl00KVtDSDJdMg==

>  <s_epik_cmdline>  (215) 
J2VwaWtfcHl0aG9uJywgJy1waHQnLCAnMi4wJywgJy1waCcsICc3LjAnLCAnLXRuJywgJzgnLCAnLW1hJywgJzIwMCcsICctaW1hZScsICc8aW5maWxlLm1hZT4nLCAnLW9tYWUnLCAnPG91dGZpbGUubWFlPic=

>  <r_epik_Ionization_Penalty>  (215) 
0.0640431

>  <r_epik_Ionization_Penalty_Charging>  (215) 
0.000463925

>  <r_epik_Ionization_Penalty_Neutral>  (215) 
0.0635792

>  <r_epik_State_Penalty>  (215) 
0.0559154

>  <r_epik_Charging_Adjusted_Penalty>  (215) 
0.0563793

>  <i_epik_Tot_Q>  (215) 
-1

>  <i_epik_Tot_abs_Q>  (215) 
1

>  <s_lp_Force_Field>  (215) 
OPLS3e

>  <r_lp_Energy>  (215) 
5.8573

>  <b_lp_Chiralities_Consistent>  (215) 
1

>  <s_lp_Variant>  (215) 
50:0-1

>  <s_i_glide_gridfile>  (215) 
pfpi4k_grid

>  <i_i_glide_lignum>  (215) 
9

>  <i_i_glide_rotatable_bonds>  (215) 
4

>  <r_i_docking_score>  (215) 
-2.43957

>  <r_i_glide_ligand_efficiency>  (215) 
-0.121979

>  <r_i_glide_ligand_efficiency_sa>  (215) 
-0.331101

>  <r_i_glide_ligand_efficiency_ln>  (215) 
-0.610545

>  <r_i_glide_gscore>  (215) 
-2.43957

>  <r_i_glide_lipo>  (215) 
-0.111629

>  <r_i_glide_hbond>  (215) 
-0.2

>  <r_i_glide_metal>  (215) 
-0

>  <r_i_glide_rewards>  (215) 
-1.42234

>  <r_i_glide_evdw>  (215) 
-19.1803

>  <r_i_glide_ecoul>  (215) 
-2.34128

>  <r_i_glide_erotb>  (215) 
0.644472

>  <r_i_glide_esite>  (215) 
-0.0398639

>  <r_i_glide_emodel>  (215) 
-26.6605

>  <r_i_glide_energy>  (215) 
-21.5216

>  <r_i_glide_einternal>  (215) 
0.830458

>  <r_i_glide_intrahb_reward>  (215) 
-0

>  <i_i_glide_confnum>  (215) 
3

>  <i_i_glide_posenum>  (215) 
27

>  <r_i_glide_eff_state_penalty>  (215) 
0

>  <ligand_id>  (215) 
50

>  <original_smiles>  (215) 
O=C(O)c1c[nH]c(=NCC23CC4CC(CC(C4)C2)C3)s1

>  <smiles>  (215) 
[H]c1nc(N([H])C([H])([H])C23C([H])([H])C4([H])C([H])([H])C([H])(C([H])([H])C([H])(C4([H])[H])C2([H])[H])C3([H])[H])sc1C(=O)[O-]

$$$$
50:1:0
     RDKit          3D

 40 43  0  0  1  0  0  0  0  0999 V2000
    6.6584   -1.4540    1.2326 O   0  0  0  0  0  0  0  0  0  0  0  0
    6.5377   -2.0980    0.1732 C   0  0  0  0  0  0  0  0  0  0  0  0
    7.2279   -1.8698   -0.8430 O   0  0  0  0  0  0  0  0  0  0  0  0
    5.5445   -3.1722    0.0899 C   0  0  0  0  0  0  0  0  0  0  0  0
    5.1806   -3.9558   -0.9712 C   0  0  0  0  0  0  0  0  0  0  0  0
    4.2091   -4.8732   -0.6304 N   0  0  0  0  0  0  0  0  0  0  0  0
    3.7921   -4.8042    0.6450 C   0  0  0  0  0  0  0  0  0  0  0  0
    2.8570   -5.6488    1.0895 N   0  0  0  0  0  0  0  0  0  0  0  0
    2.1910   -5.4108    2.3700 C   0  0  0  0  0  0  0  0  0  0  0  0
    1.3420   -6.6359    2.8432 C   0  0  2  0  0  0  0  0  0  0  0  0
    2.2611   -7.8408    3.2003 C   0  0  0  0  0  0  0  0  0  0  0  0
    1.4227   -9.0435    3.6867 C   0  0  1  0  0  0  0  0  0  0  0  0
    0.6368   -8.6536    4.9511 C   0  0  0  0  0  0  0  0  0  0  0  0
   -0.3067   -7.4858    4.6073 C   0  0  2  0  0  0  0  0  0  0  0  0
   -1.2970   -7.9051    3.5044 C   0  0  0  0  0  0  0  0  0  0  0  0
   -0.5020   -8.2982    2.2480 C   0  0  2  0  0  0  0  0  0  0  0  0
    0.4430   -9.4735    2.5789 C   0  0  0  0  0  0  0  0  0  0  0  0
    0.3235   -7.0926    1.7544 C   0  0  0  0  0  0  0  0  0  0  0  0
    0.5263   -6.2769    4.1271 C   0  0  0  0  0  0  0  0  0  0  0  0
    4.6229   -3.5505    1.5144 S   0  0  0  0  0  0  0  0  0  0  0  0
    5.5492   -3.9140   -1.9870 H   0  0  0  0  0  0  0  0  0  0  0  0
    2.9199   -5.1667    3.1472 H   0  0  0  0  0  0  0  0  0  0  0  0
    1.5290   -4.5455    2.2841 H   0  0  0  0  0  0  0  0  0  0  0  0
    2.8528   -8.1449    2.3363 H   0  0  0  0  0  0  0  0  0  0  0  0
    2.9740   -7.5563    3.9768 H   0  0  0  0  0  0  0  0  0  0  0  0
    2.0877   -9.8748    3.9184 H   0  0  0  0  0  0  0  0  0  0  0  0
    0.0752   -9.5077    5.3338 H   0  0  0  0  0  0  0  0  0  0  0  0
    1.3285   -8.3583    5.7407 H   0  0  0  0  0  0  0  0  0  0  0  0
   -0.8640   -7.2067    5.4961 H   0  0  0  0  0  0  0  0  0  0  0  0
   -1.9175   -8.7395    3.8355 H   0  0  0  0  0  0  0  0  0  0  0  0
   -1.9781   -7.0854    3.2778 H   0  0  0  0  0  0  0  0  0  0  0  0
   -1.1953   -8.6087    1.4673 H   0  0  0  0  0  0  0  0  0  0  0  0
    1.0039   -9.7807    1.6949 H   0  0  0  0  0  0  0  0  0  0  0  0
   -0.1327  -10.3446    2.8962 H   0  0  0  0  0  0  0  0  0  0  0  0
   -0.3407   -6.2718    1.4877 H   0  0  0  0  0  0  0  0  0  0  0  0
    0.8333   -7.3946    0.8404 H   0  0  0  0  0  0  0  0  0  0  0  0
    1.1919   -5.9584    4.9316 H   0  0  0  0  0  0  0  0  0  0  0  0
   -0.1431   -5.4371    3.9431 H   0  0  0  0  0  0  0  0  0  0  0  0
    2.5764   -6.4607    0.5642 H   0  0  0  0  0  0  0  0  0  0  0  0
    3.7779   -5.4598   -1.3440 H   0  0  0  0  0  0  0  0  0  0  0  0
  1  2  2  0
  2  3  1  0
  2  4  1  0
  4 20  1  0
  4  5  2  0
  5  6  1  0
  5 21  1  0
  6  7  2  0
  6 40  1  0
  7  8  1  0
  7 20  1  0
  8  9  1  0
  8 39  1  0
 10  9  1  6
  9 22  1  0
  9 23  1  0
 10 18  1  0
 10 19  1  0
 10 11  1  0
 11 12  1  0
 11 24  1  0
 11 25  1  0
 12 17  1  0
 12 13  1  0
 12 26  1  1
 13 14  1  0
 13 27  1  0
 13 28  1  0
 14 15  1  0
 14 19  1  0
 14 29  1  1
 15 16  1  0
 15 30  1  0
 15 31  1  0
 16 17  1  0
 16 18  1  0
 16 32  1  6
 17 33  1  0
 17 34  1  0
 18 35  1  0
 18 36  1  0
 19 37  1  0
 19 38  1  0
M  CHG  2   3  -1   6   1
M  END
>  <i_m_ct_stereo_status>  (216) 
1

>  <s_m_source_file>  (216) 
/var/tmp/pbs.5102264.sched01/tmp148in4kv/69urs0mf0h.sdf

>  <i_m_source_file_index>  (216) 
10

>  <i_lp_mmshare_version>  (216) 
48012

>  <i_f3d_flags>  (216) 
0

>  <s_epik_input>  (216) 
Tz1DKFtPSF0pYzFbY0hdW25IXS9jKHMxKT1OXFtDSDJdQzIzW0NIMl1bQ0BASF00W0NIMl1bQ0BIXShbQ0gyXTMpW0NIMl1bQ0BASF0oW0NIMl00KVtDSDJdMg==

>  <s_epik_cmdline>  (216) 
J2VwaWtfcHl0aG9uJywgJy1waHQnLCAnMi4wJywgJy1waCcsICc3LjAnLCAnLXRuJywgJzgnLCAnLW1hJywgJzIwMCcsICctaW1hZScsICc8aW5maWxlLm1hZT4nLCAnLW9tYWUnLCAnPG91dGZpbGUubWFlPic=

>  <r_epik_Ionization_Penalty>  (216) 
1.35984

>  <r_epik_Ionization_Penalty_Charging>  (216) 
1.35474

>  <r_epik_Ionization_Penalty_Neutral>  (216) 
0.00510249

>  <r_epik_State_Penalty>  (216) 
1.43292

>  <r_epik_Charging_Adjusted_Penalty>  (216) 
2.78765

>  <i_epik_Tot_Q>  (216) 
0

>  <i_epik_Tot_abs_Q>  (216) 
2

>  <s_lp_Force_Field>  (216) 
OPLS3e

>  <r_lp_Energy>  (216) 
2.34585

>  <b_lp_Chiralities_Consistent>  (216) 
1

>  <s_lp_Variant>  (216) 
50:0-2

>  <s_i_glide_gridfile>  (216) 
pfpi4k_grid

>  <i_i_glide_lignum>  (216) 
10

>  <i_i_glide_rotatable_bonds>  (216) 
4

>  <r_i_docking_score>  (216) 
-2.9984

>  <r_i_glide_ligand_efficiency>  (216) 
-0.14992

>  <r_i_glide_ligand_efficiency_sa>  (216) 
-0.406945

>  <r_i_glide_ligand_efficiency_ln>  (216) 
-0.7504

>  <r_i_glide_gscore>  (216) 
-2.9984

>  <r_i_glide_lipo>  (216) 
-0.106696

>  <r_i_glide_hbond>  (216) 
-0.2

>  <r_i_glide_metal>  (216) 
-0

>  <r_i_glide_rewards>  (216) 
-1.43583

>  <r_i_glide_evdw>  (216) 
-16.8871

>  <r_i_glide_ecoul>  (216) 
-6.6237

>  <r_i_glide_erotb>  (216) 
0.640601

>  <r_i_glide_esite>  (216) 
-0.0585616

>  <r_i_glide_emodel>  (216) 
-28.7304

>  <r_i_glide_energy>  (216) 
-23.5108

>  <r_i_glide_einternal>  (216) 
1.19903

>  <r_i_glide_intrahb_reward>  (216) 
-0

>  <i_i_glide_confnum>  (216) 
3

>  <i_i_glide_posenum>  (216) 
9

>  <r_i_glide_eff_state_penalty>  (216) 
0

>  <ligand_id>  (216) 
50

>  <original_smiles>  (216) 
O=C(O)c1c[nH]c(=NCC23CC4CC(CC(C4)C2)C3)s1

>  <smiles>  (216) 
[H]c1c(C(=O)[O-])sc(N([H])C([H])([H])C23C([H])([H])C4([H])C([H])([H])C([H])(C([H])([H])C([H])(C4([H])[H])C2([H])[H])C3([H])[H])[n+]1[H]

$$$$
50:1:1
     RDKit          3D

 40 43  0  0  1  0  0  0  0  0999 V2000
    6.8573   -3.1714    0.7658 O   0  0  0  0  0  0  0  0  0  0  0  0
    6.2234   -2.1670    0.3810 C   0  0  0  0  0  0  0  0  0  0  0  0
    6.5942   -1.4704   -0.5958 O   0  0  0  0  0  0  0  0  0  0  0  0
    5.0030   -1.7988    1.1289 C   0  0  0  0  0  0  0  0  0  0  0  0
    4.4035   -2.3777    2.2175 C   0  0  0  0  0  0  0  0  0  0  0  0
    3.2452   -1.7113    2.6141 N   0  0  0  0  0  0  0  0  0  0  0  0
    2.9374   -0.6417    1.8619 C   0  0  0  0  0  0  0  0  0  0  0  0
    1.8740    0.1439    2.0811 N   0  0  0  0  0  0  0  0  0  0  0  0
    0.9310   -0.1207    3.1688 C   0  0  0  0  0  0  0  0  0  0  0  0
    0.2380    1.1620    3.7049 C   0  0  2  0  0  0  0  0  0  0  0  0
    1.2944    2.1455    4.2838 C   0  0  0  0  0  0  0  0  0  0  0  0
    0.6070    3.4102    4.8356 C   0  0  1  0  0  0  0  0  0  0  0  0
   -0.1630    4.1070    3.6983 C   0  0  0  0  0  0  0  0  0  0  0  0
   -1.2464    3.1503    3.1603 C   0  0  2  0  0  0  0  0  0  0  0  0
   -2.2195    2.7602    4.2880 C   0  0  0  0  0  0  0  0  0  0  0  0
   -1.4308    2.0633    5.4114 C   0  0  2  0  0  0  0  0  0  0  0  0
   -0.3643    3.0266    5.9687 C   0  0  0  0  0  0  0  0  0  0  0  0
   -0.7470    0.7936    4.8532 C   0  0  0  0  0  0  0  0  0  0  0  0
   -0.5780    1.8788    2.5920 C   0  0  0  0  0  0  0  0  0  0  0  0
    4.1122   -0.4015    0.6032 S   0  0  0  0  0  0  0  0  0  0  0  0
    4.7321   -3.2550    2.7571 H   0  0  0  0  0  0  0  0  0  0  0  0
    0.1808   -0.8120    2.7884 H   0  0  0  0  0  0  0  0  0  0  0  0
    1.4207   -0.6249    4.0040 H   0  0  0  0  0  0  0  0  0  0  0  0
    1.8678    1.6591    5.0742 H   0  0  0  0  0  0  0  0  0  0  0  0
    2.0141    2.4413    3.5183 H   0  0  0  0  0  0  0  0  0  0  0  0
    1.3662    4.0870    5.2236 H   0  0  0  0  0  0  0  0  0  0  0  0
   -0.6084    5.0374    4.0471 H   0  0  0  0  0  0  0  0  0  0  0  0
    0.5261    4.3782    2.8973 H   0  0  0  0  0  0  0  0  0  0  0  0
   -1.7999    3.6498    2.3682 H   0  0  0  0  0  0  0  0  0  0  0  0
   -2.7409    3.6340    4.6752 H   0  0  0  0  0  0  0  0  0  0  0  0
   -2.9868    2.0961    3.8938 H   0  0  0  0  0  0  0  0  0  0  0  0
   -2.1159    1.7874    6.2109 H   0  0  0  0  0  0  0  0  0  0  0  0
    0.1793    2.5564    6.7887 H   0  0  0  0  0  0  0  0  0  0  0  0
   -0.8358    3.9176    6.3832 H   0  0  0  0  0  0  0  0  0  0  0  0
   -1.5057    0.0969    4.4923 H   0  0  0  0  0  0  0  0  0  0  0  0
   -0.2146    0.2817    5.6560 H   0  0  0  0  0  0  0  0  0  0  0  0
    0.0627    2.1501    1.7519 H   0  0  0  0  0  0  0  0  0  0  0  0
   -1.3403    1.2136    2.1820 H   0  0  0  0  0  0  0  0  0  0  0  0
    1.6536    0.9058    1.4538 H   0  0  0  0  0  0  0  0  0  0  0  0
    2.6837   -2.0017    3.4030 H   0  0  0  0  0  0  0  0  0  0  0  0
  1  2  2  0
  2  3  1  0
  2  4  1  0
  4 20  1  0
  4  5  2  0
  5  6  1  0
  5 21  1  0
  6  7  2  0
  6 40  1  0
  7  8  1  0
  7 20  1  0
  8  9  1  0
  8 39  1  0
 10  9  1  6
  9 22  1  0
  9 23  1  0
 10 18  1  0
 10 19  1  0
 10 11  1  0
 11 12  1  0
 11 24  1  0
 11 25  1  0
 12 17  1  0
 12 13  1  0
 12 26  1  1
 13 14  1  0
 13 27  1  0
 13 28  1  0
 14 15  1  0
 14 19  1  0
 14 29  1  6
 15 16  1  0
 15 30  1  0
 15 31  1  0
 16 17  1  0
 16 18  1  0
 16 32  1  1
 17 33  1  0
 17 34  1  0
 18 35  1  0
 18 36  1  0
 19 37  1  0
 19 38  1  0
M  CHG  2   3  -1   6   1
M  END
>  <i_m_ct_stereo_status>  (217) 
1

>  <s_m_source_file>  (217) 
/var/tmp/pbs.5102264.sched01/tmp148in4kv/69urs0mf0h.sdf

>  <i_m_source_file_index>  (217) 
10

>  <i_lp_mmshare_version>  (217) 
48012

>  <i_f3d_flags>  (217) 
0

>  <s_epik_input>  (217) 
Tz1DKFtPSF0pYzFbY0hdW25IXS9jKHMxKT1OXFtDSDJdQzIzW0NIMl1bQ0BASF00W0NIMl1bQ0BIXShbQ0gyXTMpW0NIMl1bQ0BASF0oW0NIMl00KVtDSDJdMg==

>  <s_epik_cmdline>  (217) 
J2VwaWtfcHl0aG9uJywgJy1waHQnLCAnMi4wJywgJy1waCcsICc3LjAnLCAnLXRuJywgJzgnLCAnLW1hJywgJzIwMCcsICctaW1hZScsICc8aW5maWxlLm1hZT4nLCAnLW9tYWUnLCAnPG91dGZpbGUubWFlPic=

>  <r_epik_Ionization_Penalty>  (217) 
1.35984

>  <r_epik_Ionization_Penalty_Charging>  (217) 
1.35474

>  <r_epik_Ionization_Penalty_Neutral>  (217) 
0.00510249

>  <r_epik_State_Penalty>  (217) 
1.43292

>  <r_epik_Charging_Adjusted_Penalty>  (217) 
2.78765

>  <i_epik_Tot_Q>  (217) 
0

>  <i_epik_Tot_abs_Q>  (217) 
2

>  <s_lp_Force_Field>  (217) 
OPLS3e

>  <r_lp_Energy>  (217) 
2.34585

>  <b_lp_Chiralities_Consistent>  (217) 
1

>  <s_lp_Variant>  (217) 
50:0-2

>  <s_i_glide_gridfile>  (217) 
pfpi4k_grid

>  <i_i_glide_lignum>  (217) 
10

>  <i_i_glide_rotatable_bonds>  (217) 
4

>  <r_i_docking_score>  (217) 
-2.65583

>  <r_i_glide_ligand_efficiency>  (217) 
-0.132792

>  <r_i_glide_ligand_efficiency_sa>  (217) 
-0.360452

>  <r_i_glide_ligand_efficiency_ln>  (217) 
-0.664667

>  <r_i_glide_gscore>  (217) 
-2.65583

>  <r_i_glide_lipo>  (217) 
-0.1968

>  <r_i_glide_hbond>  (217) 
-0.156001

>  <r_i_glide_metal>  (217) 
-0

>  <r_i_glide_rewards>  (217) 
-1.51024

>  <r_i_glide_evdw>  (217) 
-16.3935

>  <r_i_glide_ecoul>  (217) 
-3.77906

>  <r_i_glide_erotb>  (217) 
0.640601

>  <r_i_glide_esite>  (217) 
-0.0468566

>  <r_i_glide_emodel>  (217) 
-24.0985

>  <r_i_glide_energy>  (217) 
-20.1726

>  <r_i_glide_einternal>  (217) 
2.70324

>  <r_i_glide_intrahb_reward>  (217) 
-0

>  <i_i_glide_confnum>  (217) 
4

>  <i_i_glide_posenum>  (217) 
7

>  <r_i_glide_eff_state_penalty>  (217) 
0

>  <ligand_id>  (217) 
50

>  <original_smiles>  (217) 
O=C(O)c1c[nH]c(=NCC23CC4CC(CC(C4)C2)C3)s1

>  <smiles>  (217) 
[H]c1c(C(=O)[O-])sc(N([H])C([H])([H])C23C([H])([H])C4([H])C([H])([H])C([H])(C([H])([H])C([H])(C4([H])[H])C2([H])[H])C3([H])[H])[n+]1[H]

$$$$
50:1:2
     RDKit          3D

 40 43  0  0  1  0  0  0  0  0999 V2000
    6.1686   -3.3741   -0.0824 O   0  0  0  0  0  0  0  0  0  0  0  0
    5.0753   -3.3917    0.5304 C   0  0  0  0  0  0  0  0  0  0  0  0
    4.5020   -4.4469    0.8859 O   0  0  0  0  0  0  0  0  0  0  0  0
    4.4491   -2.0982    0.8500 C   0  0  0  0  0  0  0  0  0  0  0  0
    4.8806   -0.8222    0.5966 C   0  0  0  0  0  0  0  0  0  0  0  0
    3.9938    0.1457    1.0572 N   0  0  0  0  0  0  0  0  0  0  0  0
    2.8982   -0.3387    1.6543 C   0  0  0  0  0  0  0  0  0  0  0  0
    1.9616    0.4962    2.1244 N   0  0  0  0  0  0  0  0  0  0  0  0
    0.8918    0.0002    2.9899 C   0  0  0  0  0  0  0  0  0  0  0  0
    0.1325    1.1394    3.7252 C   0  0  2  0  0  0  0  0  0  0  0  0
    1.0958    1.9313    4.6559 C   0  0  0  0  0  0  0  0  0  0  0  0
    0.3405    3.0626    5.3845 C   0  0  1  0  0  0  0  0  0  0  0  0
   -0.2584    4.0309    4.3450 C   0  0  0  0  0  0  0  0  0  0  0  0
   -1.2549    3.2615    3.4556 C   0  0  2  0  0  0  0  0  0  0  0  0
   -2.3799    2.6649    4.3218 C   0  0  0  0  0  0  0  0  0  0  0  0
   -1.7609    1.6935    5.3482 C   0  0  2  0  0  0  0  0  0  0  0  0
   -0.7836    2.4660    6.2539 C   0  0  0  0  0  0  0  0  0  0  0  0
   -1.0079    0.5587    4.6113 C   0  0  0  0  0  0  0  0  0  0  0  0
   -0.5183    2.1224    2.7145 C   0  0  0  0  0  0  0  0  0  0  0  0
    2.9143   -2.0828    1.6875 S   0  0  0  0  0  0  0  0  0  0  0  0
    5.7887   -0.5185    0.0990 H   0  0  0  0  0  0  0  0  0  0  0  0
    0.1989   -0.5672    2.3694 H   0  0  0  0  0  0  0  0  0  0  0  0
    1.2984   -0.6956    3.7298 H   0  0  0  0  0  0  0  0  0  0  0  0
    1.5480    1.2597    5.3866 H   0  0  0  0  0  0  0  0  0  0  0  0
    1.9177    2.3698    4.0891 H   0  0  0  0  0  0  0  0  0  0  0  0
    1.0368    3.6047    6.0214 H   0  0  0  0  0  0  0  0  0  0  0  0
   -0.7478    4.8722    4.8401 H   0  0  0  0  0  0  0  0  0  0  0  0
    0.5348    4.4527    3.7270 H   0  0  0  0  0  0  0  0  0  0  0  0
   -1.6862    3.9436    2.7249 H   0  0  0  0  0  0  0  0  0  0  0  0
   -2.9530    3.4432    4.8274 H   0  0  0  0  0  0  0  0  0  0  0  0
   -3.0907    2.1523    3.6771 H   0  0  0  0  0  0  0  0  0  0  0  0
   -2.5489    1.2704    5.9682 H   0  0  0  0  0  0  0  0  0  0  0  0
   -0.3639    1.8037    7.0108 H   0  0  0  0  0  0  0  0  0  0  0  0
   -1.3073    3.2560    6.7966 H   0  0  0  0  0  0  0  0  0  0  0  0
   -1.7129   -0.0065    4.0023 H   0  0  0  0  0  0  0  0  0  0  0  0
   -0.5990   -0.1396    5.3405 H   0  0  0  0  0  0  0  0  0  0  0  0
    0.2454    2.5467    2.0692 H   0  0  0  0  0  0  0  0  0  0  0  0
   -1.2157    1.5999    2.0575 H   0  0  0  0  0  0  0  0  0  0  0  0
    1.9550    1.4774    1.8892 H   0  0  0  0  0  0  0  0  0  0  0  0
    4.1729    1.1382    0.9471 H   0  0  0  0  0  0  0  0  0  0  0  0
  1  2  2  0
  2  3  1  0
  2  4  1  0
  4 20  1  0
  4  5  2  0
  5  6  1  0
  5 21  1  0
  6  7  2  0
  6 40  1  0
  7  8  1  0
  7 20  1  0
  8  9  1  0
  8 39  1  0
 10  9  1  6
  9 22  1  0
  9 23  1  0
 10 18  1  0
 10 19  1  0
 10 11  1  0
 11 12  1  0
 11 24  1  0
 11 25  1  0
 12 17  1  0
 12 13  1  0
 12 26  1  1
 13 14  1  0
 13 27  1  0
 13 28  1  0
 14 15  1  0
 14 19  1  0
 14 29  1  6
 15 16  1  0
 15 30  1  0
 15 31  1  0
 16 17  1  0
 16 18  1  0
 16 32  1  1
 17 33  1  0
 17 34  1  0
 18 35  1  0
 18 36  1  0
 19 37  1  0
 19 38  1  0
M  CHG  2   3  -1   6   1
M  END
>  <i_m_ct_stereo_status>  (218) 
1

>  <s_m_source_file>  (218) 
/var/tmp/pbs.5102264.sched01/tmp148in4kv/69urs0mf0h.sdf

>  <i_m_source_file_index>  (218) 
10

>  <i_lp_mmshare_version>  (218) 
48012

>  <i_f3d_flags>  (218) 
0

>  <s_epik_input>  (218) 
Tz1DKFtPSF0pYzFbY0hdW25IXS9jKHMxKT1OXFtDSDJdQzIzW0NIMl1bQ0BASF00W0NIMl1bQ0BIXShbQ0gyXTMpW0NIMl1bQ0BASF0oW0NIMl00KVtDSDJdMg==

>  <s_epik_cmdline>  (218) 
J2VwaWtfcHl0aG9uJywgJy1waHQnLCAnMi4wJywgJy1waCcsICc3LjAnLCAnLXRuJywgJzgnLCAnLW1hJywgJzIwMCcsICctaW1hZScsICc8aW5maWxlLm1hZT4nLCAnLW9tYWUnLCAnPG91dGZpbGUubWFlPic=

>  <r_epik_Ionization_Penalty>  (218) 
1.35984

>  <r_epik_Ionization_Penalty_Charging>  (218) 
1.35474

>  <r_epik_Ionization_Penalty_Neutral>  (218) 
0.00510249

>  <r_epik_State_Penalty>  (218) 
1.43292

>  <r_epik_Charging_Adjusted_Penalty>  (218) 
2.78765

>  <i_epik_Tot_Q>  (218) 
0

>  <i_epik_Tot_abs_Q>  (218) 
2

>  <s_lp_Force_Field>  (218) 
OPLS3e

>  <r_lp_Energy>  (218) 
2.34585

>  <b_lp_Chiralities_Consistent>  (218) 
1

>  <s_lp_Variant>  (218) 
50:0-2

>  <s_i_glide_gridfile>  (218) 
pfpi4k_grid

>  <i_i_glide_lignum>  (218) 
10

>  <i_i_glide_rotatable_bonds>  (218) 
4

>  <r_i_docking_score>  (218) 
-2.14812

>  <r_i_glide_ligand_efficiency>  (218) 
-0.107406

>  <r_i_glide_ligand_efficiency_sa>  (218) 
-0.291545

>  <r_i_glide_ligand_efficiency_ln>  (218) 
-0.537603

>  <r_i_glide_gscore>  (218) 
-2.14812

>  <r_i_glide_lipo>  (218) 
-0.110146

>  <r_i_glide_hbond>  (218) 
0

>  <r_i_glide_metal>  (218) 
-0

>  <r_i_glide_rewards>  (218) 
-1.46255

>  <r_i_glide_evdw>  (218) 
-17.0916

>  <r_i_glide_ecoul>  (218) 
-2.19037

>  <r_i_glide_erotb>  (218) 
0.640601

>  <r_i_glide_esite>  (218) 
-0.0328885

>  <r_i_glide_emodel>  (218) 
-23.0672

>  <r_i_glide_energy>  (218) 
-19.282

>  <r_i_glide_einternal>  (218) 
0.744533

>  <r_i_glide_intrahb_reward>  (218) 
-0

>  <i_i_glide_confnum>  (218) 
4

>  <i_i_glide_posenum>  (218) 
10

>  <r_i_glide_eff_state_penalty>  (218) 
0

>  <ligand_id>  (218) 
50

>  <original_smiles>  (218) 
O=C(O)c1c[nH]c(=NCC23CC4CC(CC(C4)C2)C3)s1

>  <smiles>  (218) 
[H]c1c(C(=O)[O-])sc(N([H])C([H])([H])C23C([H])([H])C4([H])C([H])([H])C([H])(C([H])([H])C([H])(C4([H])[H])C2([H])[H])C3([H])[H])[n+]1[H]

$$$$
51:0:0
     RDKit          3D

 31 31  0  0  1  0  0  0  0  0999 V2000
   -8.4984  -10.2598   -9.8469 C   0  0  0  0  0  0  0  0  0  0  0  0
   -7.3906  -10.6215   -8.8537 C   0  0  0  0  0  0  0  0  0  0  0  0
   -7.8385  -10.4880   -7.4568 N   0  0  0  0  0  0  0  0  0  0  0  0
   -8.7962  -11.4176   -6.8631 C   0  0  0  0  0  0  0  0  0  0  0  0
   -7.6441   -9.3113   -6.7526 N   0  0  0  0  0  0  0  0  0  0  0  0
   -6.9651   -8.3976   -7.2575 N   0  0  0  0  0  0  0  0  0  0  0  0
   -6.8814   -7.2361   -6.4597 C   0  0  0  0  0  0  0  0  0  0  0  0
   -7.8001   -6.1697   -6.6571 C   0  0  0  0  0  0  0  0  0  0  0  0
   -8.8824   -6.2600   -7.7144 C   0  0  0  0  0  0  0  0  0  0  0  0
   -7.7197   -5.0141   -5.8496 C   0  0  0  0  0  0  0  0  0  0  0  0
   -6.7187   -4.9019   -4.8646 C   0  0  0  0  0  0  0  0  0  0  0  0
   -5.7916   -5.9487   -4.6928 C   0  0  0  0  0  0  0  0  0  0  0  0
   -5.8655   -7.1154   -5.4776 C   0  0  0  0  0  0  0  0  0  0  0  0
   -4.8502   -8.2269   -5.2516 C   0  0  0  0  0  0  0  0  0  0  0  0
   -8.1794  -10.3977  -10.8812 H   0  0  0  0  0  0  0  0  0  0  0  0
   -8.8110   -9.2201   -9.7150 H   0  0  0  0  0  0  0  0  0  0  0  0
   -9.3762  -10.8886   -9.6889 H   0  0  0  0  0  0  0  0  0  0  0  0
   -7.1019  -11.6590   -9.0071 H   0  0  0  0  0  0  0  0  0  0  0  0
   -6.4919  -10.0324   -9.0402 H   0  0  0  0  0  0  0  0  0  0  0  0
   -9.7556  -11.3159   -7.3669 H   0  0  0  0  0  0  0  0  0  0  0  0
   -8.9376  -11.2084   -5.8026 H   0  0  0  0  0  0  0  0  0  0  0  0
   -8.4461  -12.4400   -6.9883 H   0  0  0  0  0  0  0  0  0  0  0  0
   -9.5183   -5.3767   -7.7031 H   0  0  0  0  0  0  0  0  0  0  0  0
   -9.5205   -7.1239   -7.5319 H   0  0  0  0  0  0  0  0  0  0  0  0
   -8.4500   -6.3499   -8.7112 H   0  0  0  0  0  0  0  0  0  0  0  0
   -8.4306   -4.2074   -5.9720 H   0  0  0  0  0  0  0  0  0  0  0  0
   -6.6711   -4.0229   -4.2336 H   0  0  0  0  0  0  0  0  0  0  0  0
   -5.0318   -5.8604   -3.9303 H   0  0  0  0  0  0  0  0  0  0  0  0
   -4.2284   -8.0271   -4.3800 H   0  0  0  0  0  0  0  0  0  0  0  0
   -4.1893   -8.3279   -6.1111 H   0  0  0  0  0  0  0  0  0  0  0  0
   -5.3503   -9.1793   -5.0807 H   0  0  0  0  0  0  0  0  0  0  0  0
  1  2  1  0
  1 15  1  0
  1 16  1  0
  1 17  1  0
  2  3  1  0
  2 18  1  0
  2 19  1  0
  3  4  1  0
  3  5  1  0
  4 20  1  0
  4 21  1  0
  4 22  1  0
  5  6  2  3
  6  7  1  0
  7 13  2  0
  7  8  1  0
  8  9  1  0
  8 10  2  0
  9 23  1  0
  9 24  1  0
  9 25  1  0
 10 11  1  0
 10 26  1  0
 11 12  2  0
 11 27  1  0
 12 13  1  0
 12 28  1  0
 13 14  1  0
 14 29  1  0
 14 30  1  0
 14 31  1  0
M  END
>  <i_m_ct_stereo_status>  (219) 
1

>  <s_m_source_file>  (219) 
/var/tmp/pbs.5102264.sched01/tmp148in4kv/69urs0mf0h.sdf

>  <i_m_source_file_index>  (219) 
11

>  <i_lp_mmshare_version>  (219) 
48012

>  <i_f3d_flags>  (219) 
0

>  <s_epik_input>  (219) 
W0NIM11bQ0gyXU4oW0NIM10pL049Ti9jMWMoW0NIM10pW2NIXVtjSF1bY0hdYzFbQ0gzXQ==

>  <s_epik_cmdline>  (219) 
J2VwaWtfcHl0aG9uJywgJy1waHQnLCAnMi4wJywgJy1waCcsICc3LjAnLCAnLXRuJywgJzgnLCAnLW1hJywgJzIwMCcsICctaW1hZScsICc8aW5maWxlLm1hZT4nLCAnLW9tYWUnLCAnPG91dGZpbGUubWFlPic=

>  <r_lp_tautomer_probability>  (219) 
1

>  <r_epik_Ionization_Penalty>  (219) 
6.07681e-06

>  <r_epik_Ionization_Penalty_Charging>  (219) 
0

>  <r_epik_Ionization_Penalty_Neutral>  (219) 
6.07681e-06

>  <r_epik_State_Penalty>  (219) 
-0

>  <r_epik_Charging_Adjusted_Penalty>  (219) 
0

>  <i_epik_Tot_Q>  (219) 
0

>  <i_epik_Tot_abs_Q>  (219) 
0

>  <s_lp_Force_Field>  (219) 
OPLS3e

>  <r_lp_Energy>  (219) 
22.6757

>  <b_lp_Chiralities_Consistent>  (219) 
1

>  <s_lp_Variant>  (219) 
51:0-1

>  <s_i_glide_gridfile>  (219) 
pfpi4k_grid

>  <i_i_glide_lignum>  (219) 
11

>  <i_i_glide_rotatable_bonds>  (219) 
3

>  <r_i_docking_score>  (219) 
-5.27656

>  <r_i_glide_ligand_efficiency>  (219) 
-0.376897

>  <r_i_glide_ligand_efficiency_sa>  (219) 
-0.908376

>  <r_i_glide_ligand_efficiency_ln>  (219) 
-1.44998

>  <r_i_glide_gscore>  (219) 
-5.27656

>  <r_i_glide_lipo>  (219) 
-2.45352

>  <r_i_glide_hbond>  (219) 
0

>  <r_i_glide_metal>  (219) 
-0

>  <r_i_glide_rewards>  (219) 
-2.57162

>  <r_i_glide_evdw>  (219) 
-22.8739

>  <r_i_glide_ecoul>  (219) 
0.0851066

>  <r_i_glide_erotb>  (219) 
0.879515

>  <r_i_glide_esite>  (219) 
0

>  <r_i_glide_emodel>  (219) 
-30.3176

>  <r_i_glide_energy>  (219) 
-22.7888

>  <r_i_glide_einternal>  (219) 
0.159019

>  <r_i_glide_intrahb_reward>  (219) 
-0

>  <i_i_glide_confnum>  (219) 
1

>  <i_i_glide_posenum>  (219) 
2

>  <r_i_glide_eff_state_penalty>  (219) 
0

>  <ligand_id>  (219) 
51

>  <original_smiles>  (219) 
CCN(C)N=Nc1c(C)cccc1C

>  <smiles>  (219) 
[H]c1c([H])c(C([H])([H])[H])c(N=NN(C([H])([H])[H])C([H])([H])C([H])([H])[H])c(C([H])([H])[H])c1[H]

$$$$
51:0:1
     RDKit          3D

 31 31  0  0  1  0  0  0  0  0999 V2000
   -6.1975  -11.0600   -6.3819 C   0  0  0  0  0  0  0  0  0  0  0  0
   -5.4244  -10.0061   -7.1736 C   0  0  0  0  0  0  0  0  0  0  0  0
   -5.0115   -8.8990   -6.3167 N   0  0  0  0  0  0  0  0  0  0  0  0
   -4.0735   -9.0379   -5.2006 C   0  0  0  0  0  0  0  0  0  0  0  0
   -5.6511   -7.6856   -6.4090 N   0  0  0  0  0  0  0  0  0  0  0  0
   -6.8463   -7.6315   -6.7417 N   0  0  0  0  0  0  0  0  0  0  0  0
   -7.4991   -6.3693   -6.5797 C   0  0  0  0  0  0  0  0  0  0  0  0
   -8.3548   -5.9290   -7.6159 C   0  0  0  0  0  0  0  0  0  0  0  0
   -8.5908   -6.7764   -8.8618 C   0  0  0  0  0  0  0  0  0  0  0  0
   -8.9956   -4.6756   -7.5165 C   0  0  0  0  0  0  0  0  0  0  0  0
   -8.8101   -3.8632   -6.3822 C   0  0  0  0  0  0  0  0  0  0  0  0
   -7.9912   -4.3120   -5.3394 C   0  0  0  0  0  0  0  0  0  0  0  0
   -7.3339   -5.5599   -5.4116 C   0  0  0  0  0  0  0  0  0  0  0  0
   -6.5038   -5.9784   -4.2040 C   0  0  0  0  0  0  0  0  0  0  0  0
   -6.4976  -11.9057   -7.0078 H   0  0  0  0  0  0  0  0  0  0  0  0
   -7.0909  -10.6112   -5.9322 H   0  0  0  0  0  0  0  0  0  0  0  0
   -5.5699  -11.4399   -5.5711 H   0  0  0  0  0  0  0  0  0  0  0  0
   -4.5294  -10.4558   -7.6019 H   0  0  0  0  0  0  0  0  0  0  0  0
   -6.0169   -9.6417   -8.0118 H   0  0  0  0  0  0  0  0  0  0  0  0
   -4.5316   -9.6376   -4.4167 H   0  0  0  0  0  0  0  0  0  0  0  0
   -3.8178   -8.0682   -4.7813 H   0  0  0  0  0  0  0  0  0  0  0  0
   -3.1608   -9.5446   -5.5152 H   0  0  0  0  0  0  0  0  0  0  0  0
   -9.2532   -6.2718   -9.5582 H   0  0  0  0  0  0  0  0  0  0  0  0
   -9.0529   -7.7274   -8.6013 H   0  0  0  0  0  0  0  0  0  0  0  0
   -7.6522   -6.9664   -9.3783 H   0  0  0  0  0  0  0  0  0  0  0  0
   -9.6263   -4.3210   -8.3137 H   0  0  0  0  0  0  0  0  0  0  0  0
   -9.2906   -2.8922   -6.3169 H   0  0  0  0  0  0  0  0  0  0  0  0
   -7.8572   -3.6891   -4.4688 H   0  0  0  0  0  0  0  0  0  0  0  0
   -6.6379   -5.3147   -3.3496 H   0  0  0  0  0  0  0  0  0  0  0  0
   -5.4414   -5.9674   -4.4324 H   0  0  0  0  0  0  0  0  0  0  0  0
   -6.7789   -6.9894   -3.9160 H   0  0  0  0  0  0  0  0  0  0  0  0
  1  2  1  0
  1 15  1  0
  1 16  1  0
  1 17  1  0
  2  3  1  0
  2 18  1  0
  2 19  1  0
  3  4  1  0
  3  5  1  0
  4 20  1  0
  4 21  1  0
  4 22  1  0
  5  6  2  3
  6  7  1  0
  7 13  2  0
  7  8  1  0
  8  9  1  0
  8 10  2  0
  9 23  1  0
  9 24  1  0
  9 25  1  0
 10 11  1  0
 10 26  1  0
 11 12  2  0
 11 27  1  0
 12 13  1  0
 12 28  1  0
 13 14  1  0
 14 29  1  0
 14 30  1  0
 14 31  1  0
M  END
>  <i_m_ct_stereo_status>  (220) 
1

>  <s_m_source_file>  (220) 
/var/tmp/pbs.5102264.sched01/tmp148in4kv/69urs0mf0h.sdf

>  <i_m_source_file_index>  (220) 
11

>  <i_lp_mmshare_version>  (220) 
48012

>  <i_f3d_flags>  (220) 
0

>  <s_epik_input>  (220) 
W0NIM11bQ0gyXU4oW0NIM10pL049Ti9jMWMoW0NIM10pW2NIXVtjSF1bY0hdYzFbQ0gzXQ==

>  <s_epik_cmdline>  (220) 
J2VwaWtfcHl0aG9uJywgJy1waHQnLCAnMi4wJywgJy1waCcsICc3LjAnLCAnLXRuJywgJzgnLCAnLW1hJywgJzIwMCcsICctaW1hZScsICc8aW5maWxlLm1hZT4nLCAnLW9tYWUnLCAnPG91dGZpbGUubWFlPic=

>  <r_lp_tautomer_probability>  (220) 
1

>  <r_epik_Ionization_Penalty>  (220) 
6.07681e-06

>  <r_epik_Ionization_Penalty_Charging>  (220) 
0

>  <r_epik_Ionization_Penalty_Neutral>  (220) 
6.07681e-06

>  <r_epik_State_Penalty>  (220) 
-0

>  <r_epik_Charging_Adjusted_Penalty>  (220) 
0

>  <i_epik_Tot_Q>  (220) 
0

>  <i_epik_Tot_abs_Q>  (220) 
0

>  <s_lp_Force_Field>  (220) 
OPLS3e

>  <r_lp_Energy>  (220) 
22.6757

>  <b_lp_Chiralities_Consistent>  (220) 
1

>  <s_lp_Variant>  (220) 
51:0-1

>  <s_i_glide_gridfile>  (220) 
pfpi4k_grid

>  <i_i_glide_lignum>  (220) 
11

>  <i_i_glide_rotatable_bonds>  (220) 
3

>  <r_i_docking_score>  (220) 
-5.22476

>  <r_i_glide_ligand_efficiency>  (220) 
-0.373197

>  <r_i_glide_ligand_efficiency_sa>  (220) 
-0.899458

>  <r_i_glide_ligand_efficiency_ln>  (220) 
-1.43574

>  <r_i_glide_gscore>  (220) 
-5.22476

>  <r_i_glide_lipo>  (220) 
-2.17502

>  <r_i_glide_hbond>  (220) 
0

>  <r_i_glide_metal>  (220) 
-0

>  <r_i_glide_rewards>  (220) 
-2.65895

>  <r_i_glide_evdw>  (220) 
-24.1724

>  <r_i_glide_ecoul>  (220) 
-0.411246

>  <r_i_glide_erotb>  (220) 
0.879515

>  <r_i_glide_esite>  (220) 
0

>  <r_i_glide_emodel>  (220) 
-30.0924

>  <r_i_glide_energy>  (220) 
-24.5836

>  <r_i_glide_einternal>  (220) 
3.47156

>  <r_i_glide_intrahb_reward>  (220) 
-0

>  <i_i_glide_confnum>  (220) 
5

>  <i_i_glide_posenum>  (220) 
10

>  <r_i_glide_eff_state_penalty>  (220) 
0

>  <ligand_id>  (220) 
51

>  <original_smiles>  (220) 
CCN(C)N=Nc1c(C)cccc1C

>  <smiles>  (220) 
[H]c1c([H])c(C([H])([H])[H])c(N=NN(C([H])([H])[H])C([H])([H])C([H])([H])[H])c(C([H])([H])[H])c1[H]

$$$$
51:0:2
     RDKit          3D

 31 31  0  0  1  0  0  0  0  0999 V2000
   -6.2666  -12.0726   -8.8449 C   0  0  0  0  0  0  0  0  0  0  0  0
   -7.2388  -10.8903   -8.7955 C   0  0  0  0  0  0  0  0  0  0  0  0
   -7.8331  -10.6732   -7.4570 N   0  0  0  0  0  0  0  0  0  0  0  0
   -8.8255  -11.5870   -6.8939 C   0  0  0  0  0  0  0  0  0  0  0  0
   -7.6297   -9.5011   -6.7470 N   0  0  0  0  0  0  0  0  0  0  0  0
   -6.8913   -8.6160   -7.2223 N   0  0  0  0  0  0  0  0  0  0  0  0
   -6.8241   -7.4313   -6.4584 C   0  0  0  0  0  0  0  0  0  0  0  0
   -5.8387   -7.2967   -5.4515 C   0  0  0  0  0  0  0  0  0  0  0  0
   -4.8478   -8.4143   -5.1618 C   0  0  0  0  0  0  0  0  0  0  0  0
   -5.7714   -6.1044   -4.7011 C   0  0  0  0  0  0  0  0  0  0  0  0
   -6.6732   -5.0523   -4.9422 C   0  0  0  0  0  0  0  0  0  0  0  0
   -7.6400   -5.1791   -5.9549 C   0  0  0  0  0  0  0  0  0  0  0  0
   -7.7145   -6.3585   -6.7256 C   0  0  0  0  0  0  0  0  0  0  0  0
   -8.7460   -6.4555   -7.8379 C   0  0  0  0  0  0  0  0  0  0  0  0
   -5.9057  -12.2305   -9.8615 H   0  0  0  0  0  0  0  0  0  0  0  0
   -6.7499  -12.9969   -8.5263 H   0  0  0  0  0  0  0  0  0  0  0  0
   -5.4017  -11.9066   -8.1991 H   0  0  0  0  0  0  0  0  0  0  0  0
   -6.7399  -10.0041   -9.1818 H   0  0  0  0  0  0  0  0  0  0  0  0
   -8.0641  -11.0859   -9.4768 H   0  0  0  0  0  0  0  0  0  0  0  0
   -9.7540  -11.5056   -7.4581 H   0  0  0  0  0  0  0  0  0  0  0  0
   -9.0263  -11.3542   -5.8489 H   0  0  0  0  0  0  0  0  0  0  0  0
   -8.4696  -12.6127   -6.9633 H   0  0  0  0  0  0  0  0  0  0  0  0
   -4.1751   -8.1487   -4.3500 H   0  0  0  0  0  0  0  0  0  0  0  0
   -4.2409   -8.6309   -6.0406 H   0  0  0  0  0  0  0  0  0  0  0  0
   -5.3680   -9.3256   -4.8680 H   0  0  0  0  0  0  0  0  0  0  0  0
   -5.0312   -6.0018   -3.9264 H   0  0  0  0  0  0  0  0  0  0  0  0
   -6.6233   -4.1471   -4.3477 H   0  0  0  0  0  0  0  0  0  0  0  0
   -8.3234   -4.3590   -6.1406 H   0  0  0  0  0  0  0  0  0  0  0  0
   -9.2732   -5.5126   -7.9654 H   0  0  0  0  0  0  0  0  0  0  0  0
   -9.4825   -7.2208   -7.6034 H   0  0  0  0  0  0  0  0  0  0  0  0
   -8.2722   -6.7048   -8.7865 H   0  0  0  0  0  0  0  0  0  0  0  0
  1  2  1  0
  1 15  1  0
  1 16  1  0
  1 17  1  0
  2  3  1  0
  2 18  1  0
  2 19  1  0
  3  4  1  0
  3  5  1  0
  4 20  1  0
  4 21  1  0
  4 22  1  0
  5  6  2  3
  6  7  1  0
  7 13  2  0
  7  8  1  0
  8  9  1  0
  8 10  2  0
  9 23  1  0
  9 24  1  0
  9 25  1  0
 10 11  1  0
 10 26  1  0
 11 12  2  0
 11 27  1  0
 12 13  1  0
 12 28  1  0
 13 14  1  0
 14 29  1  0
 14 30  1  0
 14 31  1  0
M  END
>  <i_m_ct_stereo_status>  (221) 
1

>  <s_m_source_file>  (221) 
/var/tmp/pbs.5102264.sched01/tmp148in4kv/69urs0mf0h.sdf

>  <i_m_source_file_index>  (221) 
11

>  <i_lp_mmshare_version>  (221) 
48012

>  <i_f3d_flags>  (221) 
0

>  <s_epik_input>  (221) 
W0NIM11bQ0gyXU4oW0NIM10pL049Ti9jMWMoW0NIM10pW2NIXVtjSF1bY0hdYzFbQ0gzXQ==

>  <s_epik_cmdline>  (221) 
J2VwaWtfcHl0aG9uJywgJy1waHQnLCAnMi4wJywgJy1waCcsICc3LjAnLCAnLXRuJywgJzgnLCAnLW1hJywgJzIwMCcsICctaW1hZScsICc8aW5maWxlLm1hZT4nLCAnLW9tYWUnLCAnPG91dGZpbGUubWFlPic=

>  <r_lp_tautomer_probability>  (221) 
1

>  <r_epik_Ionization_Penalty>  (221) 
6.07681e-06

>  <r_epik_Ionization_Penalty_Charging>  (221) 
0

>  <r_epik_Ionization_Penalty_Neutral>  (221) 
6.07681e-06

>  <r_epik_State_Penalty>  (221) 
-0

>  <r_epik_Charging_Adjusted_Penalty>  (221) 
0

>  <i_epik_Tot_Q>  (221) 
0

>  <i_epik_Tot_abs_Q>  (221) 
0

>  <s_lp_Force_Field>  (221) 
OPLS3e

>  <r_lp_Energy>  (221) 
22.6757

>  <b_lp_Chiralities_Consistent>  (221) 
1

>  <s_lp_Variant>  (221) 
51:0-1

>  <s_i_glide_gridfile>  (221) 
pfpi4k_grid

>  <i_i_glide_lignum>  (221) 
11

>  <i_i_glide_rotatable_bonds>  (221) 
3

>  <r_i_docking_score>  (221) 
-5.15228

>  <r_i_glide_ligand_efficiency>  (221) 
-0.36802

>  <r_i_glide_ligand_efficiency_sa>  (221) 
-0.886981

>  <r_i_glide_ligand_efficiency_ln>  (221) 
-1.41583

>  <r_i_glide_gscore>  (221) 
-5.15228

>  <r_i_glide_lipo>  (221) 
-2.31585

>  <r_i_glide_hbond>  (221) 
0

>  <r_i_glide_metal>  (221) 
-0

>  <r_i_glide_rewards>  (221) 
-2.57996

>  <r_i_glide_evdw>  (221) 
-22.7541

>  <r_i_glide_ecoul>  (221) 
0.0114252

>  <r_i_glide_erotb>  (221) 
0.879515

>  <r_i_glide_esite>  (221) 
0

>  <r_i_glide_emodel>  (221) 
-29.9315

>  <r_i_glide_energy>  (221) 
-22.7427

>  <r_i_glide_einternal>  (221) 
0.462095

>  <r_i_glide_intrahb_reward>  (221) 
-0

>  <i_i_glide_confnum>  (221) 
2

>  <i_i_glide_posenum>  (221) 
36

>  <r_i_glide_eff_state_penalty>  (221) 
0

>  <ligand_id>  (221) 
51

>  <original_smiles>  (221) 
CCN(C)N=Nc1c(C)cccc1C

>  <smiles>  (221) 
[H]c1c([H])c(C([H])([H])[H])c(N=NN(C([H])([H])[H])C([H])([H])C([H])([H])[H])c(C([H])([H])[H])c1[H]

$$$$
51:1:0
     RDKit          3D

 31 31  0  0  1  0  0  0  0  0999 V2000
    9.1425   -2.6178    0.3092 C   0  0  0  0  0  0  0  0  0  0  0  0
    8.4349   -3.1912   -0.9379 C   0  0  0  0  0  0  0  0  0  0  0  0
    6.9905   -2.9647   -1.0580 N   0  0  0  0  0  0  0  0  0  0  0  0
    6.3308   -3.5118   -2.2528 C   0  0  0  0  0  0  0  0  0  0  0  0
    6.3233   -2.7203    0.1536 N   0  0  0  0  0  0  0  0  0  0  0  0
    5.0787   -2.6803    0.3861 N   0  0  0  0  0  0  0  0  0  0  0  0
    4.0628   -2.7192   -0.6007 C   0  0  0  0  0  0  0  0  0  0  0  0
    3.0684   -3.7281   -0.4874 C   0  0  0  0  0  0  0  0  0  0  0  0
    3.0153   -4.7137    0.6691 C   0  0  0  0  0  0  0  0  0  0  0  0
    2.0878   -3.8210   -1.5032 C   0  0  0  0  0  0  0  0  0  0  0  0
    2.1312   -2.9883   -2.6119 C   0  0  0  0  0  0  0  0  0  0  0  0
    3.0935   -1.9441   -2.6761 C   0  0  0  0  0  0  0  0  0  0  0  0
    4.0160   -1.7835   -1.6469 C   0  0  0  0  0  0  0  0  0  0  0  0
    5.0036   -0.6095   -1.7509 C   0  0  0  0  0  0  0  0  0  0  0  0
   10.1994   -2.8451    0.2642 H   0  0  0  0  0  0  0  0  0  0  0  0
    8.7572   -3.0646    1.2166 H   0  0  0  0  0  0  0  0  0  0  0  0
    9.0475   -1.5391    0.3712 H   0  0  0  0  0  0  0  0  0  0  0  0
    8.9061   -2.7789   -1.8336 H   0  0  0  0  0  0  0  0  0  0  0  0
    8.5982   -4.2636   -0.9563 H   0  0  0  0  0  0  0  0  0  0  0  0
    5.6920   -4.3446   -2.0110 H   0  0  0  0  0  0  0  0  0  0  0  0
    7.1011   -3.8586   -2.9510 H   0  0  0  0  0  0  0  0  0  0  0  0
    5.7912   -2.7695   -2.8342 H   0  0  0  0  0  0  0  0  0  0  0  0
    2.2284   -5.4455    0.5419 H   0  0  0  0  0  0  0  0  0  0  0  0
    2.8288   -4.1891    1.6041 H   0  0  0  0  0  0  0  0  0  0  0  0
    3.9526   -5.2624    0.7632 H   0  0  0  0  0  0  0  0  0  0  0  0
    1.3370   -4.6088   -1.4641 H   0  0  0  0  0  0  0  0  0  0  0  0
    1.4135   -3.0856   -3.4090 H   0  0  0  0  0  0  0  0  0  0  0  0
    3.0765   -1.2830   -3.5328 H   0  0  0  0  0  0  0  0  0  0  0  0
    4.6798    0.1314   -2.4687 H   0  0  0  0  0  0  0  0  0  0  0  0
    5.9865   -0.9157   -2.0701 H   0  0  0  0  0  0  0  0  0  0  0  0
    5.1271   -0.1589   -0.7700 H   0  0  0  0  0  0  0  0  0  0  0  0
  1  2  1  0
  1 15  1  0
  1 16  1  0
  1 17  1  0
  2  3  1  0
  2 18  1  0
  2 19  1  0
  3  4  1  0
  3  5  1  0
  4 20  1  0
  4 21  1  0
  4 22  1  0
  5  6  2  3
  6  7  1  0
  7 13  2  0
  7  8  1  0
  8  9  1  0
  8 10  2  0
  9 23  1  0
  9 24  1  0
  9 25  1  0
 10 11  1  0
 10 26  1  0
 11 12  2  0
 11 27  1  0
 12 13  1  0
 12 28  1  0
 13 14  1  0
 14 29  1  0
 14 30  1  0
 14 31  1  0
M  END
>  <i_m_ct_stereo_status>  (222) 
1

>  <s_m_source_file>  (222) 
/var/tmp/pbs.5102264.sched01/tmp148in4kv/69urs0mf0h.sdf

>  <i_m_source_file_index>  (222) 
12

>  <i_lp_mmshare_version>  (222) 
48012

>  <i_f3d_flags>  (222) 
0

>  <s_epik_input>  (222) 
W0NIM11bQ0gyXU4oW0NIM10pL049Ti9jMWMoW0NIM10pW2NIXVtjSF1bY0hdYzFbQ0gzXQ==

>  <s_epik_cmdline>  (222) 
J2VwaWtfcHl0aG9uJywgJy1waHQnLCAnMi4wJywgJy1waCcsICc3LjAnLCAnLXRuJywgJzgnLCAnLW1hJywgJzIwMCcsICctaW1hZScsICc8aW5maWxlLm1hZT4nLCAnLW9tYWUnLCAnPG91dGZpbGUubWFlPic=

>  <r_lp_tautomer_probability>  (222) 
1

>  <r_epik_Ionization_Penalty>  (222) 
6.07681e-06

>  <r_epik_Ionization_Penalty_Charging>  (222) 
0

>  <r_epik_Ionization_Penalty_Neutral>  (222) 
6.07681e-06

>  <r_epik_State_Penalty>  (222) 
-0

>  <r_epik_Charging_Adjusted_Penalty>  (222) 
0

>  <i_epik_Tot_Q>  (222) 
0

>  <i_epik_Tot_abs_Q>  (222) 
0

>  <s_lp_Force_Field>  (222) 
OPLS3e

>  <r_lp_Energy>  (222) 
39.8703

>  <b_lp_Chiralities_Consistent>  (222) 
1

>  <s_lp_Variant>  (222) 
51:0-2

>  <s_i_glide_gridfile>  (222) 
pfpi4k_grid

>  <i_i_glide_lignum>  (222) 
12

>  <i_i_glide_rotatable_bonds>  (222) 
3

>  <r_i_docking_score>  (222) 
-2.28431

>  <r_i_glide_ligand_efficiency>  (222) 
-0.163165

>  <r_i_glide_ligand_efficiency_sa>  (222) 
-0.393251

>  <r_i_glide_ligand_efficiency_ln>  (222) 
-0.627721

>  <r_i_glide_gscore>  (222) 
-2.28431

>  <r_i_glide_lipo>  (222) 
-0.275061

>  <r_i_glide_hbond>  (222) 
0

>  <r_i_glide_metal>  (222) 
-0

>  <r_i_glide_rewards>  (222) 
-2.10496

>  <r_i_glide_evdw>  (222) 
-16.5219

>  <r_i_glide_ecoul>  (222) 
0.281927

>  <r_i_glide_erotb>  (222) 
0.879515

>  <r_i_glide_esite>  (222) 
0

>  <r_i_glide_emodel>  (222) 
-16.5941

>  <r_i_glide_energy>  (222) 
-16.24

>  <r_i_glide_einternal>  (222) 
1.34797

>  <r_i_glide_intrahb_reward>  (222) 
-0

>  <i_i_glide_confnum>  (222) 
2

>  <i_i_glide_posenum>  (222) 
27

>  <r_i_glide_eff_state_penalty>  (222) 
0

>  <ligand_id>  (222) 
51

>  <original_smiles>  (222) 
CCN(C)N=Nc1c(C)cccc1C

>  <smiles>  (222) 
[H]c1c([H])c(C([H])([H])[H])c(N=NN(C([H])([H])[H])C([H])([H])C([H])([H])[H])c(C([H])([H])[H])c1[H]

$$$$
51:1:1
     RDKit          3D

 31 31  0  0  1  0  0  0  0  0999 V2000
   -4.1049    6.3040    1.8305 C   0  0  0  0  0  0  0  0  0  0  0  0
   -4.3216    4.7926    1.8102 C   0  0  0  0  0  0  0  0  0  0  0  0
   -3.3613    3.9744    2.5550 N   0  0  0  0  0  0  0  0  0  0  0  0
   -3.5927    2.5578    2.6162 C   0  0  0  0  0  0  0  0  0  0  0  0
   -2.1262    4.5328    2.8804 N   0  0  0  0  0  0  0  0  0  0  0  0
   -1.1336    3.9677    3.4256 N   0  0  0  0  0  0  0  0  0  0  0  0
   -1.1334    2.6896    4.0453 C   0  0  0  0  0  0  0  0  0  0  0  0
   -0.5418    1.5847    3.3738 C   0  0  0  0  0  0  0  0  0  0  0  0
    0.1212    1.7345    2.0085 C   0  0  0  0  0  0  0  0  0  0  0  0
   -0.5755    0.3089    3.9767 C   0  0  0  0  0  0  0  0  0  0  0  0
   -1.1730    0.1371    5.2368 C   0  0  0  0  0  0  0  0  0  0  0  0
   -1.7122    1.2406    5.9273 C   0  0  0  0  0  0  0  0  0  0  0  0
   -1.6839    2.5190    5.3391 C   0  0  0  0  0  0  0  0  0  0  0  0
   -2.2569    3.6866    6.1086 C   0  0  0  0  0  0  0  0  0  0  0  0
   -4.8511    6.7914    1.2043 H   0  0  0  0  0  0  0  0  0  0  0  0
   -3.1200    6.5870    1.4505 H   0  0  0  0  0  0  0  0  0  0  0  0
   -4.2359    6.6878    2.8347 H   0  0  0  0  0  0  0  0  0  0  0  0
   -5.3201    4.5457    2.1731 H   0  0  0  0  0  0  0  0  0  0  0  0
   -4.2882    4.4491    0.7820 H   0  0  0  0  0  0  0  0  0  0  0  0
   -2.8337    2.0171    2.0482 H   0  0  0  0  0  0  0  0  0  0  0  0
   -4.5704    2.3853    2.1787 H   0  0  0  0  0  0  0  0  0  0  0  0
   -3.6205    2.2415    3.6579 H   0  0  0  0  0  0  0  0  0  0  0  0
    0.4711    0.7737    1.6193 H   0  0  0  0  0  0  0  0  0  0  0  0
    0.9803    2.4088    2.0595 H   0  0  0  0  0  0  0  0  0  0  0  0
   -0.5860    2.1278    1.2832 H   0  0  0  0  0  0  0  0  0  0  0  0
   -0.1424   -0.5342    3.4548 H   0  0  0  0  0  0  0  0  0  0  0  0
   -1.1928   -0.8574    5.6822 H   0  0  0  0  0  0  0  0  0  0  0  0
   -2.1624    1.1164    6.9011 H   0  0  0  0  0  0  0  0  0  0  0  0
   -2.4222    3.4427    7.1549 H   0  0  0  0  0  0  0  0  0  0  0  0
   -3.2148    3.9561    5.6802 H   0  0  0  0  0  0  0  0  0  0  0  0
   -1.5728    4.5351    6.0578 H   0  0  0  0  0  0  0  0  0  0  0  0
  1  2  1  0
  1 15  1  0
  1 16  1  0
  1 17  1  0
  2  3  1  0
  2 18  1  0
  2 19  1  0
  3  4  1  0
  3  5  1  0
  4 20  1  0
  4 21  1  0
  4 22  1  0
  5  6  2  3
  6  7  1  0
  7 13  2  0
  7  8  1  0
  8  9  1  0
  8 10  2  0
  9 23  1  0
  9 24  1  0
  9 25  1  0
 10 11  1  0
 10 26  1  0
 11 12  2  0
 11 27  1  0
 12 13  1  0
 12 28  1  0
 13 14  1  0
 14 29  1  0
 14 30  1  0
 14 31  1  0
M  END
>  <i_m_ct_stereo_status>  (223) 
1

>  <s_m_source_file>  (223) 
/var/tmp/pbs.5102264.sched01/tmp148in4kv/69urs0mf0h.sdf

>  <i_m_source_file_index>  (223) 
12

>  <i_lp_mmshare_version>  (223) 
48012

>  <i_f3d_flags>  (223) 
0

>  <s_epik_input>  (223) 
W0NIM11bQ0gyXU4oW0NIM10pL049Ti9jMWMoW0NIM10pW2NIXVtjSF1bY0hdYzFbQ0gzXQ==

>  <s_epik_cmdline>  (223) 
J2VwaWtfcHl0aG9uJywgJy1waHQnLCAnMi4wJywgJy1waCcsICc3LjAnLCAnLXRuJywgJzgnLCAnLW1hJywgJzIwMCcsICctaW1hZScsICc8aW5maWxlLm1hZT4nLCAnLW9tYWUnLCAnPG91dGZpbGUubWFlPic=

>  <r_lp_tautomer_probability>  (223) 
1

>  <r_epik_Ionization_Penalty>  (223) 
6.07681e-06

>  <r_epik_Ionization_Penalty_Charging>  (223) 
0

>  <r_epik_Ionization_Penalty_Neutral>  (223) 
6.07681e-06

>  <r_epik_State_Penalty>  (223) 
-0

>  <r_epik_Charging_Adjusted_Penalty>  (223) 
0

>  <i_epik_Tot_Q>  (223) 
0

>  <i_epik_Tot_abs_Q>  (223) 
0

>  <s_lp_Force_Field>  (223) 
OPLS3e

>  <r_lp_Energy>  (223) 
39.8703

>  <b_lp_Chiralities_Consistent>  (223) 
1

>  <s_lp_Variant>  (223) 
51:0-2

>  <s_i_glide_gridfile>  (223) 
pfpi4k_grid

>  <i_i_glide_lignum>  (223) 
12

>  <i_i_glide_rotatable_bonds>  (223) 
3

>  <r_i_docking_score>  (223) 
-2.14935

>  <r_i_glide_ligand_efficiency>  (223) 
-0.153525

>  <r_i_glide_ligand_efficiency_sa>  (223) 
-0.370018

>  <r_i_glide_ligand_efficiency_ln>  (223) 
-0.590635

>  <r_i_glide_gscore>  (223) 
-2.14935

>  <r_i_glide_lipo>  (223) 
-0.0741298

>  <r_i_glide_hbond>  (223) 
0

>  <r_i_glide_metal>  (223) 
-0

>  <r_i_glide_rewards>  (223) 
-2.10496

>  <r_i_glide_evdw>  (223) 
-11.844

>  <r_i_glide_ecoul>  (223) 
-0.305876

>  <r_i_glide_erotb>  (223) 
0.879515

>  <r_i_glide_esite>  (223) 
-0.211696

>  <r_i_glide_emodel>  (223) 
-13.7654

>  <r_i_glide_energy>  (223) 
-12.1499

>  <r_i_glide_einternal>  (223) 
0.648553

>  <r_i_glide_intrahb_reward>  (223) 
-0

>  <i_i_glide_confnum>  (223) 
4

>  <i_i_glide_posenum>  (223) 
1

>  <r_i_glide_eff_state_penalty>  (223) 
0

>  <ligand_id>  (223) 
51

>  <original_smiles>  (223) 
CCN(C)N=Nc1c(C)cccc1C

>  <smiles>  (223) 
[H]c1c([H])c(C([H])([H])[H])c(N=NN(C([H])([H])[H])C([H])([H])C([H])([H])[H])c(C([H])([H])[H])c1[H]

$$$$
51:1:2
     RDKit          3D

 31 31  0  0  1  0  0  0  0  0999 V2000
   -4.7440    5.6591    0.8745 C   0  0  0  0  0  0  0  0  0  0  0  0
   -4.4272    5.3302    2.3115 C   0  0  0  0  0  0  0  0  0  0  0  0
   -3.4712    4.2359    2.4676 N   0  0  0  0  0  0  0  0  0  0  0  0
   -3.8565    2.8675    2.1650 C   0  0  0  0  0  0  0  0  0  0  0  0
   -2.1803    4.5889    2.8861 N   0  0  0  0  0  0  0  0  0  0  0  0
   -1.2475    3.8488    3.2937 N   0  0  0  0  0  0  0  0  0  0  0  0
   -1.3590    2.5123    3.7752 C   0  0  0  0  0  0  0  0  0  0  0  0
   -0.7176    1.4546    3.0784 C   0  0  0  0  0  0  0  0  0  0  0  0
    0.0873    1.6912    1.8124 C   0  0  0  0  0  0  0  0  0  0  0  0
   -0.8177    0.1484    3.5527 C   0  0  0  0  0  0  0  0  0  0  0  0
   -1.5228   -0.1436    4.7314 C   0  0  0  0  0  0  0  0  0  0  0  0
   -2.0500    0.9109    5.4886 C   0  0  0  0  0  0  0  0  0  0  0  0
   -1.9768    2.2375    5.0202 C   0  0  0  0  0  0  0  0  0  0  0  0
   -2.5871    3.3409    5.8615 C   0  0  0  0  0  0  0  0  0  0  0  0
   -5.4833    6.4623    0.8345 H   0  0  0  0  0  0  0  0  0  0  0  0
   -5.1743    4.7533    0.4571 H   0  0  0  0  0  0  0  0  0  0  0  0
   -3.8185    5.9336    0.3584 H   0  0  0  0  0  0  0  0  0  0  0  0
   -4.0737    6.1998    2.8564 H   0  0  0  0  0  0  0  0  0  0  0  0
   -5.3633    5.0252    2.7880 H   0  0  0  0  0  0  0  0  0  0  0  0
   -3.3305    2.5026    1.2746 H   0  0  0  0  0  0  0  0  0  0  0  0
   -4.9161    2.8558    1.9157 H   0  0  0  0  0  0  0  0  0  0  0  0
   -3.6801    2.1650    2.9901 H   0  0  0  0  0  0  0  0  0  0  0  0
    0.4295    0.7714    1.3449 H   0  0  0  0  0  0  0  0  0  0  0  0
    0.9382    2.3540    1.9782 H   0  0  0  0  0  0  0  0  0  0  0  0
   -0.5746    2.1193    1.0692 H   0  0  0  0  0  0  0  0  0  0  0  0
   -0.3645   -0.6454    2.9711 H   0  0  0  0  0  0  0  0  0  0  0  0
   -1.6664   -1.1651    5.0276 H   0  0  0  0  0  0  0  0  0  0  0  0
   -2.5960    0.7082    6.3918 H   0  0  0  0  0  0  0  0  0  0  0  0
   -2.8441    2.9945    6.8626 H   0  0  0  0  0  0  0  0  0  0  0  0
   -3.4914    3.6981    5.3834 H   0  0  0  0  0  0  0  0  0  0  0  0
   -1.8963    4.1781    5.9525 H   0  0  0  0  0  0  0  0  0  0  0  0
  1  2  1  0
  1 15  1  0
  1 16  1  0
  1 17  1  0
  2  3  1  0
  2 18  1  0
  2 19  1  0
  3  4  1  0
  3  5  1  0
  4 20  1  0
  4 21  1  0
  4 22  1  0
  5  6  2  3
  6  7  1  0
  7 13  2  0
  7  8  1  0
  8  9  1  0
  8 10  2  0
  9 23  1  0
  9 24  1  0
  9 25  1  0
 10 11  1  0
 10 26  1  0
 11 12  2  0
 11 27  1  0
 12 13  1  0
 12 28  1  0
 13 14  1  0
 14 29  1  0
 14 30  1  0
 14 31  1  0
M  END
>  <i_m_ct_stereo_status>  (224) 
1

>  <s_m_source_file>  (224) 
/var/tmp/pbs.5102264.sched01/tmp148in4kv/69urs0mf0h.sdf

>  <i_m_source_file_index>  (224) 
12

>  <i_lp_mmshare_version>  (224) 
48012

>  <i_f3d_flags>  (224) 
0

>  <s_epik_input>  (224) 
W0NIM11bQ0gyXU4oW0NIM10pL049Ti9jMWMoW0NIM10pW2NIXVtjSF1bY0hdYzFbQ0gzXQ==

>  <s_epik_cmdline>  (224) 
J2VwaWtfcHl0aG9uJywgJy1waHQnLCAnMi4wJywgJy1waCcsICc3LjAnLCAnLXRuJywgJzgnLCAnLW1hJywgJzIwMCcsICctaW1hZScsICc8aW5maWxlLm1hZT4nLCAnLW9tYWUnLCAnPG91dGZpbGUubWFlPic=

>  <r_lp_tautomer_probability>  (224) 
1

>  <r_epik_Ionization_Penalty>  (224) 
6.07681e-06

>  <r_epik_Ionization_Penalty_Charging>  (224) 
0

>  <r_epik_Ionization_Penalty_Neutral>  (224) 
6.07681e-06

>  <r_epik_State_Penalty>  (224) 
-0

>  <r_epik_Charging_Adjusted_Penalty>  (224) 
0

>  <i_epik_Tot_Q>  (224) 
0

>  <i_epik_Tot_abs_Q>  (224) 
0

>  <s_lp_Force_Field>  (224) 
OPLS3e

>  <r_lp_Energy>  (224) 
39.8703

>  <b_lp_Chiralities_Consistent>  (224) 
1

>  <s_lp_Variant>  (224) 
51:0-2

>  <s_i_glide_gridfile>  (224) 
pfpi4k_grid

>  <i_i_glide_lignum>  (224) 
12

>  <i_i_glide_rotatable_bonds>  (224) 
3

>  <r_i_docking_score>  (224) 
-2.08523

>  <r_i_glide_ligand_efficiency>  (224) 
-0.148945

>  <r_i_glide_ligand_efficiency_sa>  (224) 
-0.358979

>  <r_i_glide_ligand_efficiency_ln>  (224) 
-0.573014

>  <r_i_glide_gscore>  (224) 
-2.08523

>  <r_i_glide_lipo>  (224) 
-0.284611

>  <r_i_glide_hbond>  (224) 
0

>  <r_i_glide_metal>  (224) 
-0

>  <r_i_glide_rewards>  (224) 
-2.10496

>  <r_i_glide_evdw>  (224) 
-7.36536

>  <r_i_glide_ecoul>  (224) 
0.0934524

>  <r_i_glide_erotb>  (224) 
0.879515

>  <r_i_glide_esite>  (224) 
-0.220928

>  <r_i_glide_emodel>  (224) 
-8.09737

>  <r_i_glide_energy>  (224) 
-7.27191

>  <r_i_glide_einternal>  (224) 
1.33812

>  <r_i_glide_intrahb_reward>  (224) 
-0

>  <i_i_glide_confnum>  (224) 
1

>  <i_i_glide_posenum>  (224) 
4

>  <r_i_glide_eff_state_penalty>  (224) 
0

>  <ligand_id>  (224) 
51

>  <original_smiles>  (224) 
CCN(C)N=Nc1c(C)cccc1C

>  <smiles>  (224) 
[H]c1c([H])c(C([H])([H])[H])c(N=NN(C([H])([H])[H])C([H])([H])C([H])([H])[H])c(C([H])([H])[H])c1[H]

$$$$
52:0:0
     RDKit          3D

 43 45  0  0  1  0  0  0  0  0999 V2000
    9.4061   -5.0592    1.8110 C   0  0  0  0  0  0  0  0  0  0  0  0
    8.4743   -5.3730    0.6171 C   0  0  0  0  0  0  0  0  0  0  0  0
    7.4210   -4.3817    0.4729 N   0  0  0  0  0  0  0  0  0  0  0  0
    7.8285   -3.0801   -0.0986 C   0  0  0  0  0  0  0  0  0  0  0  0
    8.1943   -3.1937   -1.5874 C   0  0  0  0  0  0  0  0  0  0  0  0
    6.0545   -4.7711    0.4920 C   0  0  0  0  0  0  0  0  0  0  0  0
    5.1822   -3.8835   -0.0591 N   0  0  0  0  0  0  0  0  0  0  0  0
    3.8645   -4.1172   -0.0563 C   0  0  0  0  0  0  0  0  0  0  0  0
    2.9813   -3.0707   -0.7274 C   0  0  0  0  0  0  0  0  0  0  0  0
    3.2265   -5.1449    0.4797 N   0  0  0  0  0  0  0  0  0  0  0  0
    4.0718   -6.0591    1.0241 C   0  0  0  0  0  0  0  0  0  0  0  0
    5.5005   -5.9882    1.0512 C   0  0  0  0  0  0  0  0  0  0  0  0
    5.8573   -7.2708    1.6849 C   0  0  0  0  0  0  0  0  0  0  0  0
    7.1491   -7.9843    1.9900 C   0  0  0  0  0  0  0  0  0  0  0  0
    4.7847   -7.9256    2.0604 N   0  0  0  0  0  0  0  0  0  0  0  0
    3.7002   -7.2294    1.6742 N   0  0  0  0  0  0  0  0  0  0  0  0
    2.4056   -7.7678    1.9625 C   0  0  0  0  0  0  0  0  0  0  0  0
    2.2454   -9.1548    2.1986 C   0  0  0  0  0  0  0  0  0  0  0  0
    0.9779   -9.6921    2.4885 C   0  0  0  0  0  0  0  0  0  0  0  0
   -0.1491   -8.8551    2.5295 C   0  0  0  0  0  0  0  0  0  0  0  0
   -1.3779   -9.3622    2.7726 F   0  0  0  0  0  0  0  0  0  0  0  0
   -0.0036   -7.4786    2.2987 C   0  0  0  0  0  0  0  0  0  0  0  0
    1.2604   -6.9317    2.0319 C   0  0  0  0  0  0  0  0  0  0  0  0
   10.1480   -5.8431    1.9130 H   0  0  0  0  0  0  0  0  0  0  0  0
    8.8617   -5.0468    2.7578 H   0  0  0  0  0  0  0  0  0  0  0  0
    9.9476   -4.1043    1.7252 H   0  0  0  0  0  0  0  0  0  0  0  0
    9.0683   -5.4421   -0.3054 H   0  0  0  0  0  0  0  0  0  0  0  0
    8.0087   -6.3154    0.7086 H   0  0  0  0  0  0  0  0  0  0  0  0
    7.0796   -2.2983    0.0660 H   0  0  0  0  0  0  0  0  0  0  0  0
    8.7218   -2.7631    0.4376 H   0  0  0  0  0  0  0  0  0  0  0  0
    8.5800   -2.2457   -1.9582 H   0  0  0  0  0  0  0  0  0  0  0  0
    7.3300   -3.4725   -2.1940 H   0  0  0  0  0  0  0  0  0  0  0  0
    8.9866   -3.9232   -1.7769 H   0  0  0  0  0  0  0  0  0  0  0  0
    1.9340   -3.3823   -0.7461 H   0  0  0  0  0  0  0  0  0  0  0  0
    3.2811   -2.9040   -1.7647 H   0  0  0  0  0  0  0  0  0  0  0  0
    3.0226   -2.1220   -0.1879 H   0  0  0  0  0  0  0  0  0  0  0  0
    7.7394   -8.1427    1.0824 H   0  0  0  0  0  0  0  0  0  0  0  0
    6.9857   -8.9788    2.4257 H   0  0  0  0  0  0  0  0  0  0  0  0
    7.7635   -7.4176    2.6932 H   0  0  0  0  0  0  0  0  0  0  0  0
    3.0957   -9.8263    2.1652 H   0  0  0  0  0  0  0  0  0  0  0  0
    0.8732  -10.7510    2.6629 H   0  0  0  0  0  0  0  0  0  0  0  0
   -0.8676   -6.8398    2.3309 H   0  0  0  0  0  0  0  0  0  0  0  0
    1.3363   -5.8654    1.9021 H   0  0  0  0  0  0  0  0  0  0  0  0
  1  2  1  0
  1 24  1  0
  1 25  1  0
  1 26  1  0
  2  3  1  0
  2 27  1  0
  2 28  1  0
  3  4  1  0
  3  6  1  0
  4  5  1  0
  4 29  1  0
  4 30  1  0
  5 31  1  0
  5 32  1  0
  5 33  1  0
  6 12  2  0
  6  7  1  0
  7  8  2  0
  8  9  1  0
  8 10  1  0
  9 34  1  0
  9 35  1  0
  9 36  1  0
 10 11  2  0
 11 16  1  0
 11 12  1  0
 12 13  1  0
 13 14  1  0
 13 15  2  0
 14 37  1  0
 14 38  1  0
 14 39  1  0
 15 16  1  0
 16 17  1  0
 17 23  1  0
 17 18  2  0
 18 19  1  0
 18 40  1  0
 19 20  2  0
 19 41  1  0
 20 21  1  0
 20 22  1  0
 22 23  2  0
 22 42  1  0
 23 43  1  0
M  END
>  <i_m_ct_stereo_status>  (225) 
1

>  <s_m_source_file>  (225) 
/var/tmp/pbs.5102264.sched01/tmp148in4kv/69urs0mf0h.sdf

>  <i_m_source_file_index>  (225) 
13

>  <i_lp_mmshare_version>  (225) 
48012

>  <i_f3d_flags>  (225) 
0

>  <s_epik_input>  (225) 
W0NIM11bQ0gyXU4oW0NIMl1bQ0gzXSljKG5jKG4xKVtDSDNdKWMoYzEyKWMoW0NIM10pbm4yLWMzW2NIXVtjSF1jKEYpW2NIXVtjSF0z

>  <s_epik_cmdline>  (225) 
J2VwaWtfcHl0aG9uJywgJy1waHQnLCAnMi4wJywgJy1waCcsICc3LjAnLCAnLXRuJywgJzgnLCAnLW1hJywgJzIwMCcsICctaW1hZScsICc8aW5maWxlLm1hZT4nLCAnLW9tYWUnLCAnPG91dGZpbGUubWFlPic=

>  <r_epik_Ionization_Penalty>  (225) 
0.0107998

>  <r_epik_Ionization_Penalty_Charging>  (225) 
0

>  <r_epik_Ionization_Penalty_Neutral>  (225) 
0.0107998

>  <r_epik_State_Penalty>  (225) 
0.00820601

>  <r_epik_Charging_Adjusted_Penalty>  (225) 
0.00820601

>  <i_epik_Tot_Q>  (225) 
0

>  <i_epik_Tot_abs_Q>  (225) 
0

>  <s_lp_Force_Field>  (225) 
OPLS3e

>  <r_lp_Energy>  (225) 
37.5755

>  <b_lp_Chiralities_Consistent>  (225) 
1

>  <s_lp_Variant>  (225) 
52:0-1

>  <s_i_glide_gridfile>  (225) 
pfpi4k_grid

>  <i_i_glide_lignum>  (225) 
13

>  <i_i_glide_rotatable_bonds>  (225) 
4

>  <r_i_docking_score>  (225) 
-3.46703

>  <r_i_glide_ligand_efficiency>  (225) 
-0.150741

>  <r_i_glide_ligand_efficiency_sa>  (225) 
-0.428686

>  <r_i_glide_ligand_efficiency_ln>  (225) 
-0.83836

>  <r_i_glide_gscore>  (225) 
-3.46703

>  <r_i_glide_lipo>  (225) 
-0.669485

>  <r_i_glide_hbond>  (225) 
0

>  <r_i_glide_metal>  (225) 
-0

>  <r_i_glide_rewards>  (225) 
-1.71954

>  <r_i_glide_evdw>  (225) 
-29.6202

>  <r_i_glide_ecoul>  (225) 
0.222431

>  <r_i_glide_erotb>  (225) 
0.378263

>  <r_i_glide_esite>  (225) 
-0.00863024

>  <r_i_glide_emodel>  (225) 
-33.1351

>  <r_i_glide_energy>  (225) 
-29.3978

>  <r_i_glide_einternal>  (225) 
1.98449

>  <r_i_glide_intrahb_reward>  (225) 
-0

>  <i_i_glide_confnum>  (225) 
6

>  <i_i_glide_posenum>  (225) 
14

>  <r_i_glide_eff_state_penalty>  (225) 
0

>  <ligand_id>  (225) 
52

>  <original_smiles>  (225) 
CCN(CC)c1nc(C)nc2c1c(C)nn2-c1ccc(F)cc1

>  <smiles>  (225) 
[H]c1c([H])c(-n2nc(C([H])([H])[H])c3c(N(C([H])([H])C([H])([H])[H])C([H])([H])C([H])([H])[H])nc(C([H])([H])[H])nc32)c([H])c([H])c1F

$$$$
52:0:1
     RDKit          3D

 43 45  0  0  1  0  0  0  0  0999 V2000
    8.2814   -3.1088   -1.0037 C   0  0  0  0  0  0  0  0  0  0  0  0
    6.9925   -3.1147   -0.1540 C   0  0  0  0  0  0  0  0  0  0  0  0
    6.6759   -4.4408    0.4076 N   0  0  0  0  0  0  0  0  0  0  0  0
    7.6257   -4.9823    1.3702 C   0  0  0  0  0  0  0  0  0  0  0  0
    8.7183   -5.8684    0.6966 C   0  0  0  0  0  0  0  0  0  0  0  0
    5.3092   -4.8768    0.4543 C   0  0  0  0  0  0  0  0  0  0  0  0
    4.4207   -4.1027   -0.2154 N   0  0  0  0  0  0  0  0  0  0  0  0
    3.1180   -4.3697   -0.2318 C   0  0  0  0  0  0  0  0  0  0  0  0
    2.2549   -3.4613   -1.0885 C   0  0  0  0  0  0  0  0  0  0  0  0
    2.4786   -5.3394    0.4020 N   0  0  0  0  0  0  0  0  0  0  0  0
    3.3397   -6.1559    1.0713 C   0  0  0  0  0  0  0  0  0  0  0  0
    4.7713   -6.0360    1.1446 C   0  0  0  0  0  0  0  0  0  0  0  0
    5.1348   -7.2114    1.9321 C   0  0  0  0  0  0  0  0  0  0  0  0
    6.4555   -7.8141    2.3372 C   0  0  0  0  0  0  0  0  0  0  0  0
    4.0858   -7.8885    2.3294 N   0  0  0  0  0  0  0  0  0  0  0  0
    2.9990   -7.2735    1.8236 N   0  0  0  0  0  0  0  0  0  0  0  0
    1.7096   -7.8284    2.0929 C   0  0  0  0  0  0  0  0  0  0  0  0
    1.5714   -9.2121    2.3778 C   0  0  0  0  0  0  0  0  0  0  0  0
    0.3034   -9.7624    2.6535 C   0  0  0  0  0  0  0  0  0  0  0  0
   -0.8339   -8.9415    2.6397 C   0  0  0  0  0  0  0  0  0  0  0  0
   -2.0548   -9.4505    2.8568 F   0  0  0  0  0  0  0  0  0  0  0  0
   -0.7105   -7.5666    2.3765 C   0  0  0  0  0  0  0  0  0  0  0  0
    0.5539   -7.0108    2.1203 C   0  0  0  0  0  0  0  0  0  0  0  0
    8.4489   -2.1263   -1.4595 H   0  0  0  0  0  0  0  0  0  0  0  0
    8.2041   -3.8336   -1.8137 H   0  0  0  0  0  0  0  0  0  0  0  0
    9.1622   -3.3373   -0.4058 H   0  0  0  0  0  0  0  0  0  0  0  0
    7.1222   -2.4373    0.6843 H   0  0  0  0  0  0  0  0  0  0  0  0
    6.2167   -2.6835   -0.7740 H   0  0  0  0  0  0  0  0  0  0  0  0
    8.1448   -4.1625    1.8709 H   0  0  0  0  0  0  0  0  0  0  0  0
    7.0875   -5.4435    2.1734 H   0  0  0  0  0  0  0  0  0  0  0  0
    9.3562   -6.2595    1.4925 H   0  0  0  0  0  0  0  0  0  0  0  0
    9.3796   -5.3745   -0.0012 H   0  0  0  0  0  0  0  0  0  0  0  0
    8.2775   -6.7059    0.1454 H   0  0  0  0  0  0  0  0  0  0  0  0
    1.2251   -3.8066   -1.1460 H   0  0  0  0  0  0  0  0  0  0  0  0
    2.6226   -3.3957   -2.1119 H   0  0  0  0  0  0  0  0  0  0  0  0
    2.2611   -2.4739   -0.6439 H   0  0  0  0  0  0  0  0  0  0  0  0
    7.1321   -7.8920    1.4918 H   0  0  0  0  0  0  0  0  0  0  0  0
    6.3377   -8.8346    2.7096 H   0  0  0  0  0  0  0  0  0  0  0  0
    6.9465   -7.2591    3.1463 H   0  0  0  0  0  0  0  0  0  0  0  0
    2.4359   -9.8554    2.3641 H   0  0  0  0  0  0  0  0  0  0  0  0
    0.2146  -10.8115    2.8496 H   0  0  0  0  0  0  0  0  0  0  0  0
   -1.5891   -6.9569    2.3769 H   0  0  0  0  0  0  0  0  0  0  0  0
    0.6243   -5.9488    1.9518 H   0  0  0  0  0  0  0  0  0  0  0  0
  1  2  1  0
  1 24  1  0
  1 25  1  0
  1 26  1  0
  2  3  1  0
  2 27  1  0
  2 28  1  0
  3  4  1  0
  3  6  1  0
  4  5  1  0
  4 29  1  0
  4 30  1  0
  5 31  1  0
  5 32  1  0
  5 33  1  0
  6 12  2  0
  6  7  1  0
  7  8  2  0
  8  9  1  0
  8 10  1  0
  9 34  1  0
  9 35  1  0
  9 36  1  0
 10 11  2  0
 11 16  1  0
 11 12  1  0
 12 13  1  0
 13 14  1  0
 13 15  2  0
 14 37  1  0
 14 38  1  0
 14 39  1  0
 15 16  1  0
 16 17  1  0
 17 23  1  0
 17 18  2  0
 18 19  1  0
 18 40  1  0
 19 20  2  0
 19 41  1  0
 20 21  1  0
 20 22  1  0
 22 23  2  0
 22 42  1  0
 23 43  1  0
M  END
>  <i_m_ct_stereo_status>  (226) 
1

>  <s_m_source_file>  (226) 
/var/tmp/pbs.5102264.sched01/tmp148in4kv/69urs0mf0h.sdf

>  <i_m_source_file_index>  (226) 
13

>  <i_lp_mmshare_version>  (226) 
48012

>  <i_f3d_flags>  (226) 
0

>  <s_epik_input>  (226) 
W0NIM11bQ0gyXU4oW0NIMl1bQ0gzXSljKG5jKG4xKVtDSDNdKWMoYzEyKWMoW0NIM10pbm4yLWMzW2NIXVtjSF1jKEYpW2NIXVtjSF0z

>  <s_epik_cmdline>  (226) 
J2VwaWtfcHl0aG9uJywgJy1waHQnLCAnMi4wJywgJy1waCcsICc3LjAnLCAnLXRuJywgJzgnLCAnLW1hJywgJzIwMCcsICctaW1hZScsICc8aW5maWxlLm1hZT4nLCAnLW9tYWUnLCAnPG91dGZpbGUubWFlPic=

>  <r_epik_Ionization_Penalty>  (226) 
0.0107998

>  <r_epik_Ionization_Penalty_Charging>  (226) 
0

>  <r_epik_Ionization_Penalty_Neutral>  (226) 
0.0107998

>  <r_epik_State_Penalty>  (226) 
0.00820601

>  <r_epik_Charging_Adjusted_Penalty>  (226) 
0.00820601

>  <i_epik_Tot_Q>  (226) 
0

>  <i_epik_Tot_abs_Q>  (226) 
0

>  <s_lp_Force_Field>  (226) 
OPLS3e

>  <r_lp_Energy>  (226) 
37.5755

>  <b_lp_Chiralities_Consistent>  (226) 
1

>  <s_lp_Variant>  (226) 
52:0-1

>  <s_i_glide_gridfile>  (226) 
pfpi4k_grid

>  <i_i_glide_lignum>  (226) 
13

>  <i_i_glide_rotatable_bonds>  (226) 
4

>  <r_i_docking_score>  (226) 
-3.16696

>  <r_i_glide_ligand_efficiency>  (226) 
-0.137694

>  <r_i_glide_ligand_efficiency_sa>  (226) 
-0.391583

>  <r_i_glide_ligand_efficiency_ln>  (226) 
-0.7658

>  <r_i_glide_gscore>  (226) 
-3.16696

>  <r_i_glide_lipo>  (226) 
-0.542737

>  <r_i_glide_hbond>  (226) 
0

>  <r_i_glide_metal>  (226) 
-0

>  <r_i_glide_rewards>  (226) 
-1.51688

>  <r_i_glide_evdw>  (226) 
-27.6156

>  <r_i_glide_ecoul>  (226) 
-0.405112

>  <r_i_glide_erotb>  (226) 
0.378263

>  <r_i_glide_esite>  (226) 
-0.0440574

>  <r_i_glide_emodel>  (226) 
-32.5775

>  <r_i_glide_energy>  (226) 
-28.0207

>  <r_i_glide_einternal>  (226) 
1.70855

>  <r_i_glide_intrahb_reward>  (226) 
-0

>  <i_i_glide_confnum>  (226) 
5

>  <i_i_glide_posenum>  (226) 
23

>  <r_i_glide_eff_state_penalty>  (226) 
0

>  <ligand_id>  (226) 
52

>  <original_smiles>  (226) 
CCN(CC)c1nc(C)nc2c1c(C)nn2-c1ccc(F)cc1

>  <smiles>  (226) 
[H]c1c([H])c(-n2nc(C([H])([H])[H])c3c(N(C([H])([H])C([H])([H])[H])C([H])([H])C([H])([H])[H])nc(C([H])([H])[H])nc32)c([H])c([H])c1F

$$$$
52:0:2
     RDKit          3D

 43 45  0  0  1  0  0  0  0  0999 V2000
    8.4908   -3.8503   -0.6152 C   0  0  0  0  0  0  0  0  0  0  0  0
    7.9541   -4.1116    0.7949 C   0  0  0  0  0  0  0  0  0  0  0  0
    7.3280   -5.4372    0.9091 N   0  0  0  0  0  0  0  0  0  0  0  0
    8.2506   -6.5148    1.2282 C   0  0  0  0  0  0  0  0  0  0  0  0
    8.6138   -6.5672    2.7275 C   0  0  0  0  0  0  0  0  0  0  0  0
    5.9207   -5.5767    0.9700 C   0  0  0  0  0  0  0  0  0  0  0  0
    5.2302   -4.4276    0.7398 N   0  0  0  0  0  0  0  0  0  0  0  0
    3.9101   -4.3557    0.8702 C   0  0  0  0  0  0  0  0  0  0  0  0
    3.2573   -3.0197    0.5876 C   0  0  0  0  0  0  0  0  0  0  0  0
    3.0900   -5.3292    1.2442 N   0  0  0  0  0  0  0  0  0  0  0  0
    3.7392   -6.5207    1.4084 C   0  0  0  0  0  0  0  0  0  0  0  0
    5.1379   -6.7616    1.2675 C   0  0  0  0  0  0  0  0  0  0  0  0
    5.2322   -8.2080    1.5030 C   0  0  0  0  0  0  0  0  0  0  0  0
    6.3389   -9.2143    1.4520 C   0  0  0  0  0  0  0  0  0  0  0  0
    4.0654   -8.7212    1.8149 N   0  0  0  0  0  0  0  0  0  0  0  0
    3.1534   -7.7292    1.7677 N   0  0  0  0  0  0  0  0  0  0  0  0
    1.7941   -8.0618    2.0723 C   0  0  0  0  0  0  0  0  0  0  0  0
    1.4759   -9.2686    2.7569 C   0  0  0  0  0  0  0  0  0  0  0  0
    0.1466   -9.6095    3.0406 C   0  0  0  0  0  0  0  0  0  0  0  0
   -0.8899   -8.7490    2.6633 C   0  0  0  0  0  0  0  0  0  0  0  0
   -2.1832   -9.0588    2.9052 F   0  0  0  0  0  0  0  0  0  0  0  0
   -0.5898   -7.5418    2.0055 C   0  0  0  0  0  0  0  0  0  0  0  0
    0.7263   -7.2113    1.6929 C   0  0  0  0  0  0  0  0  0  0  0  0
    9.0307   -2.9021   -0.6330 H   0  0  0  0  0  0  0  0  0  0  0  0
    7.6795   -3.7858   -1.3418 H   0  0  0  0  0  0  0  0  0  0  0  0
    9.1774   -4.6311   -0.9499 H   0  0  0  0  0  0  0  0  0  0  0  0
    8.7985   -4.1100    1.4788 H   0  0  0  0  0  0  0  0  0  0  0  0
    7.3165   -3.2889    1.1301 H   0  0  0  0  0  0  0  0  0  0  0  0
    7.8203   -7.4446    0.8753 H   0  0  0  0  0  0  0  0  0  0  0  0
    9.1517   -6.4111    0.6133 H   0  0  0  0  0  0  0  0  0  0  0  0
    9.2451   -7.4298    2.9221 H   0  0  0  0  0  0  0  0  0  0  0  0
    7.7360   -6.6549    3.3727 H   0  0  0  0  0  0  0  0  0  0  0  0
    9.1767   -5.6881    3.0494 H   0  0  0  0  0  0  0  0  0  0  0  0
    2.1709   -3.0918    0.6179 H   0  0  0  0  0  0  0  0  0  0  0  0
    3.5161   -2.6417   -0.4035 H   0  0  0  0  0  0  0  0  0  0  0  0
    3.5458   -2.2818    1.3378 H   0  0  0  0  0  0  0  0  0  0  0  0
    6.8239   -9.2284    0.4812 H   0  0  0  0  0  0  0  0  0  0  0  0
    5.9697  -10.2437    1.5796 H   0  0  0  0  0  0  0  0  0  0  0  0
    7.0711   -9.0376    2.2381 H   0  0  0  0  0  0  0  0  0  0  0  0
    2.2552   -9.9562    3.0624 H   0  0  0  0  0  0  0  0  0  0  0  0
   -0.0914  -10.5383    3.5583 H   0  0  0  0  0  0  0  0  0  0  0  0
   -1.3766   -6.8776    1.7133 H   0  0  0  0  0  0  0  0  0  0  0  0
    0.8685   -6.3007    1.1337 H   0  0  0  0  0  0  0  0  0  0  0  0
  1  2  1  0
  1 24  1  0
  1 25  1  0
  1 26  1  0
  2  3  1  0
  2 27  1  0
  2 28  1  0
  3  4  1  0
  3  6  1  0
  4  5  1  0
  4 29  1  0
  4 30  1  0
  5 31  1  0
  5 32  1  0
  5 33  1  0
  6 12  2  0
  6  7  1  0
  7  8  2  0
  8  9  1  0
  8 10  1  0
  9 34  1  0
  9 35  1  0
  9 36  1  0
 10 11  2  0
 11 16  1  0
 11 12  1  0
 12 13  1  0
 13 14  1  0
 13 15  2  0
 14 37  1  0
 14 38  1  0
 14 39  1  0
 15 16  1  0
 16 17  1  0
 17 23  1  0
 17 18  2  0
 18 19  1  0
 18 40  1  0
 19 20  2  0
 19 41  1  0
 20 21  1  0
 20 22  1  0
 22 23  2  0
 22 42  1  0
 23 43  1  0
M  END
>  <i_m_ct_stereo_status>  (227) 
1

>  <s_m_source_file>  (227) 
/var/tmp/pbs.5102264.sched01/tmp148in4kv/69urs0mf0h.sdf

>  <i_m_source_file_index>  (227) 
13

>  <i_lp_mmshare_version>  (227) 
48012

>  <i_f3d_flags>  (227) 
0

>  <s_epik_input>  (227) 
W0NIM11bQ0gyXU4oW0NIMl1bQ0gzXSljKG5jKG4xKVtDSDNdKWMoYzEyKWMoW0NIM10pbm4yLWMzW2NIXVtjSF1jKEYpW2NIXVtjSF0z

>  <s_epik_cmdline>  (227) 
J2VwaWtfcHl0aG9uJywgJy1waHQnLCAnMi4wJywgJy1waCcsICc3LjAnLCAnLXRuJywgJzgnLCAnLW1hJywgJzIwMCcsICctaW1hZScsICc8aW5maWxlLm1hZT4nLCAnLW9tYWUnLCAnPG91dGZpbGUubWFlPic=

>  <r_epik_Ionization_Penalty>  (227) 
0.0107998

>  <r_epik_Ionization_Penalty_Charging>  (227) 
0

>  <r_epik_Ionization_Penalty_Neutral>  (227) 
0.0107998

>  <r_epik_State_Penalty>  (227) 
0.00820601

>  <r_epik_Charging_Adjusted_Penalty>  (227) 
0.00820601

>  <i_epik_Tot_Q>  (227) 
0

>  <i_epik_Tot_abs_Q>  (227) 
0

>  <s_lp_Force_Field>  (227) 
OPLS3e

>  <r_lp_Energy>  (227) 
37.5755

>  <b_lp_Chiralities_Consistent>  (227) 
1

>  <s_lp_Variant>  (227) 
52:0-1

>  <s_i_glide_gridfile>  (227) 
pfpi4k_grid

>  <i_i_glide_lignum>  (227) 
13

>  <i_i_glide_rotatable_bonds>  (227) 
4

>  <r_i_docking_score>  (227) 
-3.10921

>  <r_i_glide_ligand_efficiency>  (227) 
-0.135183

>  <r_i_glide_ligand_efficiency_sa>  (227) 
-0.384442

>  <r_i_glide_ligand_efficiency_ln>  (227) 
-0.751834

>  <r_i_glide_gscore>  (227) 
-3.10921

>  <r_i_glide_lipo>  (227) 
-0.522246

>  <r_i_glide_hbond>  (227) 
0

>  <r_i_glide_metal>  (227) 
-0

>  <r_i_glide_rewards>  (227) 
-1.52495

>  <r_i_glide_evdw>  (227) 
-29.6259

>  <r_i_glide_ecoul>  (227) 
0.366988

>  <r_i_glide_erotb>  (227) 
0.378263

>  <r_i_glide_esite>  (227) 
-0.0140219

>  <r_i_glide_emodel>  (227) 
-33.2076

>  <r_i_glide_energy>  (227) 
-29.2589

>  <r_i_glide_einternal>  (227) 
2.2831

>  <r_i_glide_intrahb_reward>  (227) 
-0

>  <i_i_glide_confnum>  (227) 
5

>  <i_i_glide_posenum>  (227) 
4

>  <r_i_glide_eff_state_penalty>  (227) 
0

>  <ligand_id>  (227) 
52

>  <original_smiles>  (227) 
CCN(CC)c1nc(C)nc2c1c(C)nn2-c1ccc(F)cc1

>  <smiles>  (227) 
[H]c1c([H])c(-n2nc(C([H])([H])[H])c3c(N(C([H])([H])C([H])([H])[H])C([H])([H])C([H])([H])[H])nc(C([H])([H])[H])nc32)c([H])c([H])c1F

$$$$
52:1:0
     RDKit          3D

 44 46  0  0  1  0  0  0  0  0999 V2000
  -11.8746  -10.3132   -8.2932 C   0  0  0  0  0  0  0  0  0  0  0  0
  -11.1798  -10.9161   -9.5289 C   0  0  0  0  0  0  0  0  0  0  0  0
   -9.8113  -11.3995   -9.3162 N   0  0  0  0  0  0  0  0  0  0  0  0
   -9.2667  -12.3947  -10.2585 C   0  0  0  0  0  0  0  0  0  0  0  0
   -8.0185  -13.2248   -9.8423 C   0  0  0  0  0  0  0  0  0  0  0  0
   -8.9196  -10.6439   -8.5165 C   0  0  0  0  0  0  0  0  0  0  0  0
   -7.9842  -11.3632   -7.7985 N   0  0  0  0  0  0  0  0  0  0  0  0
   -7.1339  -10.8105   -6.9398 C   0  0  0  0  0  0  0  0  0  0  0  0
   -6.0920  -11.7292   -6.3121 C   0  0  0  0  0  0  0  0  0  0  0  0
   -7.0739   -9.4895   -6.6582 N   0  0  0  0  0  0  0  0  0  0  0  0
   -7.9681   -8.7597   -7.3722 C   0  0  0  0  0  0  0  0  0  0  0  0
   -8.9186   -9.2313   -8.2996 C   0  0  0  0  0  0  0  0  0  0  0  0
   -9.5528   -8.0218   -8.8102 C   0  0  0  0  0  0  0  0  0  0  0  0
  -10.5955   -7.7792   -9.8485 C   0  0  0  0  0  0  0  0  0  0  0  0
   -9.1105   -6.9496   -8.1645 N   0  0  0  0  0  0  0  0  0  0  0  0
   -8.1588   -7.3690   -7.2989 N   0  0  0  0  0  0  0  0  0  0  0  0
   -7.5548   -6.4385   -6.4216 C   0  0  0  0  0  0  0  0  0  0  0  0
   -6.2630   -6.6864   -5.8697 C   0  0  0  0  0  0  0  0  0  0  0  0
   -5.6794   -5.7435   -5.0229 C   0  0  0  0  0  0  0  0  0  0  0  0
   -6.3514   -4.5576   -4.7161 C   0  0  0  0  0  0  0  0  0  0  0  0
   -5.7956   -3.6524   -3.9086 F   0  0  0  0  0  0  0  0  0  0  0  0
   -7.6351   -4.3147   -5.2291 C   0  0  0  0  0  0  0  0  0  0  0  0
   -8.2410   -5.2560   -6.0638 C   0  0  0  0  0  0  0  0  0  0  0  0
  -12.8711   -9.9938   -8.5588 H   0  0  0  0  0  0  0  0  0  0  0  0
  -11.3756   -9.4495   -7.8622 H   0  0  0  0  0  0  0  0  0  0  0  0
  -11.9816  -11.0724   -7.5405 H   0  0  0  0  0  0  0  0  0  0  0  0
  -11.7342  -11.7803   -9.8558 H   0  0  0  0  0  0  0  0  0  0  0  0
  -11.1499  -10.2604  -10.4053 H   0  0  0  0  0  0  0  0  0  0  0  0
  -10.0600  -13.1001  -10.4480 H   0  0  0  0  0  0  0  0  0  0  0  0
   -9.0567  -11.9068  -11.2034 H   0  0  0  0  0  0  0  0  0  0  0  0
   -7.7691  -14.0153  -10.5597 H   0  0  0  0  0  0  0  0  0  0  0  0
   -8.2021  -13.7274   -8.8897 H   0  0  0  0  0  0  0  0  0  0  0  0
   -7.1367  -12.5792   -9.7411 H   0  0  0  0  0  0  0  0  0  0  0  0
   -5.3999  -11.2055   -5.6469 H   0  0  0  0  0  0  0  0  0  0  0  0
   -5.4770  -12.2231   -7.0816 H   0  0  0  0  0  0  0  0  0  0  0  0
   -6.5676  -12.5304   -5.7290 H   0  0  0  0  0  0  0  0  0  0  0  0
  -10.4469   -8.4215  -10.7256 H   0  0  0  0  0  0  0  0  0  0  0  0
  -10.6281   -6.7387  -10.2013 H   0  0  0  0  0  0  0  0  0  0  0  0
  -11.6054   -7.9895   -9.4717 H   0  0  0  0  0  0  0  0  0  0  0  0
   -5.6946   -7.5688   -6.1220 H   0  0  0  0  0  0  0  0  0  0  0  0
   -4.6955   -5.9339   -4.6415 H   0  0  0  0  0  0  0  0  0  0  0  0
   -8.1644   -3.4163   -4.9956 H   0  0  0  0  0  0  0  0  0  0  0  0
   -9.2243   -5.0567   -6.4731 H   0  0  0  0  0  0  0  0  0  0  0  0
   -8.0001  -12.3899   -7.8998 H   0  0  0  0  0  0  0  0  0  0  0  0
  1  2  1  0
  1 24  1  0
  1 25  1  0
  1 26  1  0
  2  3  1  0
  2 27  1  0
  2 28  1  0
  3  4  1  0
  3  6  1  0
  4  5  1  0
  4 29  1  0
  4 30  1  0
  5 31  1  0
  5 32  1  0
  5 33  1  0
  6 12  2  0
  6  7  1  0
  7  8  2  0
  7 44  1  0
  8  9  1  0
  8 10  1  0
  9 34  1  0
  9 35  1  0
  9 36  1  0
 10 11  2  0
 11 16  1  0
 11 12  1  0
 12 13  1  0
 13 14  1  0
 13 15  2  0
 14 37  1  0
 14 38  1  0
 14 39  1  0
 15 16  1  0
 16 17  1  0
 17 23  1  0
 17 18  2  0
 18 19  1  0
 18 40  1  0
 19 20  2  0
 19 41  1  0
 20 21  1  0
 20 22  1  0
 22 23  2  0
 22 42  1  0
 23 43  1  0
M  CHG  1   7   1
M  END
>  <i_m_ct_stereo_status>  (228) 
1

>  <s_m_source_file>  (228) 
/var/tmp/pbs.5102264.sched01/tmp148in4kv/69urs0mf0h.sdf

>  <i_m_source_file_index>  (228) 
14

>  <i_lp_mmshare_version>  (228) 
48012

>  <i_f3d_flags>  (228) 
0

>  <s_epik_input>  (228) 
W0NIM11bQ0gyXU4oW0NIMl1bQ0gzXSljKG5jKG4xKVtDSDNdKWMoYzEyKWMoW0NIM10pbm4yLWMzW2NIXVtjSF1jKEYpW2NIXVtjSF0z

>  <s_epik_cmdline>  (228) 
J2VwaWtfcHl0aG9uJywgJy1waHQnLCAnMi4wJywgJy1waCcsICc3LjAnLCAnLXRuJywgJzgnLCAnLW1hJywgJzIwMCcsICctaW1hZScsICc8aW5maWxlLm1hZT4nLCAnLW9tYWUnLCAnPG91dGZpbGUubWFlPic=

>  <r_epik_Ionization_Penalty>  (228) 
2.38299

>  <r_epik_Ionization_Penalty_Charging>  (228) 
2.38299

>  <r_epik_Ionization_Penalty_Neutral>  (228) 
8.12998e-08

>  <r_epik_State_Penalty>  (228) 
2.53962

>  <r_epik_Charging_Adjusted_Penalty>  (228) 
4.92261

>  <i_epik_Tot_Q>  (228) 
1

>  <i_epik_Tot_abs_Q>  (228) 
1

>  <s_lp_Force_Field>  (228) 
OPLS3e

>  <r_lp_Energy>  (228) 
41.3363

>  <b_lp_Chiralities_Consistent>  (228) 
1

>  <s_lp_Variant>  (228) 
52:0-2

>  <s_i_glide_gridfile>  (228) 
pfpi4k_grid

>  <i_i_glide_lignum>  (228) 
14

>  <i_i_glide_rotatable_bonds>  (228) 
4

>  <r_i_docking_score>  (228) 
-3.86892

>  <r_i_glide_ligand_efficiency>  (228) 
-0.168214

>  <r_i_glide_ligand_efficiency_sa>  (228) 
-0.478378

>  <r_i_glide_ligand_efficiency_ln>  (228) 
-0.935539

>  <r_i_glide_gscore>  (228) 
-3.86892

>  <r_i_glide_lipo>  (228) 
-1.88189

>  <r_i_glide_hbond>  (228) 
0

>  <r_i_glide_metal>  (228) 
-0

>  <r_i_glide_rewards>  (228) 
-1.21925

>  <r_i_glide_evdw>  (228) 
-25.375

>  <r_i_glide_ecoul>  (228) 
0.832229

>  <r_i_glide_erotb>  (228) 
0.376133

>  <r_i_glide_esite>  (228) 
0

>  <r_i_glide_emodel>  (228) 
-31.6479

>  <r_i_glide_energy>  (228) 
-24.5427

>  <r_i_glide_einternal>  (228) 
1.28164

>  <r_i_glide_intrahb_reward>  (228) 
-0

>  <i_i_glide_confnum>  (228) 
2

>  <i_i_glide_posenum>  (228) 
12

>  <r_i_glide_eff_state_penalty>  (228) 
0

>  <ligand_id>  (228) 
52

>  <original_smiles>  (228) 
CCN(CC)c1nc(C)nc2c1c(C)nn2-c1ccc(F)cc1

>  <smiles>  (228) 
[H]c1c([H])c(-n2nc(C([H])([H])[H])c3c(N(C([H])([H])C([H])([H])[H])C([H])([H])C([H])([H])[H])[n+]([H])c(C([H])([H])[H])nc32)c([H])c([H])c1F

$$$$
52:1:1
     RDKit          3D

 44 46  0  0  1  0  0  0  0  0999 V2000
    0.9042  -10.7863    5.1850 C   0  0  0  0  0  0  0  0  0  0  0  0
    1.6149  -11.8000    4.2478 C   0  0  0  0  0  0  0  0  0  0  0  0
    2.8355  -11.3313    3.5565 N   0  0  0  0  0  0  0  0  0  0  0  0
    3.7584  -12.3518    3.0726 C   0  0  0  0  0  0  0  0  0  0  0  0
    4.4593  -13.1305    4.2233 C   0  0  0  0  0  0  0  0  0  0  0  0
    2.8486  -10.0709    2.8984 C   0  0  0  0  0  0  0  0  0  0  0  0
    1.6447   -9.4748    2.6660 N   0  0  0  0  0  0  0  0  0  0  0  0
    1.5281   -8.2437    2.1310 C   0  0  0  0  0  0  0  0  0  0  0  0
    0.1448   -7.6397    2.0204 C   0  0  0  0  0  0  0  0  0  0  0  0
    2.5702   -7.4969    1.7405 N   0  0  0  0  0  0  0  0  0  0  0  0
    3.7851   -8.0742    1.9151 C   0  0  0  0  0  0  0  0  0  0  0  0
    4.0254   -9.3551    2.4980 C   0  0  0  0  0  0  0  0  0  0  0  0
    5.4694   -9.4506    2.5165 C   0  0  0  0  0  0  0  0  0  0  0  0
    6.3685  -10.4913    3.1287 C   0  0  0  0  0  0  0  0  0  0  0  0
    6.0312   -8.3918    1.9716 N   0  0  0  0  0  0  0  0  0  0  0  0
    5.0345   -7.5506    1.6099 N   0  0  0  0  0  0  0  0  0  0  0  0
    5.3788   -6.3146    0.9959 C   0  0  0  0  0  0  0  0  0  0  0  0
    6.6021   -5.6944    1.3001 C   0  0  0  0  0  0  0  0  0  0  0  0
    6.9553   -4.4851    0.6975 C   0  0  0  0  0  0  0  0  0  0  0  0
    6.0712   -3.8854   -0.2222 C   0  0  0  0  0  0  0  0  0  0  0  0
    6.4247   -2.7330   -0.8169 F   0  0  0  0  0  0  0  0  0  0  0  0
    4.8556   -4.4886   -0.5310 C   0  0  0  0  0  0  0  0  0  0  0  0
    4.4980   -5.7122    0.0675 C   0  0  0  0  0  0  0  0  0  0  0  0
    0.1889  -11.3343    5.8156 H   0  0  0  0  0  0  0  0  0  0  0  0
    0.3636   -9.9921    4.6506 H   0  0  0  0  0  0  0  0  0  0  0  0
    1.6416  -10.3308    5.8554 H   0  0  0  0  0  0  0  0  0  0  0  0
    1.9113  -12.6349    4.8692 H   0  0  0  0  0  0  0  0  0  0  0  0
    0.9286  -12.2028    3.5070 H   0  0  0  0  0  0  0  0  0  0  0  0
    3.1904  -13.0589    2.4583 H   0  0  0  0  0  0  0  0  0  0  0  0
    4.5201  -11.9019    2.4329 H   0  0  0  0  0  0  0  0  0  0  0  0
    5.2452  -13.7524    3.8033 H   0  0  0  0  0  0  0  0  0  0  0  0
    3.7868  -13.7986    4.7647 H   0  0  0  0  0  0  0  0  0  0  0  0
    4.9265  -12.4585    4.9461 H   0  0  0  0  0  0  0  0  0  0  0  0
    0.1567   -6.6337    1.5839 H   0  0  0  0  0  0  0  0  0  0  0  0
   -0.3287   -7.5542    3.0029 H   0  0  0  0  0  0  0  0  0  0  0  0
   -0.5136   -8.2499    1.3979 H   0  0  0  0  0  0  0  0  0  0  0  0
    5.9347  -10.8800    4.0520 H   0  0  0  0  0  0  0  0  0  0  0  0
    7.3585  -10.0998    3.3596 H   0  0  0  0  0  0  0  0  0  0  0  0
    6.5148  -11.3174    2.4184 H   0  0  0  0  0  0  0  0  0  0  0  0
    7.2828   -6.1637    1.9958 H   0  0  0  0  0  0  0  0  0  0  0  0
    7.9000   -4.0378    0.9228 H   0  0  0  0  0  0  0  0  0  0  0  0
    4.1765   -4.0538   -1.2471 H   0  0  0  0  0  0  0  0  0  0  0  0
    3.5697   -6.1755   -0.2034 H   0  0  0  0  0  0  0  0  0  0  0  0
    0.7781   -9.9736    2.9158 H   0  0  0  0  0  0  0  0  0  0  0  0
  1  2  1  0
  1 24  1  0
  1 25  1  0
  1 26  1  0
  2  3  1  0
  2 27  1  0
  2 28  1  0
  3  4  1  0
  3  6  1  0
  4  5  1  0
  4 29  1  0
  4 30  1  0
  5 31  1  0
  5 32  1  0
  5 33  1  0
  6 12  2  0
  6  7  1  0
  7  8  2  0
  7 44  1  0
  8  9  1  0
  8 10  1  0
  9 34  1  0
  9 35  1  0
  9 36  1  0
 10 11  2  0
 11 16  1  0
 11 12  1  0
 12 13  1  0
 13 14  1  0
 13 15  2  0
 14 37  1  0
 14 38  1  0
 14 39  1  0
 15 16  1  0
 16 17  1  0
 17 23  1  0
 17 18  2  0
 18 19  1  0
 18 40  1  0
 19 20  2  0
 19 41  1  0
 20 21  1  0
 20 22  1  0
 22 23  2  0
 22 42  1  0
 23 43  1  0
M  CHG  1   7   1
M  END
>  <i_m_ct_stereo_status>  (229) 
1

>  <s_m_source_file>  (229) 
/var/tmp/pbs.5102264.sched01/tmp148in4kv/69urs0mf0h.sdf

>  <i_m_source_file_index>  (229) 
14

>  <i_lp_mmshare_version>  (229) 
48012

>  <i_f3d_flags>  (229) 
0

>  <s_epik_input>  (229) 
W0NIM11bQ0gyXU4oW0NIMl1bQ0gzXSljKG5jKG4xKVtDSDNdKWMoYzEyKWMoW0NIM10pbm4yLWMzW2NIXVtjSF1jKEYpW2NIXVtjSF0z

>  <s_epik_cmdline>  (229) 
J2VwaWtfcHl0aG9uJywgJy1waHQnLCAnMi4wJywgJy1waCcsICc3LjAnLCAnLXRuJywgJzgnLCAnLW1hJywgJzIwMCcsICctaW1hZScsICc8aW5maWxlLm1hZT4nLCAnLW9tYWUnLCAnPG91dGZpbGUubWFlPic=

>  <r_epik_Ionization_Penalty>  (229) 
2.38299

>  <r_epik_Ionization_Penalty_Charging>  (229) 
2.38299

>  <r_epik_Ionization_Penalty_Neutral>  (229) 
8.12998e-08

>  <r_epik_State_Penalty>  (229) 
2.53962

>  <r_epik_Charging_Adjusted_Penalty>  (229) 
4.92261

>  <i_epik_Tot_Q>  (229) 
1

>  <i_epik_Tot_abs_Q>  (229) 
1

>  <s_lp_Force_Field>  (229) 
OPLS3e

>  <r_lp_Energy>  (229) 
41.3363

>  <b_lp_Chiralities_Consistent>  (229) 
1

>  <s_lp_Variant>  (229) 
52:0-2

>  <s_i_glide_gridfile>  (229) 
pfpi4k_grid

>  <i_i_glide_lignum>  (229) 
14

>  <i_i_glide_rotatable_bonds>  (229) 
4

>  <r_i_docking_score>  (229) 
-3.06387

>  <r_i_glide_ligand_efficiency>  (229) 
-0.133212

>  <r_i_glide_ligand_efficiency_sa>  (229) 
-0.378836

>  <r_i_glide_ligand_efficiency_ln>  (229) 
-0.740871

>  <r_i_glide_gscore>  (229) 
-3.06387

>  <r_i_glide_lipo>  (229) 
-0.409892

>  <r_i_glide_hbond>  (229) 
0

>  <r_i_glide_metal>  (229) 
-0

>  <r_i_glide_rewards>  (229) 
-1.35738

>  <r_i_glide_evdw>  (229) 
-23.6067

>  <r_i_glide_ecoul>  (229) 
-2.92461

>  <r_i_glide_erotb>  (229) 
0.376133

>  <r_i_glide_esite>  (229) 
-0.0537061

>  <r_i_glide_emodel>  (229) 
-33.0069

>  <r_i_glide_energy>  (229) 
-26.5313

>  <r_i_glide_einternal>  (229) 
0.450827

>  <r_i_glide_intrahb_reward>  (229) 
-0

>  <i_i_glide_confnum>  (229) 
1

>  <i_i_glide_posenum>  (229) 
35

>  <r_i_glide_eff_state_penalty>  (229) 
0

>  <ligand_id>  (229) 
52

>  <original_smiles>  (229) 
CCN(CC)c1nc(C)nc2c1c(C)nn2-c1ccc(F)cc1

>  <smiles>  (229) 
[H]c1c([H])c(-n2nc(C([H])([H])[H])c3c(N(C([H])([H])C([H])([H])[H])C([H])([H])C([H])([H])[H])[n+]([H])c(C([H])([H])[H])nc32)c([H])c([H])c1F

$$$$
52:1:2
     RDKit          3D

 44 46  0  0  1  0  0  0  0  0999 V2000
   -0.9858   -9.8156    2.5021 C   0  0  0  0  0  0  0  0  0  0  0  0
    0.3219  -10.4324    3.0154 C   0  0  0  0  0  0  0  0  0  0  0  0
    0.9026   -9.7306    4.1615 N   0  0  0  0  0  0  0  0  0  0  0  0
    1.4385  -10.4932    5.2864 C   0  0  0  0  0  0  0  0  0  0  0  0
    2.6759  -11.3306    4.9232 C   0  0  0  0  0  0  0  0  0  0  0  0
    1.2483   -8.3713    4.0637 C   0  0  0  0  0  0  0  0  0  0  0  0
    0.7712   -7.5558    5.0407 N   0  0  0  0  0  0  0  0  0  0  0  0
    1.0006   -6.2267    5.0266 C   0  0  0  0  0  0  0  0  0  0  0  0
    0.4350   -5.3824    6.1544 C   0  0  0  0  0  0  0  0  0  0  0  0
    1.6796   -5.5892    4.0703 N   0  0  0  0  0  0  0  0  0  0  0  0
    2.1886   -6.3939    3.0992 C   0  0  0  0  0  0  0  0  0  0  0  0
    2.0363   -7.8030    3.0251 C   0  0  0  0  0  0  0  0  0  0  0  0
    2.7959   -8.1876    1.8619 C   0  0  0  0  0  0  0  0  0  0  0  0
    3.0642   -9.5398    1.2857 C   0  0  0  0  0  0  0  0  0  0  0  0
    3.3236   -7.1351    1.2793 N   0  0  0  0  0  0  0  0  0  0  0  0
    2.9492   -6.0419    1.9866 N   0  0  0  0  0  0  0  0  0  0  0  0
    3.3680   -4.7555    1.5335 C   0  0  0  0  0  0  0  0  0  0  0  0
    2.6169   -3.5938    1.8299 C   0  0  0  0  0  0  0  0  0  0  0  0
    3.0190   -2.3336    1.3428 C   0  0  0  0  0  0  0  0  0  0  0  0
    4.1795   -2.2157    0.5574 C   0  0  0  0  0  0  0  0  0  0  0  0
    4.5631   -1.0112    0.0859 F   0  0  0  0  0  0  0  0  0  0  0  0
    4.9376   -3.3600    0.2583 C   0  0  0  0  0  0  0  0  0  0  0  0
    4.5372   -4.6222    0.7420 C   0  0  0  0  0  0  0  0  0  0  0  0
   -1.3706  -10.4182    1.6796 H   0  0  0  0  0  0  0  0  0  0  0  0
   -0.8360   -8.8006    2.1199 H   0  0  0  0  0  0  0  0  0  0  0  0
   -1.7434   -9.7821    3.2811 H   0  0  0  0  0  0  0  0  0  0  0  0
    0.1942  -11.4791    3.2855 H   0  0  0  0  0  0  0  0  0  0  0  0
    1.0008  -10.4602    2.1775 H   0  0  0  0  0  0  0  0  0  0  0  0
    1.6807   -9.8354    6.1231 H   0  0  0  0  0  0  0  0  0  0  0  0
    0.6495  -11.1552    5.6398 H   0  0  0  0  0  0  0  0  0  0  0  0
    3.0081  -11.8898    5.7986 H   0  0  0  0  0  0  0  0  0  0  0  0
    3.5130  -10.7094    4.5963 H   0  0  0  0  0  0  0  0  0  0  0  0
    2.4687  -12.0663    4.1429 H   0  0  0  0  0  0  0  0  0  0  0  0
    0.6981   -4.3280    6.0310 H   0  0  0  0  0  0  0  0  0  0  0  0
    0.8322   -5.7106    7.1143 H   0  0  0  0  0  0  0  0  0  0  0  0
   -0.6525   -5.4549    6.1811 H   0  0  0  0  0  0  0  0  0  0  0  0
    3.1561  -10.2817    2.0767 H   0  0  0  0  0  0  0  0  0  0  0  0
    3.9933   -9.5667    0.7170 H   0  0  0  0  0  0  0  0  0  0  0  0
    2.2683   -9.8419    0.6052 H   0  0  0  0  0  0  0  0  0  0  0  0
    1.7130   -3.6470    2.4165 H   0  0  0  0  0  0  0  0  0  0  0  0
    2.4267   -1.4570    1.5627 H   0  0  0  0  0  0  0  0  0  0  0  0
    5.8241   -3.2786   -0.3499 H   0  0  0  0  0  0  0  0  0  0  0  0
    5.1355   -5.4872    0.4959 H   0  0  0  0  0  0  0  0  0  0  0  0
    0.2219   -7.9691    5.7955 H   0  0  0  0  0  0  0  0  0  0  0  0
  1  2  1  0
  1 24  1  0
  1 25  1  0
  1 26  1  0
  2  3  1  0
  2 27  1  0
  2 28  1  0
  3  4  1  0
  3  6  1  0
  4  5  1  0
  4 29  1  0
  4 30  1  0
  5 31  1  0
  5 32  1  0
  5 33  1  0
  6 12  2  0
  6  7  1  0
  7  8  2  0
  7 44  1  0
  8  9  1  0
  8 10  1  0
  9 34  1  0
  9 35  1  0
  9 36  1  0
 10 11  2  0
 11 16  1  0
 11 12  1  0
 12 13  1  0
 13 14  1  0
 13 15  2  0
 14 37  1  0
 14 38  1  0
 14 39  1  0
 15 16  1  0
 16 17  1  0
 17 23  1  0
 17 18  2  0
 18 19  1  0
 18 40  1  0
 19 20  2  0
 19 41  1  0
 20 21  1  0
 20 22  1  0
 22 23  2  0
 22 42  1  0
 23 43  1  0
M  CHG  1   7   1
M  END
>  <i_m_ct_stereo_status>  (230) 
1

>  <s_m_source_file>  (230) 
/var/tmp/pbs.5102264.sched01/tmp148in4kv/69urs0mf0h.sdf

>  <i_m_source_file_index>  (230) 
14

>  <i_lp_mmshare_version>  (230) 
48012

>  <i_f3d_flags>  (230) 
0

>  <s_epik_input>  (230) 
W0NIM11bQ0gyXU4oW0NIMl1bQ0gzXSljKG5jKG4xKVtDSDNdKWMoYzEyKWMoW0NIM10pbm4yLWMzW2NIXVtjSF1jKEYpW2NIXVtjSF0z

>  <s_epik_cmdline>  (230) 
J2VwaWtfcHl0aG9uJywgJy1waHQnLCAnMi4wJywgJy1waCcsICc3LjAnLCAnLXRuJywgJzgnLCAnLW1hJywgJzIwMCcsICctaW1hZScsICc8aW5maWxlLm1hZT4nLCAnLW9tYWUnLCAnPG91dGZpbGUubWFlPic=

>  <r_epik_Ionization_Penalty>  (230) 
2.38299

>  <r_epik_Ionization_Penalty_Charging>  (230) 
2.38299

>  <r_epik_Ionization_Penalty_Neutral>  (230) 
8.12998e-08

>  <r_epik_State_Penalty>  (230) 
2.53962

>  <r_epik_Charging_Adjusted_Penalty>  (230) 
4.92261

>  <i_epik_Tot_Q>  (230) 
1

>  <i_epik_Tot_abs_Q>  (230) 
1

>  <s_lp_Force_Field>  (230) 
OPLS3e

>  <r_lp_Energy>  (230) 
41.3363

>  <b_lp_Chiralities_Consistent>  (230) 
1

>  <s_lp_Variant>  (230) 
52:0-2

>  <s_i_glide_gridfile>  (230) 
pfpi4k_grid

>  <i_i_glide_lignum>  (230) 
14

>  <i_i_glide_rotatable_bonds>  (230) 
4

>  <r_i_docking_score>  (230) 
-2.64083

>  <r_i_glide_ligand_efficiency>  (230) 
-0.114819

>  <r_i_glide_ligand_efficiency_sa>  (230) 
-0.326529

>  <r_i_glide_ligand_efficiency_ln>  (230) 
-0.638577

>  <r_i_glide_gscore>  (230) 
-2.64083

>  <r_i_glide_lipo>  (230) 
-0.213153

>  <r_i_glide_hbond>  (230) 
0

>  <r_i_glide_metal>  (230) 
-0

>  <r_i_glide_rewards>  (230) 
-1.26778

>  <r_i_glide_evdw>  (230) 
-22.1308

>  <r_i_glide_ecoul>  (230) 
-2.50191

>  <r_i_glide_erotb>  (230) 
0.376133

>  <r_i_glide_esite>  (230) 
-0.0542056

>  <r_i_glide_emodel>  (230) 
-29.108

>  <r_i_glide_energy>  (230) 
-24.6328

>  <r_i_glide_einternal>  (230) 
3.19229

>  <r_i_glide_intrahb_reward>  (230) 
-0

>  <i_i_glide_confnum>  (230) 
1

>  <i_i_glide_posenum>  (230) 
15

>  <r_i_glide_eff_state_penalty>  (230) 
0

>  <ligand_id>  (230) 
52

>  <original_smiles>  (230) 
CCN(CC)c1nc(C)nc2c1c(C)nn2-c1ccc(F)cc1

>  <smiles>  (230) 
[H]c1c([H])c(-n2nc(C([H])([H])[H])c3c(N(C([H])([H])C([H])([H])[H])C([H])([H])C([H])([H])[H])[n+]([H])c(C([H])([H])[H])nc32)c([H])c([H])c1F

$$$$
54:0:0
     RDKit          3D

 45 48  0  0  1  0  0  0  0  0999 V2000
    4.5635   -6.0946    0.7196 C   0  0  0  0  0  0  0  0  0  0  0  0
    4.1270   -5.0407   -0.2244 N   0  0  2  0  0  0  0  0  0  0  0  0
    5.2604   -4.2686   -0.7885 C   0  0  0  0  0  0  0  0  0  0  0  0
    5.5757   -2.9721   -0.0164 C   0  0  0  0  0  0  0  0  0  0  0  0
    4.3157   -2.1015    0.2122 C   0  0  2  0  0  0  0  0  0  0  0  0
    4.6813   -0.8257    1.0344 C   0  0  0  0  0  0  0  0  0  0  0  0
    5.1721   -1.1332    2.4678 C   0  0  1  0  0  0  0  0  0  0  0  0
    5.3503    0.0765    3.1705 O   0  0  0  0  0  0  0  0  0  0  0  0
    4.1943   -2.0118    3.2604 C   0  0  0  0  0  0  0  0  0  0  0  0
    3.8113   -3.2787    2.4759 C   0  0  0  0  0  0  0  0  0  0  0  0
    3.3207   -2.9714    1.0304 C   0  0  1  0  0  0  0  0  0  0  0  0
    2.1482   -2.2259    1.2832 O   0  0  0  0  0  0  0  0  0  0  0  0
    2.9436   -4.2325    0.1968 C   0  0  1  0  0  0  0  0  0  0  0  0
    2.1564   -3.8100   -1.0587 C   0  0  0  0  0  0  0  0  0  0  0  0
    2.8120   -2.6759   -1.8302 C   0  0  0  0  0  0  0  0  0  0  0  0
    2.3737   -2.4329   -3.1406 C   0  0  0  0  0  0  0  0  0  0  0  0
    2.8677   -1.3259   -3.8544 C   0  0  0  0  0  0  0  0  0  0  0  0
    3.7841   -0.4627   -3.2568 C   0  0  0  0  0  0  0  0  0  0  0  0
    4.1631    0.6698   -3.9289 O   0  0  0  0  0  0  0  0  0  0  0  0
    4.2630   -0.7208   -1.9609 C   0  0  0  0  0  0  0  0  0  0  0  0
    3.7671   -1.8119   -1.2112 C   0  0  0  0  0  0  0  0  0  0  0  0
    5.2394   -5.7069    1.4839 H   0  0  0  0  0  0  0  0  0  0  0  0
    5.1189   -6.8611    0.1752 H   0  0  0  0  0  0  0  0  0  0  0  0
    3.7227   -6.5909    1.2102 H   0  0  0  0  0  0  0  0  0  0  0  0
    6.1571   -4.8763   -0.7259 H   0  0  0  0  0  0  0  0  0  0  0  0
    5.0644   -4.0521   -1.8417 H   0  0  0  0  0  0  0  0  0  0  0  0
    6.0508   -3.2517    0.9300 H   0  0  0  0  0  0  0  0  0  0  0  0
    6.3340   -2.4016   -0.5676 H   0  0  0  0  0  0  0  0  0  0  0  0
    5.4638   -0.2583    0.5394 H   0  0  0  0  0  0  0  0  0  0  0  0
    3.8100   -0.1764    1.0894 H   0  0  0  0  0  0  0  0  0  0  0  0
    6.1432   -1.6271    2.4277 H   0  0  0  0  0  0  0  0  0  0  0  0
    5.6987   -0.1057    4.0298 H   0  0  0  0  0  0  0  0  0  0  0  0
    4.6446   -2.2998    4.2133 H   0  0  0  0  0  0  0  0  0  0  0  0
    3.2969   -1.4415    3.5125 H   0  0  0  0  0  0  0  0  0  0  0  0
    4.6767   -3.9333    2.4821 H   0  0  0  0  0  0  0  0  0  0  0  0
    3.0334   -3.8077    3.0286 H   0  0  0  0  0  0  0  0  0  0  0  0
    1.8740   -1.7765    0.4878 H   0  0  0  0  0  0  0  0  0  0  0  0
    2.2838   -4.8723    0.7870 H   0  0  0  0  0  0  0  0  0  0  0  0
    1.8797   -4.6575   -1.6769 H   0  0  0  0  0  0  0  0  0  0  0  0
    1.1822   -3.4388   -0.7747 H   0  0  0  0  0  0  0  0  0  0  0  0
    1.5866   -3.0384   -3.5677 H   0  0  0  0  0  0  0  0  0  0  0  0
    2.4439   -1.0648   -4.8098 H   0  0  0  0  0  0  0  0  0  0  0  0
    3.5912    1.4100   -3.7166 H   0  0  0  0  0  0  0  0  0  0  0  0
    4.9714   -0.0392   -1.5248 H   0  0  0  0  0  0  0  0  0  0  0  0
    3.7704   -5.5581   -1.0177 H   0  0  0  0  0  0  0  0  0  0  0  0
  1  2  1  0
  1 22  1  0
  1 23  1  0
  1 24  1  0
  2 13  1  0
  2  3  1  0
  2 45  1  6
  3  4  1  0
  3 25  1  0
  3 26  1  0
  5  4  1  6
  4 27  1  0
  4 28  1  0
  5 11  1  0
  5 21  1  0
  5  6  1  0
  6  7  1  0
  6 29  1  0
  6 30  1  0
  7  8  1  0
  7  9  1  0
  7 31  1  6
  8 32  1  0
  9 10  1  0
  9 33  1  0
  9 34  1  0
 10 11  1  0
 10 35  1  0
 10 36  1  0
 11 12  1  1
 11 13  1  0
 12 37  1  0
 13 14  1  0
 13 38  1  1
 14 15  1  0
 14 39  1  0
 14 40  1  0
 15 21  2  0
 15 16  1  0
 16 17  2  0
 16 41  1  0
 17 18  1  0
 17 42  1  0
 18 19  1  0
 18 20  2  0
 19 43  1  0
 20 21  1  0
 20 44  1  0
M  CHG  1   2   1
M  END
>  <i_m_ct_stereo_status>  (231) 
1

>  <s_m_source_file>  (231) 
/var/tmp/pbs.5102264.sched01/tmp148in4kv/69urs0mf0h.sdf

>  <i_m_source_file_index>  (231) 
16

>  <i_lp_mmshare_version>  (231) 
48012

>  <i_f3d_flags>  (231) 
0

>  <s_epik_input>  (231) 
W0NIMl0xW0NAQEhdKFtPSF0pW0NIMl1bQ0gyXVtDQF0oW0NAQF0xMjMpKFtPSF0pW0NASF0oTihbQ0gzXSlbQ0gyXVtDSDJdMilbQ0gyXWM0YzNbY0hdYyhbT0hdKVtjSF1bY0hdNA==

>  <s_epik_cmdline>  (231) 
J2VwaWtfcHl0aG9uJywgJy1waHQnLCAnMi4wJywgJy1waCcsICc3LjAnLCAnLXRuJywgJzgnLCAnLW1hJywgJzIwMCcsICctaW1hZScsICc8aW5maWxlLm1hZT4nLCAnLW9tYWUnLCAnPG91dGZpbGUubWFlPic=

>  <r_lp_tautomer_probability>  (231) 
1

>  <r_epik_Ionization_Penalty>  (231) 
0.0509962

>  <r_epik_Ionization_Penalty_Charging>  (231) 
0.0497521

>  <r_epik_Ionization_Penalty_Neutral>  (231) 
0.00124408

>  <r_epik_State_Penalty>  (231) 
0.0425168

>  <r_epik_Charging_Adjusted_Penalty>  (231) 
0.0922689

>  <i_epik_Tot_Q>  (231) 
1

>  <i_epik_Tot_abs_Q>  (231) 
1

>  <s_lp_Force_Field>  (231) 
OPLS3e

>  <r_lp_Energy>  (231) 
61.6663

>  <b_lp_Chiralities_Consistent>  (231) 
1

>  <s_lp_Variant>  (231) 
54:0-1

>  <s_i_glide_gridfile>  (231) 
pfpi4k_grid

>  <i_i_glide_lignum>  (231) 
16

>  <i_i_glide_rotatable_bonds>  (231) 
3

>  <r_i_docking_score>  (231) 
-4.87245

>  <r_i_glide_ligand_efficiency>  (231) 
-0.232022

>  <r_i_glide_ligand_efficiency_sa>  (231) 
-0.64013

>  <r_i_glide_ligand_efficiency_ln>  (231) 
-1.2047

>  <r_i_glide_gscore>  (231) 
-4.87245

>  <r_i_glide_lipo>  (231) 
-0.75802

>  <r_i_glide_hbond>  (231) 
-0.528407

>  <r_i_glide_metal>  (231) 
-0

>  <r_i_glide_rewards>  (231) 
-1.42925

>  <r_i_glide_evdw>  (231) 
-12.2712

>  <r_i_glide_ecoul>  (231) 
-10.1015

>  <r_i_glide_erotb>  (231) 
0

>  <r_i_glide_esite>  (231) 
-0.028002

>  <r_i_glide_emodel>  (231) 
-27.4309

>  <r_i_glide_energy>  (231) 
-22.3727

>  <r_i_glide_einternal>  (231) 
3.81993

>  <r_i_glide_intrahb_reward>  (231) 
-0

>  <i_i_glide_confnum>  (231) 
2

>  <i_i_glide_posenum>  (231) 
7

>  <r_i_glide_eff_state_penalty>  (231) 
0

>  <ligand_id>  (231) 
54

>  <original_smiles>  (231) 
CN1CCC23CC(O)CCC2(O)C1Cc1ccc(O)cc13

>  <smiles>  (231) 
[H]Oc1c([H])c([H])c2c(c1[H])C13C([H])([H])C([H])(O[H])C([H])([H])C([H])([H])C1(O[H])C([H])(C2([H])[H])[N+]([H])(C([H])([H])[H])C([H])([H])C3([H])[H]

$$$$
54:0:1
     RDKit          3D

 45 48  0  0  1  0  0  0  0  0999 V2000
    7.6678   -4.7882    1.1874 C   0  0  0  0  0  0  0  0  0  0  0  0
    6.7584   -4.2401    0.1534 N   0  0  2  0  0  0  0  0  0  0  0  0
    7.1999   -2.9215   -0.3792 C   0  0  0  0  0  0  0  0  0  0  0  0
    6.5397   -1.7357    0.3478 C   0  0  0  0  0  0  0  0  0  0  0  0
    4.9939   -1.8687    0.4257 C   0  0  2  0  0  0  0  0  0  0  0  0
    4.3922   -0.6480    1.1892 C   0  0  0  0  0  0  0  0  0  0  0  0
    4.8126   -0.5609    2.6719 C   0  0  1  0  0  0  0  0  0  0  0  0
    4.0958    0.4847    3.2976 O   0  0  0  0  0  0  0  0  0  0  0  0
    4.5399   -1.8649    3.4391 C   0  0  0  0  0  0  0  0  0  0  0  0
    5.1162   -3.0948    2.7121 C   0  0  0  0  0  0  0  0  0  0  0  0
    4.6849   -3.1741    1.2206 C   0  0  1  0  0  0  0  0  0  0  0  0
    3.2751   -3.3527    1.2907 O   0  0  0  0  0  0  0  0  0  0  0  0
    5.2897   -4.3745    0.4357 C   0  0  1  0  0  0  0  0  0  0  0  0
    4.5397   -4.5504   -0.9005 C   0  0  0  0  0  0  0  0  0  0  0  0
    4.3259   -3.2489   -1.6649 C   0  0  0  0  0  0  0  0  0  0  0  0
    3.9514   -3.3256   -3.0236 C   0  0  0  0  0  0  0  0  0  0  0  0
    3.7038   -2.1604   -3.7617 C   0  0  0  0  0  0  0  0  0  0  0  0
    3.8378   -0.9118   -3.1499 C   0  0  0  0  0  0  0  0  0  0  0  0
    3.5788    0.2017   -3.8842 O   0  0  0  0  0  0  0  0  0  0  0  0
    4.2394   -0.8246   -1.8035 C   0  0  0  0  0  0  0  0  0  0  0  0
    4.4818   -1.9850   -1.0332 C   0  0  0  0  0  0  0  0  0  0  0  0
    7.8625   -4.0632    1.9652 H   0  0  0  0  0  0  0  0  0  0  0  0
    8.6335   -5.0222    0.7414 H   0  0  0  0  0  0  0  0  0  0  0  0
    7.2804   -5.6989    1.6431 H   0  0  0  0  0  0  0  0  0  0  0  0
    8.2850   -2.8418   -0.3136 H   0  0  0  0  0  0  0  0  0  0  0  0
    6.9846   -2.8810   -1.4479 H   0  0  0  0  0  0  0  0  0  0  0  0
    6.9913   -1.6516    1.3347 H   0  0  0  0  0  0  0  0  0  0  0  0
    6.8009   -0.8070   -0.1525 H   0  0  0  0  0  0  0  0  0  0  0  0
    4.6838    0.2874    0.7147 H   0  0  0  0  0  0  0  0  0  0  0  0
    3.3036   -0.6959    1.1310 H   0  0  0  0  0  0  0  0  0  0  0  0
    5.8742   -0.3195    2.7426 H   0  0  0  0  0  0  0  0  0  0  0  0
    4.2327    1.2953    2.8244 H   0  0  0  0  0  0  0  0  0  0  0  0
    4.9792   -1.7989    4.4356 H   0  0  0  0  0  0  0  0  0  0  0  0
    3.4675   -1.9908    3.5959 H   0  0  0  0  0  0  0  0  0  0  0  0
    6.1954   -3.0409    2.8031 H   0  0  0  0  0  0  0  0  0  0  0  0
    4.8168   -4.0009    3.2420 H   0  0  0  0  0  0  0  0  0  0  0  0
    3.0782   -4.1163    1.8064 H   0  0  0  0  0  0  0  0  0  0  0  0
    5.1403   -5.2951    0.9964 H   0  0  0  0  0  0  0  0  0  0  0  0
    5.0232   -5.2889   -1.5398 H   0  0  0  0  0  0  0  0  0  0  0  0
    3.5515   -4.9620   -0.7003 H   0  0  0  0  0  0  0  0  0  0  0  0
    3.8260   -4.2727   -3.5218 H   0  0  0  0  0  0  0  0  0  0  0  0
    3.3898   -2.2284   -4.7904 H   0  0  0  0  0  0  0  0  0  0  0  0
    3.2160    0.9189   -3.3734 H   0  0  0  0  0  0  0  0  0  0  0  0
    4.3674    0.1423   -1.3667 H   0  0  0  0  0  0  0  0  0  0  0  0
    6.8951   -4.8783   -0.6159 H   0  0  0  0  0  0  0  0  0  0  0  0
  1  2  1  0
  1 22  1  0
  1 23  1  0
  1 24  1  0
  2 13  1  0
  2  3  1  0
  2 45  1  6
  3  4  1  0
  3 25  1  0
  3 26  1  0
  5  4  1  6
  4 27  1  0
  4 28  1  0
  5 11  1  0
  5 21  1  0
  5  6  1  0
  6  7  1  0
  6 29  1  0
  6 30  1  0
  7  8  1  0
  7  9  1  0
  7 31  1  6
  8 32  1  0
  9 10  1  0
  9 33  1  0
  9 34  1  0
 10 11  1  0
 10 35  1  0
 10 36  1  0
 11 12  1  1
 11 13  1  0
 12 37  1  0
 13 14  1  0
 13 38  1  1
 14 15  1  0
 14 39  1  0
 14 40  1  0
 15 21  2  0
 15 16  1  0
 16 17  2  0
 16 41  1  0
 17 18  1  0
 17 42  1  0
 18 19  1  0
 18 20  2  0
 19 43  1  0
 20 21  1  0
 20 44  1  0
M  CHG  1   2   1
M  END
>  <i_m_ct_stereo_status>  (232) 
1

>  <s_m_source_file>  (232) 
/var/tmp/pbs.5102264.sched01/tmp148in4kv/69urs0mf0h.sdf

>  <i_m_source_file_index>  (232) 
16

>  <i_lp_mmshare_version>  (232) 
48012

>  <i_f3d_flags>  (232) 
0

>  <s_epik_input>  (232) 
W0NIMl0xW0NAQEhdKFtPSF0pW0NIMl1bQ0gyXVtDQF0oW0NAQF0xMjMpKFtPSF0pW0NASF0oTihbQ0gzXSlbQ0gyXVtDSDJdMilbQ0gyXWM0YzNbY0hdYyhbT0hdKVtjSF1bY0hdNA==

>  <s_epik_cmdline>  (232) 
J2VwaWtfcHl0aG9uJywgJy1waHQnLCAnMi4wJywgJy1waCcsICc3LjAnLCAnLXRuJywgJzgnLCAnLW1hJywgJzIwMCcsICctaW1hZScsICc8aW5maWxlLm1hZT4nLCAnLW9tYWUnLCAnPG91dGZpbGUubWFlPic=

>  <r_lp_tautomer_probability>  (232) 
1

>  <r_epik_Ionization_Penalty>  (232) 
0.0509962

>  <r_epik_Ionization_Penalty_Charging>  (232) 
0.0497521

>  <r_epik_Ionization_Penalty_Neutral>  (232) 
0.00124408

>  <r_epik_State_Penalty>  (232) 
0.0425168

>  <r_epik_Charging_Adjusted_Penalty>  (232) 
0.0922689

>  <i_epik_Tot_Q>  (232) 
1

>  <i_epik_Tot_abs_Q>  (232) 
1

>  <s_lp_Force_Field>  (232) 
OPLS3e

>  <r_lp_Energy>  (232) 
61.6663

>  <b_lp_Chiralities_Consistent>  (232) 
1

>  <s_lp_Variant>  (232) 
54:0-1

>  <s_i_glide_gridfile>  (232) 
pfpi4k_grid

>  <i_i_glide_lignum>  (232) 
16

>  <i_i_glide_rotatable_bonds>  (232) 
3

>  <r_i_docking_score>  (232) 
-4.73822

>  <r_i_glide_ligand_efficiency>  (232) 
-0.225629

>  <r_i_glide_ligand_efficiency_sa>  (232) 
-0.622495

>  <r_i_glide_ligand_efficiency_ln>  (232) 
-1.17152

>  <r_i_glide_gscore>  (232) 
-4.73822

>  <r_i_glide_lipo>  (232) 
-0.881986

>  <r_i_glide_hbond>  (232) 
-0.608

>  <r_i_glide_metal>  (232) 
-0

>  <r_i_glide_rewards>  (232) 
-1.42925

>  <r_i_glide_evdw>  (232) 
-21.2605

>  <r_i_glide_ecoul>  (232) 
-5.03976

>  <r_i_glide_erotb>  (232) 
0

>  <r_i_glide_esite>  (232) 
0

>  <r_i_glide_emodel>  (232) 
-32.4006

>  <r_i_glide_energy>  (232) 
-26.3002

>  <r_i_glide_einternal>  (232) 
1.40909

>  <r_i_glide_intrahb_reward>  (232) 
-0

>  <i_i_glide_confnum>  (232) 
1

>  <i_i_glide_posenum>  (232) 
5

>  <r_i_glide_eff_state_penalty>  (232) 
0

>  <ligand_id>  (232) 
54

>  <original_smiles>  (232) 
CN1CCC23CC(O)CCC2(O)C1Cc1ccc(O)cc13

>  <smiles>  (232) 
[H]Oc1c([H])c([H])c2c(c1[H])C13C([H])([H])C([H])(O[H])C([H])([H])C([H])([H])C1(O[H])C([H])(C2([H])[H])[N+]([H])(C([H])([H])[H])C([H])([H])C3([H])[H]

$$$$
54:0:2
     RDKit          3D

 45 48  0  0  1  0  0  0  0  0999 V2000
    6.6337   -4.6813    1.6603 C   0  0  0  0  0  0  0  0  0  0  0  0
    5.9927   -4.1148    0.4575 N   0  0  2  0  0  0  0  0  0  0  0  0
    6.6168   -2.8547   -0.0276 C   0  0  0  0  0  0  0  0  0  0  0  0
    5.9312   -1.5858    0.5236 C   0  0  0  0  0  0  0  0  0  0  0  0
    4.3995   -1.6131    0.3089 C   0  0  2  0  0  0  0  0  0  0  0  0
    3.7504   -0.3298    0.9123 C   0  0  0  0  0  0  0  0  0  0  0  0
    3.8970   -0.2117    2.4447 C   0  0  1  0  0  0  0  0  0  0  0  0
    3.1700    0.9152    2.8897 O   0  0  0  0  0  0  0  0  0  0  0  0
    3.3857   -1.4496    3.1914 C   0  0  0  0  0  0  0  0  0  0  0  0
    4.0034   -2.7394    2.6323 C   0  0  0  0  0  0  0  0  0  0  0  0
    3.8645   -2.8471    1.0903 C   0  0  1  0  0  0  0  0  0  0  0  0
    2.4652   -2.9475    0.9003 O   0  0  0  0  0  0  0  0  0  0  0  0
    4.4952   -4.1240    0.4731 C   0  0  1  0  0  0  0  0  0  0  0  0
    4.0066   -4.3065   -0.9632 C   0  0  0  0  0  0  0  0  0  0  0  0
    4.0248   -3.0502   -1.8165 C   0  0  0  0  0  0  0  0  0  0  0  0
    3.8636   -3.1940   -3.2022 C   0  0  0  0  0  0  0  0  0  0  0  0
    3.8146   -2.0455   -4.0167 C   0  0  0  0  0  0  0  0  0  0  0  0
    3.9462   -0.7757   -3.4443 C   0  0  0  0  0  0  0  0  0  0  0  0
    3.8007    0.3302   -4.2255 O   0  0  0  0  0  0  0  0  0  0  0  0
    4.1644   -0.6592   -2.0686 C   0  0  0  0  0  0  0  0  0  0  0  0
    4.1739   -1.7743   -1.2158 C   0  0  0  0  0  0  0  0  0  0  0  0
    6.6457   -3.9293    2.4432 H   0  0  0  0  0  0  0  0  0  0  0  0
    7.6676   -4.9701    1.4329 H   0  0  0  0  0  0  0  0  0  0  0  0
    6.1149   -5.5609    2.0556 H   0  0  0  0  0  0  0  0  0  0  0  0
    7.6736   -2.8495    0.2391 H   0  0  0  0  0  0  0  0  0  0  0  0
    6.5975   -2.8550   -1.1185 H   0  0  0  0  0  0  0  0  0  0  0  0
    6.1946   -1.4942    1.5738 H   0  0  0  0  0  0  0  0  0  0  0  0
    6.3595   -0.7094    0.0390 H   0  0  0  0  0  0  0  0  0  0  0  0
    4.2028    0.5577    0.4795 H   0  0  0  0  0  0  0  0  0  0  0  0
    2.6893   -0.3017    0.6577 H   0  0  0  0  0  0  0  0  0  0  0  0
    4.9442   -0.0486    2.7039 H   0  0  0  0  0  0  0  0  0  0  0  0
    3.5828    1.6948    2.5570 H   0  0  0  0  0  0  0  0  0  0  0  0
    3.6360   -1.3660    4.2478 H   0  0  0  0  0  0  0  0  0  0  0  0
    2.2970   -1.5025    3.1443 H   0  0  0  0  0  0  0  0  0  0  0  0
    5.0438   -2.7524    2.9429 H   0  0  0  0  0  0  0  0  0  0  0  0
    3.5277   -3.5988    3.1100 H   0  0  0  0  0  0  0  0  0  0  0  0
    2.1662   -2.1362    0.5101 H   0  0  0  0  0  0  0  0  0  0  0  0
    4.1673   -5.0050    1.0239 H   0  0  0  0  0  0  0  0  0  0  0  0
    4.6066   -5.0684   -1.4630 H   0  0  0  0  0  0  0  0  0  0  0  0
    2.9683   -4.6393   -0.9256 H   0  0  0  0  0  0  0  0  0  0  0  0
    3.7673   -4.1699   -3.6545 H   0  0  0  0  0  0  0  0  0  0  0  0
    3.6536   -2.1076   -5.0728 H   0  0  0  0  0  0  0  0  0  0  0  0
    3.5810    1.1214   -3.7379 H   0  0  0  0  0  0  0  0  0  0  0  0
    4.2618    0.3210   -1.6428 H   0  0  0  0  0  0  0  0  0  0  0  0
    6.2125   -4.8055   -0.2541 H   0  0  0  0  0  0  0  0  0  0  0  0
  1  2  1  0
  1 22  1  0
  1 23  1  0
  1 24  1  0
  2 13  1  0
  2  3  1  0
  2 45  1  6
  3  4  1  0
  3 25  1  0
  3 26  1  0
  5  4  1  6
  4 27  1  0
  4 28  1  0
  5 11  1  0
  5 21  1  0
  5  6  1  0
  6  7  1  0
  6 29  1  0
  6 30  1  0
  7  8  1  0
  7  9  1  0
  7 31  1  6
  8 32  1  0
  9 10  1  0
  9 33  1  0
  9 34  1  0
 10 11  1  0
 10 35  1  0
 10 36  1  0
 11 12  1  1
 11 13  1  0
 12 37  1  0
 13 14  1  0
 13 38  1  1
 14 15  1  0
 14 39  1  0
 14 40  1  0
 15 21  2  0
 15 16  1  0
 16 17  2  0
 16 41  1  0
 17 18  1  0
 17 42  1  0
 18 19  1  0
 18 20  2  0
 19 43  1  0
 20 21  1  0
 20 44  1  0
M  CHG  1   2   1
M  END
>  <i_m_ct_stereo_status>  (233) 
1

>  <s_m_source_file>  (233) 
/var/tmp/pbs.5102264.sched01/tmp148in4kv/69urs0mf0h.sdf

>  <i_m_source_file_index>  (233) 
16

>  <i_lp_mmshare_version>  (233) 
48012

>  <i_f3d_flags>  (233) 
0

>  <s_epik_input>  (233) 
W0NIMl0xW0NAQEhdKFtPSF0pW0NIMl1bQ0gyXVtDQF0oW0NAQF0xMjMpKFtPSF0pW0NASF0oTihbQ0gzXSlbQ0gyXVtDSDJdMilbQ0gyXWM0YzNbY0hdYyhbT0hdKVtjSF1bY0hdNA==

>  <s_epik_cmdline>  (233) 
J2VwaWtfcHl0aG9uJywgJy1waHQnLCAnMi4wJywgJy1waCcsICc3LjAnLCAnLXRuJywgJzgnLCAnLW1hJywgJzIwMCcsICctaW1hZScsICc8aW5maWxlLm1hZT4nLCAnLW9tYWUnLCAnPG91dGZpbGUubWFlPic=

>  <r_lp_tautomer_probability>  (233) 
1

>  <r_epik_Ionization_Penalty>  (233) 
0.0509962

>  <r_epik_Ionization_Penalty_Charging>  (233) 
0.0497521

>  <r_epik_Ionization_Penalty_Neutral>  (233) 
0.00124408

>  <r_epik_State_Penalty>  (233) 
0.0425168

>  <r_epik_Charging_Adjusted_Penalty>  (233) 
0.0922689

>  <i_epik_Tot_Q>  (233) 
1

>  <i_epik_Tot_abs_Q>  (233) 
1

>  <s_lp_Force_Field>  (233) 
OPLS3e

>  <r_lp_Energy>  (233) 
61.6663

>  <b_lp_Chiralities_Consistent>  (233) 
1

>  <s_lp_Variant>  (233) 
54:0-1

>  <s_i_glide_gridfile>  (233) 
pfpi4k_grid

>  <i_i_glide_lignum>  (233) 
16

>  <i_i_glide_rotatable_bonds>  (233) 
3

>  <r_i_docking_score>  (233) 
-4.28049

>  <r_i_glide_ligand_efficiency>  (233) 
-0.203833

>  <r_i_glide_ligand_efficiency_sa>  (233) 
-0.56236

>  <r_i_glide_ligand_efficiency_ln>  (233) 
-1.05834

>  <r_i_glide_gscore>  (233) 
-4.28049

>  <r_i_glide_lipo>  (233) 
-0.614357

>  <r_i_glide_hbond>  (233) 
-0.450711

>  <r_i_glide_metal>  (233) 
-0

>  <r_i_glide_rewards>  (233) 
-1.42925

>  <r_i_glide_evdw>  (233) 
-18.7588

>  <r_i_glide_ecoul>  (233) 
-5.65494

>  <r_i_glide_erotb>  (233) 
0

>  <r_i_glide_esite>  (233) 
0

>  <r_i_glide_emodel>  (233) 
-29.1261

>  <r_i_glide_energy>  (233) 
-24.4137

>  <r_i_glide_einternal>  (233) 
2.25038

>  <r_i_glide_intrahb_reward>  (233) 
-0

>  <i_i_glide_confnum>  (233) 
1

>  <i_i_glide_posenum>  (233) 
17

>  <r_i_glide_eff_state_penalty>  (233) 
0

>  <ligand_id>  (233) 
54

>  <original_smiles>  (233) 
CN1CCC23CC(O)CCC2(O)C1Cc1ccc(O)cc13

>  <smiles>  (233) 
[H]Oc1c([H])c([H])c2c(c1[H])C13C([H])([H])C([H])(O[H])C([H])([H])C([H])([H])C1(O[H])C([H])(C2([H])[H])[N+]([H])(C([H])([H])[H])C([H])([H])C3([H])[H]

$$$$
54:1:0
     RDKit          3D

 44 47  0  0  1  0  0  0  0  0999 V2000
    4.6688   -6.2229    0.8930 C   0  0  0  0  0  0  0  0  0  0  0  0
    4.3738   -5.0729    0.0391 N   0  0  0  0  0  0  0  0  0  0  0  0
    3.1056   -4.4375    0.3946 C   0  0  0  0  0  0  0  0  0  0  0  0
    2.7360   -3.2621   -0.5278 C   0  0  0  0  0  0  0  0  0  0  0  0
    3.9058   -2.2520   -0.7141 C   0  0  2  0  0  0  0  0  0  0  0  0
    3.5500   -1.1962   -1.8021 C   0  0  0  0  0  0  0  0  0  0  0  0
    3.3625   -1.7865   -3.2113 C   0  0  1  0  0  0  0  0  0  0  0  0
    3.2405   -0.7201   -4.1300 O   0  0  0  0  0  0  0  0  0  0  0  0
    4.5592   -2.6393   -3.6494 C   0  0  0  0  0  0  0  0  0  0  0  0
    4.9786   -3.6630   -2.5866 C   0  0  0  0  0  0  0  0  0  0  0  0
    5.1679   -3.0431   -1.1815 C   0  0  1  0  0  0  0  0  0  0  0  0
    6.2985   -2.1914   -1.3329 O   0  0  0  0  0  0  0  0  0  0  0  0
    5.4817   -4.1126   -0.1025 C   0  0  1  0  0  0  0  0  0  0  0  0
    5.8997   -3.4296    1.2145 C   0  0  0  0  0  0  0  0  0  0  0  0
    5.0902   -2.1939    1.5741 C   0  0  0  0  0  0  0  0  0  0  0  0
    5.2818   -1.6365    2.8515 C   0  0  0  0  0  0  0  0  0  0  0  0
    4.5689   -0.4960    3.2500 C   0  0  0  0  0  0  0  0  0  0  0  0
    3.6321    0.0797    2.3770 C   0  0  0  0  0  0  0  0  0  0  0  0
    2.9105    1.1652    2.7836 O   0  0  0  0  0  0  0  0  0  0  0  0
    3.4292   -0.4779    1.0970 C   0  0  0  0  0  0  0  0  0  0  0  0
    4.1638   -1.6101    0.6675 C   0  0  0  0  0  0  0  0  0  0  0  0
    3.8873   -6.9799    0.8076 H   0  0  0  0  0  0  0  0  0  0  0  0
    4.7254   -5.9414    1.9453 H   0  0  0  0  0  0  0  0  0  0  0  0
    5.6130   -6.6923    0.6126 H   0  0  0  0  0  0  0  0  0  0  0  0
    2.3056   -5.1758    0.3329 H   0  0  0  0  0  0  0  0  0  0  0  0
    3.1297   -4.1022    1.4314 H   0  0  0  0  0  0  0  0  0  0  0  0
    2.4262   -3.6842   -1.4812 H   0  0  0  0  0  0  0  0  0  0  0  0
    1.8517   -2.7612   -0.1362 H   0  0  0  0  0  0  0  0  0  0  0  0
    2.6249   -0.6815   -1.5687 H   0  0  0  0  0  0  0  0  0  0  0  0
    4.3370   -0.4397   -1.8371 H   0  0  0  0  0  0  0  0  0  0  0  0
    2.4505   -2.3868   -3.2535 H   0  0  0  0  0  0  0  0  0  0  0  0
    2.5315   -0.1590   -3.8372 H   0  0  0  0  0  0  0  0  0  0  0  0
    4.3209   -3.1600   -4.5812 H   0  0  0  0  0  0  0  0  0  0  0  0
    5.4002   -1.9829   -3.8540 H   0  0  0  0  0  0  0  0  0  0  0  0
    4.2145   -4.4209   -2.5536 H   0  0  0  0  0  0  0  0  0  0  0  0
    5.8927   -4.1568   -2.9194 H   0  0  0  0  0  0  0  0  0  0  0  0
    7.0286   -2.7354   -1.5985 H   0  0  0  0  0  0  0  0  0  0  0  0
    6.3526   -4.6750   -0.4345 H   0  0  0  0  0  0  0  0  0  0  0  0
    5.9202   -4.1277    2.0521 H   0  0  0  0  0  0  0  0  0  0  0  0
    6.9249   -3.0861    1.1091 H   0  0  0  0  0  0  0  0  0  0  0  0
    5.9728   -2.0997    3.5394 H   0  0  0  0  0  0  0  0  0  0  0  0
    4.7213   -0.0770    4.2372 H   0  0  0  0  0  0  0  0  0  0  0  0
    2.3638    1.5241    2.0994 H   0  0  0  0  0  0  0  0  0  0  0  0
    2.6723   -0.0323    0.4696 H   0  0  0  0  0  0  0  0  0  0  0  0
  1  2  1  0
  1 22  1  0
  1 23  1  0
  1 24  1  0
  2 13  1  0
  2  3  1  0
  3  4  1  0
  3 25  1  0
  3 26  1  0
  5  4  1  1
  4 27  1  0
  4 28  1  0
  5 11  1  0
  5 21  1  0
  5  6  1  0
  6  7  1  0
  6 29  1  0
  6 30  1  0
  7  8  1  0
  7  9  1  0
  7 31  1  1
  8 32  1  0
  9 10  1  0
  9 33  1  0
  9 34  1  0
 10 11  1  0
 10 35  1  0
 10 36  1  0
 11 12  1  6
 11 13  1  0
 12 37  1  0
 13 14  1  0
 13 38  1  6
 14 15  1  0
 14 39  1  0
 14 40  1  0
 15 21  2  0
 15 16  1  0
 16 17  2  0
 16 41  1  0
 17 18  1  0
 17 42  1  0
 18 19  1  0
 18 20  2  0
 19 43  1  0
 20 21  1  0
 20 44  1  0
M  END
>  <i_m_ct_stereo_status>  (234) 
1

>  <s_m_source_file>  (234) 
/var/tmp/pbs.5102264.sched01/tmp148in4kv/69urs0mf0h.sdf

>  <i_m_source_file_index>  (234) 
17

>  <i_lp_mmshare_version>  (234) 
48012

>  <i_f3d_flags>  (234) 
0

>  <s_epik_input>  (234) 
W0NIMl0xW0NAQEhdKFtPSF0pW0NIMl1bQ0gyXVtDQF0oW0NAQF0xMjMpKFtPSF0pW0NASF0oTihbQ0gzXSlbQ0gyXVtDSDJdMilbQ0gyXWM0YzNbY0hdYyhbT0hdKVtjSF1bY0hdNA==

>  <s_epik_cmdline>  (234) 
J2VwaWtfcHl0aG9uJywgJy1waHQnLCAnMi4wJywgJy1waCcsICc3LjAnLCAnLXRuJywgJzgnLCAnLW1hJywgJzIwMCcsICctaW1hZScsICc8aW5maWxlLm1hZT4nLCAnLW9tYWUnLCAnPG91dGZpbGUubWFlPic=

>  <r_lp_tautomer_probability>  (234) 
1

>  <r_epik_Ionization_Penalty>  (234) 
1.49255

>  <r_epik_Ionization_Penalty_Charging>  (234) 
0

>  <r_epik_Ionization_Penalty_Neutral>  (234) 
1.49255

>  <r_epik_State_Penalty>  (234) 
1.58199

>  <r_epik_Charging_Adjusted_Penalty>  (234) 
1.58199

>  <i_epik_Tot_Q>  (234) 
0

>  <i_epik_Tot_abs_Q>  (234) 
0

>  <s_lp_Force_Field>  (234) 
OPLS3e

>  <r_lp_Energy>  (234) 
51.1331

>  <b_lp_Chiralities_Consistent>  (234) 
1

>  <s_lp_Variant>  (234) 
54:0-2

>  <s_i_glide_gridfile>  (234) 
pfpi4k_grid

>  <i_i_glide_lignum>  (234) 
17

>  <i_i_glide_rotatable_bonds>  (234) 
3

>  <r_i_docking_score>  (234) 
-3.65985

>  <r_i_glide_ligand_efficiency>  (234) 
-0.174279

>  <r_i_glide_ligand_efficiency_sa>  (234) 
-0.480821

>  <r_i_glide_ligand_efficiency_ln>  (234) 
-0.90489

>  <r_i_glide_gscore>  (234) 
-3.65985

>  <r_i_glide_lipo>  (234) 
-0.771252

>  <r_i_glide_hbond>  (234) 
-0.101441

>  <r_i_glide_metal>  (234) 
-0

>  <r_i_glide_rewards>  (234) 
-1.43612

>  <r_i_glide_evdw>  (234) 
-20.9022

>  <r_i_glide_ecoul>  (234) 
-2.03954

>  <r_i_glide_erotb>  (234) 
0

>  <r_i_glide_esite>  (234) 
0

>  <r_i_glide_emodel>  (234) 
-28.5654

>  <r_i_glide_energy>  (234) 
-22.9417

>  <r_i_glide_einternal>  (234) 
0.422012

>  <r_i_glide_intrahb_reward>  (234) 
-0

>  <i_i_glide_confnum>  (234) 
2

>  <i_i_glide_posenum>  (234) 
24

>  <r_i_glide_eff_state_penalty>  (234) 
0

>  <ligand_id>  (234) 
54

>  <original_smiles>  (234) 
CN1CCC23CC(O)CCC2(O)C1Cc1ccc(O)cc13

>  <smiles>  (234) 
[H]Oc1c([H])c([H])c2c(c1[H])C13C([H])([H])C([H])([H])N(C([H])([H])[H])C([H])(C2([H])[H])C1(O[H])C([H])([H])C([H])([H])C([H])(O[H])C3([H])[H]

$$$$
54:1:1
     RDKit          3D

 44 47  0  0  1  0  0  0  0  0999 V2000
    4.6988   -5.8548    1.9465 C   0  0  0  0  0  0  0  0  0  0  0  0
    4.4356   -4.8581    0.9066 N   0  0  0  0  0  0  0  0  0  0  0  0
    3.0977   -4.2781    1.0348 C   0  0  0  0  0  0  0  0  0  0  0  0
    2.7709   -3.2598   -0.0744 C   0  0  0  0  0  0  0  0  0  0  0  0
    3.8884   -2.1947   -0.2631 C   0  0  2  0  0  0  0  0  0  0  0  0
    3.6060   -1.3178   -1.5222 C   0  0  0  0  0  0  0  0  0  0  0  0
    3.6315   -2.0995   -2.8517 C   0  0  1  0  0  0  0  0  0  0  0  0
    3.5316   -1.1901   -3.9263 O   0  0  0  0  0  0  0  0  0  0  0  0
    4.9187   -2.9215   -3.0287 C   0  0  0  0  0  0  0  0  0  0  0  0
    5.2356   -3.7629   -1.7870 C   0  0  0  0  0  0  0  0  0  0  0  0
    5.2307   -2.9431   -0.4735 C   0  0  1  0  0  0  0  0  0  0  0  0
    6.3012   -2.0223   -0.5941 O   0  0  0  0  0  0  0  0  0  0  0  0
    5.4876   -3.8356    0.7646 C   0  0  1  0  0  0  0  0  0  0  0  0
    5.6968   -2.9603    2.0222 C   0  0  0  0  0  0  0  0  0  0  0  0
    4.7873   -1.7492    2.1222 C   0  0  0  0  0  0  0  0  0  0  0  0
    4.7971   -1.0132    3.3271 C   0  0  0  0  0  0  0  0  0  0  0  0
    3.9577    0.1032    3.4855 C   0  0  0  0  0  0  0  0  0  0  0  0
    3.0943    0.4860    2.4389 C   0  0  0  0  0  0  0  0  0  0  0  0
    2.2682    1.5628    2.5991 O   0  0  0  0  0  0  0  0  0  0  0  0
    3.0865   -0.2503    1.2354 C   0  0  0  0  0  0  0  0  0  0  0  0
    3.9388   -1.3655    1.0436 C   0  0  0  0  0  0  0  0  0  0  0  0
    3.9840   -6.6744    1.8828 H   0  0  0  0  0  0  0  0  0  0  0  0
    4.6083   -5.4309    2.9487 H   0  0  0  0  0  0  0  0  0  0  0  0
    5.7003   -6.2789    1.8433 H   0  0  0  0  0  0  0  0  0  0  0  0
    2.3610   -5.0769    0.9871 H   0  0  0  0  0  0  0  0  0  0  0  0
    2.9749   -3.8139    2.0114 H   0  0  0  0  0  0  0  0  0  0  0  0
    2.6110   -3.8239   -0.9907 H   0  0  0  0  0  0  0  0  0  0  0  0
    1.8200   -2.7735    0.1333 H   0  0  0  0  0  0  0  0  0  0  0  0
    2.6294   -0.8517   -1.4786 H   0  0  0  0  0  0  0  0  0  0  0  0
    4.3357   -0.5091   -1.5702 H   0  0  0  0  0  0  0  0  0  0  0  0
    2.7730   -2.7756   -2.9077 H   0  0  0  0  0  0  0  0  0  0  0  0
    2.7213   -0.7005   -3.8150 H   0  0  0  0  0  0  0  0  0  0  0  0
    4.8333   -3.5647   -3.9115 H   0  0  0  0  0  0  0  0  0  0  0  0
    5.7701   -2.2710   -3.2128 H   0  0  0  0  0  0  0  0  0  0  0  0
    4.5414   -4.5988   -1.7405 H   0  0  0  0  0  0  0  0  0  0  0  0
    6.2103   -4.2086   -1.9344 H   0  0  0  0  0  0  0  0  0  0  0  0
    6.2792   -1.4824    0.1910 H   0  0  0  0  0  0  0  0  0  0  0  0
    6.4311   -4.3657    0.6058 H   0  0  0  0  0  0  0  0  0  0  0  0
    5.6654   -3.5388    2.9457 H   0  0  0  0  0  0  0  0  0  0  0  0
    6.6990   -2.5551    1.9784 H   0  0  0  0  0  0  0  0  0  0  0  0
    5.4422   -1.3108    4.1450 H   0  0  0  0  0  0  0  0  0  0  0  0
    3.9573    0.6610    4.4139 H   0  0  0  0  0  0  0  0  0  0  0  0
    1.7321    1.7511    1.8419 H   0  0  0  0  0  0  0  0  0  0  0  0
    2.3903    0.0582    0.4687 H   0  0  0  0  0  0  0  0  0  0  0  0
  1  2  1  0
  1 22  1  0
  1 23  1  0
  1 24  1  0
  2 13  1  0
  2  3  1  0
  3  4  1  0
  3 25  1  0
  3 26  1  0
  5  4  1  1
  4 27  1  0
  4 28  1  0
  5 11  1  0
  5 21  1  0
  5  6  1  0
  6  7  1  0
  6 29  1  0
  6 30  1  0
  7  8  1  0
  7  9  1  0
  7 31  1  1
  8 32  1  0
  9 10  1  0
  9 33  1  0
  9 34  1  0
 10 11  1  0
 10 35  1  0
 10 36  1  0
 11 12  1  6
 11 13  1  0
 12 37  1  0
 13 14  1  0
 13 38  1  6
 14 15  1  0
 14 39  1  0
 14 40  1  0
 15 21  2  0
 15 16  1  0
 16 17  2  0
 16 41  1  0
 17 18  1  0
 17 42  1  0
 18 19  1  0
 18 20  2  0
 19 43  1  0
 20 21  1  0
 20 44  1  0
M  END
>  <i_m_ct_stereo_status>  (235) 
1

>  <s_m_source_file>  (235) 
/var/tmp/pbs.5102264.sched01/tmp148in4kv/69urs0mf0h.sdf

>  <i_m_source_file_index>  (235) 
17

>  <i_lp_mmshare_version>  (235) 
48012

>  <i_f3d_flags>  (235) 
0

>  <s_epik_input>  (235) 
W0NIMl0xW0NAQEhdKFtPSF0pW0NIMl1bQ0gyXVtDQF0oW0NAQF0xMjMpKFtPSF0pW0NASF0oTihbQ0gzXSlbQ0gyXVtDSDJdMilbQ0gyXWM0YzNbY0hdYyhbT0hdKVtjSF1bY0hdNA==

>  <s_epik_cmdline>  (235) 
J2VwaWtfcHl0aG9uJywgJy1waHQnLCAnMi4wJywgJy1waCcsICc3LjAnLCAnLXRuJywgJzgnLCAnLW1hJywgJzIwMCcsICctaW1hZScsICc8aW5maWxlLm1hZT4nLCAnLW9tYWUnLCAnPG91dGZpbGUubWFlPic=

>  <r_lp_tautomer_probability>  (235) 
1

>  <r_epik_Ionization_Penalty>  (235) 
1.49255

>  <r_epik_Ionization_Penalty_Charging>  (235) 
0

>  <r_epik_Ionization_Penalty_Neutral>  (235) 
1.49255

>  <r_epik_State_Penalty>  (235) 
1.58199

>  <r_epik_Charging_Adjusted_Penalty>  (235) 
1.58199

>  <i_epik_Tot_Q>  (235) 
0

>  <i_epik_Tot_abs_Q>  (235) 
0

>  <s_lp_Force_Field>  (235) 
OPLS3e

>  <r_lp_Energy>  (235) 
51.1331

>  <b_lp_Chiralities_Consistent>  (235) 
1

>  <s_lp_Variant>  (235) 
54:0-2

>  <s_i_glide_gridfile>  (235) 
pfpi4k_grid

>  <i_i_glide_lignum>  (235) 
17

>  <i_i_glide_rotatable_bonds>  (235) 
3

>  <r_i_docking_score>  (235) 
-3.60053

>  <r_i_glide_ligand_efficiency>  (235) 
-0.171454

>  <r_i_glide_ligand_efficiency_sa>  (235) 
-0.473028

>  <r_i_glide_ligand_efficiency_ln>  (235) 
-0.890224

>  <r_i_glide_gscore>  (235) 
-3.60053

>  <r_i_glide_lipo>  (235) 
-0.541832

>  <r_i_glide_hbond>  (235) 
-0.0498656

>  <r_i_glide_metal>  (235) 
-0

>  <r_i_glide_rewards>  (235) 
-1.43612

>  <r_i_glide_evdw>  (235) 
-20.7471

>  <r_i_glide_ecoul>  (235) 
-3.56907

>  <r_i_glide_erotb>  (235) 
0

>  <r_i_glide_esite>  (235) 
0

>  <r_i_glide_emodel>  (235) 
-29.8609

>  <r_i_glide_energy>  (235) 
-24.3162

>  <r_i_glide_einternal>  (235) 
0.360738

>  <r_i_glide_intrahb_reward>  (235) 
-0

>  <i_i_glide_confnum>  (235) 
2

>  <i_i_glide_posenum>  (235) 
34

>  <r_i_glide_eff_state_penalty>  (235) 
0

>  <ligand_id>  (235) 
54

>  <original_smiles>  (235) 
CN1CCC23CC(O)CCC2(O)C1Cc1ccc(O)cc13

>  <smiles>  (235) 
[H]Oc1c([H])c([H])c2c(c1[H])C13C([H])([H])C([H])([H])N(C([H])([H])[H])C([H])(C2([H])[H])C1(O[H])C([H])([H])C([H])([H])C([H])(O[H])C3([H])[H]

$$$$
54:1:2
     RDKit          3D

 44 47  0  0  1  0  0  0  0  0999 V2000
    4.6909   -6.1868    0.9344 C   0  0  0  0  0  0  0  0  0  0  0  0
    4.3902   -5.0462    0.0748 N   0  0  0  0  0  0  0  0  0  0  0  0
    3.1172   -4.4136    0.4202 C   0  0  0  0  0  0  0  0  0  0  0  0
    2.7426   -3.2472   -0.5104 C   0  0  0  0  0  0  0  0  0  0  0  0
    3.9076   -2.2304   -0.6981 C   0  0  2  0  0  0  0  0  0  0  0  0
    3.5550   -1.1851   -1.8000 C   0  0  0  0  0  0  0  0  0  0  0  0
    3.3543   -1.7853   -3.2072 C   0  0  1  0  0  0  0  0  0  0  0  0
    3.2258   -0.7203   -4.1254 O   0  0  0  0  0  0  0  0  0  0  0  0
    4.5482   -2.6385   -3.6440 C   0  0  0  0  0  0  0  0  0  0  0  0
    4.9781   -3.6493   -2.5694 C   0  0  0  0  0  0  0  0  0  0  0  0
    5.1620   -3.0280   -1.1636 C   0  0  1  0  0  0  0  0  0  0  0  0
    6.2610   -2.1495   -1.3477 O   0  0  0  0  0  0  0  0  0  0  0  0
    5.4988   -4.0820   -0.0805 C   0  0  1  0  0  0  0  0  0  0  0  0
    5.9193   -3.3806    1.2302 C   0  0  0  0  0  0  0  0  0  0  0  0
    5.1029   -2.1497    1.5860 C   0  0  0  0  0  0  0  0  0  0  0  0
    5.2962   -1.5820    2.8601 C   0  0  0  0  0  0  0  0  0  0  0  0
    4.5823   -0.4389    3.2560 C   0  0  0  0  0  0  0  0  0  0  0  0
    3.6446    0.1292    2.3772 C   0  0  0  0  0  0  0  0  0  0  0  0
    2.9330    1.2285    2.7505 O   0  0  0  0  0  0  0  0  0  0  0  0
    3.4328   -0.4416    1.1061 C   0  0  0  0  0  0  0  0  0  0  0  0
    4.1678   -1.5770    0.6787 C   0  0  0  0  0  0  0  0  0  0  0  0
    3.9110   -6.9443    0.8531 H   0  0  0  0  0  0  0  0  0  0  0  0
    4.7484   -5.8939    1.9842 H   0  0  0  0  0  0  0  0  0  0  0  0
    5.6364   -6.6529    0.6542 H   0  0  0  0  0  0  0  0  0  0  0  0
    2.3238   -5.1617    0.3623 H   0  0  0  0  0  0  0  0  0  0  0  0
    3.1349   -4.0726    1.4557 H   0  0  0  0  0  0  0  0  0  0  0  0
    2.4325   -3.6773   -1.4617 H   0  0  0  0  0  0  0  0  0  0  0  0
    1.8588   -2.7468   -0.1213 H   0  0  0  0  0  0  0  0  0  0  0  0
    2.6467   -0.6548   -1.5562 H   0  0  0  0  0  0  0  0  0  0  0  0
    4.3322   -0.4194   -1.8421 H   0  0  0  0  0  0  0  0  0  0  0  0
    2.4398   -2.3830   -3.2437 H   0  0  0  0  0  0  0  0  0  0  0  0
    2.5169   -0.1617   -3.8411 H   0  0  0  0  0  0  0  0  0  0  0  0
    4.3106   -3.1725   -4.5657 H   0  0  0  0  0  0  0  0  0  0  0  0
    5.3739   -1.9774   -3.8703 H   0  0  0  0  0  0  0  0  0  0  0  0
    4.2197   -4.4187   -2.5269 H   0  0  0  0  0  0  0  0  0  0  0  0
    5.8927   -4.1502   -2.8890 H   0  0  0  0  0  0  0  0  0  0  0  0
    5.9682   -1.5166   -1.9787 H   0  0  0  0  0  0  0  0  0  0  0  0
    6.3684   -4.6482   -0.4181 H   0  0  0  0  0  0  0  0  0  0  0  0
    5.9366   -4.0719    2.0745 H   0  0  0  0  0  0  0  0  0  0  0  0
    6.9516   -3.0452    1.1216 H   0  0  0  0  0  0  0  0  0  0  0  0
    5.9873   -2.0346    3.5469 H   0  0  0  0  0  0  0  0  0  0  0  0
    4.7397   -0.0213    4.2377 H   0  0  0  0  0  0  0  0  0  0  0  0
    3.2808    1.6507    3.5163 H   0  0  0  0  0  0  0  0  0  0  0  0
    2.6782    0.0078    0.4833 H   0  0  0  0  0  0  0  0  0  0  0  0
  1  2  1  0
  1 22  1  0
  1 23  1  0
  1 24  1  0
  2 13  1  0
  2  3  1  0
  3  4  1  0
  3 25  1  0
  3 26  1  0
  5  4  1  1
  4 27  1  0
  4 28  1  0
  5 11  1  0
  5 21  1  0
  5  6  1  0
  6  7  1  0
  6 29  1  0
  6 30  1  0
  7  8  1  0
  7  9  1  0
  7 31  1  1
  8 32  1  0
  9 10  1  0
  9 33  1  0
  9 34  1  0
 10 11  1  0
 10 35  1  0
 10 36  1  0
 11 12  1  6
 11 13  1  0
 12 37  1  0
 13 14  1  0
 13 38  1  6
 14 15  1  0
 14 39  1  0
 14 40  1  0
 15 21  2  0
 15 16  1  0
 16 17  2  0
 16 41  1  0
 17 18  1  0
 17 42  1  0
 18 19  1  0
 18 20  2  0
 19 43  1  0
 20 21  1  0
 20 44  1  0
M  END
>  <i_m_ct_stereo_status>  (236) 
1

>  <s_m_source_file>  (236) 
/var/tmp/pbs.5102264.sched01/tmp148in4kv/69urs0mf0h.sdf

>  <i_m_source_file_index>  (236) 
17

>  <i_lp_mmshare_version>  (236) 
48012

>  <i_f3d_flags>  (236) 
0

>  <s_epik_input>  (236) 
W0NIMl0xW0NAQEhdKFtPSF0pW0NIMl1bQ0gyXVtDQF0oW0NAQF0xMjMpKFtPSF0pW0NASF0oTihbQ0gzXSlbQ0gyXVtDSDJdMilbQ0gyXWM0YzNbY0hdYyhbT0hdKVtjSF1bY0hdNA==

>  <s_epik_cmdline>  (236) 
J2VwaWtfcHl0aG9uJywgJy1waHQnLCAnMi4wJywgJy1waCcsICc3LjAnLCAnLXRuJywgJzgnLCAnLW1hJywgJzIwMCcsICctaW1hZScsICc8aW5maWxlLm1hZT4nLCAnLW9tYWUnLCAnPG91dGZpbGUubWFlPic=

>  <r_lp_tautomer_probability>  (236) 
1

>  <r_epik_Ionization_Penalty>  (236) 
1.49255

>  <r_epik_Ionization_Penalty_Charging>  (236) 
0

>  <r_epik_Ionization_Penalty_Neutral>  (236) 
1.49255

>  <r_epik_State_Penalty>  (236) 
1.58199

>  <r_epik_Charging_Adjusted_Penalty>  (236) 
1.58199

>  <i_epik_Tot_Q>  (236) 
0

>  <i_epik_Tot_abs_Q>  (236) 
0

>  <s_lp_Force_Field>  (236) 
OPLS3e

>  <r_lp_Energy>  (236) 
51.1331

>  <b_lp_Chiralities_Consistent>  (236) 
1

>  <s_lp_Variant>  (236) 
54:0-2

>  <s_i_glide_gridfile>  (236) 
pfpi4k_grid

>  <i_i_glide_lignum>  (236) 
17

>  <i_i_glide_rotatable_bonds>  (236) 
3

>  <r_i_docking_score>  (236) 
-3.55303

>  <r_i_glide_ligand_efficiency>  (236) 
-0.169192

>  <r_i_glide_ligand_efficiency_sa>  (236) 
-0.466787

>  <r_i_glide_ligand_efficiency_ln>  (236) 
-0.878479

>  <r_i_glide_gscore>  (236) 
-3.55303

>  <r_i_glide_lipo>  (236) 
-0.77892

>  <r_i_glide_hbond>  (236) 
-0.104334

>  <r_i_glide_metal>  (236) 
-0

>  <r_i_glide_rewards>  (236) 
-1.43612

>  <r_i_glide_evdw>  (236) 
-20.8776

>  <r_i_glide_ecoul>  (236) 
-1.26518

>  <r_i_glide_erotb>  (236) 
0

>  <r_i_glide_esite>  (236) 
0

>  <r_i_glide_emodel>  (236) 
-27.4098

>  <r_i_glide_energy>  (236) 
-22.1428

>  <r_i_glide_einternal>  (236) 
0.605579

>  <r_i_glide_intrahb_reward>  (236) 
-0

>  <i_i_glide_confnum>  (236) 
2

>  <i_i_glide_posenum>  (236) 
1

>  <r_i_glide_eff_state_penalty>  (236) 
0

>  <ligand_id>  (236) 
54

>  <original_smiles>  (236) 
CN1CCC23CC(O)CCC2(O)C1Cc1ccc(O)cc13

>  <smiles>  (236) 
[H]Oc1c([H])c([H])c2c(c1[H])C13C([H])([H])C([H])([H])N(C([H])([H])[H])C([H])(C2([H])[H])C1(O[H])C([H])([H])C([H])([H])C([H])(O[H])C3([H])[H]

$$$$
55:0:0
     RDKit          3D

 24 24  0  0  1  0  0  0  0  0999 V2000
    3.4627    0.4741   -4.3529 C   0  0  0  0  0  0  0  0  0  0  0  0
    3.9413   -0.9764   -4.2606 C   0  0  0  0  0  0  0  0  0  0  0  0
    3.5925   -1.5646   -3.0175 O   0  0  0  0  0  0  0  0  0  0  0  0
    4.3547   -1.4684   -1.9259 C   0  0  0  0  0  0  0  0  0  0  0  0
    5.4024   -0.8243   -1.8926 O   0  0  0  0  0  0  0  0  0  0  0  0
    3.7918   -2.2575   -0.7811 C   0  0  0  0  0  0  0  0  0  0  0  0
    2.6458   -3.1304   -0.8372 C   0  0  0  0  0  0  0  0  0  0  0  0
    1.6360   -3.4794   -1.9077 C   0  0  0  0  0  0  0  0  0  0  0  0
    2.4851   -3.7578    0.3194 N   0  0  0  0  0  0  0  0  0  0  0  0
    3.4498   -3.2580    1.1955 O   0  0  0  0  0  0  0  0  0  0  0  0
    4.2100   -2.3632    0.5301 C   0  0  0  0  0  0  0  0  0  0  0  0
    5.3725   -1.7608    1.2328 C   0  0  0  0  0  0  0  0  0  0  0  0
    5.8842   -0.6204    0.7781 N   0  0  0  0  0  0  0  0  0  0  0  0
    5.8176   -2.2827    2.2491 O   0  0  0  0  0  0  0  0  0  0  0  0
    3.7355    0.9254   -5.3038 H   0  0  0  0  0  0  0  0  0  0  0  0
    3.9063    1.0668   -3.5559 H   0  0  0  0  0  0  0  0  0  0  0  0
    2.3789    0.5397   -4.2598 H   0  0  0  0  0  0  0  0  0  0  0  0
    3.4428   -1.5495   -5.0397 H   0  0  0  0  0  0  0  0  0  0  0  0
    5.0130   -1.0516   -4.4505 H   0  0  0  0  0  0  0  0  0  0  0  0
    1.8175   -3.0491   -2.8925 H   0  0  0  0  0  0  0  0  0  0  0  0
    0.6355   -3.1725   -1.6125 H   0  0  0  0  0  0  0  0  0  0  0  0
    1.5848   -4.5550   -2.0352 H   0  0  0  0  0  0  0  0  0  0  0  0
    5.5174   -0.1856   -0.0596 H   0  0  0  0  0  0  0  0  0  0  0  0
    6.6589   -0.1924    1.2729 H   0  0  0  0  0  0  0  0  0  0  0  0
  1  2  1  0
  1 15  1  0
  1 16  1  0
  1 17  1  0
  2  3  1  0
  2 18  1  0
  2 19  1  0
  3  4  1  0
  4  5  2  0
  4  6  1  0
  6 11  2  0
  6  7  1  0
  7  8  1  0
  7  9  2  0
  8 20  1  0
  8 21  1  0
  8 22  1  0
  9 10  1  0
 10 11  1  0
 11 12  1  0
 12 13  1  0
 12 14  2  0
 13 23  1  0
 13 24  1  0
M  END
>  <i_m_ct_stereo_status>  (237) 
1

>  <s_m_source_file>  (237) 
/var/tmp/pbs.5102264.sched01/tmp148in4kv/69urs0mf0h.sdf

>  <i_m_source_file_index>  (237) 
18

>  <i_lp_mmshare_version>  (237) 
48012

>  <i_f3d_flags>  (237) 
0

>  <s_epik_input>  (237) 
W0NIM11bQ0gyXU9DKD1PKWMxYyhbQ0gzXSlub2MxQyg9TylbTkgyXQ==

>  <s_epik_cmdline>  (237) 
J2VwaWtfcHl0aG9uJywgJy1waHQnLCAnMi4wJywgJy1waCcsICc3LjAnLCAnLXRuJywgJzgnLCAnLW1hJywgJzIwMCcsICctaW1hZScsICc8aW5maWxlLm1hZT4nLCAnLW9tYWUnLCAnPG91dGZpbGUubWFlPic=

>  <r_lp_tautomer_probability>  (237) 
1

>  <r_epik_Ionization_Penalty>  (237) 
0.000105116

>  <r_epik_Ionization_Penalty_Charging>  (237) 
0

>  <r_epik_Ionization_Penalty_Neutral>  (237) 
0.000105116

>  <r_epik_State_Penalty>  (237) 
-0

>  <r_epik_Charging_Adjusted_Penalty>  (237) 
0

>  <i_epik_Tot_Q>  (237) 
0

>  <i_epik_Tot_abs_Q>  (237) 
0

>  <s_epik_Chemistry_Notes>  (237) 
This compound has an ester and may undergo hydrolysis at high or low pH.

>  <s_lp_Force_Field>  (237) 
OPLS3e

>  <r_lp_Energy>  (237) 
8.97904

>  <b_lp_Chiralities_Consistent>  (237) 
1

>  <s_lp_Variant>  (237) 
55:0-1

>  <s_i_glide_gridfile>  (237) 
pfpi4k_grid

>  <i_i_glide_lignum>  (237) 
18

>  <i_i_glide_rotatable_bonds>  (237) 
4

>  <r_i_docking_score>  (237) 
-3.71061

>  <r_i_glide_ligand_efficiency>  (237) 
-0.265044

>  <r_i_glide_ligand_efficiency_sa>  (237) 
-0.638793

>  <r_i_glide_ligand_efficiency_ln>  (237) 
-1.01966

>  <r_i_glide_gscore>  (237) 
-3.71061

>  <r_i_glide_lipo>  (237) 
-0.0663819

>  <r_i_glide_hbond>  (237) 
-0.340492

>  <r_i_glide_metal>  (237) 
-0

>  <r_i_glide_rewards>  (237) 
-2.68347

>  <r_i_glide_evdw>  (237) 
-18.3411

>  <r_i_glide_ecoul>  (237) 
-3.00301

>  <r_i_glide_erotb>  (237) 
0.829225

>  <r_i_glide_esite>  (237) 
-0.0819893

>  <r_i_glide_emodel>  (237) 
-32.1138

>  <r_i_glide_energy>  (237) 
-21.3441

>  <r_i_glide_einternal>  (237) 
0.974419

>  <r_i_glide_intrahb_reward>  (237) 
-0.5

>  <i_i_glide_confnum>  (237) 
1

>  <i_i_glide_posenum>  (237) 
7

>  <r_i_glide_eff_state_penalty>  (237) 
0

>  <ligand_id>  (237) 
55

>  <original_smiles>  (237) 
CCOC(=O)c1c(C)noc1C(N)=O

>  <smiles>  (237) 
[H]N([H])C(=O)c1onc(C([H])([H])[H])c1C(=O)OC([H])([H])C([H])([H])[H]

$$$$
55:0:1
     RDKit          3D

 24 24  0  0  1  0  0  0  0  0999 V2000
    1.6818    5.6513    4.4669 C   0  0  0  0  0  0  0  0  0  0  0  0
    1.0045    4.9281    3.2940 C   0  0  0  0  0  0  0  0  0  0  0  0
    0.5242    3.6491    3.7110 O   0  0  0  0  0  0  0  0  0  0  0  0
   -0.6592    3.5359    4.3509 C   0  0  0  0  0  0  0  0  0  0  0  0
   -1.3884    4.5002    4.5891 O   0  0  0  0  0  0  0  0  0  0  0  0
   -0.9780    2.1482    4.7967 C   0  0  0  0  0  0  0  0  0  0  0  0
   -1.7567    1.8237    5.9577 C   0  0  0  0  0  0  0  0  0  0  0  0
   -2.4197    2.6860    6.9928 C   0  0  0  0  0  0  0  0  0  0  0  0
   -1.8466    0.5109    6.1296 N   0  0  0  0  0  0  0  0  0  0  0  0
   -1.1401   -0.0722    5.0699 O   0  0  0  0  0  0  0  0  0  0  0  0
   -0.6488    0.9148    4.2744 C   0  0  0  0  0  0  0  0  0  0  0  0
    0.1748    0.5652    3.0847 C   0  0  0  0  0  0  0  0  0  0  0  0
    0.2462    1.4122    2.0579 N   0  0  0  0  0  0  0  0  0  0  0  0
    0.7062   -0.5399    3.0246 O   0  0  0  0  0  0  0  0  0  0  0  0
    2.0809    6.6191    4.1583 H   0  0  0  0  0  0  0  0  0  0  0  0
    2.5043    5.0558    4.8646 H   0  0  0  0  0  0  0  0  0  0  0  0
    0.9792    5.8336    5.2799 H   0  0  0  0  0  0  0  0  0  0  0  0
    0.2022    5.5427    2.8823 H   0  0  0  0  0  0  0  0  0  0  0  0
    1.7265    4.7833    2.4906 H   0  0  0  0  0  0  0  0  0  0  0  0
   -2.2771    3.7512    6.8203 H   0  0  0  0  0  0  0  0  0  0  0  0
   -2.0235    2.4628    7.9826 H   0  0  0  0  0  0  0  0  0  0  0  0
   -3.4899    2.4936    7.0214 H   0  0  0  0  0  0  0  0  0  0  0  0
   -0.1602    2.3376    2.0909 H   0  0  0  0  0  0  0  0  0  0  0  0
    0.7316    1.1225    1.2216 H   0  0  0  0  0  0  0  0  0  0  0  0
  1  2  1  0
  1 15  1  0
  1 16  1  0
  1 17  1  0
  2  3  1  0
  2 18  1  0
  2 19  1  0
  3  4  1  0
  4  5  2  0
  4  6  1  0
  6 11  2  0
  6  7  1  0
  7  8  1  0
  7  9  2  0
  8 20  1  0
  8 21  1  0
  8 22  1  0
  9 10  1  0
 10 11  1  0
 11 12  1  0
 12 13  1  0
 12 14  2  0
 13 23  1  0
 13 24  1  0
M  END
>  <i_m_ct_stereo_status>  (238) 
1

>  <s_m_source_file>  (238) 
/var/tmp/pbs.5102264.sched01/tmp148in4kv/69urs0mf0h.sdf

>  <i_m_source_file_index>  (238) 
18

>  <i_lp_mmshare_version>  (238) 
48012

>  <i_f3d_flags>  (238) 
0

>  <s_epik_input>  (238) 
W0NIM11bQ0gyXU9DKD1PKWMxYyhbQ0gzXSlub2MxQyg9TylbTkgyXQ==

>  <s_epik_cmdline>  (238) 
J2VwaWtfcHl0aG9uJywgJy1waHQnLCAnMi4wJywgJy1waCcsICc3LjAnLCAnLXRuJywgJzgnLCAnLW1hJywgJzIwMCcsICctaW1hZScsICc8aW5maWxlLm1hZT4nLCAnLW9tYWUnLCAnPG91dGZpbGUubWFlPic=

>  <r_lp_tautomer_probability>  (238) 
1

>  <r_epik_Ionization_Penalty>  (238) 
0.000105116

>  <r_epik_Ionization_Penalty_Charging>  (238) 
0

>  <r_epik_Ionization_Penalty_Neutral>  (238) 
0.000105116

>  <r_epik_State_Penalty>  (238) 
-0

>  <r_epik_Charging_Adjusted_Penalty>  (238) 
0

>  <i_epik_Tot_Q>  (238) 
0

>  <i_epik_Tot_abs_Q>  (238) 
0

>  <s_epik_Chemistry_Notes>  (238) 
This compound has an ester and may undergo hydrolysis at high or low pH.

>  <s_lp_Force_Field>  (238) 
OPLS3e

>  <r_lp_Energy>  (238) 
8.97904

>  <b_lp_Chiralities_Consistent>  (238) 
1

>  <s_lp_Variant>  (238) 
55:0-1

>  <s_i_glide_gridfile>  (238) 
pfpi4k_grid

>  <i_i_glide_lignum>  (238) 
18

>  <i_i_glide_rotatable_bonds>  (238) 
4

>  <r_i_docking_score>  (238) 
-3.18265

>  <r_i_glide_ligand_efficiency>  (238) 
-0.227332

>  <r_i_glide_ligand_efficiency_sa>  (238) 
-0.547903

>  <r_i_glide_ligand_efficiency_ln>  (238) 
-0.874581

>  <r_i_glide_gscore>  (238) 
-3.18265

>  <r_i_glide_lipo>  (238) 
-0.133649

>  <r_i_glide_hbond>  (238) 
-0.05727

>  <r_i_glide_metal>  (238) 
-0

>  <r_i_glide_rewards>  (238) 
-2.05789

>  <r_i_glide_evdw>  (238) 
-16.4953

>  <r_i_glide_ecoul>  (238) 
-4.51761

>  <r_i_glide_erotb>  (238) 
0.829225

>  <r_i_glide_esite>  (238) 
-0.260662

>  <r_i_glide_emodel>  (238) 
-25.5687

>  <r_i_glide_energy>  (238) 
-21.0129

>  <r_i_glide_einternal>  (238) 
1.90244

>  <r_i_glide_intrahb_reward>  (238) 
-0

>  <i_i_glide_confnum>  (238) 
4

>  <i_i_glide_posenum>  (238) 
26

>  <r_i_glide_eff_state_penalty>  (238) 
0

>  <ligand_id>  (238) 
55

>  <original_smiles>  (238) 
CCOC(=O)c1c(C)noc1C(N)=O

>  <smiles>  (238) 
[H]N([H])C(=O)c1onc(C([H])([H])[H])c1C(=O)OC([H])([H])C([H])([H])[H]

$$$$
55:0:2
     RDKit          3D

 24 24  0  0  1  0  0  0  0  0999 V2000
   -3.2311    3.1022    8.3137 C   0  0  0  0  0  0  0  0  0  0  0  0
   -2.1179    2.0846    7.9973 C   0  0  0  0  0  0  0  0  0  0  0  0
   -1.8647    2.0383    6.5955 O   0  0  0  0  0  0  0  0  0  0  0  0
   -1.2789    0.9824    5.9832 C   0  0  0  0  0  0  0  0  0  0  0  0
   -0.9468   -0.0419    6.5780 O   0  0  0  0  0  0  0  0  0  0  0  0
   -1.1399    1.2208    4.5144 C   0  0  0  0  0  0  0  0  0  0  0  0
   -1.8415    2.2224    3.7546 C   0  0  0  0  0  0  0  0  0  0  0  0
   -2.8629    3.2767    4.0929 C   0  0  0  0  0  0  0  0  0  0  0  0
   -1.5096    2.1702    2.4859 N   0  0  0  0  0  0  0  0  0  0  0  0
   -0.5808    1.1431    2.3373 O   0  0  0  0  0  0  0  0  0  0  0  0
   -0.3718    0.5929    3.5508 C   0  0  0  0  0  0  0  0  0  0  0  0
    0.5957   -0.5241    3.6652 C   0  0  0  0  0  0  0  0  0  0  0  0
    1.2284   -0.8308    2.5236 N   0  0  0  0  0  0  0  0  0  0  0  0
    0.8027   -1.1353    4.7022 O   0  0  0  0  0  0  0  0  0  0  0  0
   -3.4126    3.1612    9.3880 H   0  0  0  0  0  0  0  0  0  0  0  0
   -4.1790    2.8360    7.8462 H   0  0  0  0  0  0  0  0  0  0  0  0
   -2.9702    4.1055    7.9812 H   0  0  0  0  0  0  0  0  0  0  0  0
   -1.2022    2.3747    8.5033 H   0  0  0  0  0  0  0  0  0  0  0  0
   -2.4157    1.1126    8.3765 H   0  0  0  0  0  0  0  0  0  0  0  0
   -3.1690    3.3192    5.1320 H   0  0  0  0  0  0  0  0  0  0  0  0
   -3.7692    3.1083    3.5099 H   0  0  0  0  0  0  0  0  0  0  0  0
   -2.4816    4.2619    3.8235 H   0  0  0  0  0  0  0  0  0  0  0  0
    1.0107   -0.2978    1.6910 H   0  0  0  0  0  0  0  0  0  0  0  0
    1.9053   -1.5808    2.4801 H   0  0  0  0  0  0  0  0  0  0  0  0
  1  2  1  0
  1 15  1  0
  1 16  1  0
  1 17  1  0
  2  3  1  0
  2 18  1  0
  2 19  1  0
  3  4  1  0
  4  5  2  0
  4  6  1  0
  6 11  2  0
  6  7  1  0
  7  8  1  0
  7  9  2  0
  8 20  1  0
  8 21  1  0
  8 22  1  0
  9 10  1  0
 10 11  1  0
 11 12  1  0
 12 13  1  0
 12 14  2  0
 13 23  1  0
 13 24  1  0
M  END
>  <i_m_ct_stereo_status>  (239) 
1

>  <s_m_source_file>  (239) 
/var/tmp/pbs.5102264.sched01/tmp148in4kv/69urs0mf0h.sdf

>  <i_m_source_file_index>  (239) 
18

>  <i_lp_mmshare_version>  (239) 
48012

>  <i_f3d_flags>  (239) 
0

>  <s_epik_input>  (239) 
W0NIM11bQ0gyXU9DKD1PKWMxYyhbQ0gzXSlub2MxQyg9TylbTkgyXQ==

>  <s_epik_cmdline>  (239) 
J2VwaWtfcHl0aG9uJywgJy1waHQnLCAnMi4wJywgJy1waCcsICc3LjAnLCAnLXRuJywgJzgnLCAnLW1hJywgJzIwMCcsICctaW1hZScsICc8aW5maWxlLm1hZT4nLCAnLW9tYWUnLCAnPG91dGZpbGUubWFlPic=

>  <r_lp_tautomer_probability>  (239) 
1

>  <r_epik_Ionization_Penalty>  (239) 
0.000105116

>  <r_epik_Ionization_Penalty_Charging>  (239) 
0

>  <r_epik_Ionization_Penalty_Neutral>  (239) 
0.000105116

>  <r_epik_State_Penalty>  (239) 
-0

>  <r_epik_Charging_Adjusted_Penalty>  (239) 
0

>  <i_epik_Tot_Q>  (239) 
0

>  <i_epik_Tot_abs_Q>  (239) 
0

>  <s_epik_Chemistry_Notes>  (239) 
This compound has an ester and may undergo hydrolysis at high or low pH.

>  <s_lp_Force_Field>  (239) 
OPLS3e

>  <r_lp_Energy>  (239) 
8.97904

>  <b_lp_Chiralities_Consistent>  (239) 
1

>  <s_lp_Variant>  (239) 
55:0-1

>  <s_i_glide_gridfile>  (239) 
pfpi4k_grid

>  <i_i_glide_lignum>  (239) 
18

>  <i_i_glide_rotatable_bonds>  (239) 
4

>  <r_i_docking_score>  (239) 
-2.5756

>  <r_i_glide_ligand_efficiency>  (239) 
-0.183972

>  <r_i_glide_ligand_efficiency_sa>  (239) 
-0.443398

>  <r_i_glide_ligand_efficiency_ln>  (239) 
-0.707767

>  <r_i_glide_gscore>  (239) 
-2.5756

>  <r_i_glide_lipo>  (239) 
-0.0591934

>  <r_i_glide_hbond>  (239) 
-0.0916731

>  <r_i_glide_metal>  (239) 
-0

>  <r_i_glide_rewards>  (239) 
-2.05789

>  <r_i_glide_evdw>  (239) 
-17.1043

>  <r_i_glide_ecoul>  (239) 
-0.981725

>  <r_i_glide_erotb>  (239) 
0.829225

>  <r_i_glide_esite>  (239) 
-0.193596

>  <r_i_glide_emodel>  (239) 
-21.0565

>  <r_i_glide_energy>  (239) 
-18.0861

>  <r_i_glide_einternal>  (239) 
2.7423

>  <r_i_glide_intrahb_reward>  (239) 
-0

>  <i_i_glide_confnum>  (239) 
1

>  <i_i_glide_posenum>  (239) 
22

>  <r_i_glide_eff_state_penalty>  (239) 
0

>  <ligand_id>  (239) 
55

>  <original_smiles>  (239) 
CCOC(=O)c1c(C)noc1C(N)=O

>  <smiles>  (239) 
[H]N([H])C(=O)c1onc(C([H])([H])[H])c1C(=O)OC([H])([H])C([H])([H])[H]

$$$$
56:0:0
     RDKit          3D

 57 60  0  0  1  0  0  0  0  0999 V2000
   -3.4858    2.9425    8.2580 C   0  0  0  0  0  0  0  0  0  0  0  0
   -2.5188    2.0282    7.7702 O   0  0  0  0  0  0  0  0  0  0  0  0
   -2.0361    2.2122    6.4859 C   0  0  0  0  0  0  0  0  0  0  0  0
   -2.5704    3.1137    5.5374 C   0  0  0  0  0  0  0  0  0  0  0  0
   -2.0950    3.2596    4.2924 N   0  0  0  0  0  0  0  0  0  0  0  0
   -1.0470    2.4940    3.9183 C   0  0  0  0  0  0  0  0  0  0  0  0
   -0.3973    1.5498    4.7724 C   0  0  0  0  0  0  0  0  0  0  0  0
    0.7107    0.7807    4.3327 N   0  0  0  0  0  0  0  0  0  0  0  0
    1.4270    1.2096    3.1182 C   0  0  0  0  0  0  0  0  0  0  0  0
    2.5648    0.3066    2.7377 C   0  0  0  0  0  0  0  0  0  0  0  0
    3.4406    0.3228    1.6911 C   0  0  0  0  0  0  0  0  0  0  0  0
    4.3021   -0.8004    1.9104 C   0  0  0  0  0  0  0  0  0  0  0  0
    5.4559   -1.3025    1.0623 C   0  0  0  0  0  0  0  0  0  0  0  0
    5.9724   -2.5838    1.4649 O   0  0  0  0  0  0  0  0  0  0  0  0
    5.1521   -3.6859    1.3515 C   0  0  0  0  0  0  0  0  0  0  0  0
    5.5163   -4.8646    2.0434 C   0  0  0  0  0  0  0  0  0  0  0  0
    4.6807   -6.0054    2.0075 C   0  0  0  0  0  0  0  0  0  0  0  0
    3.4793   -5.9778    1.2707 C   0  0  0  0  0  0  0  0  0  0  0  0
    2.6998   -7.0971    1.1845 O   0  0  0  0  0  0  0  0  0  0  0  0
    1.6714   -7.2417    2.1542 C   0  0  2  0  0  0  0  0  0  0  0  0
    1.5600   -8.7423    2.4462 C   0  0  0  0  0  0  0  0  0  0  0  0
    0.3044   -6.7143    1.6789 C   0  0  0  0  0  0  0  0  0  0  0  0
    0.1658   -6.3304    0.4906 O   0  0  0  0  0  0  0  0  0  0  0  0
   -0.6045   -6.6628    2.5341 O   0  0  0  0  0  0  0  0  0  0  0  0
    3.1429   -4.8209    0.5432 C   0  0  0  0  0  0  0  0  0  0  0  0
    2.0524   -4.7590   -0.2393 F   0  0  0  0  0  0  0  0  0  0  0  0
    3.9541   -3.6808    0.6013 C   0  0  0  0  0  0  0  0  0  0  0  0
    3.9562   -1.4532    3.0083 N   0  0  0  0  0  0  0  0  0  0  0  0
    2.8896   -0.7867    3.4974 N   0  0  0  0  0  0  0  0  0  0  0  0
    2.1159   -1.2577    4.6236 C   0  0  1  0  0  0  0  0  0  0  0  0
    2.9366   -2.0849    5.6314 C   0  0  0  0  0  0  0  0  0  0  0  0
    1.4534   -0.0443    5.3026 C   0  0  0  0  0  0  0  0  0  0  0  0
   -0.9376    1.4329    6.0871 C   0  0  0  0  0  0  0  0  0  0  0  0
   -3.7392    2.6757    9.2784 H   0  0  0  0  0  0  0  0  0  0  0  0
   -4.4084    2.9034    7.6828 H   0  0  0  0  0  0  0  0  0  0  0  0
   -3.1048    3.9656    8.2661 H   0  0  0  0  0  0  0  0  0  0  0  0
   -3.4119    3.7318    5.7766 H   0  0  0  0  0  0  0  0  0  0  0  0
   -0.7390    2.6727    2.8952 H   0  0  0  0  0  0  0  0  0  0  0  0
    0.7531    1.2669    2.2593 H   0  0  0  0  0  0  0  0  0  0  0  0
    1.8339    2.2079    3.2824 H   0  0  0  0  0  0  0  0  0  0  0  0
    3.4784    1.0421    0.8883 H   0  0  0  0  0  0  0  0  0  0  0  0
    5.1478   -1.3662    0.0135 H   0  0  0  0  0  0  0  0  0  0  0  0
    6.2643   -0.5542    1.0847 H   0  0  0  0  0  0  0  0  0  0  0  0
    6.4331   -4.8884    2.6250 H   0  0  0  0  0  0  0  0  0  0  0  0
    4.9532   -6.9132    2.5407 H   0  0  0  0  0  0  0  0  0  0  0  0
    1.9375   -6.7137    3.0671 H   0  0  0  0  0  0  0  0  0  0  0  0
    0.8039   -8.9499    3.2074 H   0  0  0  0  0  0  0  0  0  0  0  0
    2.5174   -9.1502    2.7801 H   0  0  0  0  0  0  0  0  0  0  0  0
    1.2817   -9.2796    1.5387 H   0  0  0  0  0  0  0  0  0  0  0  0
    3.6162   -2.8157    0.0487 H   0  0  0  0  0  0  0  0  0  0  0  0
    1.3174   -1.9006    4.2408 H   0  0  0  0  0  0  0  0  0  0  0  0
    2.3125   -2.4120    6.4603 H   0  0  0  0  0  0  0  0  0  0  0  0
    3.7698   -1.5120    6.0481 H   0  0  0  0  0  0  0  0  0  0  0  0
    3.3478   -2.9845    5.1671 H   0  0  0  0  0  0  0  0  0  0  0  0
    2.2183    0.5783    5.7718 H   0  0  0  0  0  0  0  0  0  0  0  0
    0.8454   -0.4584    6.1040 H   0  0  0  0  0  0  0  0  0  0  0  0
   -0.5335    0.7657    6.8257 H   0  0  0  0  0  0  0  0  0  0  0  0
  1  2  1  0
  1 34  1  0
  1 35  1  0
  1 36  1  0
  2  3  1  0
  3 33  2  0
  3  4  1  0
  4  5  2  0
  4 37  1  0
  5  6  1  0
  6  7  2  0
  6 38  1  0
  7  8  1  0
  7 33  1  0
  8 32  1  0
  8  9  1  0
  9 10  1  0
  9 39  1  0
  9 40  1  0
 10 29  1  0
 10 11  2  0
 11 12  1  0
 11 41  1  0
 12 13  1  0
 12 28  2  0
 13 14  1  0
 13 42  1  0
 13 43  1  0
 14 15  1  0
 15 27  1  0
 15 16  2  0
 16 17  1  0
 16 44  1  0
 17 18  2  0
 17 45  1  0
 18 19  1  0
 18 25  1  0
 19 20  1  0
 20 21  1  0
 20 22  1  0
 20 46  1  1
 21 47  1  0
 21 48  1  0
 21 49  1  0
 22 23  2  0
 22 24  1  0
 25 26  1  0
 25 27  2  0
 27 50  1  0
 28 29  1  0
 29 30  1  0
 30 31  1  0
 30 32  1  0
 30 51  1  6
 31 52  1  0
 31 53  1  0
 31 54  1  0
 32 55  1  0
 32 56  1  0
 33 57  1  0
M  CHG  1  24  -1
M  END
>  <i_m_ct_stereo_status>  (240) 
1

>  <s_m_source_file>  (240) 
/var/tmp/pbs.5102264.sched01/tmp148in4kv/69urs0mf0h.sdf

>  <i_m_source_file_index>  (240) 
19

>  <i_lp_mmshare_version>  (240) 
48012

>  <i_f3d_flags>  (240) 
0

>  <s_epik_input>  (240) 
W0NIM11PYzFbY0hdbltjSF1jKFtjSF0xKU4oW0NIMl0yKVtDSDJdW0NASF0oW0NIM10pbihjMjMpbmMoW2NIXTMpW0NIMl1PYzRbY0hdW2NIXWMoYyhGKVtjSF00KU9bQ0BIXShbQ0gzXSlDKD1PKVtPSF0=

>  <s_epik_cmdline>  (240) 
J2VwaWtfcHl0aG9uJywgJy1waHQnLCAnMi4wJywgJy1waCcsICc3LjAnLCAnLXRuJywgJzgnLCAnLW1hJywgJzIwMCcsICctaW1hZScsICc8aW5maWxlLm1hZT4nLCAnLW9tYWUnLCAnPG91dGZpbGUubWFlPic=

>  <r_lp_tautomer_probability>  (240) 
1

>  <r_epik_Ionization_Penalty>  (240) 
0.200142

>  <r_epik_Ionization_Penalty_Charging>  (240) 
7.97821e-05

>  <r_epik_Ionization_Penalty_Neutral>  (240) 
0.200062

>  <r_epik_State_Penalty>  (240) 
0.17857

>  <r_epik_Charging_Adjusted_Penalty>  (240) 
0.17865

>  <i_epik_Tot_Q>  (240) 
-1

>  <i_epik_Tot_abs_Q>  (240) 
1

>  <s_lp_Force_Field>  (240) 
OPLS3e

>  <r_lp_Energy>  (240) 
54.7321

>  <b_lp_Chiralities_Consistent>  (240) 
1

>  <s_lp_Variant>  (240) 
56:0-1

>  <s_i_glide_gridfile>  (240) 
pfpi4k_grid

>  <i_i_glide_lignum>  (240) 
19

>  <i_i_glide_rotatable_bonds>  (240) 
8

>  <r_i_docking_score>  (240) 
-3.3185

>  <r_i_glide_ligand_efficiency>  (240) 
-0.100561

>  <r_i_glide_ligand_efficiency_sa>  (240) 
-0.322552

>  <r_i_glide_ligand_efficiency_ln>  (240) 
-0.738017

>  <r_i_glide_gscore>  (240) 
-3.3185

>  <r_i_glide_lipo>  (240) 
-0.409404

>  <r_i_glide_hbond>  (240) 
-0.433509

>  <r_i_glide_metal>  (240) 
-0

>  <r_i_glide_rewards>  (240) 
-0.30369

>  <r_i_glide_evdw>  (240) 
-28.3083

>  <r_i_glide_ecoul>  (240) 
-7.68171

>  <r_i_glide_erotb>  (240) 
0.581054

>  <r_i_glide_esite>  (240) 
-0.185281

>  <r_i_glide_emodel>  (240) 
-41.462

>  <r_i_glide_energy>  (240) 
-35.99

>  <r_i_glide_einternal>  (240) 
9.92641

>  <r_i_glide_intrahb_reward>  (240) 
-0

>  <i_i_glide_confnum>  (240) 
7

>  <i_i_glide_posenum>  (240) 
1

>  <r_i_glide_eff_state_penalty>  (240) 
0

>  <ligand_id>  (240) 
56

>  <original_smiles>  (240) 
COc1cncc(N2Cc3cc(COc4ccc(OC(C)C(=O)O)c(F)c4)nn3C(C)C2)c1

>  <smiles>  (240) 
[H]c1nc([H])c(N2C([H])([H])c3c([H])c(C([H])([H])Oc4c([H])c([H])c(OC([H])(C(=O)[O-])C([H])([H])[H])c(F)c4[H])nn3C([H])(C([H])([H])[H])C2([H])[H])c([H])c1OC([H])([H])[H]

$$$$
56:0:1
     RDKit          3D

 57 60  0  0  1  0  0  0  0  0999 V2000
   -2.8055    2.8140    9.9529 C   0  0  0  0  0  0  0  0  0  0  0  0
   -1.8412    2.0532    9.2297 O   0  0  0  0  0  0  0  0  0  0  0  0
   -1.7880    2.1919    7.8652 C   0  0  0  0  0  0  0  0  0  0  0  0
   -2.6404    3.0194    7.1113 C   0  0  0  0  0  0  0  0  0  0  0  0
   -2.5647    3.1483    5.7784 N   0  0  0  0  0  0  0  0  0  0  0  0
   -1.6248    2.4464    5.1198 C   0  0  0  0  0  0  0  0  0  0  0  0
   -0.7059    1.5792    5.7645 C   0  0  0  0  0  0  0  0  0  0  0  0
    0.2620    0.8615    5.0241 N   0  0  0  0  0  0  0  0  0  0  0  0
    0.8241    1.5060    3.8228 C   0  0  0  0  0  0  0  0  0  0  0  0
    1.8202    0.6488    3.1015 C   0  0  0  0  0  0  0  0  0  0  0  0
    2.5545    0.8508    1.9676 C   0  0  0  0  0  0  0  0  0  0  0  0
    3.3399   -0.3327    1.8298 C   0  0  0  0  0  0  0  0  0  0  0  0
    4.3240   -0.6922    0.7446 C   0  0  0  0  0  0  0  0  0  0  0  0
    5.1216   -1.8551    1.0335 O   0  0  0  0  0  0  0  0  0  0  0  0
    4.5287   -3.0975    1.0016 C   0  0  0  0  0  0  0  0  0  0  0  0
    4.9790   -4.0915    1.9051 C   0  0  0  0  0  0  0  0  0  0  0  0
    4.3333   -5.3481    1.9596 C   0  0  0  0  0  0  0  0  0  0  0  0
    3.2505   -5.6200    1.0921 C   0  0  0  0  0  0  0  0  0  0  0  0
    2.6693   -6.8596    1.0944 O   0  0  0  0  0  0  0  0  0  0  0  0
    1.6732   -7.1130    2.0810 C   0  0  2  0  0  0  0  0  0  0  0  0
    1.6790   -8.6335    2.3342 C   0  0  0  0  0  0  0  0  0  0  0  0
    0.2649   -6.6699    1.6709 C   0  0  0  0  0  0  0  0  0  0  0  0
    0.0545   -6.2709    0.4943 O   0  0  0  0  0  0  0  0  0  0  0  0
   -0.6046   -6.6614    2.5724 O   0  0  0  0  0  0  0  0  0  0  0  0
    2.8298   -4.6288    0.1759 C   0  0  0  0  0  0  0  0  0  0  0  0
    1.8166   -4.8371   -0.6883 F   0  0  0  0  0  0  0  0  0  0  0  0
    3.4667   -3.3920    0.1219 C   0  0  0  0  0  0  0  0  0  0  0  0
    3.0822   -1.1924    2.8057 N   0  0  0  0  0  0  0  0  0  0  0  0
    2.1787   -0.5791    3.5941 N   0  0  0  0  0  0  0  0  0  0  0  0
    1.5539   -1.2399    4.7257 C   0  0  1  0  0  0  0  0  0  0  0  0
    2.4697   -2.2731    5.4146 C   0  0  0  0  0  0  0  0  0  0  0  0
    1.0806   -0.1507    5.7042 C   0  0  0  0  0  0  0  0  0  0  0  0
   -0.8041    1.4689    7.1718 C   0  0  0  0  0  0  0  0  0  0  0  0
   -2.7147    2.5706   11.0090 H   0  0  0  0  0  0  0  0  0  0  0  0
   -3.8342    2.5852    9.6634 H   0  0  0  0  0  0  0  0  0  0  0  0
   -2.6308    3.8879    9.8597 H   0  0  0  0  0  0  0  0  0  0  0  0
   -3.4026    3.6085    7.5896 H   0  0  0  0  0  0  0  0  0  0  0  0
   -1.6523    2.5886    4.0507 H   0  0  0  0  0  0  0  0  0  0  0  0
    0.0599    1.7582    3.0904 H   0  0  0  0  0  0  0  0  0  0  0  0
    1.3267    2.4336    4.1158 H   0  0  0  0  0  0  0  0  0  0  0  0
    2.5114    1.7192    1.3371 H   0  0  0  0  0  0  0  0  0  0  0  0
    3.8216   -0.7864   -0.2114 H   0  0  0  0  0  0  0  0  0  0  0  0
    4.9971    0.1553    0.6000 H   0  0  0  0  0  0  0  0  0  0  0  0
    5.7979   -3.8580    2.5721 H   0  0  0  0  0  0  0  0  0  0  0  0
    4.6776   -6.1084    2.6498 H   0  0  0  0  0  0  0  0  0  0  0  0
    1.9379   -6.5970    3.0033 H   0  0  0  0  0  0  0  0  0  0  0  0
    0.9542   -8.9102    3.1036 H   0  0  0  0  0  0  0  0  0  0  0  0
    2.6669   -8.9775    2.6512 H   0  0  0  0  0  0  0  0  0  0  0  0
    1.4212   -9.1714    1.4190 H   0  0  0  0  0  0  0  0  0  0  0  0
    3.0705   -2.7042   -0.6035 H   0  0  0  0  0  0  0  0  0  0  0  0
    0.6697   -1.7729    4.3535 H   0  0  0  0  0  0  0  0  0  0  0  0
    1.9480   -2.7328    6.2535 H   0  0  0  0  0  0  0  0  0  0  0  0
    3.3882   -1.8237    5.7990 H   0  0  0  0  0  0  0  0  0  0  0  0
    2.7466   -3.0801    4.7329 H   0  0  0  0  0  0  0  0  0  0  0  0
    1.9443    0.3387    6.1604 H   0  0  0  0  0  0  0  0  0  0  0  0
    0.5468   -0.6608    6.4982 H   0  0  0  0  0  0  0  0  0  0  0  0
   -0.1396    0.8596    7.7592 H   0  0  0  0  0  0  0  0  0  0  0  0
  1  2  1  0
  1 34  1  0
  1 35  1  0
  1 36  1  0
  2  3  1  0
  3 33  2  0
  3  4  1  0
  4  5  2  0
  4 37  1  0
  5  6  1  0
  6  7  2  0
  6 38  1  0
  7  8  1  0
  7 33  1  0
  8 32  1  0
  8  9  1  0
  9 10  1  0
  9 39  1  0
  9 40  1  0
 10 29  1  0
 10 11  2  0
 11 12  1  0
 11 41  1  0
 12 13  1  0
 12 28  2  0
 13 14  1  0
 13 42  1  0
 13 43  1  0
 14 15  1  0
 15 27  1  0
 15 16  2  0
 16 17  1  0
 16 44  1  0
 17 18  2  0
 17 45  1  0
 18 19  1  0
 18 25  1  0
 19 20  1  0
 20 21  1  0
 20 22  1  0
 20 46  1  1
 21 47  1  0
 21 48  1  0
 21 49  1  0
 22 23  2  0
 22 24  1  0
 25 26  1  0
 25 27  2  0
 27 50  1  0
 28 29  1  0
 29 30  1  0
 30 31  1  0
 30 32  1  0
 30 51  1  6
 31 52  1  0
 31 53  1  0
 31 54  1  0
 32 55  1  0
 32 56  1  0
 33 57  1  0
M  CHG  1  24  -1
M  END
>  <i_m_ct_stereo_status>  (241) 
1

>  <s_m_source_file>  (241) 
/var/tmp/pbs.5102264.sched01/tmp148in4kv/69urs0mf0h.sdf

>  <i_m_source_file_index>  (241) 
19

>  <i_lp_mmshare_version>  (241) 
48012

>  <i_f3d_flags>  (241) 
0

>  <s_epik_input>  (241) 
W0NIM11PYzFbY0hdbltjSF1jKFtjSF0xKU4oW0NIMl0yKVtDSDJdW0NASF0oW0NIM10pbihjMjMpbmMoW2NIXTMpW0NIMl1PYzRbY0hdW2NIXWMoYyhGKVtjSF00KU9bQ0BIXShbQ0gzXSlDKD1PKVtPSF0=

>  <s_epik_cmdline>  (241) 
J2VwaWtfcHl0aG9uJywgJy1waHQnLCAnMi4wJywgJy1waCcsICc3LjAnLCAnLXRuJywgJzgnLCAnLW1hJywgJzIwMCcsICctaW1hZScsICc8aW5maWxlLm1hZT4nLCAnLW9tYWUnLCAnPG91dGZpbGUubWFlPic=

>  <r_lp_tautomer_probability>  (241) 
1

>  <r_epik_Ionization_Penalty>  (241) 
0.200142

>  <r_epik_Ionization_Penalty_Charging>  (241) 
7.97821e-05

>  <r_epik_Ionization_Penalty_Neutral>  (241) 
0.200062

>  <r_epik_State_Penalty>  (241) 
0.17857

>  <r_epik_Charging_Adjusted_Penalty>  (241) 
0.17865

>  <i_epik_Tot_Q>  (241) 
-1

>  <i_epik_Tot_abs_Q>  (241) 
1

>  <s_lp_Force_Field>  (241) 
OPLS3e

>  <r_lp_Energy>  (241) 
54.7321

>  <b_lp_Chiralities_Consistent>  (241) 
1

>  <s_lp_Variant>  (241) 
56:0-1

>  <s_i_glide_gridfile>  (241) 
pfpi4k_grid

>  <i_i_glide_lignum>  (241) 
19

>  <i_i_glide_rotatable_bonds>  (241) 
8

>  <r_i_docking_score>  (241) 
-3.17262

>  <r_i_glide_ligand_efficiency>  (241) 
-0.09614

>  <r_i_glide_ligand_efficiency_sa>  (241) 
-0.308372

>  <r_i_glide_ligand_efficiency_ln>  (241) 
-0.705574

>  <r_i_glide_gscore>  (241) 
-3.17262

>  <r_i_glide_lipo>  (241) 
-0.300619

>  <r_i_glide_hbond>  (241) 
-0.427328

>  <r_i_glide_metal>  (241) 
-0

>  <r_i_glide_rewards>  (241) 
-0.30369

>  <r_i_glide_evdw>  (241) 
-27.3977

>  <r_i_glide_ecoul>  (241) 
-7.69893

>  <r_i_glide_erotb>  (241) 
0.581054

>  <r_i_glide_esite>  (241) 
-0.197312

>  <r_i_glide_emodel>  (241) 
-40.0251

>  <r_i_glide_energy>  (241) 
-35.0966

>  <r_i_glide_einternal>  (241) 
10.143

>  <r_i_glide_intrahb_reward>  (241) 
-0

>  <i_i_glide_confnum>  (241) 
6

>  <i_i_glide_posenum>  (241) 
29

>  <r_i_glide_eff_state_penalty>  (241) 
0

>  <ligand_id>  (241) 
56

>  <original_smiles>  (241) 
COc1cncc(N2Cc3cc(COc4ccc(OC(C)C(=O)O)c(F)c4)nn3C(C)C2)c1

>  <smiles>  (241) 
[H]c1nc([H])c(N2C([H])([H])c3c([H])c(C([H])([H])Oc4c([H])c([H])c(OC([H])(C(=O)[O-])C([H])([H])[H])c(F)c4[H])nn3C([H])(C([H])([H])[H])C2([H])[H])c([H])c1OC([H])([H])[H]

$$$$
56:0:2
     RDKit          3D

 57 60  0  0  1  0  0  0  0  0999 V2000
    2.0301   -2.9996   -3.4357 C   0  0  0  0  0  0  0  0  0  0  0  0
    3.1274   -2.1285   -3.1767 O   0  0  0  0  0  0  0  0  0  0  0  0
    3.8406   -2.3642   -2.0197 C   0  0  0  0  0  0  0  0  0  0  0  0
    4.9729   -1.5744   -1.7220 C   0  0  0  0  0  0  0  0  0  0  0  0
    5.7472   -1.7548   -0.6331 N   0  0  0  0  0  0  0  0  0  0  0  0
    5.4013   -2.7291    0.2351 C   0  0  0  0  0  0  0  0  0  0  0  0
    4.2747   -3.5802    0.0639 C   0  0  0  0  0  0  0  0  0  0  0  0
    3.9124   -4.6007    0.9809 N   0  0  0  0  0  0  0  0  0  0  0  0
    3.0659   -5.7112    0.4940 C   0  0  0  0  0  0  0  0  0  0  0  0
    2.7574   -6.7487    1.5308 C   0  0  0  0  0  0  0  0  0  0  0  0
    1.9781   -7.8685    1.5320 C   0  0  0  0  0  0  0  0  0  0  0  0
    2.1298   -8.4202    2.8384 C   0  0  0  0  0  0  0  0  0  0  0  0
    1.3870   -9.5732    3.4557 C   0  0  0  0  0  0  0  0  0  0  0  0
    1.6668   -9.7984    4.8436 O   0  0  0  0  0  0  0  0  0  0  0  0
    1.2633   -8.8803    5.7899 C   0  0  0  0  0  0  0  0  0  0  0  0
    0.8009   -7.5806    5.4725 C   0  0  0  0  0  0  0  0  0  0  0  0
    0.4939   -6.6772    6.4859 C   0  0  0  0  0  0  0  0  0  0  0  0
    0.5976   -7.0544    7.8469 C   0  0  0  0  0  0  0  0  0  0  0  0
    0.3044   -6.1806    8.8744 O   0  0  0  0  0  0  0  0  0  0  0  0
   -0.1340   -4.8612    8.5436 C   0  0  2  0  0  0  0  0  0  0  0  0
    1.0333   -3.9904    8.0046 C   0  0  0  0  0  0  0  0  0  0  0  0
   -0.7330   -4.1933    9.7844 C   0  0  0  0  0  0  0  0  0  0  0  0
   -0.9277   -2.9504    9.7073 O   0  0  0  0  0  0  0  0  0  0  0  0
   -0.9914   -4.9068   10.7780 O   0  0  0  0  0  0  0  0  0  0  0  0
    1.0147   -8.3606    8.1704 C   0  0  0  0  0  0  0  0  0  0  0  0
    1.0741   -8.7569    9.4623 F   0  0  0  0  0  0  0  0  0  0  0  0
    1.3599   -9.2614    7.1388 C   0  0  0  0  0  0  0  0  0  0  0  0
    2.9806   -7.7097    3.5639 N   0  0  0  0  0  0  0  0  0  0  0  0
    3.3007   -6.6517    2.7935 N   0  0  0  0  0  0  0  0  0  0  0  0
    3.9980   -5.4773    3.3000 C   0  0  1  0  0  0  0  0  0  0  0  0
    4.8986   -5.7714    4.5107 C   0  0  0  0  0  0  0  0  0  0  0  0
    4.7808   -4.8628    2.1354 C   0  0  0  0  0  0  0  0  0  0  0  0
    3.4992   -3.3667   -1.0969 C   0  0  0  0  0  0  0  0  0  0  0  0
    1.4966   -2.7099   -4.3355 H   0  0  0  0  0  0  0  0  0  0  0  0
    1.2950   -2.9721   -2.6319 H   0  0  0  0  0  0  0  0  0  0  0  0
    2.3764   -4.0249   -3.5688 H   0  0  0  0  0  0  0  0  0  0  0  0
    5.2844   -0.7824   -2.3824 H   0  0  0  0  0  0  0  0  0  0  0  0
    6.0709   -2.8082    1.0785 H   0  0  0  0  0  0  0  0  0  0  0  0
    2.1198   -5.3583    0.0879 H   0  0  0  0  0  0  0  0  0  0  0  0
    3.5956   -6.2129   -0.3134 H   0  0  0  0  0  0  0  0  0  0  0  0
    1.3539   -8.2336    0.7318 H   0  0  0  0  0  0  0  0  0  0  0  0
    0.3131   -9.4189    3.3448 H   0  0  0  0  0  0  0  0  0  0  0  0
    1.6178  -10.4863    2.9012 H   0  0  0  0  0  0  0  0  0  0  0  0
    0.7138   -7.2147    4.4517 H   0  0  0  0  0  0  0  0  0  0  0  0
    0.2033   -5.6866    6.1656 H   0  0  0  0  0  0  0  0  0  0  0  0
   -0.9573   -4.9276    7.8304 H   0  0  0  0  0  0  0  0  0  0  0  0
    0.6761   -2.9940    7.7305 H   0  0  0  0  0  0  0  0  0  0  0  0
    1.5286   -4.3978    7.1198 H   0  0  0  0  0  0  0  0  0  0  0  0
    1.7926   -3.8691    8.7819 H   0  0  0  0  0  0  0  0  0  0  0  0
    1.7029  -10.2538    7.3948 H   0  0  0  0  0  0  0  0  0  0  0  0
    3.2443   -4.7506    3.6172 H   0  0  0  0  0  0  0  0  0  0  0  0
    5.4264   -4.8732    4.8242 H   0  0  0  0  0  0  0  0  0  0  0  0
    5.6405   -6.5317    4.2684 H   0  0  0  0  0  0  0  0  0  0  0  0
    4.3176   -6.1211    5.3655 H   0  0  0  0  0  0  0  0  0  0  0  0
    5.5583   -5.5630    1.8238 H   0  0  0  0  0  0  0  0  0  0  0  0
    5.2636   -3.9699    2.5169 H   0  0  0  0  0  0  0  0  0  0  0  0
    2.6351   -3.9841   -1.2743 H   0  0  0  0  0  0  0  0  0  0  0  0
  1  2  1  0
  1 34  1  0
  1 35  1  0
  1 36  1  0
  2  3  1  0
  3 33  2  0
  3  4  1  0
  4  5  2  0
  4 37  1  0
  5  6  1  0
  6  7  2  0
  6 38  1  0
  7  8  1  0
  7 33  1  0
  8 32  1  0
  8  9  1  0
  9 10  1  0
  9 39  1  0
  9 40  1  0
 10 29  1  0
 10 11  2  0
 11 12  1  0
 11 41  1  0
 12 13  1  0
 12 28  2  0
 13 14  1  0
 13 42  1  0
 13 43  1  0
 14 15  1  0
 15 27  1  0
 15 16  2  0
 16 17  1  0
 16 44  1  0
 17 18  2  0
 17 45  1  0
 18 19  1  0
 18 25  1  0
 19 20  1  0
 20 21  1  0
 20 22  1  0
 20 46  1  6
 21 47  1  0
 21 48  1  0
 21 49  1  0
 22 23  2  0
 22 24  1  0
 25 26  1  0
 25 27  2  0
 27 50  1  0
 28 29  1  0
 29 30  1  0
 30 31  1  0
 30 32  1  0
 30 51  1  1
 31 52  1  0
 31 53  1  0
 31 54  1  0
 32 55  1  0
 32 56  1  0
 33 57  1  0
M  CHG  1  24  -1
M  END
>  <i_m_ct_stereo_status>  (242) 
1

>  <s_m_source_file>  (242) 
/var/tmp/pbs.5102264.sched01/tmp148in4kv/69urs0mf0h.sdf

>  <i_m_source_file_index>  (242) 
19

>  <i_lp_mmshare_version>  (242) 
48012

>  <i_f3d_flags>  (242) 
0

>  <s_epik_input>  (242) 
W0NIM11PYzFbY0hdbltjSF1jKFtjSF0xKU4oW0NIMl0yKVtDSDJdW0NASF0oW0NIM10pbihjMjMpbmMoW2NIXTMpW0NIMl1PYzRbY0hdW2NIXWMoYyhGKVtjSF00KU9bQ0BIXShbQ0gzXSlDKD1PKVtPSF0=

>  <s_epik_cmdline>  (242) 
J2VwaWtfcHl0aG9uJywgJy1waHQnLCAnMi4wJywgJy1waCcsICc3LjAnLCAnLXRuJywgJzgnLCAnLW1hJywgJzIwMCcsICctaW1hZScsICc8aW5maWxlLm1hZT4nLCAnLW9tYWUnLCAnPG91dGZpbGUubWFlPic=

>  <r_lp_tautomer_probability>  (242) 
1

>  <r_epik_Ionization_Penalty>  (242) 
0.200142

>  <r_epik_Ionization_Penalty_Charging>  (242) 
7.97821e-05

>  <r_epik_Ionization_Penalty_Neutral>  (242) 
0.200062

>  <r_epik_State_Penalty>  (242) 
0.17857

>  <r_epik_Charging_Adjusted_Penalty>  (242) 
0.17865

>  <i_epik_Tot_Q>  (242) 
-1

>  <i_epik_Tot_abs_Q>  (242) 
1

>  <s_lp_Force_Field>  (242) 
OPLS3e

>  <r_lp_Energy>  (242) 
54.7321

>  <b_lp_Chiralities_Consistent>  (242) 
1

>  <s_lp_Variant>  (242) 
56:0-1

>  <s_i_glide_gridfile>  (242) 
pfpi4k_grid

>  <i_i_glide_lignum>  (242) 
19

>  <i_i_glide_rotatable_bonds>  (242) 
8

>  <r_i_docking_score>  (242) 
-2.9975

>  <r_i_glide_ligand_efficiency>  (242) 
-0.0908333

>  <r_i_glide_ligand_efficiency_sa>  (242) 
-0.291351

>  <r_i_glide_ligand_efficiency_ln>  (242) 
-0.666628

>  <r_i_glide_gscore>  (242) 
-2.9975

>  <r_i_glide_lipo>  (242) 
-0.350559

>  <r_i_glide_hbond>  (242) 
-0.2

>  <r_i_glide_metal>  (242) 
-0

>  <r_i_glide_rewards>  (242) 
-0.324621

>  <r_i_glide_evdw>  (242) 
-28.3473

>  <r_i_glide_ecoul>  (242) 
-8.20148

>  <r_i_glide_erotb>  (242) 
0.581054

>  <r_i_glide_esite>  (242) 
-0.055786

>  <r_i_glide_emodel>  (242) 
-43.0726

>  <r_i_glide_energy>  (242) 
-36.5488

>  <r_i_glide_einternal>  (242) 
4.18855

>  <r_i_glide_intrahb_reward>  (242) 
-0

>  <i_i_glide_confnum>  (242) 
2

>  <i_i_glide_posenum>  (242) 
21

>  <r_i_glide_eff_state_penalty>  (242) 
0

>  <ligand_id>  (242) 
56

>  <original_smiles>  (242) 
COc1cncc(N2Cc3cc(COc4ccc(OC(C)C(=O)O)c(F)c4)nn3C(C)C2)c1

>  <smiles>  (242) 
[H]c1nc([H])c(N2C([H])([H])c3c([H])c(C([H])([H])Oc4c([H])c([H])c(OC([H])(C(=O)[O-])C([H])([H])[H])c(F)c4[H])nn3C([H])(C([H])([H])[H])C2([H])[H])c([H])c1OC([H])([H])[H]

$$$$
56:1:0
     RDKit          3D

 58 61  0  0  1  0  0  0  0  0999 V2000
    2.9486   -9.4325    1.5097 C   0  0  0  0  0  0  0  0  0  0  0  0
    2.4241   -8.1551    1.8465 O   0  0  0  0  0  0  0  0  0  0  0  0
    3.2219   -7.0493    1.6582 C   0  0  0  0  0  0  0  0  0  0  0  0
    4.5309   -7.0964    1.1224 C   0  0  0  0  0  0  0  0  0  0  0  0
    5.2777   -6.0046    0.9319 N   0  0  0  0  0  0  0  0  0  0  0  0
    4.7836   -4.8094    1.2749 C   0  0  0  0  0  0  0  0  0  0  0  0
    3.4892   -4.6143    1.8227 C   0  0  0  0  0  0  0  0  0  0  0  0
    3.0477   -3.3138    2.1682 N   0  0  0  0  0  0  0  0  0  0  0  0
    3.5837   -2.1439    1.4469 C   0  0  0  0  0  0  0  0  0  0  0  0
    3.0934   -0.8367    2.0023 C   0  0  0  0  0  0  0  0  0  0  0  0
    3.2532    0.4868    1.5712 C   0  0  0  0  0  0  0  0  0  0  0  0
    2.5458    1.3155    2.4425 C   0  0  0  0  0  0  0  0  0  0  0  0
    2.4005    2.7958    2.4738 C   0  0  0  0  0  0  0  0  0  0  0  0
    1.6889    3.1724    3.6306 O   0  0  0  0  0  0  0  0  0  0  0  0
    1.7434    4.4722    4.0608 C   0  0  0  0  0  0  0  0  0  0  0  0
    0.8715    4.7473    5.1375 C   0  0  0  0  0  0  0  0  0  0  0  0
    0.8310    5.9978    5.7374 C   0  0  0  0  0  0  0  0  0  0  0  0
    1.6782    7.0263    5.2529 C   0  0  0  0  0  0  0  0  0  0  0  0
    1.6919    8.2940    5.7917 O   0  0  0  0  0  0  0  0  0  0  0  0
    0.9837    8.5703    7.0145 C   0  0  2  0  0  0  0  0  0  0  0  0
    1.5903    7.7963    8.2321 C   0  0  0  0  0  0  0  0  0  0  0  0
   -0.5627    8.4302    6.8781 C   0  0  0  0  0  0  0  0  0  0  0  0
   -1.0488    8.8780    5.7922 O   0  0  0  0  0  0  0  0  0  0  0  0
   -1.2245    7.9720    7.8330 O   0  0  0  0  0  0  0  0  0  0  0  0
    2.5520    6.7621    4.1767 C   0  0  0  0  0  0  0  0  0  0  0  0
    3.4088    7.7222    3.7460 F   0  0  0  0  0  0  0  0  0  0  0  0
    2.5896    5.4880    3.5660 C   0  0  0  0  0  0  0  0  0  0  0  0
    2.0161    0.4882    3.4063 N   0  0  0  0  0  0  0  0  0  0  0  0
    2.3390   -0.7758    3.1141 N   0  0  0  0  0  0  0  0  0  0  0  0
    2.0248   -1.9181    3.9691 C   0  0  1  0  0  0  0  0  0  0  0  0
    0.8210   -1.6912    4.8814 C   0  0  0  0  0  0  0  0  0  0  0  0
    1.8634   -3.1203    3.0174 C   0  0  0  0  0  0  0  0  0  0  0  0
    2.6993   -5.7862    2.0093 C   0  0  0  0  0  0  0  0  0  0  0  0
    2.2275  -10.2308    1.7027 H   0  0  0  0  0  0  0  0  0  0  0  0
    3.8338   -9.6375    2.1053 H   0  0  0  0  0  0  0  0  0  0  0  0
    3.2000   -9.4560    0.4537 H   0  0  0  0  0  0  0  0  0  0  0  0
    5.0286   -8.0066    0.8103 H   0  0  0  0  0  0  0  0  0  0  0  0
    5.4706   -3.9903    1.1194 H   0  0  0  0  0  0  0  0  0  0  0  0
    4.6681   -2.0965    1.4848 H   0  0  0  0  0  0  0  0  0  0  0  0
    3.3105   -2.2184    0.3939 H   0  0  0  0  0  0  0  0  0  0  0  0
    3.8078    0.8441    0.7228 H   0  0  0  0  0  0  0  0  0  0  0  0
    3.4003    3.2180    2.4855 H   0  0  0  0  0  0  0  0  0  0  0  0
    1.8371    3.1329    1.6028 H   0  0  0  0  0  0  0  0  0  0  0  0
    0.2366    3.9596    5.4943 H   0  0  0  0  0  0  0  0  0  0  0  0
    0.1250    6.1485    6.5507 H   0  0  0  0  0  0  0  0  0  0  0  0
    1.1573    9.6293    7.2418 H   0  0  0  0  0  0  0  0  0  0  0  0
    1.0899    8.0164    9.1815 H   0  0  0  0  0  0  0  0  0  0  0  0
    2.6393    8.0727    8.3697 H   0  0  0  0  0  0  0  0  0  0  0  0
    1.5607    6.7104    8.0940 H   0  0  0  0  0  0  0  0  0  0  0  0
    3.2925    5.3417    2.7563 H   0  0  0  0  0  0  0  0  0  0  0  0
    2.9124   -2.0856    4.5755 H   0  0  0  0  0  0  0  0  0  0  0  0
    0.6619   -2.5927    5.4653 H   0  0  0  0  0  0  0  0  0  0  0  0
   -0.1048   -1.4759    4.3368 H   0  0  0  0  0  0  0  0  0  0  0  0
    1.0096   -0.8830    5.5929 H   0  0  0  0  0  0  0  0  0  0  0  0
    1.0040   -2.9104    2.3767 H   0  0  0  0  0  0  0  0  0  0  0  0
    1.6178   -3.9815    3.6313 H   0  0  0  0  0  0  0  0  0  0  0  0
    1.7053   -5.7665    2.4180 H   0  0  0  0  0  0  0  0  0  0  0  0
    1.4561    0.7437    4.2103 H   0  0  0  0  0  0  0  0  0  0  0  0
  1  2  1  0
  1 34  1  0
  1 35  1  0
  1 36  1  0
  2  3  1  0
  3 33  2  0
  3  4  1  0
  4  5  2  0
  4 37  1  0
  5  6  1  0
  6  7  2  0
  6 38  1  0
  7  8  1  0
  7 33  1  0
  8 32  1  0
  8  9  1  0
  9 10  1  0
  9 39  1  0
  9 40  1  0
 10 29  1  0
 10 11  2  0
 11 12  1  0
 11 41  1  0
 12 13  1  0
 12 28  2  0
 13 14  1  0
 13 42  1  0
 13 43  1  0
 14 15  1  0
 15 27  1  0
 15 16  2  0
 16 17  1  0
 16 44  1  0
 17 18  2  0
 17 45  1  0
 18 19  1  0
 18 25  1  0
 19 20  1  0
 20 21  1  0
 20 22  1  0
 20 46  1  1
 21 47  1  0
 21 48  1  0
 21 49  1  0
 22 23  2  0
 22 24  1  0
 25 26  1  0
 25 27  2  0
 27 50  1  0
 28 29  1  0
 28 58  1  0
 29 30  1  0
 30 31  1  0
 30 32  1  0
 30 51  1  1
 31 52  1  0
 31 53  1  0
 31 54  1  0
 32 55  1  0
 32 56  1  0
 33 57  1  0
M  CHG  2  24  -1  28   1
M  END
>  <i_m_ct_stereo_status>  (243) 
1

>  <s_m_source_file>  (243) 
/var/tmp/pbs.5102264.sched01/tmp148in4kv/69urs0mf0h.sdf

>  <i_m_source_file_index>  (243) 
20

>  <i_lp_mmshare_version>  (243) 
48012

>  <i_f3d_flags>  (243) 
0

>  <s_epik_input>  (243) 
W0NIM11PYzFbY0hdbltjSF1jKFtjSF0xKU4oW0NIMl0yKVtDSDJdW0NASF0oW0NIM10pbihjMjMpbmMoW2NIXTMpW0NIMl1PYzRbY0hdW2NIXWMoYyhGKVtjSF00KU9bQ0BIXShbQ0gzXSlDKD1PKVtPSF0=

>  <s_epik_cmdline>  (243) 
J2VwaWtfcHl0aG9uJywgJy1waHQnLCAnMi4wJywgJy1waCcsICc3LjAnLCAnLXRuJywgJzgnLCAnLW1hJywgJzIwMCcsICctaW1hZScsICc8aW5maWxlLm1hZT4nLCAnLW9tYWUnLCAnPG91dGZpbGUubWFlPic=

>  <r_lp_tautomer_probability>  (243) 
1

>  <r_epik_Ionization_Penalty>  (243) 
0.898579

>  <r_epik_Ionization_Penalty_Charging>  (243) 
0.869077

>  <r_epik_Ionization_Penalty_Neutral>  (243) 
0.0295018

>  <r_epik_State_Penalty>  (243) 
0.94629

>  <r_epik_Charging_Adjusted_Penalty>  (243) 
1.81537

>  <i_epik_Tot_Q>  (243) 
0

>  <i_epik_Tot_abs_Q>  (243) 
2

>  <s_lp_Force_Field>  (243) 
OPLS3e

>  <r_lp_Energy>  (243) 
58.4818

>  <b_lp_Chiralities_Consistent>  (243) 
1

>  <s_lp_Variant>  (243) 
56:0-2

>  <s_i_glide_gridfile>  (243) 
pfpi4k_grid

>  <i_i_glide_lignum>  (243) 
20

>  <i_i_glide_rotatable_bonds>  (243) 
8

>  <r_i_docking_score>  (243) 
-2.64974

>  <r_i_glide_ligand_efficiency>  (243) 
-0.0802951

>  <r_i_glide_ligand_efficiency_sa>  (243) 
-0.257549

>  <r_i_glide_ligand_efficiency_ln>  (243) 
-0.589288

>  <r_i_glide_gscore>  (243) 
-2.64974

>  <r_i_glide_lipo>  (243) 
-0.358623

>  <r_i_glide_hbond>  (243) 
-0.2

>  <r_i_glide_metal>  (243) 
-0

>  <r_i_glide_rewards>  (243) 
-0.296817

>  <r_i_glide_evdw>  (243) 
-26.658

>  <r_i_glide_ecoul>  (243) 
-6.58712

>  <r_i_glide_erotb>  (243) 
0.578721

>  <r_i_glide_esite>  (243) 
-0.0520517

>  <r_i_glide_emodel>  (243) 
-36.7558

>  <r_i_glide_energy>  (243) 
-33.2451

>  <r_i_glide_einternal>  (243) 
4.59069

>  <r_i_glide_intrahb_reward>  (243) 
-0

>  <i_i_glide_confnum>  (243) 
2

>  <i_i_glide_posenum>  (243) 
25

>  <r_i_glide_eff_state_penalty>  (243) 
0

>  <ligand_id>  (243) 
56

>  <original_smiles>  (243) 
COc1cncc(N2Cc3cc(COc4ccc(OC(C)C(=O)O)c(F)c4)nn3C(C)C2)c1

>  <smiles>  (243) 
[H]c1nc([H])c(N2C([H])([H])c3c([H])c(C([H])([H])Oc4c([H])c([H])c(OC([H])(C(=O)[O-])C([H])([H])[H])c(F)c4[H])[n+]([H])n3C([H])(C([H])([H])[H])C2([H])[H])c([H])c1OC([H])([H])[H]

$$$$
56:1:1
     RDKit          3D

 58 61  0  0  1  0  0  0  0  0999 V2000
   -1.3013   -7.4104    3.1638 C   0  0  0  0  0  0  0  0  0  0  0  0
   -0.0338   -7.7295    3.7177 O   0  0  0  0  0  0  0  0  0  0  0  0
    0.8402   -6.7083    4.0196 C   0  0  0  0  0  0  0  0  0  0  0  0
    2.2094   -6.9772    3.9712 C   0  0  0  0  0  0  0  0  0  0  0  0
    3.1590   -6.0663    4.2544 N   0  0  0  0  0  0  0  0  0  0  0  0
    2.7694   -4.8215    4.6026 C   0  0  0  0  0  0  0  0  0  0  0  0
    1.4185   -4.4179    4.7093 C   0  0  0  0  0  0  0  0  0  0  0  0
    1.0737   -3.1162    5.1084 N   0  0  0  0  0  0  0  0  0  0  0  0
    2.0731   -2.2287    5.7378 C   0  0  0  0  0  0  0  0  0  0  0  0
    1.5008   -0.9125    6.1951 C   0  0  0  0  0  0  0  0  0  0  0  0
    2.0437    0.2572    6.7229 C   0  0  0  0  0  0  0  0  0  0  0  0
    1.0434    1.2116    6.8988 C   0  0  0  0  0  0  0  0  0  0  0  0
    1.0926    2.6307    7.4079 C   0  0  0  0  0  0  0  0  0  0  0  0
   -0.1773    3.2728    7.4226 O   0  0  0  0  0  0  0  0  0  0  0  0
   -0.7272    3.5346    6.1897 C   0  0  0  0  0  0  0  0  0  0  0  0
   -2.0310    3.0796    5.9184 C   0  0  0  0  0  0  0  0  0  0  0  0
   -2.6211    3.3023    4.6659 C   0  0  0  0  0  0  0  0  0  0  0  0
   -1.9594    4.0882    3.6699 C   0  0  0  0  0  0  0  0  0  0  0  0
   -2.5760    4.5379    2.5105 O   0  0  0  0  0  0  0  0  0  0  0  0
   -3.9756    4.2856    2.2111 C   0  0  2  0  0  0  0  0  0  0  0  0
   -4.2145    2.9981    1.4422 C   0  0  0  0  0  0  0  0  0  0  0  0
   -4.6031    5.5322    1.5468 C   0  0  0  0  0  0  0  0  0  0  0  0
   -4.4443    6.6320    2.1302 O   0  0  0  0  0  0  0  0  0  0  0  0
   -5.2312    5.3889    0.4743 O   0  0  0  0  0  0  0  0  0  0  0  0
   -0.6390    4.5300    3.9751 C   0  0  0  0  0  0  0  0  0  0  0  0
    0.0131    5.3814    3.1447 F   0  0  0  0  0  0  0  0  0  0  0  0
   -0.0146    4.2154    5.1779 C   0  0  0  0  0  0  0  0  0  0  0  0
   -0.0954    0.5908    6.5180 N   0  0  0  0  0  0  0  0  0  0  0  0
    0.1667   -0.6473    6.0788 N   0  0  0  0  0  0  0  0  0  0  0  0
   -0.8286   -1.5895    5.6232 C   0  0  1  0  0  0  0  0  0  0  0  0
   -2.1469   -0.9339    5.1721 C   0  0  0  0  0  0  0  0  0  0  0  0
   -0.1376   -2.4624    4.5571 C   0  0  0  0  0  0  0  0  0  0  0  0
    0.4455   -5.4105    4.4152 C   0  0  0  0  0  0  0  0  0  0  0  0
   -1.8568   -8.3320    2.9770 H   0  0  0  0  0  0  0  0  0  0  0  0
   -1.1689   -6.9157    2.2011 H   0  0  0  0  0  0  0  0  0  0  0  0
   -1.9222   -6.7915    3.8134 H   0  0  0  0  0  0  0  0  0  0  0  0
    2.5649   -7.9645    3.6887 H   0  0  0  0  0  0  0  0  0  0  0  0
    3.5852   -4.1485    4.8080 H   0  0  0  0  0  0  0  0  0  0  0  0
    2.4916   -2.7260    6.6183 H   0  0  0  0  0  0  0  0  0  0  0  0
    2.8873   -2.0326    5.0273 H   0  0  0  0  0  0  0  0  0  0  0  0
    3.0948    0.4085    6.9506 H   0  0  0  0  0  0  0  0  0  0  0  0
    1.4235    2.6050    8.4381 H   0  0  0  0  0  0  0  0  0  0  0  0
    1.8410    3.1974    6.8606 H   0  0  0  0  0  0  0  0  0  0  0  0
   -2.6059    2.5805    6.6949 H   0  0  0  0  0  0  0  0  0  0  0  0
   -3.6216    2.9131    4.5522 H   0  0  0  0  0  0  0  0  0  0  0  0
   -4.6032    4.1190    3.0747 H   0  0  0  0  0  0  0  0  0  0  0  0
   -5.2882    2.7611    1.4360 H   0  0  0  0  0  0  0  0  0  0  0  0
   -3.6897    2.1878    1.9433 H   0  0  0  0  0  0  0  0  0  0  0  0
   -3.7865    3.0324    0.4917 H   0  0  0  0  0  0  0  0  0  0  0  0
    0.9975    4.5746    5.3455 H   0  0  0  0  0  0  0  0  0  0  0  0
   -1.0442   -2.2271    6.4849 H   0  0  0  0  0  0  0  0  0  0  0  0
   -2.8561   -1.7100    4.9346 H   0  0  0  0  0  0  0  0  0  0  0  0
   -2.0434   -0.3095    4.2850 H   0  0  0  0  0  0  0  0  0  0  0  0
   -2.6140   -0.3606    5.9704 H   0  0  0  0  0  0  0  0  0  0  0  0
    0.1518   -1.8453    3.7053 H   0  0  0  0  0  0  0  0  0  0  0  0
   -0.8612   -3.1572    4.1798 H   0  0  0  0  0  0  0  0  0  0  0  0
   -0.5921   -5.1900    4.5415 H   0  0  0  0  0  0  0  0  0  0  0  0
   -1.0218    0.9792    6.4349 H   0  0  0  0  0  0  0  0  0  0  0  0
  1  2  1  0
  1 34  1  0
  1 35  1  0
  1 36  1  0
  2  3  1  0
  3 33  2  0
  3  4  1  0
  4  5  2  0
  4 37  1  0
  5  6  1  0
  6  7  2  0
  6 38  1  0
  7  8  1  0
  7 33  1  0
  8 32  1  0
  8  9  1  0
  9 10  1  0
  9 39  1  0
  9 40  1  0
 10 29  1  0
 10 11  2  0
 11 12  1  0
 11 41  1  0
 12 13  1  0
 12 28  2  0
 13 14  1  0
 13 42  1  0
 13 43  1  0
 14 15  1  0
 15 27  1  0
 15 16  2  0
 16 17  1  0
 16 44  1  0
 17 18  2  0
 17 45  1  0
 18 19  1  0
 18 25  1  0
 19 20  1  0
 20 21  1  0
 20 22  1  0
 20 46  1  1
 21 47  1  0
 21 48  1  0
 21 49  1  0
 22 23  2  0
 22 24  1  0
 25 26  1  0
 25 27  2  0
 27 50  1  0
 28 29  1  0
 28 58  1  0
 29 30  1  0
 30 31  1  0
 30 32  1  0
 30 51  1  1
 31 52  1  0
 31 53  1  0
 31 54  1  0
 32 55  1  0
 32 56  1  0
 33 57  1  0
M  CHG  2  24  -1  28   1
M  END
>  <i_m_ct_stereo_status>  (244) 
1

>  <s_m_source_file>  (244) 
/var/tmp/pbs.5102264.sched01/tmp148in4kv/69urs0mf0h.sdf

>  <i_m_source_file_index>  (244) 
20

>  <i_lp_mmshare_version>  (244) 
48012

>  <i_f3d_flags>  (244) 
0

>  <s_epik_input>  (244) 
W0NIM11PYzFbY0hdbltjSF1jKFtjSF0xKU4oW0NIMl0yKVtDSDJdW0NASF0oW0NIM10pbihjMjMpbmMoW2NIXTMpW0NIMl1PYzRbY0hdW2NIXWMoYyhGKVtjSF00KU9bQ0BIXShbQ0gzXSlDKD1PKVtPSF0=

>  <s_epik_cmdline>  (244) 
J2VwaWtfcHl0aG9uJywgJy1waHQnLCAnMi4wJywgJy1waCcsICc3LjAnLCAnLXRuJywgJzgnLCAnLW1hJywgJzIwMCcsICctaW1hZScsICc8aW5maWxlLm1hZT4nLCAnLW9tYWUnLCAnPG91dGZpbGUubWFlPic=

>  <r_lp_tautomer_probability>  (244) 
1

>  <r_epik_Ionization_Penalty>  (244) 
0.898579

>  <r_epik_Ionization_Penalty_Charging>  (244) 
0.869077

>  <r_epik_Ionization_Penalty_Neutral>  (244) 
0.0295018

>  <r_epik_State_Penalty>  (244) 
0.94629

>  <r_epik_Charging_Adjusted_Penalty>  (244) 
1.81537

>  <i_epik_Tot_Q>  (244) 
0

>  <i_epik_Tot_abs_Q>  (244) 
2

>  <s_lp_Force_Field>  (244) 
OPLS3e

>  <r_lp_Energy>  (244) 
58.4818

>  <b_lp_Chiralities_Consistent>  (244) 
1

>  <s_lp_Variant>  (244) 
56:0-2

>  <s_i_glide_gridfile>  (244) 
pfpi4k_grid

>  <i_i_glide_lignum>  (244) 
20

>  <i_i_glide_rotatable_bonds>  (244) 
8

>  <r_i_docking_score>  (244) 
-1.25282

>  <r_i_glide_ligand_efficiency>  (244) 
-0.0379643

>  <r_i_glide_ligand_efficiency_sa>  (244) 
-0.121772

>  <r_i_glide_ligand_efficiency_ln>  (244) 
-0.278621

>  <r_i_glide_gscore>  (244) 
-1.25282

>  <r_i_glide_lipo>  (244) 
-0.124113

>  <r_i_glide_hbond>  (244) 
-0.0925242

>  <r_i_glide_metal>  (244) 
-0

>  <r_i_glide_rewards>  (244) 
-0.476093

>  <r_i_glide_evdw>  (244) 
-14.0734

>  <r_i_glide_ecoul>  (244) 
-1.9623

>  <r_i_glide_erotb>  (244) 
0.578721

>  <r_i_glide_esite>  (244) 
-0.1408

>  <r_i_glide_emodel>  (244) 
-14.0803

>  <r_i_glide_energy>  (244) 
-16.0357

>  <r_i_glide_einternal>  (244) 
6.48303

>  <r_i_glide_intrahb_reward>  (244) 
-0

>  <i_i_glide_confnum>  (244) 
1

>  <i_i_glide_posenum>  (244) 
17

>  <r_i_glide_eff_state_penalty>  (244) 
0

>  <ligand_id>  (244) 
56

>  <original_smiles>  (244) 
COc1cncc(N2Cc3cc(COc4ccc(OC(C)C(=O)O)c(F)c4)nn3C(C)C2)c1

>  <smiles>  (244) 
[H]c1nc([H])c(N2C([H])([H])c3c([H])c(C([H])([H])Oc4c([H])c([H])c(OC([H])(C(=O)[O-])C([H])([H])[H])c(F)c4[H])[n+]([H])n3C([H])(C([H])([H])[H])C2([H])[H])c([H])c1OC([H])([H])[H]

$$$$
56:1:2
     RDKit          3D

 58 61  0  0  1  0  0  0  0  0999 V2000
    3.7020   -8.8034    1.2578 C   0  0  0  0  0  0  0  0  0  0  0  0
    3.7562   -7.3723    1.3532 O   0  0  0  0  0  0  0  0  0  0  0  0
    2.9221   -6.7789    2.2847 C   0  0  0  0  0  0  0  0  0  0  0  0
    2.0943   -7.5402    3.1415 C   0  0  0  0  0  0  0  0  0  0  0  0
    1.2651   -7.0071    4.0540 N   0  0  0  0  0  0  0  0  0  0  0  0
    1.2286   -5.6700    4.1647 C   0  0  0  0  0  0  0  0  0  0  0  0
    1.9895   -4.7779    3.3712 C   0  0  0  0  0  0  0  0  0  0  0  0
    1.8834   -3.3773    3.5454 N   0  0  0  0  0  0  0  0  0  0  0  0
    2.9182   -2.4900    2.9857 C   0  0  0  0  0  0  0  0  0  0  0  0
    2.7567   -1.0602    3.3873 C   0  0  0  0  0  0  0  0  0  0  0  0
    3.4124    0.1277    3.0565 C   0  0  0  0  0  0  0  0  0  0  0  0
    2.8456    1.1858    3.7645 C   0  0  0  0  0  0  0  0  0  0  0  0
    2.9963    2.6722    3.6433 C   0  0  0  0  0  0  0  0  0  0  0  0
    2.0238    3.3865    4.3820 O   0  0  0  0  0  0  0  0  0  0  0  0
    0.7051    3.3026    3.9782 C   0  0  0  0  0  0  0  0  0  0  0  0
   -0.0861    4.4130    4.2593 C   0  0  0  0  0  0  0  0  0  0  0  0
   -1.4575    4.3331    3.9954 C   0  0  0  0  0  0  0  0  0  0  0  0
   -2.0973    3.2411    3.3506 C   0  0  0  0  0  0  0  0  0  0  0  0
   -3.4159    3.2481    2.9369 O   0  0  0  0  0  0  0  0  0  0  0  0
   -3.7977    4.1975    1.9144 C   0  0  2  0  0  0  0  0  0  0  0  0
   -2.9090    5.4658    1.8366 C   0  0  0  0  0  0  0  0  0  0  0  0
   -5.2180    4.6751    2.0784 C   0  0  0  0  0  0  0  0  0  0  0  0
   -6.0090    3.7929    2.4573 O   0  0  0  0  0  0  0  0  0  0  0  0
   -5.5095    5.8777    2.0489 O   0  0  0  0  0  0  0  0  0  0  0  0
   -1.3028    2.1293    3.0895 C   0  0  0  0  0  0  0  0  0  0  0  0
   -1.7848    0.9842    2.5634 F   0  0  0  0  0  0  0  0  0  0  0  0
    0.0576    2.1925    3.3537 C   0  0  0  0  0  0  0  0  0  0  0  0
    1.9384    0.5909    4.5898 N   0  0  0  0  0  0  0  0  0  0  0  0
    1.8202   -0.6986    4.2959 N   0  0  0  0  0  0  0  0  0  0  0  0
    0.8522   -1.5978    4.9328 C   0  0  1  0  0  0  0  0  0  0  0  0
   -0.4580   -0.9704    5.4693 C   0  0  0  0  0  0  0  0  0  0  0  0
    0.6071   -2.7722    3.9613 C   0  0  0  0  0  0  0  0  0  0  0  0
    2.8637   -5.3678    2.4170 C   0  0  0  0  0  0  0  0  0  0  0  0
    4.3972   -9.1741    0.5077 H   0  0  0  0  0  0  0  0  0  0  0  0
    2.7065   -9.1507    0.9703 H   0  0  0  0  0  0  0  0  0  0  0  0
    3.9674   -9.2929    2.1977 H   0  0  0  0  0  0  0  0  0  0  0  0
    2.0850   -8.6181    3.1063 H   0  0  0  0  0  0  0  0  0  0  0  0
    0.5632   -5.3302    4.9404 H   0  0  0  0  0  0  0  0  0  0  0  0
    3.8944   -2.8066    3.3567 H   0  0  0  0  0  0  0  0  0  0  0  0
    2.9170   -2.5551    1.8999 H   0  0  0  0  0  0  0  0  0  0  0  0
    4.2148    0.2333    2.3470 H   0  0  0  0  0  0  0  0  0  0  0  0
    3.9725    2.9310    4.0321 H   0  0  0  0  0  0  0  0  0  0  0  0
    2.9607    3.0423    2.6149 H   0  0  0  0  0  0  0  0  0  0  0  0
    0.3428    5.3401    4.6333 H   0  0  0  0  0  0  0  0  0  0  0  0
   -1.9600    5.2250    4.2260 H   0  0  0  0  0  0  0  0  0  0  0  0
   -3.8367    3.6245    0.9851 H   0  0  0  0  0  0  0  0  0  0  0  0
   -3.1643    6.1749    1.0501 H   0  0  0  0  0  0  0  0  0  0  0  0
   -1.8636    5.1739    1.6546 H   0  0  0  0  0  0  0  0  0  0  0  0
   -3.0197    5.9920    2.7434 H   0  0  0  0  0  0  0  0  0  0  0  0
    0.4796    1.2764    3.0149 H   0  0  0  0  0  0  0  0  0  0  0  0
    1.3961   -1.9729    5.7910 H   0  0  0  0  0  0  0  0  0  0  0  0
   -1.0537   -1.7316    5.9836 H   0  0  0  0  0  0  0  0  0  0  0  0
   -1.0883   -0.5533    4.6838 H   0  0  0  0  0  0  0  0  0  0  0  0
   -0.2638   -0.1920    6.2066 H   0  0  0  0  0  0  0  0  0  0  0  0
    0.1288   -2.4019    3.0542 H   0  0  0  0  0  0  0  0  0  0  0  0
   -0.0957   -3.4808    4.3983 H   0  0  0  0  0  0  0  0  0  0  0  0
    3.4753   -4.7421    1.7818 H   0  0  0  0  0  0  0  0  0  0  0  0
    1.1836    1.0727    5.0612 H   0  0  0  0  0  0  0  0  0  0  0  0
  1  2  1  0
  1 34  1  0
  1 35  1  0
  1 36  1  0
  2  3  1  0
  3 33  2  0
  3  4  1  0
  4  5  2  0
  4 37  1  0
  5  6  1  0
  6  7  2  0
  6 38  1  0
  7  8  1  0
  7 33  1  0
  8 32  1  0
  8  9  1  0
  9 10  1  0
  9 39  1  0
  9 40  1  0
 10 29  1  0
 10 11  2  0
 11 12  1  0
 11 41  1  0
 12 13  1  0
 12 28  2  0
 13 14  1  0
 13 42  1  0
 13 43  1  0
 14 15  1  0
 15 27  1  0
 15 16  2  0
 16 17  1  0
 16 44  1  0
 17 18  2  0
 17 45  1  0
 18 19  1  0
 18 25  1  0
 19 20  1  0
 20 21  1  0
 20 22  1  0
 20 46  1  6
 21 47  1  0
 21 48  1  0
 21 49  1  0
 22 23  2  0
 22 24  1  0
 25 26  1  0
 25 27  2  0
 27 50  1  0
 28 29  1  0
 28 58  1  0
 29 30  1  0
 30 31  1  0
 30 32  1  0
 30 51  1  1
 31 52  1  0
 31 53  1  0
 31 54  1  0
 32 55  1  0
 32 56  1  0
 33 57  1  0
M  CHG  2  24  -1  28   1
M  END
>  <i_m_ct_stereo_status>  (245) 
1

>  <s_m_source_file>  (245) 
/var/tmp/pbs.5102264.sched01/tmp148in4kv/69urs0mf0h.sdf

>  <i_m_source_file_index>  (245) 
20

>  <i_lp_mmshare_version>  (245) 
48012

>  <i_f3d_flags>  (245) 
0

>  <s_epik_input>  (245) 
W0NIM11PYzFbY0hdbltjSF1jKFtjSF0xKU4oW0NIMl0yKVtDSDJdW0NASF0oW0NIM10pbihjMjMpbmMoW2NIXTMpW0NIMl1PYzRbY0hdW2NIXWMoYyhGKVtjSF00KU9bQ0BIXShbQ0gzXSlDKD1PKVtPSF0=

>  <s_epik_cmdline>  (245) 
J2VwaWtfcHl0aG9uJywgJy1waHQnLCAnMi4wJywgJy1waCcsICc3LjAnLCAnLXRuJywgJzgnLCAnLW1hJywgJzIwMCcsICctaW1hZScsICc8aW5maWxlLm1hZT4nLCAnLW9tYWUnLCAnPG91dGZpbGUubWFlPic=

>  <r_lp_tautomer_probability>  (245) 
1

>  <r_epik_Ionization_Penalty>  (245) 
0.898579

>  <r_epik_Ionization_Penalty_Charging>  (245) 
0.869077

>  <r_epik_Ionization_Penalty_Neutral>  (245) 
0.0295018

>  <r_epik_State_Penalty>  (245) 
0.94629

>  <r_epik_Charging_Adjusted_Penalty>  (245) 
1.81537

>  <i_epik_Tot_Q>  (245) 
0

>  <i_epik_Tot_abs_Q>  (245) 
2

>  <s_lp_Force_Field>  (245) 
OPLS3e

>  <r_lp_Energy>  (245) 
58.4818

>  <b_lp_Chiralities_Consistent>  (245) 
1

>  <s_lp_Variant>  (245) 
56:0-2

>  <s_i_glide_gridfile>  (245) 
pfpi4k_grid

>  <i_i_glide_lignum>  (245) 
20

>  <i_i_glide_rotatable_bonds>  (245) 
8

>  <r_i_docking_score>  (245) 
1.57918

>  <r_i_glide_ligand_efficiency>  (245) 
0.0478538

>  <r_i_glide_ligand_efficiency_sa>  (245) 
0.153493

>  <r_i_glide_ligand_efficiency_ln>  (245) 
0.351201

>  <r_i_glide_gscore>  (245) 
1.57918

>  <r_i_glide_lipo>  (245) 
-0.0665525

>  <r_i_glide_hbond>  (245) 
0

>  <r_i_glide_metal>  (245) 
-0

>  <r_i_glide_rewards>  (245) 
-0.316013

>  <r_i_glide_evdw>  (245) 
-2.84522

>  <r_i_glide_ecoul>  (245) 
2.73461

>  <r_i_glide_erotb>  (245) 
0.578721

>  <r_i_glide_esite>  (245) 
-0.0419299

>  <r_i_glide_emodel>  (245) 
15.7394

>  <r_i_glide_energy>  (245) 
-0.110603

>  <r_i_glide_einternal>  (245) 
12.1724

>  <r_i_glide_intrahb_reward>  (245) 
-0

>  <i_i_glide_confnum>  (245) 
1

>  <i_i_glide_posenum>  (245) 
2

>  <r_i_glide_eff_state_penalty>  (245) 
0

>  <ligand_id>  (245) 
56

>  <original_smiles>  (245) 
COc1cncc(N2Cc3cc(COc4ccc(OC(C)C(=O)O)c(F)c4)nn3C(C)C2)c1

>  <smiles>  (245) 
[H]c1nc([H])c(N2C([H])([H])c3c([H])c(C([H])([H])Oc4c([H])c([H])c(OC([H])(C(=O)[O-])C([H])([H])[H])c(F)c4[H])[n+]([H])n3C([H])(C([H])([H])[H])C2([H])[H])c([H])c1OC([H])([H])[H]

$$$$
56:2:0
     RDKit          3D

 58 61  0  0  1  0  0  0  0  0999 V2000
   -2.1223    2.7741    6.5065 C   0  0  0  0  0  0  0  0  0  0  0  0
   -1.2069    1.7225    6.1659 O   0  0  0  0  0  0  0  0  0  0  0  0
   -0.5619    1.8234    4.9563 C   0  0  0  0  0  0  0  0  0  0  0  0
   -0.8694    2.8604    4.0460 C   0  0  0  0  0  0  0  0  0  0  0  0
   -0.2068    2.9318    2.8788 N   0  0  0  0  0  0  0  0  0  0  0  0
    0.7410    2.0511    2.5043 C   0  0  0  0  0  0  0  0  0  0  0  0
    1.1286    0.9784    3.3365 C   0  0  0  0  0  0  0  0  0  0  0  0
    2.1501    0.0847    2.9253 N   0  0  0  0  0  0  0  0  0  0  0  0
    2.4788   -0.0227    1.4851 C   0  0  0  0  0  0  0  0  0  0  0  0
    3.6147   -0.9574    1.1547 C   0  0  0  0  0  0  0  0  0  0  0  0
    4.1441   -1.4270   -0.0242 C   0  0  0  0  0  0  0  0  0  0  0  0
    5.2392   -2.2523    0.3949 C   0  0  0  0  0  0  0  0  0  0  0  0
    6.0256   -3.2283   -0.4453 C   0  0  0  0  0  0  0  0  0  0  0  0
    6.3105   -4.4865    0.1781 O   0  0  0  0  0  0  0  0  0  0  0  0
    5.2905   -5.2751    0.6834 C   0  0  0  0  0  0  0  0  0  0  0  0
    4.0281   -4.7957    1.0847 C   0  0  0  0  0  0  0  0  0  0  0  0
    3.1311   -5.5975    1.7555 C   0  0  0  0  0  0  0  0  0  0  0  0
    3.3444   -6.9810    1.8947 C   0  0  0  0  0  0  0  0  0  0  0  0
    2.3713   -7.8239    2.3921 O   0  0  0  0  0  0  0  0  0  0  0  0
    1.1741   -7.2304    2.9041 C   0  0  2  0  0  0  0  0  0  0  0  0
    0.5032   -8.2904    3.7867 C   0  0  0  0  0  0  0  0  0  0  0  0
    0.1762   -6.7345    1.8081 C   0  0  0  0  0  0  0  0  0  0  0  0
    0.5679   -6.2770    0.7114 O   0  0  0  0  0  0  0  0  0  0  0  0
   -1.0244   -6.7458    2.1544 O   0  0  0  0  0  0  0  0  0  0  0  0
    4.5779   -7.5110    1.4486 C   0  0  0  0  0  0  0  0  0  0  0  0
    4.8246   -8.8392    1.5532 F   0  0  0  0  0  0  0  0  0  0  0  0
    5.5578   -6.6498    0.8849 C   0  0  0  0  0  0  0  0  0  0  0  0
    5.4261   -2.2021    1.6987 N   0  0  0  0  0  0  0  0  0  0  0  0
    4.3531   -1.5225    2.1619 N   0  0  0  0  0  0  0  0  0  0  0  0
    4.1334   -1.3111    3.5692 C   0  0  1  0  0  0  0  0  0  0  0  0
    5.0822   -0.1955    4.0041 C   0  0  0  0  0  0  0  0  0  0  0  0
    2.6372   -0.9761    3.8160 C   0  0  0  0  0  0  0  0  0  0  0  0
    0.4411    0.8837    4.5890 C   0  0  0  0  0  0  0  0  0  0  0  0
   -2.5896    2.6107    7.4753 H   0  0  0  0  0  0  0  0  0  0  0  0
   -2.9330    2.8582    5.7809 H   0  0  0  0  0  0  0  0  0  0  0  0
   -1.6152    3.7402    6.5487 H   0  0  0  0  0  0  0  0  0  0  0  0
   -1.6023    3.6306    4.1707 H   0  0  0  0  0  0  0  0  0  0  0  0
    1.1413    2.2731    1.5193 H   0  0  0  0  0  0  0  0  0  0  0  0
    1.5795   -0.2691    0.9232 H   0  0  0  0  0  0  0  0  0  0  0  0
    2.8180    0.9418    1.1228 H   0  0  0  0  0  0  0  0  0  0  0  0
    3.7650   -1.2731   -1.0195 H   0  0  0  0  0  0  0  0  0  0  0  0
    5.5098   -3.4430   -1.3784 H   0  0  0  0  0  0  0  0  0  0  0  0
    6.9757   -2.7736   -0.7331 H   0  0  0  0  0  0  0  0  0  0  0  0
    3.6323   -3.8026    0.9678 H   0  0  0  0  0  0  0  0  0  0  0  0
    2.2448   -5.0737    2.0737 H   0  0  0  0  0  0  0  0  0  0  0  0
    1.4236   -6.4067    3.5744 H   0  0  0  0  0  0  0  0  0  0  0  0
   -0.3902   -7.9031    4.2809 H   0  0  0  0  0  0  0  0  0  0  0  0
    1.1757   -8.6465    4.5668 H   0  0  0  0  0  0  0  0  0  0  0  0
    0.2066   -9.1431    3.1770 H   0  0  0  0  0  0  0  0  0  0  0  0
    6.5179   -7.0567    0.5953 H   0  0  0  0  0  0  0  0  0  0  0  0
    4.3652   -2.2289    4.1191 H   0  0  0  0  0  0  0  0  0  0  0  0
    4.9622    0.0520    5.0542 H   0  0  0  0  0  0  0  0  0  0  0  0
    4.8966    0.6949    3.4030 H   0  0  0  0  0  0  0  0  0  0  0  0
    6.1151   -0.4957    3.8219 H   0  0  0  0  0  0  0  0  0  0  0  0
    2.5222   -0.7207    4.8657 H   0  0  0  0  0  0  0  0  0  0  0  0
    2.0185   -1.8584    3.6336 H   0  0  0  0  0  0  0  0  0  0  0  0
    0.6716    0.0912    5.2862 H   0  0  0  0  0  0  0  0  0  0  0  0
   -0.4096    3.6797    2.2109 H   0  0  0  0  0  0  0  0  0  0  0  0
  1  2  1  0
  1 34  1  0
  1 35  1  0
  1 36  1  0
  2  3  1  0
  3 33  2  0
  3  4  1  0
  4  5  2  0
  4 37  1  0
  5  6  1  0
  5 58  1  0
  6  7  2  0
  6 38  1  0
  7  8  1  0
  7 33  1  0
  8 32  1  0
  8  9  1  0
  9 10  1  0
  9 39  1  0
  9 40  1  0
 10 29  1  0
 10 11  2  0
 11 12  1  0
 11 41  1  0
 12 13  1  0
 12 28  2  0
 13 14  1  0
 13 42  1  0
 13 43  1  0
 14 15  1  0
 15 27  1  0
 15 16  2  0
 16 17  1  0
 16 44  1  0
 17 18  2  0
 17 45  1  0
 18 19  1  0
 18 25  1  0
 19 20  1  0
 20 21  1  0
 20 22  1  0
 20 46  1  1
 21 47  1  0
 21 48  1  0
 21 49  1  0
 22 23  2  0
 22 24  1  0
 25 26  1  0
 25 27  2  0
 27 50  1  0
 28 29  1  0
 29 30  1  0
 30 31  1  0
 30 32  1  0
 30 51  1  1
 31 52  1  0
 31 53  1  0
 31 54  1  0
 32 55  1  0
 32 56  1  0
 33 57  1  0
M  CHG  2   5   1  24  -1
M  END
>  <i_m_ct_stereo_status>  (246) 
1

>  <s_m_source_file>  (246) 
/var/tmp/pbs.5102264.sched01/tmp148in4kv/69urs0mf0h.sdf

>  <i_m_source_file_index>  (246) 
21

>  <i_lp_mmshare_version>  (246) 
48012

>  <i_f3d_flags>  (246) 
0

>  <s_epik_input>  (246) 
W0NIM11PYzFbY0hdbltjSF1jKFtjSF0xKU4oW0NIMl0yKVtDSDJdW0NASF0oW0NIM10pbihjMjMpbmMoW2NIXTMpW0NIMl1PYzRbY0hdW2NIXWMoYyhGKVtjSF00KU9bQ0BIXShbQ0gzXSlDKD1PKVtPSF0=

>  <s_epik_cmdline>  (246) 
J2VwaWtfcHl0aG9uJywgJy1waHQnLCAnMi4wJywgJy1waCcsICc3LjAnLCAnLXRuJywgJzgnLCAnLW1hJywgJzIwMCcsICctaW1hZScsICc8aW5maWxlLm1hZT4nLCAnLW9tYWUnLCAnPG91dGZpbGUubWFlPic=

>  <r_epik_Ionization_Penalty>  (246) 
1.65576

>  <r_epik_Ionization_Penalty_Charging>  (246) 
1.55375

>  <r_epik_Ionization_Penalty_Neutral>  (246) 
0.102013

>  <r_epik_State_Penalty>  (246) 
1.78255

>  <r_epik_Charging_Adjusted_Penalty>  (246) 
3.3363

>  <i_epik_Tot_Q>  (246) 
0

>  <i_epik_Tot_abs_Q>  (246) 
2

>  <s_lp_Force_Field>  (246) 
OPLS3e

>  <r_lp_Energy>  (246) 
59.2644

>  <b_lp_Chiralities_Consistent>  (246) 
1

>  <s_lp_Variant>  (246) 
56:0-3

>  <s_i_glide_gridfile>  (246) 
pfpi4k_grid

>  <i_i_glide_lignum>  (246) 
21

>  <i_i_glide_rotatable_bonds>  (246) 
8

>  <r_i_docking_score>  (246) 
-4.10756

>  <r_i_glide_ligand_efficiency>  (246) 
-0.124472

>  <r_i_glide_ligand_efficiency_sa>  (246) 
-0.399247

>  <r_i_glide_ligand_efficiency_ln>  (246) 
-0.913501

>  <r_i_glide_gscore>  (246) 
-4.10756

>  <r_i_glide_lipo>  (246) 
-0.604419

>  <r_i_glide_hbond>  (246) 
-0.573683

>  <r_i_glide_metal>  (246) 
-0

>  <r_i_glide_rewards>  (246) 
-0.324508

>  <r_i_glide_evdw>  (246) 
-25.7229

>  <r_i_glide_ecoul>  (246) 
-11.0936

>  <r_i_glide_erotb>  (246) 
0.578721

>  <r_i_glide_esite>  (246) 
-0.233497

>  <r_i_glide_emodel>  (246) 
-44.9289

>  <r_i_glide_energy>  (246) 
-36.8164

>  <r_i_glide_einternal>  (246) 
6.30614

>  <r_i_glide_intrahb_reward>  (246) 
-0

>  <i_i_glide_confnum>  (246) 
5

>  <i_i_glide_posenum>  (246) 
1

>  <r_i_glide_eff_state_penalty>  (246) 
0

>  <ligand_id>  (246) 
56

>  <original_smiles>  (246) 
COc1cncc(N2Cc3cc(COc4ccc(OC(C)C(=O)O)c(F)c4)nn3C(C)C2)c1

>  <smiles>  (246) 
[H]c1c([H])c(OC([H])(C(=O)[O-])C([H])([H])[H])c(F)c([H])c1OC([H])([H])c1nn2c(c1[H])C([H])([H])N(c1c([H])c(OC([H])([H])[H])c([H])[n+]([H])c1[H])C([H])([H])C2([H])C([H])([H])[H]

$$$$
56:2:1
     RDKit          3D

 58 61  0  0  1  0  0  0  0  0999 V2000
    3.0170   -0.0679   -3.8372 C   0  0  0  0  0  0  0  0  0  0  0  0
    3.3920   -1.3968   -4.1709 O   0  0  0  0  0  0  0  0  0  0  0  0
    3.8797   -2.2144   -3.1836 C   0  0  0  0  0  0  0  0  0  0  0  0
    4.4880   -3.4108   -3.5952 C   0  0  0  0  0  0  0  0  0  0  0  0
    5.0155   -4.2459   -2.6944 N   0  0  0  0  0  0  0  0  0  0  0  0
    4.9890   -4.0200   -1.3702 C   0  0  0  0  0  0  0  0  0  0  0  0
    4.3779   -2.8453   -0.8587 C   0  0  0  0  0  0  0  0  0  0  0  0
    4.3561   -2.6128    0.5363 N   0  0  0  0  0  0  0  0  0  0  0  0
    4.4442   -3.7633    1.4649 C   0  0  0  0  0  0  0  0  0  0  0  0
    4.4361   -3.3942    2.9327 C   0  0  0  0  0  0  0  0  0  0  0  0
    4.3777   -4.1260    4.0919 C   0  0  0  0  0  0  0  0  0  0  0  0
    4.4249   -3.1482    5.1248 C   0  0  0  0  0  0  0  0  0  0  0  0
    4.2726   -3.3244    6.6178 C   0  0  0  0  0  0  0  0  0  0  0  0
    4.0410   -2.1105    7.3392 O   0  0  0  0  0  0  0  0  0  0  0  0
    3.0256   -1.2639    6.9257 C   0  0  0  0  0  0  0  0  0  0  0  0
    2.0828   -1.5936    5.9294 C   0  0  0  0  0  0  0  0  0  0  0  0
    1.1695   -0.6384    5.4797 C   0  0  0  0  0  0  0  0  0  0  0  0
    1.1101    0.6412    6.0607 C   0  0  0  0  0  0  0  0  0  0  0  0
    0.1733    1.5812    5.6751 O   0  0  0  0  0  0  0  0  0  0  0  0
   -0.9522    1.1425    4.9071 C   0  0  2  0  0  0  0  0  0  0  0  0
   -1.7607    2.3808    4.5143 C   0  0  0  0  0  0  0  0  0  0  0  0
   -1.8427    0.2034    5.7412 C   0  0  0  0  0  0  0  0  0  0  0  0
   -2.1841    0.6010    6.8764 O   0  0  0  0  0  0  0  0  0  0  0  0
   -2.1501   -0.9121    5.2661 O   0  0  0  0  0  0  0  0  0  0  0  0
    2.0359    0.9705    7.0757 C   0  0  0  0  0  0  0  0  0  0  0  0
    2.0192    2.2054    7.6377 F   0  0  0  0  0  0  0  0  0  0  0  0
    2.9806    0.0231    7.5023 C   0  0  0  0  0  0  0  0  0  0  0  0
    4.5992   -1.9282    4.6388 N   0  0  0  0  0  0  0  0  0  0  0  0
    4.4898   -2.0839    3.3172 N   0  0  0  0  0  0  0  0  0  0  0  0
    4.5824   -0.9681    2.4129 C   0  0  1  0  0  0  0  0  0  0  0  0
    6.0613   -0.6287    2.2273 C   0  0  0  0  0  0  0  0  0  0  0  0
    3.8811   -1.3260    1.0786 C   0  0  0  0  0  0  0  0  0  0  0  0
    3.8113   -1.9422   -1.7976 C   0  0  0  0  0  0  0  0  0  0  0  0
    2.6347    0.4394   -4.7261 H   0  0  0  0  0  0  0  0  0  0  0  0
    3.8789    0.4960   -3.4794 H   0  0  0  0  0  0  0  0  0  0  0  0
    2.2317   -0.0299   -3.0831 H   0  0  0  0  0  0  0  0  0  0  0  0
    4.5718   -3.7168   -4.6254 H   0  0  0  0  0  0  0  0  0  0  0  0
    5.4424   -4.7928   -0.7726 H   0  0  0  0  0  0  0  0  0  0  0  0
    3.6467   -4.4821    1.2379 H   0  0  0  0  0  0  0  0  0  0  0  0
    5.3956   -4.2721    1.3080 H   0  0  0  0  0  0  0  0  0  0  0  0
    4.2763   -5.1920    4.1887 H   0  0  0  0  0  0  0  0  0  0  0  0
    3.4544   -4.0076    6.8232 H   0  0  0  0  0  0  0  0  0  0  0  0
    5.1741   -3.7885    7.0229 H   0  0  0  0  0  0  0  0  0  0  0  0
    2.0544   -2.5714    5.4600 H   0  0  0  0  0  0  0  0  0  0  0  0
    0.5345   -0.9417    4.6717 H   0  0  0  0  0  0  0  0  0  0  0  0
   -0.6381    0.6585    3.9850 H   0  0  0  0  0  0  0  0  0  0  0  0
   -2.6290    2.1056    3.9109 H   0  0  0  0  0  0  0  0  0  0  0  0
   -1.1405    3.0532    3.9223 H   0  0  0  0  0  0  0  0  0  0  0  0
   -2.1088    2.9237    5.3956 H   0  0  0  0  0  0  0  0  0  0  0  0
    3.7196    0.2993    8.2393 H   0  0  0  0  0  0  0  0  0  0  0  0
    4.0651   -0.1124    2.8465 H   0  0  0  0  0  0  0  0  0  0  0  0
    6.1857    0.1628    1.4942 H   0  0  0  0  0  0  0  0  0  0  0  0
    6.6171   -1.4972    1.8708 H   0  0  0  0  0  0  0  0  0  0  0  0
    6.4993   -0.3151    3.1807 H   0  0  0  0  0  0  0  0  0  0  0  0
    4.0239   -0.4990    0.3870 H   0  0  0  0  0  0  0  0  0  0  0  0
    2.8050   -1.4105    1.2411 H   0  0  0  0  0  0  0  0  0  0  0  0
    3.3077   -1.0574   -1.4546 H   0  0  0  0  0  0  0  0  0  0  0  0
    5.4432   -5.1112   -3.0223 H   0  0  0  0  0  0  0  0  0  0  0  0
  1  2  1  0
  1 34  1  0
  1 35  1  0
  1 36  1  0
  2  3  1  0
  3 33  2  0
  3  4  1  0
  4  5  2  0
  4 37  1  0
  5  6  1  0
  5 58  1  0
  6  7  2  0
  6 38  1  0
  7  8  1  0
  7 33  1  0
  8 32  1  0
  8  9  1  0
  9 10  1  0
  9 39  1  0
  9 40  1  0
 10 29  1  0
 10 11  2  0
 11 12  1  0
 11 41  1  0
 12 13  1  0
 12 28  2  0
 13 14  1  0
 13 42  1  0
 13 43  1  0
 14 15  1  0
 15 27  1  0
 15 16  2  0
 16 17  1  0
 16 44  1  0
 17 18  2  0
 17 45  1  0
 18 19  1  0
 18 25  1  0
 19 20  1  0
 20 21  1  0
 20 22  1  0
 20 46  1  6
 21 47  1  0
 21 48  1  0
 21 49  1  0
 22 23  2  0
 22 24  1  0
 25 26  1  0
 25 27  2  0
 27 50  1  0
 28 29  1  0
 29 30  1  0
 30 31  1  0
 30 32  1  0
 30 51  1  1
 31 52  1  0
 31 53  1  0
 31 54  1  0
 32 55  1  0
 32 56  1  0
 33 57  1  0
M  CHG  2   5   1  24  -1
M  END
>  <i_m_ct_stereo_status>  (247) 
1

>  <s_m_source_file>  (247) 
/var/tmp/pbs.5102264.sched01/tmp148in4kv/69urs0mf0h.sdf

>  <i_m_source_file_index>  (247) 
21

>  <i_lp_mmshare_version>  (247) 
48012

>  <i_f3d_flags>  (247) 
0

>  <s_epik_input>  (247) 
W0NIM11PYzFbY0hdbltjSF1jKFtjSF0xKU4oW0NIMl0yKVtDSDJdW0NASF0oW0NIM10pbihjMjMpbmMoW2NIXTMpW0NIMl1PYzRbY0hdW2NIXWMoYyhGKVtjSF00KU9bQ0BIXShbQ0gzXSlDKD1PKVtPSF0=

>  <s_epik_cmdline>  (247) 
J2VwaWtfcHl0aG9uJywgJy1waHQnLCAnMi4wJywgJy1waCcsICc3LjAnLCAnLXRuJywgJzgnLCAnLW1hJywgJzIwMCcsICctaW1hZScsICc8aW5maWxlLm1hZT4nLCAnLW9tYWUnLCAnPG91dGZpbGUubWFlPic=

>  <r_epik_Ionization_Penalty>  (247) 
1.65576

>  <r_epik_Ionization_Penalty_Charging>  (247) 
1.55375

>  <r_epik_Ionization_Penalty_Neutral>  (247) 
0.102013

>  <r_epik_State_Penalty>  (247) 
1.78255

>  <r_epik_Charging_Adjusted_Penalty>  (247) 
3.3363

>  <i_epik_Tot_Q>  (247) 
0

>  <i_epik_Tot_abs_Q>  (247) 
2

>  <s_lp_Force_Field>  (247) 
OPLS3e

>  <r_lp_Energy>  (247) 
59.2644

>  <b_lp_Chiralities_Consistent>  (247) 
1

>  <s_lp_Variant>  (247) 
56:0-3

>  <s_i_glide_gridfile>  (247) 
pfpi4k_grid

>  <i_i_glide_lignum>  (247) 
21

>  <i_i_glide_rotatable_bonds>  (247) 
8

>  <r_i_docking_score>  (247) 
-3.30573

>  <r_i_glide_ligand_efficiency>  (247) 
-0.100174

>  <r_i_glide_ligand_efficiency_sa>  (247) 
-0.321311

>  <r_i_glide_ligand_efficiency_ln>  (247) 
-0.735178

>  <r_i_glide_gscore>  (247) 
-3.30573

>  <r_i_glide_lipo>  (247) 
-0.609428

>  <r_i_glide_hbond>  (247) 
-0.259281

>  <r_i_glide_metal>  (247) 
-0

>  <r_i_glide_rewards>  (247) 
-0.333928

>  <r_i_glide_evdw>  (247) 
-25.2506

>  <r_i_glide_ecoul>  (247) 
-8.68998

>  <r_i_glide_erotb>  (247) 
0.578721

>  <r_i_glide_esite>  (247) 
-0.115793

>  <r_i_glide_emodel>  (247) 
-42.5711

>  <r_i_glide_energy>  (247) 
-33.9405

>  <r_i_glide_einternal>  (247) 
3.16513

>  <r_i_glide_intrahb_reward>  (247) 
-0

>  <i_i_glide_confnum>  (247) 
5

>  <i_i_glide_posenum>  (247) 
25

>  <r_i_glide_eff_state_penalty>  (247) 
0

>  <ligand_id>  (247) 
56

>  <original_smiles>  (247) 
COc1cncc(N2Cc3cc(COc4ccc(OC(C)C(=O)O)c(F)c4)nn3C(C)C2)c1

>  <smiles>  (247) 
[H]c1c([H])c(OC([H])(C(=O)[O-])C([H])([H])[H])c(F)c([H])c1OC([H])([H])c1nn2c(c1[H])C([H])([H])N(c1c([H])c(OC([H])([H])[H])c([H])[n+]([H])c1[H])C([H])([H])C2([H])C([H])([H])[H]

$$$$
56:2:2
     RDKit          3D

 58 61  0  0  1  0  0  0  0  0999 V2000
    3.1731   -0.0792   -5.3255 C   0  0  0  0  0  0  0  0  0  0  0  0
    3.7337   -0.0852   -4.0173 O   0  0  0  0  0  0  0  0  0  0  0  0
    3.4306   -1.1432   -3.1921 C   0  0  0  0  0  0  0  0  0  0  0  0
    2.7799   -2.3114   -3.6518 C   0  0  0  0  0  0  0  0  0  0  0  0
    2.4891   -3.3052   -2.8071 N   0  0  0  0  0  0  0  0  0  0  0  0
    2.8074   -3.2724   -1.4987 C   0  0  0  0  0  0  0  0  0  0  0  0
    3.4609   -2.1459   -0.9491 C   0  0  0  0  0  0  0  0  0  0  0  0
    3.7782   -2.1285    0.4410 N   0  0  0  0  0  0  0  0  0  0  0  0
    3.7737   -3.3963    1.1870 C   0  0  0  0  0  0  0  0  0  0  0  0
    4.2056   -3.2887    2.6281 C   0  0  0  0  0  0  0  0  0  0  0  0
    4.2082   -4.1795    3.6696 C   0  0  0  0  0  0  0  0  0  0  0  0
    4.7012   -3.4415    4.7980 C   0  0  0  0  0  0  0  0  0  0  0  0
    4.7500   -3.7938    6.2289 C   0  0  0  0  0  0  0  0  0  0  0  0
    4.4946   -2.7466    7.1820 O   0  0  0  0  0  0  0  0  0  0  0  0
    3.3988   -1.9190    7.0063 C   0  0  0  0  0  0  0  0  0  0  0  0
    2.5224   -2.0053    5.9055 C   0  0  0  0  0  0  0  0  0  0  0  0
    1.5915   -1.0177    5.6998 C   0  0  0  0  0  0  0  0  0  0  0  0
    1.3196   -0.0084    6.6679 C   0  0  0  0  0  0  0  0  0  0  0  0
    0.2156    0.8298    6.5847 O   0  0  0  0  0  0  0  0  0  0  0  0
   -0.7472    0.6218    5.5219 C   0  0  2  0  0  0  0  0  0  0  0  0
   -1.7820    1.7664    5.6174 C   0  0  0  0  0  0  0  0  0  0  0  0
   -1.4614   -0.7564    5.4715 C   0  0  0  0  0  0  0  0  0  0  0  0
   -1.1218   -1.6386    6.2647 O   0  0  0  0  0  0  0  0  0  0  0  0
   -2.3258   -0.9484    4.5975 O   0  0  0  0  0  0  0  0  0  0  0  0
    2.1654    0.0667    7.8000 C   0  0  0  0  0  0  0  0  0  0  0  0
    1.9487    1.0078    8.7556 F   0  0  0  0  0  0  0  0  0  0  0  0
    3.1962   -0.8792    7.9521 C   0  0  0  0  0  0  0  0  0  0  0  0
    4.9609   -2.1632    4.4386 N   0  0  0  0  0  0  0  0  0  0  0  0
    4.5993   -2.0970    3.1503 N   0  0  0  0  0  0  0  0  0  0  0  0
    4.6913   -0.8686    2.4077 C   0  0  1  0  0  0  0  0  0  0  0  0
    6.1133   -0.7246    1.9137 C   0  0  0  0  0  0  0  0  0  0  0  0
    3.6800   -0.8746    1.2180 C   0  0  0  0  0  0  0  0  0  0  0  0
    3.7786   -1.0771   -1.8150 C   0  0  0  0  0  0  0  0  0  0  0  0
    3.4724    0.7842   -5.9320 H   0  0  0  0  0  0  0  0  0  0  0  0
    2.0845   -0.0837   -5.2786 H   0  0  0  0  0  0  0  0  0  0  0  0
    3.4946   -0.9527   -5.8856 H   0  0  0  0  0  0  0  0  0  0  0  0
    2.4721   -2.5132   -4.6739 H   0  0  0  0  0  0  0  0  0  0  0  0
    2.4958   -4.1576   -0.9614 H   0  0  0  0  0  0  0  0  0  0  0  0
    2.8024   -3.9011    1.1308 H   0  0  0  0  0  0  0  0  0  0  0  0
    4.5114   -4.0407    0.7311 H   0  0  0  0  0  0  0  0  0  0  0  0
    3.8933   -5.2064    3.6585 H   0  0  0  0  0  0  0  0  0  0  0  0
    4.0297   -4.5884    6.4097 H   0  0  0  0  0  0  0  0  0  0  0  0
    5.7408   -4.2291    6.4784 H   0  0  0  0  0  0  0  0  0  0  0  0
    2.5883   -2.8432    5.2091 H   0  0  0  0  0  0  0  0  0  0  0  0
    1.0056   -1.0978    4.7901 H   0  0  0  0  0  0  0  0  0  0  0  0
   -0.2312    0.7316    4.5656 H   0  0  0  0  0  0  0  0  0  0  0  0
   -2.4984    1.6920    4.8000 H   0  0  0  0  0  0  0  0  0  0  0  0
   -1.2896    2.7324    5.5564 H   0  0  0  0  0  0  0  0  0  0  0  0
   -2.3091    1.6982    6.5673 H   0  0  0  0  0  0  0  0  0  0  0  0
    3.8754   -0.7914    8.8011 H   0  0  0  0  0  0  0  0  0  0  0  0
    4.4407   -0.0290    3.0611 H   0  0  0  0  0  0  0  0  0  0  0  0
    6.1624    0.1533    1.2813 H   0  0  0  0  0  0  0  0  0  0  0  0
    6.4097   -1.6204    1.3551 H   0  0  0  0  0  0  0  0  0  0  0  0
    6.7884   -0.6325    2.7735 H   0  0  0  0  0  0  0  0  0  0  0  0
    3.8015    0.0226    0.6084 H   0  0  0  0  0  0  0  0  0  0  0  0
    2.6672   -0.7965    1.6102 H   0  0  0  0  0  0  0  0  0  0  0  0
    4.2913   -0.1942   -1.4568 H   0  0  0  0  0  0  0  0  0  0  0  0
    2.0150   -4.1367   -3.1597 H   0  0  0  0  0  0  0  0  0  0  0  0
  1  2  1  0
  1 34  1  0
  1 35  1  0
  1 36  1  0
  2  3  1  0
  3 33  2  0
  3  4  1  0
  4  5  2  0
  4 37  1  0
  5  6  1  0
  5 58  1  0
  6  7  2  0
  6 38  1  0
  7  8  1  0
  7 33  1  0
  8 32  1  0
  8  9  1  0
  9 10  1  0
  9 39  1  0
  9 40  1  0
 10 29  1  0
 10 11  2  0
 11 12  1  0
 11 41  1  0
 12 13  1  0
 12 28  2  0
 13 14  1  0
 13 42  1  0
 13 43  1  0
 14 15  1  0
 15 27  1  0
 15 16  2  0
 16 17  1  0
 16 44  1  0
 17 18  2  0
 17 45  1  0
 18 19  1  0
 18 25  1  0
 19 20  1  0
 20 21  1  0
 20 22  1  0
 20 46  1  6
 21 47  1  0
 21 48  1  0
 21 49  1  0
 22 23  2  0
 22 24  1  0
 25 26  1  0
 25 27  2  0
 27 50  1  0
 28 29  1  0
 29 30  1  0
 30 31  1  0
 30 32  1  0
 30 51  1  1
 31 52  1  0
 31 53  1  0
 31 54  1  0
 32 55  1  0
 32 56  1  0
 33 57  1  0
M  CHG  2   5   1  24  -1
M  END
>  <i_m_ct_stereo_status>  (248) 
1

>  <s_m_source_file>  (248) 
/var/tmp/pbs.5102264.sched01/tmp148in4kv/69urs0mf0h.sdf

>  <i_m_source_file_index>  (248) 
21

>  <i_lp_mmshare_version>  (248) 
48012

>  <i_f3d_flags>  (248) 
0

>  <s_epik_input>  (248) 
W0NIM11PYzFbY0hdbltjSF1jKFtjSF0xKU4oW0NIMl0yKVtDSDJdW0NASF0oW0NIM10pbihjMjMpbmMoW2NIXTMpW0NIMl1PYzRbY0hdW2NIXWMoYyhGKVtjSF00KU9bQ0BIXShbQ0gzXSlDKD1PKVtPSF0=

>  <s_epik_cmdline>  (248) 
J2VwaWtfcHl0aG9uJywgJy1waHQnLCAnMi4wJywgJy1waCcsICc3LjAnLCAnLXRuJywgJzgnLCAnLW1hJywgJzIwMCcsICctaW1hZScsICc8aW5maWxlLm1hZT4nLCAnLW9tYWUnLCAnPG91dGZpbGUubWFlPic=

>  <r_epik_Ionization_Penalty>  (248) 
1.65576

>  <r_epik_Ionization_Penalty_Charging>  (248) 
1.55375

>  <r_epik_Ionization_Penalty_Neutral>  (248) 
0.102013

>  <r_epik_State_Penalty>  (248) 
1.78255

>  <r_epik_Charging_Adjusted_Penalty>  (248) 
3.3363

>  <i_epik_Tot_Q>  (248) 
0

>  <i_epik_Tot_abs_Q>  (248) 
2

>  <s_lp_Force_Field>  (248) 
OPLS3e

>  <r_lp_Energy>  (248) 
59.2644

>  <b_lp_Chiralities_Consistent>  (248) 
1

>  <s_lp_Variant>  (248) 
56:0-3

>  <s_i_glide_gridfile>  (248) 
pfpi4k_grid

>  <i_i_glide_lignum>  (248) 
21

>  <i_i_glide_rotatable_bonds>  (248) 
8

>  <r_i_docking_score>  (248) 
-2.79416

>  <r_i_glide_ligand_efficiency>  (248) 
-0.0846716

>  <r_i_glide_ligand_efficiency_sa>  (248) 
-0.271587

>  <r_i_glide_ligand_efficiency_ln>  (248) 
-0.621408

>  <r_i_glide_gscore>  (248) 
-2.79416

>  <r_i_glide_lipo>  (248) 
-0.647423

>  <r_i_glide_hbond>  (248) 
-0.0297862

>  <r_i_glide_metal>  (248) 
-0

>  <r_i_glide_rewards>  (248) 
-0.344796

>  <r_i_glide_evdw>  (248) 
-25.1744

>  <r_i_glide_ecoul>  (248) 
-6.73223

>  <r_i_glide_erotb>  (248) 
0.578721

>  <r_i_glide_esite>  (248) 
-0.0823269

>  <r_i_glide_emodel>  (248) 
-34.5504

>  <r_i_glide_energy>  (248) 
-31.9066

>  <r_i_glide_einternal>  (248) 
6.76722

>  <r_i_glide_intrahb_reward>  (248) 
-0

>  <i_i_glide_confnum>  (248) 
5

>  <i_i_glide_posenum>  (248) 
31

>  <r_i_glide_eff_state_penalty>  (248) 
0

>  <ligand_id>  (248) 
56

>  <original_smiles>  (248) 
COc1cncc(N2Cc3cc(COc4ccc(OC(C)C(=O)O)c(F)c4)nn3C(C)C2)c1

>  <smiles>  (248) 
[H]c1c([H])c(OC([H])(C(=O)[O-])C([H])([H])[H])c(F)c([H])c1OC([H])([H])c1nn2c(c1[H])C([H])([H])N(c1c([H])c(OC([H])([H])[H])c([H])[n+]([H])c1[H])C([H])([H])C2([H])C([H])([H])[H]

$$$$
57:0:0
     RDKit          3D

 54 56  0  0  1  0  0  0  0  0999 V2000
    5.4692   -4.0635    3.4400 C   0  0  0  0  0  0  0  0  0  0  0  0
    4.9710   -3.0213    4.4741 C   0  0  0  0  0  0  0  0  0  0  0  0
    4.4538   -3.7475    5.7388 C   0  0  0  0  0  0  0  0  0  0  0  0
    3.9904   -1.9887    3.8502 C   0  0  2  0  0  0  0  0  0  0  0  0
    3.2864   -1.0377    4.8636 C   0  0  0  0  0  0  0  0  0  0  0  0
    2.0505   -0.5930    4.0697 C   0  0  1  0  0  0  0  0  0  0  0  0
    1.9603    0.8229    3.9313 O   0  0  0  0  0  0  0  0  0  0  0  0
    1.4304    1.5214    5.0287 C   0  0  2  0  0  0  0  0  0  0  0  0
    0.2535    0.9377    5.5242 O   0  0  0  0  0  0  0  0  0  0  0  0
   -0.8096    0.8460    4.5744 C   0  0  1  0  0  0  0  0  0  0  0  0
   -1.9057   -0.0052    5.2239 C   0  0  0  0  0  0  0  0  0  0  0  0
   -2.2307    0.4931    6.4986 O   0  0  0  0  0  0  0  0  0  0  0  0
   -1.2555    2.2605    4.1451 C   0  0  1  0  0  0  0  0  0  0  0  0
   -1.8448    2.9431    5.2299 O   0  0  0  0  0  0  0  0  0  0  0  0
   -0.0334    3.0483    3.6498 C   0  0  1  0  0  0  0  0  0  0  0  0
   -0.3644    4.3827    3.2932 O   0  0  0  0  0  0  0  0  0  0  0  0
    1.1626    2.9997    4.6432 C   0  0  1  0  0  0  0  0  0  0  0  0
    0.8911    3.7588    5.8215 O   0  0  0  0  0  0  0  0  0  0  0  0
    2.2412   -1.2132    2.6641 C   0  0  2  0  0  0  0  0  0  0  0  0
    1.0148   -1.2603    2.0082 O   0  0  0  0  0  0  0  0  0  0  0  0
    2.7677   -2.5719    3.1024 C   0  0  0  0  0  0  0  0  0  0  0  0
    3.4229   -0.6337    1.8396 C   0  0  1  0  0  0  0  0  0  0  0  0
    3.5487   -1.1486    0.3945 C   0  0  0  0  0  0  0  0  0  0  0  0
    3.3990    0.7756    1.7096 O   0  0  0  0  0  0  0  0  0  0  0  0
    4.5724   -1.1070    2.7315 C   0  0  0  0  0  0  0  0  0  0  0  0
    5.7630   -0.8068    2.5900 O   0  0  0  0  0  0  0  0  0  0  0  0
    4.6561   -4.7089    3.1089 H   0  0  0  0  0  0  0  0  0  0  0  0
    6.2171   -4.7136    3.8862 H   0  0  0  0  0  0  0  0  0  0  0  0
    5.9062   -3.6010    2.5699 H   0  0  0  0  0  0  0  0  0  0  0  0
    5.8208   -2.4403    4.8165 H   0  0  0  0  0  0  0  0  0  0  0  0
    3.5640   -4.3328    5.5128 H   0  0  0  0  0  0  0  0  0  0  0  0
    4.2288   -3.0590    6.5355 H   0  0  0  0  0  0  0  0  0  0  0  0
    5.2109   -4.4268    6.1212 H   0  0  0  0  0  0  0  0  0  0  0  0
    2.9034   -1.5371    5.7645 H   0  0  0  0  0  0  0  0  0  0  0  0
    3.9283   -0.2268    5.1814 H   0  0  0  0  0  0  0  0  0  0  0  0
    1.1544   -1.0338    4.5443 H   0  0  0  0  0  0  0  0  0  0  0  0
    2.1583    1.4894    5.8491 H   0  0  0  0  0  0  0  0  0  0  0  0
   -0.4779    0.3290    3.6780 H   0  0  0  0  0  0  0  0  0  0  0  0
   -2.8025   -0.0064    4.5987 H   0  0  0  0  0  0  0  0  0  0  0  0
   -1.6036   -1.0589    5.3298 H   0  0  0  0  0  0  0  0  0  0  0  0
   -2.3487    1.4596    6.4030 H   0  0  0  0  0  0  0  0  0  0  0  0
   -1.9944    2.1649    3.3251 H   0  0  0  0  0  0  0  0  0  0  0  0
   -1.1007    3.1903    5.8072 H   0  0  0  0  0  0  0  0  0  0  0  0
    0.3020    2.5527    2.7436 H   0  0  0  0  0  0  0  0  0  0  0  0
   -0.2024    4.5022    2.3088 H   0  0  0  0  0  0  0  0  0  0  0  0
    2.0437    3.4007    4.1528 H   0  0  0  0  0  0  0  0  0  0  0  0
    1.7044    3.8963    6.3221 H   0  0  0  0  0  0  0  0  0  0  0  0
    1.1346   -1.0719    1.0827 H   0  0  0  0  0  0  0  0  0  0  0  0
    3.0045   -3.2202    2.2686 H   0  0  0  0  0  0  0  0  0  0  0  0
    2.0617   -3.1038    3.7525 H   0  0  0  0  0  0  0  0  0  0  0  0
    3.5241   -2.2375    0.3171 H   0  0  0  0  0  0  0  0  0  0  0  0
    4.4720   -0.7940   -0.0765 H   0  0  0  0  0  0  0  0  0  0  0  0
    2.7409   -0.7504   -0.2135 H   0  0  0  0  0  0  0  0  0  0  0  0
    2.5383    1.0718    1.4259 H   0  0  0  0  0  0  0  0  0  0  0  0
  1  2  1  0
  1 27  1  0
  1 28  1  0
  1 29  1  0
  2  3  1  0
  4  2  1  1
  2 30  1  0
  3 31  1  0
  3 32  1  0
  3 33  1  0
  4 21  1  0
  4 25  1  0
  4  5  1  0
  5  6  1  0
  5 34  1  0
  5 35  1  0
  6  7  1  0
  6 19  1  0
  6 36  1  1
  7  8  1  0
  8 17  1  0
  8  9  1  0
  8 37  1  1
  9 10  1  0
 10 11  1  0
 10 13  1  0
 10 38  1  6
 11 12  1  0
 11 39  1  0
 11 40  1  0
 12 41  1  0
 13 14  1  0
 13 15  1  0
 13 42  1  6
 14 43  1  0
 15 16  1  0
 15 17  1  0
 15 44  1  6
 16 45  1  0
 17 18  1  0
 17 46  1  6
 18 47  1  0
 19 20  1  6
 19 21  1  0
 19 22  1  0
 20 48  1  0
 21 49  1  0
 21 50  1  0
 22 23  1  0
 22 24  1  6
 22 25  1  0
 23 51  1  0
 23 52  1  0
 23 53  1  0
 24 54  1  0
 25 26  2  0
M  END
>  <i_m_ct_stereo_status>  (249) 
1

>  <s_m_source_file>  (249) 
/var/tmp/pbs.5102264.sched01/tmp148in4kv/69urs0mf0h.sdf

>  <i_m_source_file_index>  (249) 
22

>  <i_lp_mmshare_version>  (249) 
48012

>  <i_f3d_flags>  (249) 
0

>  <s_epik_input>  (249) 
W0NIM11bQ0hdKFtDSDNdKVtDQF0xMltDSDJdW0NASF0oW0NAXShbT0hdKShbQ0gyXTEpW0NAQF0oW0NIM10pKFtPSF0pQzI9TylPW0NAQEhdM09bQ0BASF0oW0NIMl1bT0hdKVtDQEBIXShbT0hdKVtDQEBIXShbT0hdKVtDQEhdM1tPSF0=

>  <s_epik_cmdline>  (249) 
J2VwaWtfcHl0aG9uJywgJy1waHQnLCAnMi4wJywgJy1waCcsICc3LjAnLCAnLXRuJywgJzgnLCAnLW1hJywgJzIwMCcsICctaW1hZScsICc8aW5maWxlLm1hZT4nLCAnLW9tYWUnLCAnPG91dGZpbGUubWFlPic=

>  <r_lp_tautomer_probability>  (249) 
1

>  <r_epik_Ionization_Penalty>  (249) 
2.81061e-06

>  <r_epik_Ionization_Penalty_Charging>  (249) 
0

>  <r_epik_Ionization_Penalty_Neutral>  (249) 
2.81061e-06

>  <r_epik_State_Penalty>  (249) 
-0

>  <r_epik_Charging_Adjusted_Penalty>  (249) 
0

>  <i_epik_Tot_Q>  (249) 
0

>  <i_epik_Tot_abs_Q>  (249) 
0

>  <s_epik_Chemistry_Notes>  (249) 
This compound contains an acetal/aminal-like group ( X-CH(R)-Y where X, Y are N, S, or O) that may be acid/base labile, releasing an aldehyde.

>  <s_lp_Force_Field>  (249) 
OPLS3e

>  <r_lp_Energy>  (249) 
33.02

>  <b_lp_Chiralities_Consistent>  (249) 
1

>  <s_lp_Variant>  (249) 
57:0-1

>  <s_i_glide_gridfile>  (249) 
pfpi4k_grid

>  <i_i_glide_lignum>  (249) 
22

>  <i_i_glide_rotatable_bonds>  (249) 
10

>  <r_i_docking_score>  (249) 
-4.41217

>  <r_i_glide_ligand_efficiency>  (249) 
-0.169699

>  <r_i_glide_ligand_efficiency_sa>  (249) 
-0.502733

>  <r_i_glide_ligand_efficiency_ln>  (249) 
-1.03618

>  <r_i_glide_gscore>  (249) 
-4.41217

>  <r_i_glide_lipo>  (249) 
-0.0501553

>  <r_i_glide_hbond>  (249) 
0

>  <r_i_glide_metal>  (249) 
-0

>  <r_i_glide_rewards>  (249) 
-1.92215

>  <r_i_glide_evdw>  (249) 
-11.761

>  <r_i_glide_ecoul>  (249) 
-14.2471

>  <r_i_glide_erotb>  (249) 
0.286924

>  <r_i_glide_esite>  (249) 
-0.001676

>  <r_i_glide_emodel>  (249) 
-37.1835

>  <r_i_glide_energy>  (249) 
-26.0081

>  <r_i_glide_einternal>  (249) 
14.3099

>  <r_i_glide_intrahb_reward>  (249) 
-1

>  <i_i_glide_confnum>  (249) 
5

>  <i_i_glide_posenum>  (249) 
37

>  <r_i_glide_eff_state_penalty>  (249) 
0

>  <ligand_id>  (249) 
57

>  <original_smiles>  (249) 
CC(C)C12CC(OC3OC(CO)C(O)C(O)C3O)C(O)(C1)C(C)(O)C2=O

>  <smiles>  (249) 
[H]OC([H])([H])C1([H])OC([H])(OC2([H])C([H])([H])C3(C([H])(C([H])([H])[H])C([H])([H])[H])C(=O)C(O[H])(C([H])([H])[H])C2(O[H])C3([H])[H])C([H])(O[H])C([H])(O[H])C1([H])O[H]

$$$$
57:0:1
     RDKit          3D

 54 56  0  0  1  0  0  0  0  0999 V2000
    4.9805   -4.2342   -1.1054 C   0  0  0  0  0  0  0  0  0  0  0  0
    5.4377   -4.2572    0.3667 C   0  0  0  0  0  0  0  0  0  0  0  0
    6.8945   -4.7656    0.4492 C   0  0  0  0  0  0  0  0  0  0  0  0
    4.4551   -5.0203    1.3036 C   0  0  2  0  0  0  0  0  0  0  0  0
    4.3007   -6.5387    1.0393 C   0  0  0  0  0  0  0  0  0  0  0  0
    2.9574   -6.8820    1.7214 C   0  0  1  0  0  0  0  0  0  0  0  0
    3.1675   -7.8423    2.7496 O   0  0  0  0  0  0  0  0  0  0  0  0
    2.9506   -9.1825    2.4016 C   0  0  2  0  0  0  0  0  0  0  0  0
    1.5978   -9.4560    2.0991 O   0  0  0  0  0  0  0  0  0  0  0  0
    0.6796   -9.2078    3.1844 C   0  0  1  0  0  0  0  0  0  0  0  0
   -0.7515   -9.4029    2.6607 C   0  0  0  0  0  0  0  0  0  0  0  0
   -1.7255   -9.0462    3.6414 O   0  0  0  0  0  0  0  0  0  0  0  0
    1.0251  -10.1412    4.3705 C   0  0  1  0  0  0  0  0  0  0  0  0
    0.7564  -11.5008    4.0393 O   0  0  0  0  0  0  0  0  0  0  0  0
    2.4953   -9.9518    4.7660 C   0  0  1  0  0  0  0  0  0  0  0  0
    2.8960  -10.8292    5.8218 O   0  0  0  0  0  0  0  0  0  0  0  0
    3.4328  -10.0794    3.5494 C   0  0  1  0  0  0  0  0  0  0  0  0
    3.4871  -11.4185    3.0836 O   0  0  0  0  0  0  0  0  0  0  0  0
    2.5195   -5.5390    2.3563 C   0  0  2  0  0  0  0  0  0  0  0  0
    1.1306   -5.4579    2.5809 O   0  0  0  0  0  0  0  0  0  0  0  0
    2.9834   -4.5997    1.2368 C   0  0  0  0  0  0  0  0  0  0  0  0
    3.3925   -5.0652    3.5608 C   0  0  1  0  0  0  0  0  0  0  0  0
    2.8870   -3.7905    4.2622 C   0  0  0  0  0  0  0  0  0  0  0  0
    3.5958   -6.0086    4.5938 O   0  0  0  0  0  0  0  0  0  0  0  0
    4.6881   -4.8030    2.8113 C   0  0  0  0  0  0  0  0  0  0  0  0
    5.7479   -4.4635    3.3446 O   0  0  0  0  0  0  0  0  0  0  0  0
    4.9810   -5.2312   -1.5364 H   0  0  0  0  0  0  0  0  0  0  0  0
    5.6410   -3.6236   -1.7203 H   0  0  0  0  0  0  0  0  0  0  0  0
    3.9800   -3.8208   -1.2191 H   0  0  0  0  0  0  0  0  0  0  0  0
    5.4519   -3.2136    0.6901 H   0  0  0  0  0  0  0  0  0  0  0  0
    6.9696   -5.7996    0.1182 H   0  0  0  0  0  0  0  0  0  0  0  0
    7.3050   -4.7161    1.4555 H   0  0  0  0  0  0  0  0  0  0  0  0
    7.5543   -4.1691   -0.1821 H   0  0  0  0  0  0  0  0  0  0  0  0
    4.2654   -6.7885   -0.0256 H   0  0  0  0  0  0  0  0  0  0  0  0
    5.1221   -7.1070    1.4693 H   0  0  0  0  0  0  0  0  0  0  0  0
    2.2180   -7.2298    0.9940 H   0  0  0  0  0  0  0  0  0  0  0  0
    3.5128   -9.3967    1.4808 H   0  0  0  0  0  0  0  0  0  0  0  0
    0.7833   -8.1650    3.4898 H   0  0  0  0  0  0  0  0  0  0  0  0
   -0.9374   -8.8098    1.7711 H   0  0  0  0  0  0  0  0  0  0  0  0
   -0.9151  -10.4316    2.3618 H   0  0  0  0  0  0  0  0  0  0  0  0
   -1.7960   -9.7868    4.2935 H   0  0  0  0  0  0  0  0  0  0  0  0
    0.3968   -9.8709    5.2186 H   0  0  0  0  0  0  0  0  0  0  0  0
    0.9816  -12.0608    4.7999 H   0  0  0  0  0  0  0  0  0  0  0  0
    2.5954   -8.9337    5.1367 H   0  0  0  0  0  0  0  0  0  0  0  0
    2.1548  -10.9960    6.4385 H   0  0  0  0  0  0  0  0  0  0  0  0
    4.4503   -9.7812    3.8221 H   0  0  0  0  0  0  0  0  0  0  0  0
    2.5820  -11.6958    2.8645 H   0  0  0  0  0  0  0  0  0  0  0  0
    0.9785   -4.6418    3.0404 H   0  0  0  0  0  0  0  0  0  0  0  0
    2.8328   -3.5417    1.4406 H   0  0  0  0  0  0  0  0  0  0  0  0
    2.5014   -4.8283    0.2833 H   0  0  0  0  0  0  0  0  0  0  0  0
    2.6972   -2.9672    3.5748 H   0  0  0  0  0  0  0  0  0  0  0  0
    3.6165   -3.4346    4.9908 H   0  0  0  0  0  0  0  0  0  0  0  0
    1.9672   -3.9816    4.8134 H   0  0  0  0  0  0  0  0  0  0  0  0
    2.7549   -6.3419    4.8788 H   0  0  0  0  0  0  0  0  0  0  0  0
  1  2  1  0
  1 27  1  0
  1 28  1  0
  1 29  1  0
  2  3  1  0
  4  2  1  6
  2 30  1  0
  3 31  1  0
  3 32  1  0
  3 33  1  0
  4 21  1  0
  4 25  1  0
  4  5  1  0
  5  6  1  0
  5 34  1  0
  5 35  1  0
  6  7  1  0
  6 19  1  0
  6 36  1  6
  7  8  1  0
  8 17  1  0
  8  9  1  0
  8 37  1  6
  9 10  1  0
 10 11  1  0
 10 13  1  0
 10 38  1  1
 11 12  1  0
 11 39  1  0
 11 40  1  0
 12 41  1  0
 13 14  1  0
 13 15  1  0
 13 42  1  1
 14 43  1  0
 15 16  1  0
 15 17  1  0
 15 44  1  1
 16 45  1  0
 17 18  1  0
 17 46  1  1
 18 47  1  0
 19 20  1  1
 19 21  1  0
 19 22  1  0
 20 48  1  0
 21 49  1  0
 21 50  1  0
 22 23  1  0
 22 24  1  1
 22 25  1  0
 23 51  1  0
 23 52  1  0
 23 53  1  0
 24 54  1  0
 25 26  2  0
M  END
>  <i_m_ct_stereo_status>  (250) 
1

>  <s_m_source_file>  (250) 
/var/tmp/pbs.5102264.sched01/tmp148in4kv/69urs0mf0h.sdf

>  <i_m_source_file_index>  (250) 
22

>  <i_lp_mmshare_version>  (250) 
48012

>  <i_f3d_flags>  (250) 
0

>  <s_epik_input>  (250) 
W0NIM11bQ0hdKFtDSDNdKVtDQF0xMltDSDJdW0NASF0oW0NAXShbT0hdKShbQ0gyXTEpW0NAQF0oW0NIM10pKFtPSF0pQzI9TylPW0NAQEhdM09bQ0BASF0oW0NIMl1bT0hdKVtDQEBIXShbT0hdKVtDQEBIXShbT0hdKVtDQEhdM1tPSF0=

>  <s_epik_cmdline>  (250) 
J2VwaWtfcHl0aG9uJywgJy1waHQnLCAnMi4wJywgJy1waCcsICc3LjAnLCAnLXRuJywgJzgnLCAnLW1hJywgJzIwMCcsICctaW1hZScsICc8aW5maWxlLm1hZT4nLCAnLW9tYWUnLCAnPG91dGZpbGUubWFlPic=

>  <r_lp_tautomer_probability>  (250) 
1

>  <r_epik_Ionization_Penalty>  (250) 
2.81061e-06

>  <r_epik_Ionization_Penalty_Charging>  (250) 
0

>  <r_epik_Ionization_Penalty_Neutral>  (250) 
2.81061e-06

>  <r_epik_State_Penalty>  (250) 
-0

>  <r_epik_Charging_Adjusted_Penalty>  (250) 
0

>  <i_epik_Tot_Q>  (250) 
0

>  <i_epik_Tot_abs_Q>  (250) 
0

>  <s_epik_Chemistry_Notes>  (250) 
This compound contains an acetal/aminal-like group ( X-CH(R)-Y where X, Y are N, S, or O) that may be acid/base labile, releasing an aldehyde.

>  <s_lp_Force_Field>  (250) 
OPLS3e

>  <r_lp_Energy>  (250) 
33.02

>  <b_lp_Chiralities_Consistent>  (250) 
1

>  <s_lp_Variant>  (250) 
57:0-1

>  <s_i_glide_gridfile>  (250) 
pfpi4k_grid

>  <i_i_glide_lignum>  (250) 
22

>  <i_i_glide_rotatable_bonds>  (250) 
10

>  <r_i_docking_score>  (250) 
-3.92754

>  <r_i_glide_ligand_efficiency>  (250) 
-0.151059

>  <r_i_glide_ligand_efficiency_sa>  (250) 
-0.447512

>  <r_i_glide_ligand_efficiency_ln>  (250) 
-0.92237

>  <r_i_glide_gscore>  (250) 
-3.92754

>  <r_i_glide_lipo>  (250) 
-0.423836

>  <r_i_glide_hbond>  (250) 
-0.152876

>  <r_i_glide_metal>  (250) 
-0

>  <r_i_glide_rewards>  (250) 
-1.35177

>  <r_i_glide_evdw>  (250) 
-17.932

>  <r_i_glide_ecoul>  (250) 
-9.97044

>  <r_i_glide_erotb>  (250) 
0.409891

>  <r_i_glide_esite>  (250) 
-0.0167821

>  <r_i_glide_emodel>  (250) 
-38.2158

>  <r_i_glide_energy>  (250) 
-27.9024

>  <r_i_glide_einternal>  (250) 
4.64194

>  <r_i_glide_intrahb_reward>  (250) 
-0.5

>  <i_i_glide_confnum>  (250) 
1

>  <i_i_glide_posenum>  (250) 
11

>  <r_i_glide_eff_state_penalty>  (250) 
0

>  <ligand_id>  (250) 
57

>  <original_smiles>  (250) 
CC(C)C12CC(OC3OC(CO)C(O)C(O)C3O)C(O)(C1)C(C)(O)C2=O

>  <smiles>  (250) 
[H]OC([H])([H])C1([H])OC([H])(OC2([H])C([H])([H])C3(C([H])(C([H])([H])[H])C([H])([H])[H])C(=O)C(O[H])(C([H])([H])[H])C2(O[H])C3([H])[H])C([H])(O[H])C([H])(O[H])C1([H])O[H]

$$$$
57:0:2
     RDKit          3D

 54 56  0  0  1  0  0  0  0  0999 V2000
   -0.4934   -5.8671    7.9797 C   0  0  0  0  0  0  0  0  0  0  0  0
    0.2863   -7.1139    7.4860 C   0  0  0  0  0  0  0  0  0  0  0  0
    1.5252   -7.3262    8.3845 C   0  0  0  0  0  0  0  0  0  0  0  0
    0.6279   -7.0480    5.9514 C   0  0  2  0  0  0  0  0  0  0  0  0
    1.5896   -5.9083    5.5379 C   0  0  0  0  0  0  0  0  0  0  0  0
    1.3200   -5.7269    4.0183 C   0  0  1  0  0  0  0  0  0  0  0  0
    2.5235   -6.0082    3.3068 O   0  0  0  0  0  0  0  0  0  0  0  0
    3.5541   -5.0497    3.3432 C   0  0  2  0  0  0  0  0  0  0  0  0
    3.2813   -3.8978    2.5755 O   0  0  0  0  0  0  0  0  0  0  0  0
    3.0687   -4.1558    1.1742 C   0  0  1  0  0  0  0  0  0  0  0  0
    2.6169   -2.8369    0.5271 C   0  0  0  0  0  0  0  0  0  0  0  0
    2.2149   -3.0374   -0.8300 O   0  0  0  0  0  0  0  0  0  0  0  0
    4.3781   -4.7208    0.5841 C   0  0  1  0  0  0  0  0  0  0  0  0
    5.4030   -3.7300    0.6449 O   0  0  0  0  0  0  0  0  0  0  0  0
    4.8130   -5.9786    1.3651 C   0  0  1  0  0  0  0  0  0  0  0  0
    6.0646   -6.5126    0.9041 O   0  0  0  0  0  0  0  0  0  0  0  0
    4.8448   -5.7338    2.8776 C   0  0  1  0  0  0  0  0  0  0  0  0
    5.9499   -4.9165    3.2598 O   0  0  0  0  0  0  0  0  0  0  0  0
    0.2886   -6.8723    3.7032 C   0  0  2  0  0  0  0  0  0  0  0  0
   -0.5522   -6.6551    2.5833 O   0  0  0  0  0  0  0  0  0  0  0  0
   -0.5327   -6.7475    4.9965 C   0  0  0  0  0  0  0  0  0  0  0  0
    0.8399   -8.3409    3.8013 C   0  0  1  0  0  0  0  0  0  0  0  0
   -0.1738   -9.4366    3.4094 C   0  0  0  0  0  0  0  0  0  0  0  0
    2.0075   -8.6635    3.0559 O   0  0  0  0  0  0  0  0  0  0  0  0
    1.1234   -8.3668    5.3110 C   0  0  0  0  0  0  0  0  0  0  0  0
    1.6452   -9.3072    5.8833 O   0  0  0  0  0  0  0  0  0  0  0  0
    0.1026   -4.9593    7.9041 H   0  0  0  0  0  0  0  0  0  0  0  0
   -0.7779   -5.9613    9.0259 H   0  0  0  0  0  0  0  0  0  0  0  0
   -1.4048   -5.7051    7.4178 H   0  0  0  0  0  0  0  0  0  0  0  0
   -0.3417   -7.9870    7.6631 H   0  0  0  0  0  0  0  0  0  0  0  0
    2.2282   -6.4958    8.3046 H   0  0  0  0  0  0  0  0  0  0  0  0
    2.0667   -8.2335    8.1372 H   0  0  0  0  0  0  0  0  0  0  0  0
    1.2344   -7.4291    9.4300 H   0  0  0  0  0  0  0  0  0  0  0  0
    1.4055   -4.9618    6.0549 H   0  0  0  0  0  0  0  0  0  0  0  0
    2.6060   -6.2018    5.7656 H   0  0  0  0  0  0  0  0  0  0  0  0
    0.9194   -4.7239    3.7786 H   0  0  0  0  0  0  0  0  0  0  0  0
    3.6838   -4.7169    4.3814 H   0  0  0  0  0  0  0  0  0  0  0  0
    2.2571   -4.8825    1.0758 H   0  0  0  0  0  0  0  0  0  0  0  0
    1.8016   -2.3747    1.0931 H   0  0  0  0  0  0  0  0  0  0  0  0
    3.4078   -2.0885    0.5509 H   0  0  0  0  0  0  0  0  0  0  0  0
    1.7511   -2.2156   -1.0884 H   0  0  0  0  0  0  0  0  0  0  0  0
    4.1957   -4.9899   -0.4568 H   0  0  0  0  0  0  0  0  0  0  0  0
    5.5920   -3.5930    1.5832 H   0  0  0  0  0  0  0  0  0  0  0  0
    4.0378   -6.7271    1.1769 H   0  0  0  0  0  0  0  0  0  0  0  0
    6.2313   -7.3775    1.3169 H   0  0  0  0  0  0  0  0  0  0  0  0
    4.9269   -6.6857    3.4008 H   0  0  0  0  0  0  0  0  0  0  0  0
    6.7454   -5.2998    2.8810 H   0  0  0  0  0  0  0  0  0  0  0  0
   -0.9243   -7.5035    2.3547 H   0  0  0  0  0  0  0  0  0  0  0  0
   -1.3533   -7.4521    5.0855 H   0  0  0  0  0  0  0  0  0  0  0  0
   -0.9478   -5.7420    5.1186 H   0  0  0  0  0  0  0  0  0  0  0  0
   -1.1325   -9.3371    3.9130 H   0  0  0  0  0  0  0  0  0  0  0  0
    0.2095  -10.4323    3.6575 H   0  0  0  0  0  0  0  0  0  0  0  0
   -0.3542   -9.4244    2.3316 H   0  0  0  0  0  0  0  0  0  0  0  0
    2.2935   -9.5596    3.2942 H   0  0  0  0  0  0  0  0  0  0  0  0
  1  2  1  0
  1 27  1  0
  1 28  1  0
  1 29  1  0
  2  3  1  0
  4  2  1  1
  2 30  1  0
  3 31  1  0
  3 32  1  0
  3 33  1  0
  4 21  1  0
  4 25  1  0
  4  5  1  0
  5  6  1  0
  5 34  1  0
  5 35  1  0
  6  7  1  0
  6 19  1  0
  6 36  1  1
  7  8  1  0
  8 17  1  0
  8  9  1  0
  8 37  1  1
  9 10  1  0
 10 11  1  0
 10 13  1  0
 10 38  1  1
 11 12  1  0
 11 39  1  0
 11 40  1  0
 12 41  1  0
 13 14  1  0
 13 15  1  0
 13 42  1  6
 14 43  1  0
 15 16  1  0
 15 17  1  0
 15 44  1  1
 16 45  1  0
 17 18  1  0
 17 46  1  1
 18 47  1  0
 19 20  1  6
 19 21  1  0
 19 22  1  0
 20 48  1  0
 21 49  1  0
 21 50  1  0
 22 23  1  0
 22 24  1  6
 22 25  1  0
 23 51  1  0
 23 52  1  0
 23 53  1  0
 24 54  1  0
 25 26  2  0
M  END
>  <i_m_ct_stereo_status>  (251) 
1

>  <s_m_source_file>  (251) 
/var/tmp/pbs.5102264.sched01/tmp148in4kv/69urs0mf0h.sdf

>  <i_m_source_file_index>  (251) 
22

>  <i_lp_mmshare_version>  (251) 
48012

>  <i_f3d_flags>  (251) 
0

>  <s_epik_input>  (251) 
W0NIM11bQ0hdKFtDSDNdKVtDQF0xMltDSDJdW0NASF0oW0NAXShbT0hdKShbQ0gyXTEpW0NAQF0oW0NIM10pKFtPSF0pQzI9TylPW0NAQEhdM09bQ0BASF0oW0NIMl1bT0hdKVtDQEBIXShbT0hdKVtDQEBIXShbT0hdKVtDQEhdM1tPSF0=

>  <s_epik_cmdline>  (251) 
J2VwaWtfcHl0aG9uJywgJy1waHQnLCAnMi4wJywgJy1waCcsICc3LjAnLCAnLXRuJywgJzgnLCAnLW1hJywgJzIwMCcsICctaW1hZScsICc8aW5maWxlLm1hZT4nLCAnLW9tYWUnLCAnPG91dGZpbGUubWFlPic=

>  <r_lp_tautomer_probability>  (251) 
1

>  <r_epik_Ionization_Penalty>  (251) 
2.81061e-06

>  <r_epik_Ionization_Penalty_Charging>  (251) 
0

>  <r_epik_Ionization_Penalty_Neutral>  (251) 
2.81061e-06

>  <r_epik_State_Penalty>  (251) 
-0

>  <r_epik_Charging_Adjusted_Penalty>  (251) 
0

>  <i_epik_Tot_Q>  (251) 
0

>  <i_epik_Tot_abs_Q>  (251) 
0

>  <s_epik_Chemistry_Notes>  (251) 
This compound contains an acetal/aminal-like group ( X-CH(R)-Y where X, Y are N, S, or O) that may be acid/base labile, releasing an aldehyde.

>  <s_lp_Force_Field>  (251) 
OPLS3e

>  <r_lp_Energy>  (251) 
33.02

>  <b_lp_Chiralities_Consistent>  (251) 
1

>  <s_lp_Variant>  (251) 
57:0-1

>  <s_i_glide_gridfile>  (251) 
pfpi4k_grid

>  <i_i_glide_lignum>  (251) 
22

>  <i_i_glide_rotatable_bonds>  (251) 
10

>  <r_i_docking_score>  (251) 
-3.12797

>  <r_i_glide_ligand_efficiency>  (251) 
-0.120307

>  <r_i_glide_ligand_efficiency_sa>  (251) 
-0.356408

>  <r_i_glide_ligand_efficiency_ln>  (251) 
-0.734593

>  <r_i_glide_gscore>  (251) 
-3.12797

>  <r_i_glide_lipo>  (251) 
-0.110577

>  <r_i_glide_hbond>  (251) 
-0.169396

>  <r_i_glide_metal>  (251) 
-0

>  <r_i_glide_rewards>  (251) 
-1.34274

>  <r_i_glide_evdw>  (251) 
-13.1148

>  <r_i_glide_ecoul>  (251) 
-8.27489

>  <r_i_glide_erotb>  (251) 
0.409891

>  <r_i_glide_esite>  (251) 
-0.0181786

>  <r_i_glide_emodel>  (251) 
-29.6536

>  <r_i_glide_energy>  (251) 
-21.3897

>  <r_i_glide_einternal>  (251) 
5.29223

>  <r_i_glide_intrahb_reward>  (251) 
-0.5

>  <i_i_glide_confnum>  (251) 
4

>  <i_i_glide_posenum>  (251) 
12

>  <r_i_glide_eff_state_penalty>  (251) 
0

>  <ligand_id>  (251) 
57

>  <original_smiles>  (251) 
CC(C)C12CC(OC3OC(CO)C(O)C(O)C3O)C(O)(C1)C(C)(O)C2=O

>  <smiles>  (251) 
[H]OC([H])([H])C1([H])OC([H])(OC2([H])C([H])([H])C3(C([H])(C([H])([H])[H])C([H])([H])[H])C(=O)C(O[H])(C([H])([H])[H])C2(O[H])C3([H])[H])C([H])(O[H])C([H])(O[H])C1([H])O[H]

$$$$
58:0:0
     RDKit          3D

 23 25  0  0  1  0  0  0  0  0999 V2000
    3.3172   -0.2585   -4.3733 C   0  0  0  0  0  0  0  0  0  0  0  0
    3.7881   -1.2798   -3.3600 C   0  0  0  0  0  0  0  0  0  0  0  0
    4.5833   -1.0360   -2.3256 C   0  0  0  0  0  0  0  0  0  0  0  0
    4.8688   -2.2657   -1.5309 C   0  0  1  0  0  0  0  0  0  0  0  0
    4.0957   -3.3926   -2.2400 C   0  0  0  0  0  0  0  0  0  0  0  0
    3.3706   -2.7285   -3.4354 C   0  0  0  0  0  0  0  0  0  0  0  0
    6.2896   -2.4552   -1.4249 O   0  0  0  0  0  0  0  0  0  0  0  0
    6.7242   -2.2976   -0.0979 C   0  0  0  0  0  0  0  0  0  0  0  0
    7.8853   -2.3017    0.3297 O   0  0  0  0  0  0  0  0  0  0  0  0
    5.5197   -2.0743    0.6906 C   0  0  0  0  0  0  0  0  0  0  0  0
    5.2165   -1.9147    1.9901 O   0  0  0  0  0  0  0  0  0  0  0  0
    3.8050   -1.7977    2.0074 N   0  0  0  0  0  0  0  0  0  0  0  0
    3.3637   -1.8850    0.7471 C   0  0  0  0  0  0  0  0  0  0  0  0
    4.4692   -2.0638   -0.1174 C   0  0  0  0  0  0  0  0  0  0  0  0
    2.2312   -0.1595   -4.3354 H   0  0  0  0  0  0  0  0  0  0  0  0
    3.6090   -0.5503   -5.3838 H   0  0  0  0  0  0  0  0  0  0  0  0
    3.7516    0.7195   -4.1546 H   0  0  0  0  0  0  0  0  0  0  0  0
    5.0055   -0.0705   -2.0843 H   0  0  0  0  0  0  0  0  0  0  0  0
    4.7568   -4.1942   -2.5697 H   0  0  0  0  0  0  0  0  0  0  0  0
    3.3672   -3.8480   -1.5704 H   0  0  0  0  0  0  0  0  0  0  0  0
    2.2861   -2.8134   -3.3442 H   0  0  0  0  0  0  0  0  0  0  0  0
    3.6714   -3.1750   -4.3825 H   0  0  0  0  0  0  0  0  0  0  0  0
    2.3093   -1.8530    0.5143 H   0  0  0  0  0  0  0  0  0  0  0  0
  1  2  1  0
  1 15  1  0
  1 16  1  0
  1 17  1  0
  2  6  1  0
  2  3  2  0
  3  4  1  0
  3 18  1  0
  4 14  1  0
  4  5  1  0
  4  7  1  1
  5  6  1  0
  5 19  1  0
  5 20  1  0
  6 21  1  0
  6 22  1  0
  7  8  1  0
  8  9  2  0
  8 10  1  0
 10 14  2  0
 10 11  1  0
 11 12  1  0
 12 13  2  0
 13 14  1  0
 13 23  1  0
M  END
>  <i_m_ct_stereo_status>  (252) 
1

>  <s_m_source_file>  (252) 
/var/tmp/pbs.5102264.sched01/tmp148in4kv/69urs0mf0h.sdf

>  <i_m_source_file_index>  (252) 
23

>  <i_lp_mmshare_version>  (252) 
48012

>  <i_f3d_flags>  (252) 
0

>  <s_epik_input>  (252) 
W0NIMl0xW0NIMl1DKFtDSDNdKT1bQ0hdW0NAQF0xMmMzYyhDKE8yKT1PKW9uW2NIXTM=

>  <s_epik_cmdline>  (252) 
J2VwaWtfcHl0aG9uJywgJy1waHQnLCAnMi4wJywgJy1waCcsICc3LjAnLCAnLXRuJywgJzgnLCAnLW1hJywgJzIwMCcsICctaW1hZScsICc8aW5maWxlLm1hZT4nLCAnLW9tYWUnLCAnPG91dGZpbGUubWFlPic=

>  <r_lp_tautomer_probability>  (252) 
1

>  <r_epik_Ionization_Penalty>  (252) 
6.44636e-13

>  <r_epik_Ionization_Penalty_Charging>  (252) 
0

>  <r_epik_Ionization_Penalty_Neutral>  (252) 
6.44636e-13

>  <r_epik_State_Penalty>  (252) 
-0

>  <r_epik_Charging_Adjusted_Penalty>  (252) 
0

>  <i_epik_Tot_Q>  (252) 
0

>  <i_epik_Tot_abs_Q>  (252) 
0

>  <s_epik_Chemistry_Notes>  (252) 
This compound has an ester and may undergo hydrolysis at high or low pH.

>  <s_lp_Force_Field>  (252) 
OPLS3e

>  <r_lp_Energy>  (252) 
-0.421264

>  <b_lp_Chiralities_Consistent>  (252) 
1

>  <s_lp_Variant>  (252) 
58:0-1

>  <s_i_glide_gridfile>  (252) 
pfpi4k_grid

>  <i_i_glide_lignum>  (252) 
23

>  <i_i_glide_rotatable_bonds>  (252) 
0

>  <r_i_docking_score>  (252) 
-4.27075

>  <r_i_glide_ligand_efficiency>  (252) 
-0.305054

>  <r_i_glide_ligand_efficiency_sa>  (252) 
-0.735222

>  <r_i_glide_ligand_efficiency_ln>  (252) 
-1.17359

>  <r_i_glide_gscore>  (252) 
-4.27075

>  <r_i_glide_lipo>  (252) 
-0.67455

>  <r_i_glide_hbond>  (252) 
-0.024921

>  <r_i_glide_metal>  (252) 
-0

>  <r_i_glide_rewards>  (252) 
-2.10557

>  <r_i_glide_evdw>  (252) 
-24.0562

>  <r_i_glide_ecoul>  (252) 
-1.68088

>  <r_i_glide_erotb>  (252) 
0

>  <r_i_glide_esite>  (252) 
-0.0107701

>  <r_i_glide_emodel>  (252) 
-32.5254

>  <r_i_glide_energy>  (252) 
-25.737

>  <r_i_glide_einternal>  (252) 
0

>  <r_i_glide_intrahb_reward>  (252) 
-0

>  <i_i_glide_confnum>  (252) 
1

>  <i_i_glide_posenum>  (252) 
17

>  <r_i_glide_eff_state_penalty>  (252) 
0

>  <ligand_id>  (252) 
58

>  <original_smiles>  (252) 
CC1=CC2(CC1)OC(=O)c1oncc12

>  <smiles>  (252) 
[H]C1=C(C([H])([H])[H])C([H])([H])C([H])([H])C12OC(=O)c1onc([H])c12

$$$$
58:0:1
     RDKit          3D

 23 25  0  0  1  0  0  0  0  0999 V2000
    3.3355   -0.1886   -4.4681 C   0  0  0  0  0  0  0  0  0  0  0  0
    3.6873   -1.0532   -3.2754 C   0  0  0  0  0  0  0  0  0  0  0  0
    4.5772   -0.7528   -2.3377 C   0  0  0  0  0  0  0  0  0  0  0  0
    4.6906   -1.8244   -1.3050 C   0  0  1  0  0  0  0  0  0  0  0  0
    3.6878   -2.9112   -1.7401 C   0  0  0  0  0  0  0  0  0  0  0  0
    3.0188   -2.3847   -3.0316 C   0  0  0  0  0  0  0  0  0  0  0  0
    6.0601   -2.2510   -1.1952 O   0  0  0  0  0  0  0  0  0  0  0  0
    6.6012   -1.9098    0.0569 C   0  0  0  0  0  0  0  0  0  0  0  0
    7.7692   -2.0320    0.4466 O   0  0  0  0  0  0  0  0  0  0  0  0
    5.5075   -1.3099    0.8088 C   0  0  0  0  0  0  0  0  0  0  0  0
    5.3248   -0.8300    2.0513 O   0  0  0  0  0  0  0  0  0  0  0  0
    3.9601   -0.4512    2.0814 N   0  0  0  0  0  0  0  0  0  0  0  0
    3.4282   -0.7146    0.8827 C   0  0  0  0  0  0  0  0  0  0  0  0
    4.4235   -1.2676    0.0458 C   0  0  0  0  0  0  0  0  0  0  0  0
    2.2878    0.1152   -4.4202 H   0  0  0  0  0  0  0  0  0  0  0  0
    3.5057   -0.7242   -5.4034 H   0  0  0  0  0  0  0  0  0  0  0  0
    3.9462    0.7170   -4.4730 H   0  0  0  0  0  0  0  0  0  0  0  0
    5.1729    0.1498   -2.3181 H   0  0  0  0  0  0  0  0  0  0  0  0
    4.1782   -3.8691   -1.9105 H   0  0  0  0  0  0  0  0  0  0  0  0
    2.9342   -3.0755   -0.9720 H   0  0  0  0  0  0  0  0  0  0  0  0
    1.9438   -2.2529   -2.8939 H   0  0  0  0  0  0  0  0  0  0  0  0
    3.1753   -3.0603   -3.8728 H   0  0  0  0  0  0  0  0  0  0  0  0
    2.3818   -0.5260    0.6773 H   0  0  0  0  0  0  0  0  0  0  0  0
  1  2  1  0
  1 15  1  0
  1 16  1  0
  1 17  1  0
  2  6  1  0
  2  3  2  0
  3  4  1  0
  3 18  1  0
  4 14  1  0
  4  5  1  0
  4  7  1  1
  5  6  1  0
  5 19  1  0
  5 20  1  0
  6 21  1  0
  6 22  1  0
  7  8  1  0
  8  9  2  0
  8 10  1  0
 10 14  2  0
 10 11  1  0
 11 12  1  0
 12 13  2  0
 13 14  1  0
 13 23  1  0
M  END
>  <i_m_ct_stereo_status>  (253) 
1

>  <s_m_source_file>  (253) 
/var/tmp/pbs.5102264.sched01/tmp148in4kv/69urs0mf0h.sdf

>  <i_m_source_file_index>  (253) 
23

>  <i_lp_mmshare_version>  (253) 
48012

>  <i_f3d_flags>  (253) 
0

>  <s_epik_input>  (253) 
W0NIMl0xW0NIMl1DKFtDSDNdKT1bQ0hdW0NAQF0xMmMzYyhDKE8yKT1PKW9uW2NIXTM=

>  <s_epik_cmdline>  (253) 
J2VwaWtfcHl0aG9uJywgJy1waHQnLCAnMi4wJywgJy1waCcsICc3LjAnLCAnLXRuJywgJzgnLCAnLW1hJywgJzIwMCcsICctaW1hZScsICc8aW5maWxlLm1hZT4nLCAnLW9tYWUnLCAnPG91dGZpbGUubWFlPic=

>  <r_lp_tautomer_probability>  (253) 
1

>  <r_epik_Ionization_Penalty>  (253) 
6.44636e-13

>  <r_epik_Ionization_Penalty_Charging>  (253) 
0

>  <r_epik_Ionization_Penalty_Neutral>  (253) 
6.44636e-13

>  <r_epik_State_Penalty>  (253) 
-0

>  <r_epik_Charging_Adjusted_Penalty>  (253) 
0

>  <i_epik_Tot_Q>  (253) 
0

>  <i_epik_Tot_abs_Q>  (253) 
0

>  <s_epik_Chemistry_Notes>  (253) 
This compound has an ester and may undergo hydrolysis at high or low pH.

>  <s_lp_Force_Field>  (253) 
OPLS3e

>  <r_lp_Energy>  (253) 
-0.421264

>  <b_lp_Chiralities_Consistent>  (253) 
1

>  <s_lp_Variant>  (253) 
58:0-1

>  <s_i_glide_gridfile>  (253) 
pfpi4k_grid

>  <i_i_glide_lignum>  (253) 
23

>  <i_i_glide_rotatable_bonds>  (253) 
0

>  <r_i_docking_score>  (253) 
-4.13014

>  <r_i_glide_ligand_efficiency>  (253) 
-0.29501

>  <r_i_glide_ligand_efficiency_sa>  (253) 
-0.711015

>  <r_i_glide_ligand_efficiency_ln>  (253) 
-1.13495

>  <r_i_glide_gscore>  (253) 
-4.13014

>  <r_i_glide_lipo>  (253) 
-0.527176

>  <r_i_glide_hbond>  (253) 
-0.00900412

>  <r_i_glide_metal>  (253) 
-0

>  <r_i_glide_rewards>  (253) 
-2.10557

>  <r_i_glide_evdw>  (253) 
-24.9935

>  <r_i_glide_ecoul>  (253) 
-1.49866

>  <r_i_glide_erotb>  (253) 
0

>  <r_i_glide_esite>  (253) 
-0.0139119

>  <r_i_glide_emodel>  (253) 
-33.0658

>  <r_i_glide_energy>  (253) 
-26.4922

>  <r_i_glide_einternal>  (253) 
0

>  <r_i_glide_intrahb_reward>  (253) 
-0

>  <i_i_glide_confnum>  (253) 
1

>  <i_i_glide_posenum>  (253) 
1

>  <r_i_glide_eff_state_penalty>  (253) 
0

>  <ligand_id>  (253) 
58

>  <original_smiles>  (253) 
CC1=CC2(CC1)OC(=O)c1oncc12

>  <smiles>  (253) 
[H]C1=C(C([H])([H])[H])C([H])([H])C([H])([H])C12OC(=O)c1onc([H])c12

$$$$
58:0:2
     RDKit          3D

 23 25  0  0  1  0  0  0  0  0999 V2000
    3.1064   -0.6500   -4.4722 C   0  0  0  0  0  0  0  0  0  0  0  0
    3.7705   -1.5603   -3.4672 C   0  0  0  0  0  0  0  0  0  0  0  0
    4.1392   -1.2174   -2.2413 C   0  0  0  0  0  0  0  0  0  0  0  0
    4.7874   -2.3409   -1.5103 C   0  0  1  0  0  0  0  0  0  0  0  0
    4.7865   -3.5157   -2.5001 C   0  0  0  0  0  0  0  0  0  0  0  0
    4.0800   -3.0040   -3.7753 C   0  0  0  0  0  0  0  0  0  0  0  0
    6.0786   -1.9326   -1.0342 O   0  0  0  0  0  0  0  0  0  0  0  0
    6.1014   -1.8637    0.3604 C   0  0  0  0  0  0  0  0  0  0  0  0
    7.0109   -1.4610    1.0844 O   0  0  0  0  0  0  0  0  0  0  0  0
    4.8053   -2.3408    0.8070 C   0  0  0  0  0  0  0  0  0  0  0  0
    4.2089   -2.5966    1.9865 O   0  0  0  0  0  0  0  0  0  0  0  0
    2.9348   -3.1002    1.6272 N   0  0  0  0  0  0  0  0  0  0  0  0
    2.8529   -3.1079    0.2915 C   0  0  0  0  0  0  0  0  0  0  0  0
    4.0610   -2.6207   -0.2525 C   0  0  0  0  0  0  0  0  0  0  0  0
    2.1163   -1.0353   -4.7194 H   0  0  0  0  0  0  0  0  0  0  0  0
    3.6964   -0.5822   -5.3882 H   0  0  0  0  0  0  0  0  0  0  0  0
    2.9834    0.3531   -4.0602 H   0  0  0  0  0  0  0  0  0  0  0  0
    4.0203   -0.2434   -1.8014 H   0  0  0  0  0  0  0  0  0  0  0  0
    5.7944   -3.8726   -2.7104 H   0  0  0  0  0  0  0  0  0  0  0  0
    4.2331   -4.3509   -2.0823 H   0  0  0  0  0  0  0  0  0  0  0  0
    3.1631   -3.5572   -3.9854 H   0  0  0  0  0  0  0  0  0  0  0  0
    4.7239   -3.0942   -4.6431 H   0  0  0  0  0  0  0  0  0  0  0  0
    1.9723   -3.4718   -0.2189 H   0  0  0  0  0  0  0  0  0  0  0  0
  1  2  1  0
  1 15  1  0
  1 16  1  0
  1 17  1  0
  2  6  1  0
  2  3  2  0
  3  4  1  0
  3 18  1  0
  4 14  1  0
  4  5  1  0
  4  7  1  1
  5  6  1  0
  5 19  1  0
  5 20  1  0
  6 21  1  0
  6 22  1  0
  7  8  1  0
  8  9  2  0
  8 10  1  0
 10 14  2  0
 10 11  1  0
 11 12  1  0
 12 13  2  0
 13 14  1  0
 13 23  1  0
M  END
>  <i_m_ct_stereo_status>  (254) 
1

>  <s_m_source_file>  (254) 
/var/tmp/pbs.5102264.sched01/tmp148in4kv/69urs0mf0h.sdf

>  <i_m_source_file_index>  (254) 
23

>  <i_lp_mmshare_version>  (254) 
48012

>  <i_f3d_flags>  (254) 
0

>  <s_epik_input>  (254) 
W0NIMl0xW0NIMl1DKFtDSDNdKT1bQ0hdW0NAQF0xMmMzYyhDKE8yKT1PKW9uW2NIXTM=

>  <s_epik_cmdline>  (254) 
J2VwaWtfcHl0aG9uJywgJy1waHQnLCAnMi4wJywgJy1waCcsICc3LjAnLCAnLXRuJywgJzgnLCAnLW1hJywgJzIwMCcsICctaW1hZScsICc8aW5maWxlLm1hZT4nLCAnLW9tYWUnLCAnPG91dGZpbGUubWFlPic=

>  <r_lp_tautomer_probability>  (254) 
1

>  <r_epik_Ionization_Penalty>  (254) 
6.44636e-13

>  <r_epik_Ionization_Penalty_Charging>  (254) 
0

>  <r_epik_Ionization_Penalty_Neutral>  (254) 
6.44636e-13

>  <r_epik_State_Penalty>  (254) 
-0

>  <r_epik_Charging_Adjusted_Penalty>  (254) 
0

>  <i_epik_Tot_Q>  (254) 
0

>  <i_epik_Tot_abs_Q>  (254) 
0

>  <s_epik_Chemistry_Notes>  (254) 
This compound has an ester and may undergo hydrolysis at high or low pH.

>  <s_lp_Force_Field>  (254) 
OPLS3e

>  <r_lp_Energy>  (254) 
-0.421264

>  <b_lp_Chiralities_Consistent>  (254) 
1

>  <s_lp_Variant>  (254) 
58:0-1

>  <s_i_glide_gridfile>  (254) 
pfpi4k_grid

>  <i_i_glide_lignum>  (254) 
23

>  <i_i_glide_rotatable_bonds>  (254) 
0

>  <r_i_docking_score>  (254) 
-4.06247

>  <r_i_glide_ligand_efficiency>  (254) 
-0.290177

>  <r_i_glide_ligand_efficiency_sa>  (254) 
-0.699367

>  <r_i_glide_ligand_efficiency_ln>  (254) 
-1.11635

>  <r_i_glide_gscore>  (254) 
-4.06247

>  <r_i_glide_lipo>  (254) 
-0.598679

>  <r_i_glide_hbond>  (254) 
-0.0725475

>  <r_i_glide_metal>  (254) 
-0

>  <r_i_glide_rewards>  (254) 
-2.21054

>  <r_i_glide_evdw>  (254) 
-20.8024

>  <r_i_glide_ecoul>  (254) 
-0.89658

>  <r_i_glide_erotb>  (254) 
0

>  <r_i_glide_esite>  (254) 
-0.00609564

>  <r_i_glide_emodel>  (254) 
-28.1189

>  <r_i_glide_energy>  (254) 
-21.699

>  <r_i_glide_einternal>  (254) 
0

>  <r_i_glide_intrahb_reward>  (254) 
-0

>  <i_i_glide_confnum>  (254) 
2

>  <i_i_glide_posenum>  (254) 
19

>  <r_i_glide_eff_state_penalty>  (254) 
0

>  <ligand_id>  (254) 
58

>  <original_smiles>  (254) 
CC1=CC2(CC1)OC(=O)c1oncc12

>  <smiles>  (254) 
[H]C1=C(C([H])([H])[H])C([H])([H])C([H])([H])C12OC(=O)c1onc([H])c12

$$$$
59:0:0
     RDKit          3D

 34 36  0  0  1  0  0  0  0  0999 V2000
    7.4283   -2.2830   -1.5242 O   0  0  0  0  0  0  0  0  0  0  0  0
    6.4659   -2.9620   -1.2181 C   0  0  0  0  0  0  0  0  0  0  0  0
    5.2119   -2.9950   -2.1096 C   0  0  0  0  0  0  0  0  0  0  0  0
    3.9251   -3.1988   -1.2945 C   0  0  0  0  0  0  0  0  0  0  0  0
    4.1114   -4.2783   -0.2434 C   0  0  0  0  0  0  0  0  0  0  0  0
    3.0286   -5.0568    0.1802 C   0  0  0  0  0  0  0  0  0  0  0  0
    3.2066   -6.0631    1.1565 C   0  0  0  0  0  0  0  0  0  0  0  0
    2.0011   -6.8407    1.5968 C   0  0  0  0  0  0  0  0  0  0  0  0
    0.8817   -6.3273    1.4488 O   0  0  0  0  0  0  0  0  0  0  0  0
    2.2473   -8.0915    2.0429 N   0  0  0  0  0  0  0  0  0  0  0  0
    1.2966   -9.0875    2.5284 C   0  0  0  0  0  0  0  0  0  0  0  0
    0.0660   -8.5267    3.1310 C   0  0  0  0  0  0  0  0  0  0  0  0
   -1.2558   -8.5948    2.7922 C   0  0  0  0  0  0  0  0  0  0  0  0
   -1.9259   -7.6800    3.6492 C   0  0  0  0  0  0  0  0  0  0  0  0
   -0.9683   -7.1077    4.4367 C   0  0  0  0  0  0  0  0  0  0  0  0
    0.2532   -7.6296    4.1442 O   0  0  0  0  0  0  0  0  0  0  0  0
    4.4844   -6.2498    1.7425 C   0  0  0  0  0  0  0  0  0  0  0  0
    5.5732   -5.4682    1.3175 C   0  0  0  0  0  0  0  0  0  0  0  0
    5.3858   -4.4933    0.3201 C   0  0  0  0  0  0  0  0  0  0  0  0
    6.4795   -3.7214   -0.1116 N   0  0  0  0  0  0  0  0  0  0  0  0
    5.1436   -2.0844   -2.7019 H   0  0  0  0  0  0  0  0  0  0  0  0
    5.3345   -3.8218   -2.8099 H   0  0  0  0  0  0  0  0  0  0  0  0
    3.6333   -2.2767   -0.7908 H   0  0  0  0  0  0  0  0  0  0  0  0
    3.0992   -3.4659   -1.9567 H   0  0  0  0  0  0  0  0  0  0  0  0
    2.0556   -4.8931   -0.2637 H   0  0  0  0  0  0  0  0  0  0  0  0
    3.2105   -8.3930    2.0159 H   0  0  0  0  0  0  0  0  0  0  0  0
    1.0464   -9.7495    1.6960 H   0  0  0  0  0  0  0  0  0  0  0  0
    1.8021   -9.7188    3.2649 H   0  0  0  0  0  0  0  0  0  0  0  0
   -1.6680   -9.2040    2.0013 H   0  0  0  0  0  0  0  0  0  0  0  0
   -2.9781   -7.4507    3.6769 H   0  0  0  0  0  0  0  0  0  0  0  0
   -0.9696   -6.3530    5.2004 H   0  0  0  0  0  0  0  0  0  0  0  0
    4.6465   -6.9821    2.5238 H   0  0  0  0  0  0  0  0  0  0  0  0
    6.5474   -5.6210    1.7603 H   0  0  0  0  0  0  0  0  0  0  0  0
    7.3185   -3.7556    0.4392 H   0  0  0  0  0  0  0  0  0  0  0  0
  1  2  2  0
  2 20  1  0
  2  3  1  0
  3  4  1  0
  3 21  1  0
  3 22  1  0
  4  5  1  0
  4 23  1  0
  4 24  1  0
  5 19  2  0
  5  6  1  0
  6  7  2  0
  6 25  1  0
  7  8  1  0
  7 17  1  0
  8  9  2  0
  8 10  1  0
 10 11  1  0
 10 26  1  0
 11 12  1  0
 11 27  1  0
 11 28  1  0
 12 16  1  0
 12 13  2  0
 13 14  1  0
 13 29  1  0
 14 15  2  0
 14 30  1  0
 15 16  1  0
 15 31  1  0
 17 18  2  0
 17 32  1  0
 18 19  1  0
 18 33  1  0
 19 20  1  0
 20 34  1  0
M  END
>  <i_m_ct_stereo_status>  (255) 
1

>  <s_m_source_file>  (255) 
/var/tmp/pbs.5102264.sched01/tmp5h8_9bj8/92lofvt80g.sdf

>  <i_m_source_file_index>  (255) 
1

>  <i_lp_mmshare_version>  (255) 
48012

>  <i_f3d_flags>  (255) 
0

>  <s_epik_input>  (255) 
W0NIMl0xW0NIMl1DKD1PKVtOSF1jKGMxMilbY0hdW2NIXWMoW2NIXTIpQyg9TylbTkhdW0NIMl1jM1tjSF1bY0hdW2NIXW8z

>  <s_epik_cmdline>  (255) 
J2VwaWtfcHl0aG9uJywgJy1waHQnLCAnMi4wJywgJy1waCcsICc3LjAnLCAnLXRuJywgJzgnLCAnLW1hJywgJzIwMCcsICctaW1hZScsICc8aW5maWxlLm1hZT4nLCAnLW9tYWUnLCAnPG91dGZpbGUubWFlPic=

>  <r_lp_tautomer_probability>  (255) 
1

>  <r_epik_Ionization_Penalty>  (255) 
8.08214e-06

>  <r_epik_Ionization_Penalty_Charging>  (255) 
0

>  <r_epik_Ionization_Penalty_Neutral>  (255) 
8.08214e-06

>  <r_epik_State_Penalty>  (255) 
-0

>  <r_epik_Charging_Adjusted_Penalty>  (255) 
0

>  <i_epik_Tot_Q>  (255) 
0

>  <i_epik_Tot_abs_Q>  (255) 
0

>  <s_lp_Force_Field>  (255) 
OPLS3e

>  <r_lp_Energy>  (255) 
15.7364

>  <b_lp_Chiralities_Consistent>  (255) 
1

>  <s_lp_Variant>  (255) 
59:0-1

>  <s_i_glide_gridfile>  (255) 
pfpi4k_grid

>  <i_i_glide_lignum>  (255) 
1

>  <i_i_glide_rotatable_bonds>  (255) 
4

>  <r_i_docking_score>  (255) 
-3.97408

>  <r_i_glide_ligand_efficiency>  (255) 
-0.198704

>  <r_i_glide_ligand_efficiency_sa>  (255) 
-0.539365

>  <r_i_glide_ligand_efficiency_ln>  (255) 
-0.99458

>  <r_i_glide_gscore>  (255) 
-3.97408

>  <r_i_glide_lipo>  (255) 
-0.345954

>  <r_i_glide_hbond>  (255) 
-0.308247

>  <r_i_glide_metal>  (255) 
-0

>  <r_i_glide_rewards>  (255) 
-1.59673

>  <r_i_glide_evdw>  (255) 
-27.3468

>  <r_i_glide_ecoul>  (255) 
-5.3729

>  <r_i_glide_erotb>  (255) 
0.489602

>  <r_i_glide_esite>  (255) 
-0.03947

>  <r_i_glide_emodel>  (255) 
-40.2169

>  <r_i_glide_energy>  (255) 
-32.7197

>  <r_i_glide_einternal>  (255) 
2.13824

>  <r_i_glide_intrahb_reward>  (255) 
-0

>  <i_i_glide_confnum>  (255) 
1

>  <i_i_glide_posenum>  (255) 
36

>  <r_i_glide_eff_state_penalty>  (255) 
0

>  <ligand_id>  (255) 
59

>  <original_smiles>  (255) 
O=C1CCc2cc(C(=O)NCc3ccco3)ccc2N1

>  <smiles>  (255) 
[H]c1oc(C([H])([H])N([H])C(=O)c2c([H])c([H])c3c(c2[H])C([H])([H])C([H])([H])C(=O)N3[H])c([H])c1[H]

$$$$
59:0:1
     RDKit          3D

 34 36  0  0  1  0  0  0  0  0999 V2000
    4.9278   -4.2561   -4.7070 O   0  0  0  0  0  0  0  0  0  0  0  0
    4.6324   -3.6394   -3.6944 C   0  0  0  0  0  0  0  0  0  0  0  0
    3.2286   -3.0561   -3.5358 C   0  0  0  0  0  0  0  0  0  0  0  0
    3.2432   -1.7491   -2.7281 C   0  0  0  0  0  0  0  0  0  0  0  0
    4.1256   -1.8591   -1.4998 C   0  0  0  0  0  0  0  0  0  0  0  0
    3.8383   -1.1293   -0.3383 C   0  0  0  0  0  0  0  0  0  0  0  0
    4.6823   -1.2114    0.7937 C   0  0  0  0  0  0  0  0  0  0  0  0
    4.3875   -0.4013    2.0339 C   0  0  0  0  0  0  0  0  0  0  0  0
    5.2420   -0.2483    2.9046 O   0  0  0  0  0  0  0  0  0  0  0  0
    3.1491    0.1037    2.1189 N   0  0  0  0  0  0  0  0  0  0  0  0
    2.6628    0.9387    3.1986 C   0  0  0  0  0  0  0  0  0  0  0  0
    1.1919    1.1616    3.1108 C   0  0  0  0  0  0  0  0  0  0  0  0
    0.2921    1.1891    2.0822 C   0  0  0  0  0  0  0  0  0  0  0  0
   -0.9830    1.4581    2.6674 C   0  0  0  0  0  0  0  0  0  0  0  0
   -0.7638    1.5712    4.0067 C   0  0  0  0  0  0  0  0  0  0  0  0
    0.5557    1.3922    4.2968 O   0  0  0  0  0  0  0  0  0  0  0  0
    5.8264   -2.0425    0.7344 C   0  0  0  0  0  0  0  0  0  0  0  0
    6.1093   -2.7883   -0.4280 C   0  0  0  0  0  0  0  0  0  0  0  0
    5.2531   -2.7023   -1.5408 C   0  0  0  0  0  0  0  0  0  0  0  0
    5.5202   -3.4536   -2.7029 N   0  0  0  0  0  0  0  0  0  0  0  0
    2.7747   -2.9045   -4.5149 H   0  0  0  0  0  0  0  0  0  0  0  0
    2.6250   -3.8052   -3.0251 H   0  0  0  0  0  0  0  0  0  0  0  0
    3.5979   -0.9224   -3.3460 H   0  0  0  0  0  0  0  0  0  0  0  0
    2.2258   -1.5048   -2.4320 H   0  0  0  0  0  0  0  0  0  0  0  0
    2.9515   -0.5174   -0.3235 H   0  0  0  0  0  0  0  0  0  0  0  0
    2.5007   -0.0953    1.3657 H   0  0  0  0  0  0  0  0  0  0  0  0
    2.9100    0.4753    4.1552 H   0  0  0  0  0  0  0  0  0  0  0  0
    3.1816    1.8993    3.1578 H   0  0  0  0  0  0  0  0  0  0  0  0
    0.5122    1.0432    1.0315 H   0  0  0  0  0  0  0  0  0  0  0  0
   -1.9361    1.5633    2.1669 H   0  0  0  0  0  0  0  0  0  0  0  0
   -1.3997    1.7713    4.8535 H   0  0  0  0  0  0  0  0  0  0  0  0
    6.4870   -2.1201    1.5900 H   0  0  0  0  0  0  0  0  0  0  0  0
    6.9754   -3.4306   -0.4495 H   0  0  0  0  0  0  0  0  0  0  0  0
    6.4253   -3.8958   -2.7816 H   0  0  0  0  0  0  0  0  0  0  0  0
  1  2  2  0
  2 20  1  0
  2  3  1  0
  3  4  1  0
  3 21  1  0
  3 22  1  0
  4  5  1  0
  4 23  1  0
  4 24  1  0
  5 19  2  0
  5  6  1  0
  6  7  2  0
  6 25  1  0
  7  8  1  0
  7 17  1  0
  8  9  2  0
  8 10  1  0
 10 11  1  0
 10 26  1  0
 11 12  1  0
 11 27  1  0
 11 28  1  0
 12 16  1  0
 12 13  2  0
 13 14  1  0
 13 29  1  0
 14 15  2  0
 14 30  1  0
 15 16  1  0
 15 31  1  0
 17 18  2  0
 17 32  1  0
 18 19  1  0
 18 33  1  0
 19 20  1  0
 20 34  1  0
M  END
>  <i_m_ct_stereo_status>  (256) 
1

>  <s_m_source_file>  (256) 
/var/tmp/pbs.5102264.sched01/tmp5h8_9bj8/92lofvt80g.sdf

>  <i_m_source_file_index>  (256) 
1

>  <i_lp_mmshare_version>  (256) 
48012

>  <i_f3d_flags>  (256) 
0

>  <s_epik_input>  (256) 
W0NIMl0xW0NIMl1DKD1PKVtOSF1jKGMxMilbY0hdW2NIXWMoW2NIXTIpQyg9TylbTkhdW0NIMl1jM1tjSF1bY0hdW2NIXW8z

>  <s_epik_cmdline>  (256) 
J2VwaWtfcHl0aG9uJywgJy1waHQnLCAnMi4wJywgJy1waCcsICc3LjAnLCAnLXRuJywgJzgnLCAnLW1hJywgJzIwMCcsICctaW1hZScsICc8aW5maWxlLm1hZT4nLCAnLW9tYWUnLCAnPG91dGZpbGUubWFlPic=

>  <r_lp_tautomer_probability>  (256) 
1

>  <r_epik_Ionization_Penalty>  (256) 
8.08214e-06

>  <r_epik_Ionization_Penalty_Charging>  (256) 
0

>  <r_epik_Ionization_Penalty_Neutral>  (256) 
8.08214e-06

>  <r_epik_State_Penalty>  (256) 
-0

>  <r_epik_Charging_Adjusted_Penalty>  (256) 
0

>  <i_epik_Tot_Q>  (256) 
0

>  <i_epik_Tot_abs_Q>  (256) 
0

>  <s_lp_Force_Field>  (256) 
OPLS3e

>  <r_lp_Energy>  (256) 
15.7364

>  <b_lp_Chiralities_Consistent>  (256) 
1

>  <s_lp_Variant>  (256) 
59:0-1

>  <s_i_glide_gridfile>  (256) 
pfpi4k_grid

>  <i_i_glide_lignum>  (256) 
1

>  <i_i_glide_rotatable_bonds>  (256) 
4

>  <r_i_docking_score>  (256) 
-3.82584

>  <r_i_glide_ligand_efficiency>  (256) 
-0.191292

>  <r_i_glide_ligand_efficiency_sa>  (256) 
-0.519246

>  <r_i_glide_ligand_efficiency_ln>  (256) 
-0.957481

>  <r_i_glide_gscore>  (256) 
-3.82584

>  <r_i_glide_lipo>  (256) 
-0.33526

>  <r_i_glide_hbond>  (256) 
-0.0331677

>  <r_i_glide_metal>  (256) 
-0

>  <r_i_glide_rewards>  (256) 
-1.84621

>  <r_i_glide_evdw>  (256) 
-28.394

>  <r_i_glide_ecoul>  (256) 
-4.54068

>  <r_i_glide_erotb>  (256) 
0.489602

>  <r_i_glide_esite>  (256) 
0

>  <r_i_glide_emodel>  (256) 
-40.8925

>  <r_i_glide_energy>  (256) 
-32.9347

>  <r_i_glide_einternal>  (256) 
1.3432

>  <r_i_glide_intrahb_reward>  (256) 
-0

>  <i_i_glide_confnum>  (256) 
1

>  <i_i_glide_posenum>  (256) 
38

>  <r_i_glide_eff_state_penalty>  (256) 
0

>  <ligand_id>  (256) 
59

>  <original_smiles>  (256) 
O=C1CCc2cc(C(=O)NCc3ccco3)ccc2N1

>  <smiles>  (256) 
[H]c1oc(C([H])([H])N([H])C(=O)c2c([H])c([H])c3c(c2[H])C([H])([H])C([H])([H])C(=O)N3[H])c([H])c1[H]

$$$$
59:0:2
     RDKit          3D

 34 36  0  0  1  0  0  0  0  0999 V2000
    4.6150   -3.8936   -4.3198 O   0  0  0  0  0  0  0  0  0  0  0  0
    4.3612   -3.1867   -3.3516 C   0  0  0  0  0  0  0  0  0  0  0  0
    4.1279   -1.6792   -3.5308 C   0  0  0  0  0  0  0  0  0  0  0  0
    4.5881   -0.8786   -2.3000 C   0  0  0  0  0  0  0  0  0  0  0  0
    4.1263   -1.5216   -1.0073 C   0  0  0  0  0  0  0  0  0  0  0  0
    3.8835   -0.7515    0.1397 C   0  0  0  0  0  0  0  0  0  0  0  0
    3.4520   -1.3700    1.3391 C   0  0  0  0  0  0  0  0  0  0  0  0
    3.1986   -0.5529    2.5705 C   0  0  0  0  0  0  0  0  0  0  0  0
    3.4189   -1.0140    3.6922 O   0  0  0  0  0  0  0  0  0  0  0  0
    2.6813    0.6669    2.3638 N   0  0  0  0  0  0  0  0  0  0  0  0
    2.3208    1.6192    3.4051 C   0  0  0  0  0  0  0  0  0  0  0  0
    0.8440    1.7556    3.5866 C   0  0  0  0  0  0  0  0  0  0  0  0
    0.0642    2.0848    4.6604 C   0  0  0  0  0  0  0  0  0  0  0  0
   -1.2840    2.0737    4.2002 C   0  0  0  0  0  0  0  0  0  0  0  0
   -1.2236    1.7513    2.8756 C   0  0  0  0  0  0  0  0  0  0  0  0
    0.0655    1.5508    2.4833 O   0  0  0  0  0  0  0  0  0  0  0  0
    3.3081   -2.7767    1.3734 C   0  0  0  0  0  0  0  0  0  0  0  0
    3.5675   -3.5523    0.2275 C   0  0  0  0  0  0  0  0  0  0  0  0
    3.9734   -2.9223   -0.9631 C   0  0  0  0  0  0  0  0  0  0  0  0
    4.2403   -3.6959   -2.1170 N   0  0  0  0  0  0  0  0  0  0  0  0
    4.6268   -1.3212   -4.4311 H   0  0  0  0  0  0  0  0  0  0  0  0
    3.0580   -1.5275   -3.6921 H   0  0  0  0  0  0  0  0  0  0  0  0
    5.6738   -0.8168   -2.2762 H   0  0  0  0  0  0  0  0  0  0  0  0
    4.2141    0.1429   -2.3659 H   0  0  0  0  0  0  0  0  0  0  0  0
    4.0410    0.3156    0.0903 H   0  0  0  0  0  0  0  0  0  0  0  0
    2.4696    0.9281    1.4112 H   0  0  0  0  0  0  0  0  0  0  0  0
    2.7724    1.3450    4.3615 H   0  0  0  0  0  0  0  0  0  0  0  0
    2.7460    2.5863    3.1321 H   0  0  0  0  0  0  0  0  0  0  0  0
    0.4309    2.3070    5.6537 H   0  0  0  0  0  0  0  0  0  0  0  0
   -2.1881    2.2794    4.7570 H   0  0  0  0  0  0  0  0  0  0  0  0
   -1.9638    1.6268    2.1004 H   0  0  0  0  0  0  0  0  0  0  0  0
    3.0064   -3.2662    2.2898 H   0  0  0  0  0  0  0  0  0  0  0  0
    3.4570   -4.6241    0.2675 H   0  0  0  0  0  0  0  0  0  0  0  0
    4.2439   -4.7042   -2.0267 H   0  0  0  0  0  0  0  0  0  0  0  0
  1  2  2  0
  2 20  1  0
  2  3  1  0
  3  4  1  0
  3 21  1  0
  3 22  1  0
  4  5  1  0
  4 23  1  0
  4 24  1  0
  5 19  2  0
  5  6  1  0
  6  7  2  0
  6 25  1  0
  7  8  1  0
  7 17  1  0
  8  9  2  0
  8 10  1  0
 10 11  1  0
 10 26  1  0
 11 12  1  0
 11 27  1  0
 11 28  1  0
 12 16  1  0
 12 13  2  0
 13 14  1  0
 13 29  1  0
 14 15  2  0
 14 30  1  0
 15 16  1  0
 15 31  1  0
 17 18  2  0
 17 32  1  0
 18 19  1  0
 18 33  1  0
 19 20  1  0
 20 34  1  0
M  END
>  <i_m_ct_stereo_status>  (257) 
1

>  <s_m_source_file>  (257) 
/var/tmp/pbs.5102264.sched01/tmp5h8_9bj8/92lofvt80g.sdf

>  <i_m_source_file_index>  (257) 
1

>  <i_lp_mmshare_version>  (257) 
48012

>  <i_f3d_flags>  (257) 
0

>  <s_epik_input>  (257) 
W0NIMl0xW0NIMl1DKD1PKVtOSF1jKGMxMilbY0hdW2NIXWMoW2NIXTIpQyg9TylbTkhdW0NIMl1jM1tjSF1bY0hdW2NIXW8z

>  <s_epik_cmdline>  (257) 
J2VwaWtfcHl0aG9uJywgJy1waHQnLCAnMi4wJywgJy1waCcsICc3LjAnLCAnLXRuJywgJzgnLCAnLW1hJywgJzIwMCcsICctaW1hZScsICc8aW5maWxlLm1hZT4nLCAnLW9tYWUnLCAnPG91dGZpbGUubWFlPic=

>  <r_lp_tautomer_probability>  (257) 
1

>  <r_epik_Ionization_Penalty>  (257) 
8.08214e-06

>  <r_epik_Ionization_Penalty_Charging>  (257) 
0

>  <r_epik_Ionization_Penalty_Neutral>  (257) 
8.08214e-06

>  <r_epik_State_Penalty>  (257) 
-0

>  <r_epik_Charging_Adjusted_Penalty>  (257) 
0

>  <i_epik_Tot_Q>  (257) 
0

>  <i_epik_Tot_abs_Q>  (257) 
0

>  <s_lp_Force_Field>  (257) 
OPLS3e

>  <r_lp_Energy>  (257) 
15.7364

>  <b_lp_Chiralities_Consistent>  (257) 
1

>  <s_lp_Variant>  (257) 
59:0-1

>  <s_i_glide_gridfile>  (257) 
pfpi4k_grid

>  <i_i_glide_lignum>  (257) 
1

>  <i_i_glide_rotatable_bonds>  (257) 
4

>  <r_i_docking_score>  (257) 
-3.65362

>  <r_i_glide_ligand_efficiency>  (257) 
-0.182681

>  <r_i_glide_ligand_efficiency_sa>  (257) 
-0.495873

>  <r_i_glide_ligand_efficiency_ln>  (257) 
-0.914382

>  <r_i_glide_gscore>  (257) 
-3.65362

>  <r_i_glide_lipo>  (257) 
-0.199629

>  <r_i_glide_hbond>  (257) 
-0.228601

>  <r_i_glide_metal>  (257) 
-0

>  <r_i_glide_rewards>  (257) 
-1.78288

>  <r_i_glide_evdw>  (257) 
-27.9374

>  <r_i_glide_ecoul>  (257) 
-3.31204

>  <r_i_glide_erotb>  (257) 
0.489602

>  <r_i_glide_esite>  (257) 
-0.0384391

>  <r_i_glide_emodel>  (257) 
-38.9676

>  <r_i_glide_energy>  (257) 
-31.2495

>  <r_i_glide_einternal>  (257) 
1.08228

>  <r_i_glide_intrahb_reward>  (257) 
-0

>  <i_i_glide_confnum>  (257) 
1

>  <i_i_glide_posenum>  (257) 
23

>  <r_i_glide_eff_state_penalty>  (257) 
0

>  <ligand_id>  (257) 
59

>  <original_smiles>  (257) 
O=C1CCc2cc(C(=O)NCc3ccco3)ccc2N1

>  <smiles>  (257) 
[H]c1oc(C([H])([H])N([H])C(=O)c2c([H])c([H])c3c(c2[H])C([H])([H])C([H])([H])C(=O)N3[H])c([H])c1[H]

$$$$
60:0:0
     RDKit          3D

 27 29  0  0  1  0  0  0  0  0999 V2000
    1.8008   -8.6049    2.1788 C   0  0  0  0  0  0  0  0  0  0  0  0
    3.1468   -8.0280    1.8738 C   0  0  0  0  0  0  0  0  0  0  0  0
    4.3267   -8.6627    2.1759 C   0  0  0  0  0  0  0  0  0  0  0  0
    5.7294   -7.7609    1.6991 S   0  0  0  0  0  0  0  0  0  0  0  0
    4.7178   -6.4862    1.0751 C   0  0  0  0  0  0  0  0  0  0  0  0
    5.2808   -5.3746    0.4943 N   0  0  0  0  0  0  0  0  0  0  0  0
    4.3945   -4.5356    0.0666 C   0  0  0  0  0  0  0  0  0  0  0  0
    4.7968   -3.2417   -0.5627 C   0  0  0  0  0  0  0  0  0  0  0  0
    5.1377   -3.3842   -2.3373 S   0  0  0  0  0  0  0  0  0  0  0  0
    4.2907   -2.0095   -2.9697 C   0  0  0  0  0  0  0  0  0  0  0  0
    3.6323   -1.0232   -2.3047 C   0  0  0  0  0  0  0  0  0  0  0  0
    3.1360   -0.2523   -3.3310 N   0  0  0  0  0  0  0  0  0  0  0  0
    3.4951   -0.6967   -4.5363 N   0  0  0  0  0  0  0  0  0  0  0  0
    4.1844   -1.7765   -4.3290 N   0  0  0  0  0  0  0  0  0  0  0  0
    2.9989   -4.6782    0.1672 N   0  0  0  0  0  0  0  0  0  0  0  0
    2.4077   -5.7565    0.7230 C   0  0  0  0  0  0  0  0  0  0  0  0
    1.1822   -5.8775    0.7727 O   0  0  0  0  0  0  0  0  0  0  0  0
    3.3804   -6.7691    1.2393 C   0  0  0  0  0  0  0  0  0  0  0  0
    2.6190    0.6254   -3.2058 H   0  0  0  0  0  0  0  0  0  0  0  0
    1.8884   -9.5976    2.6207 H   0  0  0  0  0  0  0  0  0  0  0  0
    1.2002   -8.6992    1.2773 H   0  0  0  0  0  0  0  0  0  0  0  0
    1.2532   -7.9735    2.8794 H   0  0  0  0  0  0  0  0  0  0  0  0
    4.4676   -9.6188    2.6483 H   0  0  0  0  0  0  0  0  0  0  0  0
    3.9702   -2.5541   -0.3657 H   0  0  0  0  0  0  0  0  0  0  0  0
    5.6905   -2.8451   -0.0664 H   0  0  0  0  0  0  0  0  0  0  0  0
    3.4666   -0.7956   -1.2577 H   0  0  0  0  0  0  0  0  0  0  0  0
    2.4154   -3.9572   -0.2229 H   0  0  0  0  0  0  0  0  0  0  0  0
  1  2  1  0
  1 20  1  0
  1 21  1  0
  1 22  1  0
  2 18  1  0
  2  3  2  0
  3  4  1  0
  3 23  1  0
  4  5  1  0
  5 18  2  0
  5  6  1  0
  6  7  2  0
  7  8  1  0
  7 15  1  0
  8  9  1  0
  8 24  1  0
  8 25  1  0
  9 10  1  0
 10 14  1  0
 10 11  2  0
 11 12  1  0
 11 26  1  0
 12 19  1  0
 12 13  1  0
 13 14  2  0
 15 16  1  0
 15 27  1  0
 16 17  2  0
 16 18  1  0
M  END
>  <i_m_ct_stereo_status>  (258) 
1

>  <s_m_source_file>  (258) 
/var/tmp/pbs.5102264.sched01/tmp5h8_9bj8/92lofvt80g.sdf

>  <i_m_source_file_index>  (258) 
2

>  <i_lp_mmshare_version>  (258) 
48012

>  <i_f3d_flags>  (258) 
0

>  <s_epik_input>  (258) 
czFbY0hdYyhbQ0gzXSljKGMxMiljKD1PKW5jKFtuSF0yKVtDSDJdU2MzW2NIXVtuSF1ubjM=

>  <s_epik_cmdline>  (258) 
J2VwaWtfcHl0aG9uJywgJy1waHQnLCAnMi4wJywgJy1waCcsICc3LjAnLCAnLXRuJywgJzgnLCAnLW1hJywgJzIwMCcsICctaW1hZScsICc8aW5maWxlLm1hZT4nLCAnLW9tYWUnLCAnPG91dGZpbGUubWFlPic=

>  <r_lp_tautomer_probability>  (258) 
0.22955

>  <r_epik_Ionization_Penalty>  (258) 
0.0225841

>  <r_epik_Ionization_Penalty_Charging>  (258) 
0.00322992

>  <r_epik_Ionization_Penalty_Neutral>  (258) 
0.0193542

>  <r_epik_State_Penalty>  (258) 
0.337329

>  <r_epik_Charging_Adjusted_Penalty>  (258) 
0.340559

>  <i_epik_Tot_Q>  (258) 
0

>  <i_epik_Tot_abs_Q>  (258) 
0

>  <s_lp_Force_Field>  (258) 
OPLS3e

>  <r_lp_Energy>  (258) 
24.3501

>  <b_lp_Chiralities_Consistent>  (258) 
1

>  <s_lp_Variant>  (258) 
60:0-1

>  <s_i_glide_gridfile>  (258) 
pfpi4k_grid

>  <i_i_glide_lignum>  (258) 
2

>  <i_i_glide_rotatable_bonds>  (258) 
3

>  <r_i_docking_score>  (258) 
-4.95829

>  <r_i_glide_ligand_efficiency>  (258) 
-0.275461

>  <r_i_glide_ligand_efficiency_sa>  (258) 
-0.721911

>  <r_i_glide_ligand_efficiency_ln>  (258) 
-1.2745

>  <r_i_glide_gscore>  (258) 
-4.95829

>  <r_i_glide_lipo>  (258) 
-0.52781

>  <r_i_glide_hbond>  (258) 
-0.48

>  <r_i_glide_metal>  (258) 
-0

>  <r_i_glide_rewards>  (258) 
-1.50836

>  <r_i_glide_evdw>  (258) 
-26.0649

>  <r_i_glide_ecoul>  (258) 
-11.6916

>  <r_i_glide_erotb>  (258) 
0.693612

>  <r_i_glide_esite>  (258) 
-0.0787396

>  <r_i_glide_emodel>  (258) 
-49.181

>  <r_i_glide_energy>  (258) 
-37.7566

>  <r_i_glide_einternal>  (258) 
1.2513

>  <r_i_glide_intrahb_reward>  (258) 
-0

>  <i_i_glide_confnum>  (258) 
1

>  <i_i_glide_posenum>  (258) 
7

>  <r_i_glide_eff_state_penalty>  (258) 
0

>  <ligand_id>  (258) 
60

>  <original_smiles>  (258) 
Cc1csc2[nH]c(CSc3c[nH]nn3)nc(=O)c12

>  <smiles>  (258) 
[H]c1sc2nc(C([H])([H])Sc3nnn([H])c3[H])n([H])c(=O)c2c1C([H])([H])[H]

$$$$
60:0:1
     RDKit          3D

 27 29  0  0  1  0  0  0  0  0999 V2000
   -3.1757    3.1144    9.7948 C   0  0  0  0  0  0  0  0  0  0  0  0
   -2.2495    3.9541    8.9749 C   0  0  0  0  0  0  0  0  0  0  0  0
   -1.8339    5.2064    9.3669 C   0  0  0  0  0  0  0  0  0  0  0  0
   -0.7414    5.9287    8.2256 S   0  0  0  0  0  0  0  0  0  0  0  0
   -0.8603    4.5454    7.1770 C   0  0  0  0  0  0  0  0  0  0  0  0
   -0.1836    4.5176    5.9853 N   0  0  0  0  0  0  0  0  0  0  0  0
   -0.3677    3.3957    5.3375 C   0  0  0  0  0  0  0  0  0  0  0  0
    0.3029    3.1544    4.0303 C   0  0  0  0  0  0  0  0  0  0  0  0
    2.0376    2.6388    4.1650 S   0  0  0  0  0  0  0  0  0  0  0  0
    2.1653    1.4354    2.9197 C   0  0  0  0  0  0  0  0  0  0  0  0
    1.3518    1.2668    1.8387 C   0  0  0  0  0  0  0  0  0  0  0  0
    1.8466    0.1242    1.2846 N   0  0  0  0  0  0  0  0  0  0  0  0
    2.9190   -0.3794    1.9321 N   0  0  0  0  0  0  0  0  0  0  0  0
    3.1076    0.4079    2.9421 N   0  0  0  0  0  0  0  0  0  0  0  0
   -1.1771    2.3195    5.7429 N   0  0  0  0  0  0  0  0  0  0  0  0
   -1.8561    2.3246    6.9100 C   0  0  0  0  0  0  0  0  0  0  0  0
   -2.5466    1.3799    7.2778 O   0  0  0  0  0  0  0  0  0  0  0  0
   -1.6816    3.5824    7.7116 C   0  0  0  0  0  0  0  0  0  0  0  0
    1.4828   -0.3046    0.4234 H   0  0  0  0  0  0  0  0  0  0  0  0
   -3.4200    3.5974   10.7407 H   0  0  0  0  0  0  0  0  0  0  0  0
   -2.7222    2.1535   10.0395 H   0  0  0  0  0  0  0  0  0  0  0  0
   -4.1130    2.9386    9.2665 H   0  0  0  0  0  0  0  0  0  0  0  0
   -2.0810    5.7583   10.2625 H   0  0  0  0  0  0  0  0  0  0  0  0
   -0.2902    2.3841    3.5445 H   0  0  0  0  0  0  0  0  0  0  0  0
    0.2493    4.0419    3.3996 H   0  0  0  0  0  0  0  0  0  0  0  0
    0.4940    1.8071    1.4592 H   0  0  0  0  0  0  0  0  0  0  0  0
   -1.2362    1.4868    5.1557 H   0  0  0  0  0  0  0  0  0  0  0  0
  1  2  1  0
  1 20  1  0
  1 21  1  0
  1 22  1  0
  2 18  1  0
  2  3  2  0
  3  4  1  0
  3 23  1  0
  4  5  1  0
  5 18  2  0
  5  6  1  0
  6  7  2  0
  7  8  1  0
  7 15  1  0
  8  9  1  0
  8 24  1  0
  8 25  1  0
  9 10  1  0
 10 14  1  0
 10 11  2  0
 11 12  1  0
 11 26  1  0
 12 19  1  0
 12 13  1  0
 13 14  2  0
 15 16  1  0
 15 27  1  0
 16 17  2  0
 16 18  1  0
M  END
>  <i_m_ct_stereo_status>  (259) 
1

>  <s_m_source_file>  (259) 
/var/tmp/pbs.5102264.sched01/tmp5h8_9bj8/92lofvt80g.sdf

>  <i_m_source_file_index>  (259) 
2

>  <i_lp_mmshare_version>  (259) 
48012

>  <i_f3d_flags>  (259) 
0

>  <s_epik_input>  (259) 
czFbY0hdYyhbQ0gzXSljKGMxMiljKD1PKW5jKFtuSF0yKVtDSDJdU2MzW2NIXVtuSF1ubjM=

>  <s_epik_cmdline>  (259) 
J2VwaWtfcHl0aG9uJywgJy1waHQnLCAnMi4wJywgJy1waCcsICc3LjAnLCAnLXRuJywgJzgnLCAnLW1hJywgJzIwMCcsICctaW1hZScsICc8aW5maWxlLm1hZT4nLCAnLW9tYWUnLCAnPG91dGZpbGUubWFlPic=

>  <r_lp_tautomer_probability>  (259) 
0.22955

>  <r_epik_Ionization_Penalty>  (259) 
0.0225841

>  <r_epik_Ionization_Penalty_Charging>  (259) 
0.00322992

>  <r_epik_Ionization_Penalty_Neutral>  (259) 
0.0193542

>  <r_epik_State_Penalty>  (259) 
0.337329

>  <r_epik_Charging_Adjusted_Penalty>  (259) 
0.340559

>  <i_epik_Tot_Q>  (259) 
0

>  <i_epik_Tot_abs_Q>  (259) 
0

>  <s_lp_Force_Field>  (259) 
OPLS3e

>  <r_lp_Energy>  (259) 
24.3501

>  <b_lp_Chiralities_Consistent>  (259) 
1

>  <s_lp_Variant>  (259) 
60:0-1

>  <s_i_glide_gridfile>  (259) 
pfpi4k_grid

>  <i_i_glide_lignum>  (259) 
2

>  <i_i_glide_rotatable_bonds>  (259) 
3

>  <r_i_docking_score>  (259) 
-3.68833

>  <r_i_glide_ligand_efficiency>  (259) 
-0.204907

>  <r_i_glide_ligand_efficiency_sa>  (259) 
-0.537008

>  <r_i_glide_ligand_efficiency_ln>  (259) 
-0.948065

>  <r_i_glide_gscore>  (259) 
-3.68833

>  <r_i_glide_lipo>  (259) 
-0.0374222

>  <r_i_glide_hbond>  (259) 
-0.311046

>  <r_i_glide_metal>  (259) 
-0

>  <r_i_glide_rewards>  (259) 
-1.50448

>  <r_i_glide_evdw>  (259) 
-19.5551

>  <r_i_glide_ecoul>  (259) 
-9.50085

>  <r_i_glide_erotb>  (259) 
0.693612

>  <r_i_glide_esite>  (259) 
-0.126109

>  <r_i_glide_emodel>  (259) 
-37.2959

>  <r_i_glide_energy>  (259) 
-29.056

>  <r_i_glide_einternal>  (259) 
1.18074

>  <r_i_glide_intrahb_reward>  (259) 
-0

>  <i_i_glide_confnum>  (259) 
1

>  <i_i_glide_posenum>  (259) 
19

>  <r_i_glide_eff_state_penalty>  (259) 
0

>  <ligand_id>  (259) 
60

>  <original_smiles>  (259) 
Cc1csc2[nH]c(CSc3c[nH]nn3)nc(=O)c12

>  <smiles>  (259) 
[H]c1sc2nc(C([H])([H])Sc3nnn([H])c3[H])n([H])c(=O)c2c1C([H])([H])[H]

$$$$
60:0:2
     RDKit          3D

 27 29  0  0  1  0  0  0  0  0999 V2000
    1.5425   -1.3069    3.6141 C   0  0  0  0  0  0  0  0  0  0  0  0
    0.3209   -0.6610    4.1876 C   0  0  0  0  0  0  0  0  0  0  0  0
   -0.3870   -1.1844    5.2392 C   0  0  0  0  0  0  0  0  0  0  0  0
   -1.7536   -0.2007    5.6808 S   0  0  0  0  0  0  0  0  0  0  0  0
   -1.3575    0.9632    4.4596 C   0  0  0  0  0  0  0  0  0  0  0  0
   -2.1123    2.1048    4.2962 N   0  0  0  0  0  0  0  0  0  0  0  0
   -1.7116    2.8143    3.2858 C   0  0  0  0  0  0  0  0  0  0  0  0
   -2.4447    4.0474    2.8611 C   0  0  0  0  0  0  0  0  0  0  0  0
   -4.1230    3.7668    2.1864 S   0  0  0  0  0  0  0  0  0  0  0  0
   -4.5949    5.3976    1.7347 C   0  0  0  0  0  0  0  0  0  0  0  0
   -3.7872    6.4571    1.3973 C   0  0  0  0  0  0  0  0  0  0  0  0
   -4.7007    7.4707    1.2323 N   0  0  0  0  0  0  0  0  0  0  0  0
   -5.9746    7.0960    1.4558 N   0  0  0  0  0  0  0  0  0  0  0  0
   -5.9198    5.8428    1.7771 N   0  0  0  0  0  0  0  0  0  0  0  0
   -0.5858    2.5389    2.4860 N   0  0  0  0  0  0  0  0  0  0  0  0
    0.1916    1.4589    2.6387 C   0  0  0  0  0  0  0  0  0  0  0  0
    1.1769    1.2273    1.9460 O   0  0  0  0  0  0  0  0  0  0  0  0
   -0.2585    0.5654    3.7437 C   0  0  0  0  0  0  0  0  0  0  0  0
   -4.4626    8.3960    0.9174 H   0  0  0  0  0  0  0  0  0  0  0  0
    1.8079   -2.2087    4.1660 H   0  0  0  0  0  0  0  0  0  0  0  0
    2.4020   -0.6349    3.6557 H   0  0  0  0  0  0  0  0  0  0  0  0
    1.3801   -1.5950    2.5749 H   0  0  0  0  0  0  0  0  0  0  0  0
   -0.2009   -2.0884    5.7991 H   0  0  0  0  0  0  0  0  0  0  0  0
   -2.5380    4.6784    3.7397 H   0  0  0  0  0  0  0  0  0  0  0  0
   -1.8295    4.6034    2.1538 H   0  0  0  0  0  0  0  0  0  0  0  0
   -2.7150    6.5683    1.2763 H   0  0  0  0  0  0  0  0  0  0  0  0
   -0.3087    3.2127    1.7634 H   0  0  0  0  0  0  0  0  0  0  0  0
  1  2  1  0
  1 20  1  0
  1 21  1  0
  1 22  1  0
  2 18  1  0
  2  3  2  0
  3  4  1  0
  3 23  1  0
  4  5  1  0
  5 18  2  0
  5  6  1  0
  6  7  2  0
  7  8  1  0
  7 15  1  0
  8  9  1  0
  8 24  1  0
  8 25  1  0
  9 10  1  0
 10 14  1  0
 10 11  2  0
 11 12  1  0
 11 26  1  0
 12 19  1  0
 12 13  1  0
 13 14  2  0
 15 16  1  0
 15 27  1  0
 16 17  2  0
 16 18  1  0
M  END
>  <i_m_ct_stereo_status>  (260) 
1

>  <s_m_source_file>  (260) 
/var/tmp/pbs.5102264.sched01/tmp5h8_9bj8/92lofvt80g.sdf

>  <i_m_source_file_index>  (260) 
2

>  <i_lp_mmshare_version>  (260) 
48012

>  <i_f3d_flags>  (260) 
0

>  <s_epik_input>  (260) 
czFbY0hdYyhbQ0gzXSljKGMxMiljKD1PKW5jKFtuSF0yKVtDSDJdU2MzW2NIXVtuSF1ubjM=

>  <s_epik_cmdline>  (260) 
J2VwaWtfcHl0aG9uJywgJy1waHQnLCAnMi4wJywgJy1waCcsICc3LjAnLCAnLXRuJywgJzgnLCAnLW1hJywgJzIwMCcsICctaW1hZScsICc8aW5maWxlLm1hZT4nLCAnLW9tYWUnLCAnPG91dGZpbGUubWFlPic=

>  <r_lp_tautomer_probability>  (260) 
0.22955

>  <r_epik_Ionization_Penalty>  (260) 
0.0225841

>  <r_epik_Ionization_Penalty_Charging>  (260) 
0.00322992

>  <r_epik_Ionization_Penalty_Neutral>  (260) 
0.0193542

>  <r_epik_State_Penalty>  (260) 
0.337329

>  <r_epik_Charging_Adjusted_Penalty>  (260) 
0.340559

>  <i_epik_Tot_Q>  (260) 
0

>  <i_epik_Tot_abs_Q>  (260) 
0

>  <s_lp_Force_Field>  (260) 
OPLS3e

>  <r_lp_Energy>  (260) 
24.3501

>  <b_lp_Chiralities_Consistent>  (260) 
1

>  <s_lp_Variant>  (260) 
60:0-1

>  <s_i_glide_gridfile>  (260) 
pfpi4k_grid

>  <i_i_glide_lignum>  (260) 
2

>  <i_i_glide_rotatable_bonds>  (260) 
3

>  <r_i_docking_score>  (260) 
-3.14044

>  <r_i_glide_ligand_efficiency>  (260) 
-0.174469

>  <r_i_glide_ligand_efficiency_sa>  (260) 
-0.457238

>  <r_i_glide_ligand_efficiency_ln>  (260) 
-0.807233

>  <r_i_glide_gscore>  (260) 
-3.14044

>  <r_i_glide_lipo>  (260) 
-0.312442

>  <r_i_glide_hbond>  (260) 
-0.16

>  <r_i_glide_metal>  (260) 
-0

>  <r_i_glide_rewards>  (260) 
-1.50448

>  <r_i_glide_evdw>  (260) 
-28.1304

>  <r_i_glide_ecoul>  (260) 
-2.01383

>  <r_i_glide_erotb>  (260) 
0.693612

>  <r_i_glide_esite>  (260) 
-0.148538

>  <r_i_glide_emodel>  (260) 
-37.5429

>  <r_i_glide_energy>  (260) 
-30.1442

>  <r_i_glide_einternal>  (260) 
0.254056

>  <r_i_glide_intrahb_reward>  (260) 
-0

>  <i_i_glide_confnum>  (260) 
2

>  <i_i_glide_posenum>  (260) 
14

>  <r_i_glide_eff_state_penalty>  (260) 
0

>  <ligand_id>  (260) 
60

>  <original_smiles>  (260) 
Cc1csc2[nH]c(CSc3c[nH]nn3)nc(=O)c12

>  <smiles>  (260) 
[H]c1sc2nc(C([H])([H])Sc3nnn([H])c3[H])n([H])c(=O)c2c1C([H])([H])[H]

$$$$
60:1:0
     RDKit          3D

 27 29  0  0  1  0  0  0  0  0999 V2000
   -1.4192   -8.5547    2.8808 C   0  0  0  0  0  0  0  0  0  0  0  0
    0.0306   -8.9385    2.8988 C   0  0  0  0  0  0  0  0  0  0  0  0
    0.4907  -10.0693    3.5295 C   0  0  0  0  0  0  0  0  0  0  0  0
    2.2090  -10.2664    3.3617 S   0  0  0  0  0  0  0  0  0  0  0  0
    2.3308   -8.7920    2.4369 C   0  0  0  0  0  0  0  0  0  0  0  0
    3.5482   -8.3410    1.9671 N   0  0  0  0  0  0  0  0  0  0  0  0
    3.4558   -7.2184    1.3125 C   0  0  0  0  0  0  0  0  0  0  0  0
    4.6755   -6.5569    0.7303 C   0  0  0  0  0  0  0  0  0  0  0  0
    5.0560   -4.9397    1.4570 S   0  0  0  0  0  0  0  0  0  0  0  0
    4.2860   -3.8711    0.3234 C   0  0  0  0  0  0  0  0  0  0  0  0
    4.6107   -3.8104   -1.0445 C   0  0  0  0  0  0  0  0  0  0  0  0
    3.8016   -2.9607   -1.6300 N   0  0  0  0  0  0  0  0  0  0  0  0
    3.0169   -2.5337   -0.5940 N   0  0  0  0  0  0  0  0  0  0  0  0
    3.2721   -3.1064    0.6169 N   0  0  0  0  0  0  0  0  0  0  0  0
    2.2671   -6.5029    1.0597 N   0  0  0  0  0  0  0  0  0  0  0  0
    1.0607   -6.9283    1.5043 C   0  0  0  0  0  0  0  0  0  0  0  0
    0.0290   -6.2951    1.2877 O   0  0  0  0  0  0  0  0  0  0  0  0
    1.0995   -8.2081    2.2814 C   0  0  0  0  0  0  0  0  0  0  0  0
    2.2564   -1.8681   -0.7285 H   0  0  0  0  0  0  0  0  0  0  0  0
   -2.0318   -9.2886    3.4005 H   0  0  0  0  0  0  0  0  0  0  0  0
   -1.7892   -8.4910    1.8573 H   0  0  0  0  0  0  0  0  0  0  0  0
   -1.5758   -7.5947    3.3728 H   0  0  0  0  0  0  0  0  0  0  0  0
   -0.0713  -10.8115    4.0859 H   0  0  0  0  0  0  0  0  0  0  0  0
    5.5379   -7.2033    0.8912 H   0  0  0  0  0  0  0  0  0  0  0  0
    4.5454   -6.4742   -0.3491 H   0  0  0  0  0  0  0  0  0  0  0  0
    5.3516   -4.3719   -1.5931 H   0  0  0  0  0  0  0  0  0  0  0  0
    2.3202   -5.6394    0.5389 H   0  0  0  0  0  0  0  0  0  0  0  0
  1  2  1  0
  1 20  1  0
  1 21  1  0
  1 22  1  0
  2 18  1  0
  2  3  2  0
  3  4  1  0
  3 23  1  0
  4  5  1  0
  5 18  2  0
  5  6  1  0
  6  7  2  0
  7  8  1  0
  7 15  1  0
  8 24  1  0
  8 25  1  0
  8  9  1  0
  9 10  1  0
 10 11  1  0
 10 14  2  0
 11 26  1  0
 11 12  2  0
 12 13  1  0
 13 14  1  0
 13 19  1  0
 15 16  1  0
 15 27  1  0
 16 17  2  0
 16 18  1  0
M  END
>  <i_m_ct_stereo_status>  (261) 
1

>  <s_m_source_file>  (261) 
/var/tmp/pbs.5102264.sched01/tmp5h8_9bj8/92lofvt80g.sdf

>  <i_m_source_file_index>  (261) 
3

>  <i_lp_mmshare_version>  (261) 
48012

>  <i_f3d_flags>  (261) 
0

>  <s_epik_input>  (261) 
czFbY0hdYyhbQ0gzXSljKGMxMiljKD1PKW5jKFtuSF0yKVtDSDJdU2MzW2NIXVtuSF1ubjM=

>  <s_epik_cmdline>  (261) 
J2VwaWtfcHl0aG9uJywgJy1waHQnLCAnMi4wJywgJy1waCcsICc3LjAnLCAnLXRuJywgJzgnLCAnLW1hJywgJzIwMCcsICctaW1hZScsICc8aW5maWxlLm1hZT4nLCAnLW9tYWUnLCAnPG91dGZpbGUubWFlPic=

>  <r_lp_tautomer_probability>  (261) 
0.760114

>  <r_epik_Ionization_Penalty>  (261) 
0.305368

>  <r_epik_Ionization_Penalty_Charging>  (261) 
0.00420793

>  <r_epik_Ionization_Penalty_Neutral>  (261) 
0.30116

>  <r_epik_State_Penalty>  (261) 
0.66118

>  <r_epik_Charging_Adjusted_Penalty>  (261) 
0.665387

>  <i_epik_Tot_Q>  (261) 
0

>  <i_epik_Tot_abs_Q>  (261) 
0

>  <s_lp_Force_Field>  (261) 
OPLS3e

>  <r_lp_Energy>  (261) 
22.3551

>  <b_lp_Chiralities_Consistent>  (261) 
1

>  <s_lp_Variant>  (261) 
60:0-2

>  <s_i_glide_gridfile>  (261) 
pfpi4k_grid

>  <i_i_glide_lignum>  (261) 
3

>  <i_i_glide_rotatable_bonds>  (261) 
3

>  <r_i_docking_score>  (261) 
-3.97186

>  <r_i_glide_ligand_efficiency>  (261) 
-0.220659

>  <r_i_glide_ligand_efficiency_sa>  (261) 
-0.57829

>  <r_i_glide_ligand_efficiency_ln>  (261) 
-1.02095

>  <r_i_glide_gscore>  (261) 
-3.97186

>  <r_i_glide_lipo>  (261) 
-0.21362

>  <r_i_glide_hbond>  (261) 
-0.412229

>  <r_i_glide_metal>  (261) 
-0

>  <r_i_glide_rewards>  (261) 
-1.60574

>  <r_i_glide_evdw>  (261) 
-24.7715

>  <r_i_glide_ecoul>  (261) 
-7.40411

>  <r_i_glide_erotb>  (261) 
0.693612

>  <r_i_glide_esite>  (261) 
-0.0846862

>  <r_i_glide_emodel>  (261) 
-40.1273

>  <r_i_glide_energy>  (261) 
-32.1756

>  <r_i_glide_einternal>  (261) 
2.27236

>  <r_i_glide_intrahb_reward>  (261) 
-0

>  <i_i_glide_confnum>  (261) 
3

>  <i_i_glide_posenum>  (261) 
18

>  <r_i_glide_eff_state_penalty>  (261) 
0

>  <ligand_id>  (261) 
60

>  <original_smiles>  (261) 
Cc1csc2[nH]c(CSc3c[nH]nn3)nc(=O)c12

>  <smiles>  (261) 
[H]c1nn([H])nc1SC([H])([H])c1nc2sc([H])c(C([H])([H])[H])c2c(=O)n1[H]

$$$$
60:1:1
     RDKit          3D

 27 29  0  0  1  0  0  0  0  0999 V2000
    2.0040   -8.5320    1.7973 C   0  0  0  0  0  0  0  0  0  0  0  0
    3.4326   -8.0994    1.6791 C   0  0  0  0  0  0  0  0  0  0  0  0
    4.4899   -8.9578    1.8616 C   0  0  0  0  0  0  0  0  0  0  0  0
    6.0247   -8.1649    1.6834 S   0  0  0  0  0  0  0  0  0  0  0  0
    5.2481   -6.6392    1.3480 C   0  0  0  0  0  0  0  0  0  0  0  0
    5.9870   -5.5000    1.1046 N   0  0  0  0  0  0  0  0  0  0  0  0
    5.2498   -4.4547    0.8787 C   0  0  0  0  0  0  0  0  0  0  0  0
    5.8927   -3.1204    0.5752 C   0  0  0  0  0  0  0  0  0  0  0  0
    6.4110   -2.9682   -1.1745 S   0  0  0  0  0  0  0  0  0  0  0  0
    4.9020   -2.5998   -1.9620 C   0  0  0  0  0  0  0  0  0  0  0  0
    4.4779   -3.0523   -3.2300 C   0  0  0  0  0  0  0  0  0  0  0  0
    3.2661   -2.6011   -3.4502 N   0  0  0  0  0  0  0  0  0  0  0  0
    3.0013   -1.8951   -2.3090 N   0  0  0  0  0  0  0  0  0  0  0  0
    3.9871   -1.8767   -1.3811 N   0  0  0  0  0  0  0  0  0  0  0  0
    3.8394   -4.4251    0.8752 N   0  0  0  0  0  0  0  0  0  0  0  0
    3.0856   -5.5263    1.0989 C   0  0  0  0  0  0  0  0  0  0  0  0
    1.8518   -5.4989    1.0732 O   0  0  0  0  0  0  0  0  0  0  0  0
    3.8790   -6.7680    1.3742 C   0  0  0  0  0  0  0  0  0  0  0  0
    2.0914   -1.4782   -2.1066 H   0  0  0  0  0  0  0  0  0  0  0  0
    1.9317   -9.5985    2.0027 H   0  0  0  0  0  0  0  0  0  0  0  0
    1.4564   -8.3413    0.8786 H   0  0  0  0  0  0  0  0  0  0  0  0
    1.4960   -7.9995    2.6014 H   0  0  0  0  0  0  0  0  0  0  0  0
    4.4570  -10.0148    2.0885 H   0  0  0  0  0  0  0  0  0  0  0  0
    5.2085   -2.3121    0.8501 H   0  0  0  0  0  0  0  0  0  0  0  0
    6.7775   -2.9952    1.2083 H   0  0  0  0  0  0  0  0  0  0  0  0
    4.9857   -3.6898   -3.9380 H   0  0  0  0  0  0  0  0  0  0  0  0
    3.3766   -3.5495    0.6458 H   0  0  0  0  0  0  0  0  0  0  0  0
  1  2  1  0
  1 20  1  0
  1 21  1  0
  1 22  1  0
  2 18  1  0
  2  3  2  0
  3  4  1  0
  3 23  1  0
  4  5  1  0
  5 18  2  0
  5  6  1  0
  6  7  2  0
  7  8  1  0
  7 15  1  0
  8 24  1  0
  8 25  1  0
  8  9  1  0
  9 10  1  0
 10 11  1  0
 10 14  2  0
 11 26  1  0
 11 12  2  0
 12 13  1  0
 13 14  1  0
 13 19  1  0
 15 16  1  0
 15 27  1  0
 16 17  2  0
 16 18  1  0
M  END
>  <i_m_ct_stereo_status>  (262) 
1

>  <s_m_source_file>  (262) 
/var/tmp/pbs.5102264.sched01/tmp5h8_9bj8/92lofvt80g.sdf

>  <i_m_source_file_index>  (262) 
3

>  <i_lp_mmshare_version>  (262) 
48012

>  <i_f3d_flags>  (262) 
0

>  <s_epik_input>  (262) 
czFbY0hdYyhbQ0gzXSljKGMxMiljKD1PKW5jKFtuSF0yKVtDSDJdU2MzW2NIXVtuSF1ubjM=

>  <s_epik_cmdline>  (262) 
J2VwaWtfcHl0aG9uJywgJy1waHQnLCAnMi4wJywgJy1waCcsICc3LjAnLCAnLXRuJywgJzgnLCAnLW1hJywgJzIwMCcsICctaW1hZScsICc8aW5maWxlLm1hZT4nLCAnLW9tYWUnLCAnPG91dGZpbGUubWFlPic=

>  <r_lp_tautomer_probability>  (262) 
0.760114

>  <r_epik_Ionization_Penalty>  (262) 
0.305368

>  <r_epik_Ionization_Penalty_Charging>  (262) 
0.00420793

>  <r_epik_Ionization_Penalty_Neutral>  (262) 
0.30116

>  <r_epik_State_Penalty>  (262) 
0.66118

>  <r_epik_Charging_Adjusted_Penalty>  (262) 
0.665387

>  <i_epik_Tot_Q>  (262) 
0

>  <i_epik_Tot_abs_Q>  (262) 
0

>  <s_lp_Force_Field>  (262) 
OPLS3e

>  <r_lp_Energy>  (262) 
22.3551

>  <b_lp_Chiralities_Consistent>  (262) 
1

>  <s_lp_Variant>  (262) 
60:0-2

>  <s_i_glide_gridfile>  (262) 
pfpi4k_grid

>  <i_i_glide_lignum>  (262) 
3

>  <i_i_glide_rotatable_bonds>  (262) 
3

>  <r_i_docking_score>  (262) 
-3.93711

>  <r_i_glide_ligand_efficiency>  (262) 
-0.218729

>  <r_i_glide_ligand_efficiency_sa>  (262) 
-0.573231

>  <r_i_glide_ligand_efficiency_ln>  (262) 
-1.01201

>  <r_i_glide_gscore>  (262) 
-3.93711

>  <r_i_glide_lipo>  (262) 
-0.513188

>  <r_i_glide_hbond>  (262) 
-0.240873

>  <r_i_glide_metal>  (262) 
-0

>  <r_i_glide_rewards>  (262) 
-1.57529

>  <r_i_glide_evdw>  (262) 
-28.3976

>  <r_i_glide_ecoul>  (262) 
-5.41813

>  <r_i_glide_erotb>  (262) 
0.693612

>  <r_i_glide_esite>  (262) 
-0.0687768

>  <r_i_glide_emodel>  (262) 
-42.0877

>  <r_i_glide_energy>  (262) 
-33.8157

>  <r_i_glide_einternal>  (262) 
1.14039

>  <r_i_glide_intrahb_reward>  (262) 
-0

>  <i_i_glide_confnum>  (262) 
5

>  <i_i_glide_posenum>  (262) 
19

>  <r_i_glide_eff_state_penalty>  (262) 
0

>  <ligand_id>  (262) 
60

>  <original_smiles>  (262) 
Cc1csc2[nH]c(CSc3c[nH]nn3)nc(=O)c12

>  <smiles>  (262) 
[H]c1nn([H])nc1SC([H])([H])c1nc2sc([H])c(C([H])([H])[H])c2c(=O)n1[H]

$$$$
60:1:2
     RDKit          3D

 27 29  0  0  1  0  0  0  0  0999 V2000
    2.3257  -10.7023    3.3212 C   0  0  0  0  0  0  0  0  0  0  0  0
    1.4632   -9.5523    2.8935 C   0  0  0  0  0  0  0  0  0  0  0  0
    0.1076   -9.4971    3.1190 C   0  0  0  0  0  0  0  0  0  0  0  0
   -0.6092   -8.0374    2.4979 S   0  0  0  0  0  0  0  0  0  0  0  0
    0.9373   -7.4699    1.9204 C   0  0  0  0  0  0  0  0  0  0  0  0
    1.0692   -6.2577    1.2740 N   0  0  0  0  0  0  0  0  0  0  0  0
    2.3043   -5.9909    0.9514 C   0  0  0  0  0  0  0  0  0  0  0  0
    2.6734   -4.7108    0.2422 C   0  0  0  0  0  0  0  0  0  0  0  0
    4.4037   -4.5305   -0.3169 S   0  0  0  0  0  0  0  0  0  0  0  0
    4.2170   -3.3259   -1.5595 C   0  0  0  0  0  0  0  0  0  0  0  0
    4.6519   -3.4406   -2.8986 C   0  0  0  0  0  0  0  0  0  0  0  0
    4.2848   -2.3617   -3.5493 N   0  0  0  0  0  0  0  0  0  0  0  0
    3.6264   -1.6408   -2.5914 N   0  0  0  0  0  0  0  0  0  0  0  0
    3.5750   -2.2105   -1.3614 N   0  0  0  0  0  0  0  0  0  0  0  0
    3.4095   -6.8226    1.1819 N   0  0  0  0  0  0  0  0  0  0  0  0
    3.3143   -8.0232    1.7833 C   0  0  0  0  0  0  0  0  0  0  0  0
    4.2956   -8.7417    1.9548 O   0  0  0  0  0  0  0  0  0  0  0  0
    1.9286   -8.3805    2.2126 C   0  0  0  0  0  0  0  0  0  0  0  0
    3.2108   -0.7337   -2.7691 H   0  0  0  0  0  0  0  0  0  0  0  0
    1.7435  -11.4655    3.8348 H   0  0  0  0  0  0  0  0  0  0  0  0
    3.1091  -10.3726    4.0046 H   0  0  0  0  0  0  0  0  0  0  0  0
    2.8045  -11.1789    2.4649 H   0  0  0  0  0  0  0  0  0  0  0  0
   -0.5242  -10.2261    3.6123 H   0  0  0  0  0  0  0  0  0  0  0  0
    2.0208   -4.6315   -0.6297 H   0  0  0  0  0  0  0  0  0  0  0  0
    2.4421   -3.8632    0.8877 H   0  0  0  0  0  0  0  0  0  0  0  0
    5.1699   -4.2539   -3.3843 H   0  0  0  0  0  0  0  0  0  0  0  0
    4.3093   -6.5072    0.8369 H   0  0  0  0  0  0  0  0  0  0  0  0
  1  2  1  0
  1 20  1  0
  1 21  1  0
  1 22  1  0
  2 18  1  0
  2  3  2  0
  3  4  1  0
  3 23  1  0
  4  5  1  0
  5 18  2  0
  5  6  1  0
  6  7  2  0
  7  8  1  0
  7 15  1  0
  8 24  1  0
  8 25  1  0
  8  9  1  0
  9 10  1  0
 10 11  1  0
 10 14  2  0
 11 26  1  0
 11 12  2  0
 12 13  1  0
 13 14  1  0
 13 19  1  0
 15 16  1  0
 15 27  1  0
 16 17  2  0
 16 18  1  0
M  END
>  <i_m_ct_stereo_status>  (263) 
1

>  <s_m_source_file>  (263) 
/var/tmp/pbs.5102264.sched01/tmp5h8_9bj8/92lofvt80g.sdf

>  <i_m_source_file_index>  (263) 
3

>  <i_lp_mmshare_version>  (263) 
48012

>  <i_f3d_flags>  (263) 
0

>  <s_epik_input>  (263) 
czFbY0hdYyhbQ0gzXSljKGMxMiljKD1PKW5jKFtuSF0yKVtDSDJdU2MzW2NIXVtuSF1ubjM=

>  <s_epik_cmdline>  (263) 
J2VwaWtfcHl0aG9uJywgJy1waHQnLCAnMi4wJywgJy1waCcsICc3LjAnLCAnLXRuJywgJzgnLCAnLW1hJywgJzIwMCcsICctaW1hZScsICc8aW5maWxlLm1hZT4nLCAnLW9tYWUnLCAnPG91dGZpbGUubWFlPic=

>  <r_lp_tautomer_probability>  (263) 
0.760114

>  <r_epik_Ionization_Penalty>  (263) 
0.305368

>  <r_epik_Ionization_Penalty_Charging>  (263) 
0.00420793

>  <r_epik_Ionization_Penalty_Neutral>  (263) 
0.30116

>  <r_epik_State_Penalty>  (263) 
0.66118

>  <r_epik_Charging_Adjusted_Penalty>  (263) 
0.665387

>  <i_epik_Tot_Q>  (263) 
0

>  <i_epik_Tot_abs_Q>  (263) 
0

>  <s_lp_Force_Field>  (263) 
OPLS3e

>  <r_lp_Energy>  (263) 
22.3551

>  <b_lp_Chiralities_Consistent>  (263) 
1

>  <s_lp_Variant>  (263) 
60:0-2

>  <s_i_glide_gridfile>  (263) 
pfpi4k_grid

>  <i_i_glide_lignum>  (263) 
3

>  <i_i_glide_rotatable_bonds>  (263) 
3

>  <r_i_docking_score>  (263) 
-3.31384

>  <r_i_glide_ligand_efficiency>  (263) 
-0.184102

>  <r_i_glide_ligand_efficiency_sa>  (263) 
-0.482484

>  <r_i_glide_ligand_efficiency_ln>  (263) 
-0.851805

>  <r_i_glide_gscore>  (263) 
-3.31384

>  <r_i_glide_lipo>  (263) 
-0.166061

>  <r_i_glide_hbond>  (263) 
-0.153387

>  <r_i_glide_metal>  (263) 
-0

>  <r_i_glide_rewards>  (263) 
-1.50448

>  <r_i_glide_evdw>  (263) 
-31.0593

>  <r_i_glide_ecoul>  (263) 
-3.72106

>  <r_i_glide_erotb>  (263) 
0.693612

>  <r_i_glide_esite>  (263) 
-0.0723985

>  <r_i_glide_emodel>  (263) 
-40.4506

>  <r_i_glide_energy>  (263) 
-34.7804

>  <r_i_glide_einternal>  (263) 
3.60103

>  <r_i_glide_intrahb_reward>  (263) 
-0

>  <i_i_glide_confnum>  (263) 
6

>  <i_i_glide_posenum>  (263) 
31

>  <r_i_glide_eff_state_penalty>  (263) 
0

>  <ligand_id>  (263) 
60

>  <original_smiles>  (263) 
Cc1csc2[nH]c(CSc3c[nH]nn3)nc(=O)c12

>  <smiles>  (263) 
[H]c1nn([H])nc1SC([H])([H])c1nc2sc([H])c(C([H])([H])[H])c2c(=O)n1[H]

$$$$
60:2:0
     RDKit          3D

 27 29  0  0  1  0  0  0  0  0999 V2000
    5.6830   -3.2682   -3.2568 C   0  0  0  0  0  0  0  0  0  0  0  0
    6.0401   -2.7881   -1.8912 C   0  0  0  0  0  0  0  0  0  0  0  0
    7.3160   -2.7687   -1.3983 C   0  0  0  0  0  0  0  0  0  0  0  0
    7.3930   -2.1844    0.2354 S   0  0  0  0  0  0  0  0  0  0  0  0
    5.6791   -1.9125    0.2579 C   0  0  0  0  0  0  0  0  0  0  0  0
    5.0470   -1.3885    1.3756 N   0  0  0  0  0  0  0  0  0  0  0  0
    3.7673   -1.2917    1.1937 C   0  0  0  0  0  0  0  0  0  0  0  0
    2.8518   -0.7380    2.2376 C   0  0  0  0  0  0  0  0  0  0  0  0
    2.5337    1.0344    2.1040 S   0  0  0  0  0  0  0  0  0  0  0  0
    0.9277    1.1819    2.7766 C   0  0  0  0  0  0  0  0  0  0  0  0
    0.2461    0.3489    3.6138 C   0  0  0  0  0  0  0  0  0  0  0  0
   -1.0480    0.8580    3.7804 N   0  0  0  0  0  0  0  0  0  0  0  0
   -1.1694    1.9517    3.0893 N   0  0  0  0  0  0  0  0  0  0  0  0
    0.0178    2.1738    2.4865 N   0  0  0  0  0  0  0  0  0  0  0  0
    3.0285   -1.6699    0.0391 N   0  0  0  0  0  0  0  0  0  0  0  0
    3.6461   -2.1648   -1.0497 C   0  0  0  0  0  0  0  0  0  0  0  0
    3.0492   -2.4598   -2.0858 O   0  0  0  0  0  0  0  0  0  0  0  0
    5.1115   -2.2980   -0.9188 C   0  0  0  0  0  0  0  0  0  0  0  0
    0.1627    2.9877    1.8743 H   0  0  0  0  0  0  0  0  0  0  0  0
    6.5969   -3.4417   -3.8122 H   0  0  0  0  0  0  0  0  0  0  0  0
    5.1015   -2.5252   -3.8072 H   0  0  0  0  0  0  0  0  0  0  0  0
    5.1231   -4.2062   -3.2303 H   0  0  0  0  0  0  0  0  0  0  0  0
    8.2394   -3.0836   -1.8670 H   0  0  0  0  0  0  0  0  0  0  0  0
    1.9155   -1.2854    2.1457 H   0  0  0  0  0  0  0  0  0  0  0  0
    3.2533   -0.9316    3.2298 H   0  0  0  0  0  0  0  0  0  0  0  0
    0.5686   -0.5781    4.0699 H   0  0  0  0  0  0  0  0  0  0  0  0
    2.0537   -1.4003   -0.0888 H   0  0  0  0  0  0  0  0  0  0  0  0
  1  2  1  0
  1 20  1  0
  1 21  1  0
  1 22  1  0
  2 18  1  0
  2  3  2  0
  3  4  1  0
  3 23  1  0
  4  5  1  0
  5 18  2  0
  5  6  1  0
  6  7  2  0
  7  8  1  0
  7 15  1  0
  8 24  1  0
  8 25  1  0
  8  9  1  0
  9 10  1  0
 10 11  2  0
 10 14  1  0
 11 26  1  0
 11 12  1  0
 12 13  2  0
 13 14  1  0
 14 19  1  0
 15 16  1  0
 15 27  1  0
 16 17  2  0
 16 18  1  0
M  END
>  <i_m_ct_stereo_status>  (264) 
1

>  <s_m_source_file>  (264) 
/var/tmp/pbs.5102264.sched01/tmp5h8_9bj8/92lofvt80g.sdf

>  <i_m_source_file_index>  (264) 
4

>  <i_lp_mmshare_version>  (264) 
48012

>  <i_f3d_flags>  (264) 
0

>  <s_epik_input>  (264) 
czFbY0hdYyhbQ0gzXSljKGMxMiljKD1PKW5jKFtuSF0yKVtDSDJdU2MzW2NIXVtuSF1ubjM=

>  <s_epik_cmdline>  (264) 
J2VwaWtfcHl0aG9uJywgJy1waHQnLCAnMi4wJywgJy1waCcsICc3LjAnLCAnLXRuJywgJzgnLCAnLW1hJywgJzIwMCcsICctaW1hZScsICc8aW5maWxlLm1hZT4nLCAnLW9tYWUnLCAnPG91dGZpbGUubWFlPic=

>  <r_lp_tautomer_probability>  (264) 
0.0103358

>  <r_epik_Ionization_Penalty>  (264) 
0.0905226

>  <r_epik_Ionization_Penalty_Charging>  (264) 
0.00420793

>  <r_epik_Ionization_Penalty_Neutral>  (264) 
0.0863146

>  <r_epik_State_Penalty>  (264) 
1.90637

>  <r_epik_Charging_Adjusted_Penalty>  (264) 
1.91057

>  <i_epik_Tot_Q>  (264) 
0

>  <i_epik_Tot_abs_Q>  (264) 
0

>  <s_lp_Force_Field>  (264) 
OPLS3e

>  <r_lp_Energy>  (264) 
18.9617

>  <b_lp_Chiralities_Consistent>  (264) 
1

>  <s_lp_Variant>  (264) 
60:0-3

>  <s_i_glide_gridfile>  (264) 
pfpi4k_grid

>  <i_i_glide_lignum>  (264) 
4

>  <i_i_glide_rotatable_bonds>  (264) 
3

>  <r_i_docking_score>  (264) 
-4.28864

>  <r_i_glide_ligand_efficiency>  (264) 
-0.238258

>  <r_i_glide_ligand_efficiency_sa>  (264) 
-0.624412

>  <r_i_glide_ligand_efficiency_ln>  (264) 
-1.10237

>  <r_i_glide_gscore>  (264) 
-4.28864

>  <r_i_glide_lipo>  (264) 
-0.27192

>  <r_i_glide_hbond>  (264) 
-0.304

>  <r_i_glide_metal>  (264) 
-0

>  <r_i_glide_rewards>  (264) 
-1.50448

>  <r_i_glide_evdw>  (264) 
-24.2215

>  <r_i_glide_ecoul>  (264) 
-9.35317

>  <r_i_glide_erotb>  (264) 
0.693612

>  <r_i_glide_esite>  (264) 
-0.287803

>  <r_i_glide_emodel>  (264) 
-42.2086

>  <r_i_glide_energy>  (264) 
-33.5747

>  <r_i_glide_einternal>  (264) 
1.24092

>  <r_i_glide_intrahb_reward>  (264) 
-0

>  <i_i_glide_confnum>  (264) 
4

>  <i_i_glide_posenum>  (264) 
5

>  <r_i_glide_eff_state_penalty>  (264) 
0

>  <ligand_id>  (264) 
60

>  <original_smiles>  (264) 
Cc1csc2[nH]c(CSc3c[nH]nn3)nc(=O)c12

>  <smiles>  (264) 
[H]c1nnn([H])c1SC([H])([H])c1nc2sc([H])c(C([H])([H])[H])c2c(=O)n1[H]

$$$$
60:2:1
     RDKit          3D

 27 29  0  0  1  0  0  0  0  0999 V2000
   -0.6395   -8.8554    2.8899 C   0  0  0  0  0  0  0  0  0  0  0  0
    0.8452   -8.9651    2.7433 C   0  0  0  0  0  0  0  0  0  0  0  0
    1.5726  -10.0201    3.2421 C   0  0  0  0  0  0  0  0  0  0  0  0
    3.2668   -9.8817    2.8834 S   0  0  0  0  0  0  0  0  0  0  0  0
    3.0145   -8.3793    2.0471 C   0  0  0  0  0  0  0  0  0  0  0  0
    4.0691   -7.7027    1.4760 N   0  0  0  0  0  0  0  0  0  0  0  0
    3.6995   -6.5867    0.9212 C   0  0  0  0  0  0  0  0  0  0  0  0
    4.6876   -5.6774    0.2627 C   0  0  0  0  0  0  0  0  0  0  0  0
    5.7272   -4.7783    1.4459 S   0  0  0  0  0  0  0  0  0  0  0  0
    6.6917   -3.8176    0.3577 C   0  0  0  0  0  0  0  0  0  0  0  0
    6.3704   -3.2416   -0.8357 C   0  0  0  0  0  0  0  0  0  0  0  0
    7.5115   -2.6295   -1.3448 N   0  0  0  0  0  0  0  0  0  0  0  0
    8.5020   -2.8016   -0.5159 N   0  0  0  0  0  0  0  0  0  0  0  0
    8.0155   -3.5220    0.5197 N   0  0  0  0  0  0  0  0  0  0  0  0
    2.3880   -6.0861    0.8496 N   0  0  0  0  0  0  0  0  0  0  0  0
    1.3340   -6.7311    1.3854 C   0  0  0  0  0  0  0  0  0  0  0  0
    0.1913   -6.2716    1.3073 O   0  0  0  0  0  0  0  0  0  0  0  0
    1.6842   -8.0183    2.0698 C   0  0  0  0  0  0  0  0  0  0  0  0
    8.5906   -3.8038    1.3006 H   0  0  0  0  0  0  0  0  0  0  0  0
   -1.0575   -9.7614    3.3253 H   0  0  0  0  0  0  0  0  0  0  0  0
   -1.1207   -8.7077    1.9220 H   0  0  0  0  0  0  0  0  0  0  0  0
   -0.9070   -8.0257    3.5436 H   0  0  0  0  0  0  0  0  0  0  0  0
    1.2159  -10.8783    3.7910 H   0  0  0  0  0  0  0  0  0  0  0  0
    5.3479   -6.2759   -0.3634 H   0  0  0  0  0  0  0  0  0  0  0  0
    4.1669   -4.9748   -0.3935 H   0  0  0  0  0  0  0  0  0  0  0  0
    5.4293   -3.2352   -1.3673 H   0  0  0  0  0  0  0  0  0  0  0  0
    2.2411   -5.2115    0.3525 H   0  0  0  0  0  0  0  0  0  0  0  0
  1  2  1  0
  1 20  1  0
  1 21  1  0
  1 22  1  0
  2 18  1  0
  2  3  2  0
  3  4  1  0
  3 23  1  0
  4  5  1  0
  5 18  2  0
  5  6  1  0
  6  7  2  0
  7  8  1  0
  7 15  1  0
  8 24  1  0
  8 25  1  0
  8  9  1  0
  9 10  1  0
 10 11  2  0
 10 14  1  0
 11 26  1  0
 11 12  1  0
 12 13  2  0
 13 14  1  0
 14 19  1  0
 15 16  1  0
 15 27  1  0
 16 17  2  0
 16 18  1  0
M  END
>  <i_m_ct_stereo_status>  (265) 
1

>  <s_m_source_file>  (265) 
/var/tmp/pbs.5102264.sched01/tmp5h8_9bj8/92lofvt80g.sdf

>  <i_m_source_file_index>  (265) 
4

>  <i_lp_mmshare_version>  (265) 
48012

>  <i_f3d_flags>  (265) 
0

>  <s_epik_input>  (265) 
czFbY0hdYyhbQ0gzXSljKGMxMiljKD1PKW5jKFtuSF0yKVtDSDJdU2MzW2NIXVtuSF1ubjM=

>  <s_epik_cmdline>  (265) 
J2VwaWtfcHl0aG9uJywgJy1waHQnLCAnMi4wJywgJy1waCcsICc3LjAnLCAnLXRuJywgJzgnLCAnLW1hJywgJzIwMCcsICctaW1hZScsICc8aW5maWxlLm1hZT4nLCAnLW9tYWUnLCAnPG91dGZpbGUubWFlPic=

>  <r_lp_tautomer_probability>  (265) 
0.0103358

>  <r_epik_Ionization_Penalty>  (265) 
0.0905226

>  <r_epik_Ionization_Penalty_Charging>  (265) 
0.00420793

>  <r_epik_Ionization_Penalty_Neutral>  (265) 
0.0863146

>  <r_epik_State_Penalty>  (265) 
1.90637

>  <r_epik_Charging_Adjusted_Penalty>  (265) 
1.91057

>  <i_epik_Tot_Q>  (265) 
0

>  <i_epik_Tot_abs_Q>  (265) 
0

>  <s_lp_Force_Field>  (265) 
OPLS3e

>  <r_lp_Energy>  (265) 
18.9617

>  <b_lp_Chiralities_Consistent>  (265) 
1

>  <s_lp_Variant>  (265) 
60:0-3

>  <s_i_glide_gridfile>  (265) 
pfpi4k_grid

>  <i_i_glide_lignum>  (265) 
4

>  <i_i_glide_rotatable_bonds>  (265) 
3

>  <r_i_docking_score>  (265) 
-3.94161

>  <r_i_glide_ligand_efficiency>  (265) 
-0.218978

>  <r_i_glide_ligand_efficiency_sa>  (265) 
-0.573885

>  <r_i_glide_ligand_efficiency_ln>  (265) 
-1.01317

>  <r_i_glide_gscore>  (265) 
-3.94161

>  <r_i_glide_lipo>  (265) 
-0.41057

>  <r_i_glide_hbond>  (265) 
-0.218978

>  <r_i_glide_metal>  (265) 
-0

>  <r_i_glide_rewards>  (265) 
-1.60033

>  <r_i_glide_evdw>  (265) 
-26.8633

>  <r_i_glide_ecoul>  (265) 
-6.17621

>  <r_i_glide_erotb>  (265) 
0.693612

>  <r_i_glide_esite>  (265) 
-0.135746

>  <r_i_glide_emodel>  (265) 
-41.9146

>  <r_i_glide_energy>  (265) 
-33.0395

>  <r_i_glide_einternal>  (265) 
0.43474

>  <r_i_glide_intrahb_reward>  (265) 
-0

>  <i_i_glide_confnum>  (265) 
6

>  <i_i_glide_posenum>  (265) 
7

>  <r_i_glide_eff_state_penalty>  (265) 
0

>  <ligand_id>  (265) 
60

>  <original_smiles>  (265) 
Cc1csc2[nH]c(CSc3c[nH]nn3)nc(=O)c12

>  <smiles>  (265) 
[H]c1nnn([H])c1SC([H])([H])c1nc2sc([H])c(C([H])([H])[H])c2c(=O)n1[H]

$$$$
60:2:2
     RDKit          3D

 27 29  0  0  1  0  0  0  0  0999 V2000
    1.7788   -1.1803    3.6686 C   0  0  0  0  0  0  0  0  0  0  0  0
    0.4722   -0.6557    4.1613 C   0  0  0  0  0  0  0  0  0  0  0  0
   -0.2591   -1.2693    5.1477 C   0  0  0  0  0  0  0  0  0  0  0  0
   -1.7306   -0.4105    5.5024 S   0  0  0  0  0  0  0  0  0  0  0  0
   -1.3276    0.8428    4.3700 C   0  0  0  0  0  0  0  0  0  0  0  0
   -2.1443    1.9445    4.2117 N   0  0  0  0  0  0  0  0  0  0  0  0
   -1.7404    2.7027    3.2265 C   0  0  0  0  0  0  0  0  0  0  0  0
   -2.5521    3.8708    2.7773 C   0  0  0  0  0  0  0  0  0  0  0  0
   -4.1841    3.4797    2.0783 S   0  0  0  0  0  0  0  0  0  0  0  0
   -4.8766    5.0711    1.8800 C   0  0  0  0  0  0  0  0  0  0  0  0
   -4.2898    6.2788    1.6277 C   0  0  0  0  0  0  0  0  0  0  0  0
   -5.2786    7.2657    1.6829 N   0  0  0  0  0  0  0  0  0  0  0  0
   -6.4301    6.7093    1.9081 N   0  0  0  0  0  0  0  0  0  0  0  0
   -6.1956    5.3899    2.0714 N   0  0  0  0  0  0  0  0  0  0  0  0
   -0.5561    2.5395    2.4821 N   0  0  0  0  0  0  0  0  0  0  0  0
    0.2775    1.4968    2.6544 C   0  0  0  0  0  0  0  0  0  0  0  0
    1.3125    1.3513    2.0194 O   0  0  0  0  0  0  0  0  0  0  0  0
   -0.1684    0.5385    3.7045 C   0  0  0  0  0  0  0  0  0  0  0  0
   -6.9493    4.7290    2.2397 H   0  0  0  0  0  0  0  0  0  0  0  0
    2.1127   -2.0255    4.2685 H   0  0  0  0  0  0  0  0  0  0  0  0
    2.5534   -0.4123    3.7183 H   0  0  0  0  0  0  0  0  0  0  0  0
    1.6888   -1.5233    2.6388 H   0  0  0  0  0  0  0  0  0  0  0  0
   -0.0415   -2.1706    5.7015 H   0  0  0  0  0  0  0  0  0  0  0  0
   -2.7096    4.4744    3.6627 H   0  0  0  0  0  0  0  0  0  0  0  0
   -1.9857    4.4830    2.0780 H   0  0  0  0  0  0  0  0  0  0  0  0
   -3.2409    6.4958    1.4603 H   0  0  0  0  0  0  0  0  0  0  0  0
   -0.3053    3.2443    1.7835 H   0  0  0  0  0  0  0  0  0  0  0  0
  1  2  1  0
  1 20  1  0
  1 21  1  0
  1 22  1  0
  2 18  1  0
  2  3  2  0
  3  4  1  0
  3 23  1  0
  4  5  1  0
  5 18  2  0
  5  6  1  0
  6  7  2  0
  7  8  1  0
  7 15  1  0
  8 24  1  0
  8 25  1  0
  8  9  1  0
  9 10  1  0
 10 11  2  0
 10 14  1  0
 11 26  1  0
 11 12  1  0
 12 13  2  0
 13 14  1  0
 14 19  1  0
 15 16  1  0
 15 27  1  0
 16 17  2  0
 16 18  1  0
M  END
>  <i_m_ct_stereo_status>  (266) 
1

>  <s_m_source_file>  (266) 
/var/tmp/pbs.5102264.sched01/tmp5h8_9bj8/92lofvt80g.sdf

>  <i_m_source_file_index>  (266) 
4

>  <i_lp_mmshare_version>  (266) 
48012

>  <i_f3d_flags>  (266) 
0

>  <s_epik_input>  (266) 
czFbY0hdYyhbQ0gzXSljKGMxMiljKD1PKW5jKFtuSF0yKVtDSDJdU2MzW2NIXVtuSF1ubjM=

>  <s_epik_cmdline>  (266) 
J2VwaWtfcHl0aG9uJywgJy1waHQnLCAnMi4wJywgJy1waCcsICc3LjAnLCAnLXRuJywgJzgnLCAnLW1hJywgJzIwMCcsICctaW1hZScsICc8aW5maWxlLm1hZT4nLCAnLW9tYWUnLCAnPG91dGZpbGUubWFlPic=

>  <r_lp_tautomer_probability>  (266) 
0.0103358

>  <r_epik_Ionization_Penalty>  (266) 
0.0905226

>  <r_epik_Ionization_Penalty_Charging>  (266) 
0.00420793

>  <r_epik_Ionization_Penalty_Neutral>  (266) 
0.0863146

>  <r_epik_State_Penalty>  (266) 
1.90637

>  <r_epik_Charging_Adjusted_Penalty>  (266) 
1.91057

>  <i_epik_Tot_Q>  (266) 
0

>  <i_epik_Tot_abs_Q>  (266) 
0

>  <s_lp_Force_Field>  (266) 
OPLS3e

>  <r_lp_Energy>  (266) 
18.9617

>  <b_lp_Chiralities_Consistent>  (266) 
1

>  <s_lp_Variant>  (266) 
60:0-3

>  <s_i_glide_gridfile>  (266) 
pfpi4k_grid

>  <i_i_glide_lignum>  (266) 
4

>  <i_i_glide_rotatable_bonds>  (266) 
3

>  <r_i_docking_score>  (266) 
-3.93505

>  <r_i_glide_ligand_efficiency>  (266) 
-0.218614

>  <r_i_glide_ligand_efficiency_sa>  (266) 
-0.57293

>  <r_i_glide_ligand_efficiency_ln>  (266) 
-1.01148

>  <r_i_glide_gscore>  (266) 
-3.93505

>  <r_i_glide_lipo>  (266) 
-0.289138

>  <r_i_glide_hbond>  (266) 
-0.296703

>  <r_i_glide_metal>  (266) 
-0

>  <r_i_glide_rewards>  (266) 
-1.50448

>  <r_i_glide_evdw>  (266) 
-28.3559

>  <r_i_glide_ecoul>  (266) 
-6.22869

>  <r_i_glide_erotb>  (266) 
0.693612

>  <r_i_glide_esite>  (266) 
-0.186245

>  <r_i_glide_emodel>  (266) 
-43.1878

>  <r_i_glide_energy>  (266) 
-34.5845

>  <r_i_glide_einternal>  (266) 
0.465984

>  <r_i_glide_intrahb_reward>  (266) 
-0

>  <i_i_glide_confnum>  (266) 
2

>  <i_i_glide_posenum>  (266) 
13

>  <r_i_glide_eff_state_penalty>  (266) 
0

>  <ligand_id>  (266) 
60

>  <original_smiles>  (266) 
Cc1csc2[nH]c(CSc3c[nH]nn3)nc(=O)c12

>  <smiles>  (266) 
[H]c1nnn([H])c1SC([H])([H])c1nc2sc([H])c(C([H])([H])[H])c2c(=O)n1[H]

$$$$
60:3:0
     RDKit          3D

 27 29  0  0  1  0  0  0  0  0999 V2000
   -0.1644   -9.3625    2.9789 C   0  0  0  0  0  0  0  0  0  0  0  0
    1.2786   -9.1388    2.6462 C   0  0  0  0  0  0  0  0  0  0  0  0
    2.2843  -10.0228    2.9608 C   0  0  0  0  0  0  0  0  0  0  0  0
    3.8542   -9.4689    2.4326 S   0  0  0  0  0  0  0  0  0  0  0  0
    3.1353   -8.0366    1.7769 C   0  0  0  0  0  0  0  0  0  0  0  0
    3.8040   -7.0089    1.1437 N   0  0  0  0  0  0  0  0  0  0  0  0
    3.0700   -5.9184    0.6849 C   0  0  0  0  0  0  0  0  0  0  0  0
    3.8857   -4.8660   -0.0057 C   0  0  0  0  0  0  0  0  0  0  0  0
    4.9800   -3.9290    1.0983 S   0  0  0  0  0  0  0  0  0  0  0  0
    6.2156   -3.4322   -0.0150 C   0  0  0  0  0  0  0  0  0  0  0  0
    6.1704   -3.3856   -1.3770 C   0  0  0  0  0  0  0  0  0  0  0  0
    7.4530   -3.0229   -1.7214 N   0  0  0  0  0  0  0  0  0  0  0  0
    8.2357   -2.8435   -0.6402 N   0  0  0  0  0  0  0  0  0  0  0  0
    7.4969   -3.0732    0.4028 N   0  0  0  0  0  0  0  0  0  0  0  0
    1.7807   -5.7764    0.7780 N   0  0  0  0  0  0  0  0  0  0  0  0
    1.0382   -6.7801    1.4244 C   0  0  0  0  0  0  0  0  0  0  0  0
   -0.1833   -6.6816    1.5651 O   0  0  0  0  0  0  0  0  0  0  0  0
    1.7810   -7.9906    1.9574 C   0  0  0  0  0  0  0  0  0  0  0  0
    4.8064   -7.0672    1.0373 H   0  0  0  0  0  0  0  0  0  0  0  0
    7.8283   -2.9612   -2.6646 H   0  0  0  0  0  0  0  0  0  0  0  0
   -0.3115  -10.2736    3.5516 H   0  0  0  0  0  0  0  0  0  0  0  0
   -0.7670   -9.4468    2.0753 H   0  0  0  0  0  0  0  0  0  0  0  0
   -0.5640   -8.5387    3.5706 H   0  0  0  0  0  0  0  0  0  0  0  0
    2.1929  -10.9715    3.4643 H   0  0  0  0  0  0  0  0  0  0  0  0
    4.4780   -5.3968   -0.7543 H   0  0  0  0  0  0  0  0  0  0  0  0
    3.2260   -4.1683   -0.5331 H   0  0  0  0  0  0  0  0  0  0  0  0
    5.3875   -3.6263   -2.0838 H   0  0  0  0  0  0  0  0  0  0  0  0
  1  2  1  0
  1 21  1  0
  1 22  1  0
  1 23  1  0
  2 18  1  0
  2  3  2  0
  3  4  1  0
  3 24  1  0
  4  5  1  0
  5 18  2  0
  5  6  1  0
  6 19  1  0
  6  7  1  0
  7  8  1  0
  7 15  2  0
  8  9  1  0
  8 25  1  0
  8 26  1  0
  9 10  1  0
 10 14  1  0
 10 11  2  0
 11 12  1  0
 11 27  1  0
 12 20  1  0
 12 13  1  0
 13 14  2  0
 15 16  1  0
 16 17  2  0
 16 18  1  0
M  END
>  <i_m_ct_stereo_status>  (267) 
1

>  <s_m_source_file>  (267) 
/var/tmp/pbs.5102264.sched01/tmp5h8_9bj8/92lofvt80g.sdf

>  <i_m_source_file_index>  (267) 
5

>  <i_lp_mmshare_version>  (267) 
48012

>  <i_f3d_flags>  (267) 
0

>  <s_epik_input>  (267) 
czFbY0hdYyhbQ0gzXSljKGMxMiljKD1PKW5jKFtuSF0yKVtDSDJdU2MzW2NIXVtuSF1ubjM=

>  <s_epik_cmdline>  (267) 
J2VwaWtfcHl0aG9uJywgJy1waHQnLCAnMi4wJywgJy1waCcsICc3LjAnLCAnLXRuJywgJzgnLCAnLW1hJywgJzIwMCcsICctaW1hZScsICc8aW5maWxlLm1hZT4nLCAnLW9tYWUnLCAnPG91dGZpbGUubWFlPic=

>  <r_epik_Ionization_Penalty>  (267) 
0.0717166

>  <r_epik_Ionization_Penalty_Charging>  (267) 
0.0523558

>  <r_epik_Ionization_Penalty_Neutral>  (267) 
0.0193608

>  <r_epik_State_Penalty>  (267) 
1.94666

>  <r_epik_Charging_Adjusted_Penalty>  (267) 
1.99902

>  <i_epik_Tot_Q>  (267) 
0

>  <i_epik_Tot_abs_Q>  (267) 
0

>  <s_lp_Force_Field>  (267) 
OPLS3e

>  <r_lp_Energy>  (267) 
22.8339

>  <b_lp_Chiralities_Consistent>  (267) 
1

>  <s_lp_Variant>  (267) 
60:0-4

>  <s_i_glide_gridfile>  (267) 
pfpi4k_grid

>  <i_i_glide_lignum>  (267) 
5

>  <i_i_glide_rotatable_bonds>  (267) 
3

>  <r_i_docking_score>  (267) 
-4.11292

>  <r_i_glide_ligand_efficiency>  (267) 
-0.228496

>  <r_i_glide_ligand_efficiency_sa>  (267) 
-0.598828

>  <r_i_glide_ligand_efficiency_ln>  (267) 
-1.0572

>  <r_i_glide_gscore>  (267) 
-4.11292

>  <r_i_glide_lipo>  (267) 
-0.312762

>  <r_i_glide_hbond>  (267) 
-0.62184

>  <r_i_glide_metal>  (267) 
-0

>  <r_i_glide_rewards>  (267) 
-1.50448

>  <r_i_glide_evdw>  (267) 
-27.1512

>  <r_i_glide_ecoul>  (267) 
-6.29662

>  <r_i_glide_erotb>  (267) 
0.693612

>  <r_i_glide_esite>  (267) 
-0.0653976

>  <r_i_glide_emodel>  (267) 
-42.0089

>  <r_i_glide_energy>  (267) 
-33.4478

>  <r_i_glide_einternal>  (267) 
0.879436

>  <r_i_glide_intrahb_reward>  (267) 
-0

>  <i_i_glide_confnum>  (267) 
1

>  <i_i_glide_posenum>  (267) 
27

>  <r_i_glide_eff_state_penalty>  (267) 
0

>  <ligand_id>  (267) 
60

>  <original_smiles>  (267) 
Cc1csc2[nH]c(CSc3c[nH]nn3)nc(=O)c12

>  <smiles>  (267) 
[H]c1sc2c(c1C([H])([H])[H])c(=O)nc(C([H])([H])Sc1nnn([H])c1[H])n2[H]

$$$$
60:3:1
     RDKit          3D

 27 29  0  0  1  0  0  0  0  0999 V2000
    3.9335   -9.1832    2.8200 C   0  0  0  0  0  0  0  0  0  0  0  0
    4.9249   -8.1951    2.2813 C   0  0  0  0  0  0  0  0  0  0  0  0
    6.2885   -8.3278    2.4193 C   0  0  0  0  0  0  0  0  0  0  0  0
    7.1696   -7.0085    1.6814 S   0  0  0  0  0  0  0  0  0  0  0  0
    5.6718   -6.2745    1.2009 C   0  0  0  0  0  0  0  0  0  0  0  0
    5.5407   -5.0875    0.5064 N   0  0  0  0  0  0  0  0  0  0  0  0
    4.2639   -4.6523    0.1797 C   0  0  0  0  0  0  0  0  0  0  0  0
    4.2286   -3.3797   -0.6074 C   0  0  0  0  0  0  0  0  0  0  0  0
    5.0239   -3.4580   -2.2263 S   0  0  0  0  0  0  0  0  0  0  0  0
    4.3326   -2.0507   -2.9420 C   0  0  0  0  0  0  0  0  0  0  0  0
    3.8251   -0.9408   -2.3409 C   0  0  0  0  0  0  0  0  0  0  0  0
    3.4093   -0.1777   -3.4088 N   0  0  0  0  0  0  0  0  0  0  0  0
    3.6434   -0.7668   -4.5917 N   0  0  0  0  0  0  0  0  0  0  0  0
    4.1984   -1.9062   -4.3199 N   0  0  0  0  0  0  0  0  0  0  0  0
    3.1502   -5.2430    0.4929 N   0  0  0  0  0  0  0  0  0  0  0  0
    3.2131   -6.4521    1.2058 C   0  0  0  0  0  0  0  0  0  0  0  0
    2.1995   -7.0690    1.5202 O   0  0  0  0  0  0  0  0  0  0  0  0
    4.5802   -6.9958    1.5721 C   0  0  0  0  0  0  0  0  0  0  0  0
    6.3651   -4.5931    0.2157 H   0  0  0  0  0  0  0  0  0  0  0  0
    2.9630    0.7350   -3.3435 H   0  0  0  0  0  0  0  0  0  0  0  0
    4.4181   -9.9791    3.3822 H   0  0  0  0  0  0  0  0  0  0  0  0
    3.3680   -9.6551    2.0148 H   0  0  0  0  0  0  0  0  0  0  0  0
    3.2203   -8.7020    3.4918 H   0  0  0  0  0  0  0  0  0  0  0  0
    6.8309   -9.1236    2.9137 H   0  0  0  0  0  0  0  0  0  0  0  0
    3.1787   -3.1260   -0.7705 H   0  0  0  0  0  0  0  0  0  0  0  0
    4.6780   -2.5739   -0.0271 H   0  0  0  0  0  0  0  0  0  0  0  0
    3.7204   -0.6633   -1.3008 H   0  0  0  0  0  0  0  0  0  0  0  0
  1  2  1  0
  1 21  1  0
  1 22  1  0
  1 23  1  0
  2 18  1  0
  2  3  2  0
  3  4  1  0
  3 24  1  0
  4  5  1  0
  5 18  2  0
  5  6  1  0
  6 19  1  0
  6  7  1  0
  7  8  1  0
  7 15  2  0
  8  9  1  0
  8 25  1  0
  8 26  1  0
  9 10  1  0
 10 14  1  0
 10 11  2  0
 11 12  1  0
 11 27  1  0
 12 20  1  0
 12 13  1  0
 13 14  2  0
 15 16  1  0
 16 17  2  0
 16 18  1  0
M  END
>  <i_m_ct_stereo_status>  (268) 
1

>  <s_m_source_file>  (268) 
/var/tmp/pbs.5102264.sched01/tmp5h8_9bj8/92lofvt80g.sdf

>  <i_m_source_file_index>  (268) 
5

>  <i_lp_mmshare_version>  (268) 
48012

>  <i_f3d_flags>  (268) 
0

>  <s_epik_input>  (268) 
czFbY0hdYyhbQ0gzXSljKGMxMiljKD1PKW5jKFtuSF0yKVtDSDJdU2MzW2NIXVtuSF1ubjM=

>  <s_epik_cmdline>  (268) 
J2VwaWtfcHl0aG9uJywgJy1waHQnLCAnMi4wJywgJy1waCcsICc3LjAnLCAnLXRuJywgJzgnLCAnLW1hJywgJzIwMCcsICctaW1hZScsICc8aW5maWxlLm1hZT4nLCAnLW9tYWUnLCAnPG91dGZpbGUubWFlPic=

>  <r_epik_Ionization_Penalty>  (268) 
0.0717166

>  <r_epik_Ionization_Penalty_Charging>  (268) 
0.0523558

>  <r_epik_Ionization_Penalty_Neutral>  (268) 
0.0193608

>  <r_epik_State_Penalty>  (268) 
1.94666

>  <r_epik_Charging_Adjusted_Penalty>  (268) 
1.99902

>  <i_epik_Tot_Q>  (268) 
0

>  <i_epik_Tot_abs_Q>  (268) 
0

>  <s_lp_Force_Field>  (268) 
OPLS3e

>  <r_lp_Energy>  (268) 
22.8339

>  <b_lp_Chiralities_Consistent>  (268) 
1

>  <s_lp_Variant>  (268) 
60:0-4

>  <s_i_glide_gridfile>  (268) 
pfpi4k_grid

>  <i_i_glide_lignum>  (268) 
5

>  <i_i_glide_rotatable_bonds>  (268) 
3

>  <r_i_docking_score>  (268) 
-3.9251

>  <r_i_glide_ligand_efficiency>  (268) 
-0.218061

>  <r_i_glide_ligand_efficiency_sa>  (268) 
-0.571482

>  <r_i_glide_ligand_efficiency_ln>  (268) 
-1.00893

>  <r_i_glide_gscore>  (268) 
-3.9251

>  <r_i_glide_lipo>  (268) 
-0.535563

>  <r_i_glide_hbond>  (268) 
-0.32

>  <r_i_glide_metal>  (268) 
-0

>  <r_i_glide_rewards>  (268) 
-1.51541

>  <r_i_glide_evdw>  (268) 
-26.8881

>  <r_i_glide_ecoul>  (268) 
-5.69128

>  <r_i_glide_erotb>  (268) 
0.693612

>  <r_i_glide_esite>  (268) 
-0.0496403

>  <r_i_glide_emodel>  (268) 
-40.782

>  <r_i_glide_energy>  (268) 
-32.5794

>  <r_i_glide_einternal>  (268) 
0.617104

>  <r_i_glide_intrahb_reward>  (268) 
-0

>  <i_i_glide_confnum>  (268) 
2

>  <i_i_glide_posenum>  (268) 
18

>  <r_i_glide_eff_state_penalty>  (268) 
0

>  <ligand_id>  (268) 
60

>  <original_smiles>  (268) 
Cc1csc2[nH]c(CSc3c[nH]nn3)nc(=O)c12

>  <smiles>  (268) 
[H]c1sc2c(c1C([H])([H])[H])c(=O)nc(C([H])([H])Sc1nnn([H])c1[H])n2[H]

$$$$
60:3:2
     RDKit          3D

 27 29  0  0  1  0  0  0  0  0999 V2000
   -0.1734   -9.9656    3.4680 C   0  0  0  0  0  0  0  0  0  0  0  0
    1.2019   -9.5932    3.0049 C   0  0  0  0  0  0  0  0  0  0  0  0
    2.3201  -10.3627    3.2321 C   0  0  0  0  0  0  0  0  0  0  0  0
    3.7694   -9.6523    2.5607 S   0  0  0  0  0  0  0  0  0  0  0  0
    2.8484   -8.2979    1.9835 C   0  0  0  0  0  0  0  0  0  0  0  0
    3.3483   -7.2093    1.2942 N   0  0  0  0  0  0  0  0  0  0  0  0
    2.4618   -6.2260    0.8804 C   0  0  0  0  0  0  0  0  0  0  0  0
    3.0951   -5.0859    0.1239 C   0  0  0  0  0  0  0  0  0  0  0  0
    3.5908   -3.7136    1.1891 S   0  0  0  0  0  0  0  0  0  0  0  0
    4.2245   -2.5869    0.0306 C   0  0  0  0  0  0  0  0  0  0  0  0
    3.8193   -1.3152   -0.2249 C   0  0  0  0  0  0  0  0  0  0  0  0
    4.6340   -0.9437   -1.2691 N   0  0  0  0  0  0  0  0  0  0  0  0
    5.4848   -1.9237   -1.6431 N   0  0  0  0  0  0  0  0  0  0  0  0
    5.2510   -2.9253   -0.8595 N   0  0  0  0  0  0  0  0  0  0  0  0
    1.1741   -6.2286    1.0797 N   0  0  0  0  0  0  0  0  0  0  0  0
    0.6080   -7.2851    1.8102 C   0  0  0  0  0  0  0  0  0  0  0  0
   -0.5939   -7.3101    2.0776 O   0  0  0  0  0  0  0  0  0  0  0  0
    1.5184   -8.4036    2.2758 C   0  0  0  0  0  0  0  0  0  0  0  0
    4.3351   -7.1786    1.0859 H   0  0  0  0  0  0  0  0  0  0  0  0
    4.6182   -0.0457   -1.7335 H   0  0  0  0  0  0  0  0  0  0  0  0
   -0.1642  -10.8815    4.0537 H   0  0  0  0  0  0  0  0  0  0  0  0
   -0.8460  -10.1227    2.6244 H   0  0  0  0  0  0  0  0  0  0  0  0
   -0.6049   -9.1875    4.0990 H   0  0  0  0  0  0  0  0  0  0  0  0
    2.3787  -11.3111    3.7464 H   0  0  0  0  0  0  0  0  0  0  0  0
    3.9537   -5.4445   -0.4473 H   0  0  0  0  0  0  0  0  0  0  0  0
    2.3703   -4.7043   -0.5982 H   0  0  0  0  0  0  0  0  0  0  0  0
    3.0405   -0.6961    0.2023 H   0  0  0  0  0  0  0  0  0  0  0  0
  1  2  1  0
  1 21  1  0
  1 22  1  0
  1 23  1  0
  2 18  1  0
  2  3  2  0
  3  4  1  0
  3 24  1  0
  4  5  1  0
  5 18  2  0
  5  6  1  0
  6 19  1  0
  6  7  1  0
  7  8  1  0
  7 15  2  0
  8  9  1  0
  8 25  1  0
  8 26  1  0
  9 10  1  0
 10 14  1  0
 10 11  2  0
 11 12  1  0
 11 27  1  0
 12 20  1  0
 12 13  1  0
 13 14  2  0
 15 16  1  0
 16 17  2  0
 16 18  1  0
M  END
>  <i_m_ct_stereo_status>  (269) 
1

>  <s_m_source_file>  (269) 
/var/tmp/pbs.5102264.sched01/tmp5h8_9bj8/92lofvt80g.sdf

>  <i_m_source_file_index>  (269) 
5

>  <i_lp_mmshare_version>  (269) 
48012

>  <i_f3d_flags>  (269) 
0

>  <s_epik_input>  (269) 
czFbY0hdYyhbQ0gzXSljKGMxMiljKD1PKW5jKFtuSF0yKVtDSDJdU2MzW2NIXVtuSF1ubjM=

>  <s_epik_cmdline>  (269) 
J2VwaWtfcHl0aG9uJywgJy1waHQnLCAnMi4wJywgJy1waCcsICc3LjAnLCAnLXRuJywgJzgnLCAnLW1hJywgJzIwMCcsICctaW1hZScsICc8aW5maWxlLm1hZT4nLCAnLW9tYWUnLCAnPG91dGZpbGUubWFlPic=

>  <r_epik_Ionization_Penalty>  (269) 
0.0717166

>  <r_epik_Ionization_Penalty_Charging>  (269) 
0.0523558

>  <r_epik_Ionization_Penalty_Neutral>  (269) 
0.0193608

>  <r_epik_State_Penalty>  (269) 
1.94666

>  <r_epik_Charging_Adjusted_Penalty>  (269) 
1.99902

>  <i_epik_Tot_Q>  (269) 
0

>  <i_epik_Tot_abs_Q>  (269) 
0

>  <s_lp_Force_Field>  (269) 
OPLS3e

>  <r_lp_Energy>  (269) 
22.8339

>  <b_lp_Chiralities_Consistent>  (269) 
1

>  <s_lp_Variant>  (269) 
60:0-4

>  <s_i_glide_gridfile>  (269) 
pfpi4k_grid

>  <i_i_glide_lignum>  (269) 
5

>  <i_i_glide_rotatable_bonds>  (269) 
3

>  <r_i_docking_score>  (269) 
-3.31832

>  <r_i_glide_ligand_efficiency>  (269) 
-0.184351

>  <r_i_glide_ligand_efficiency_sa>  (269) 
-0.483136

>  <r_i_glide_ligand_efficiency_ln>  (269) 
-0.852956

>  <r_i_glide_gscore>  (269) 
-3.31832

>  <r_i_glide_lipo>  (269) 
-0.0676743

>  <r_i_glide_hbond>  (269) 
-0.26673

>  <r_i_glide_metal>  (269) 
-0

>  <r_i_glide_rewards>  (269) 
-1.50448

>  <r_i_glide_evdw>  (269) 
-26.7934

>  <r_i_glide_ecoul>  (269) 
-4.80862

>  <r_i_glide_erotb>  (269) 
0.693612

>  <r_i_glide_esite>  (269) 
-0.112087

>  <r_i_glide_emodel>  (269) 
-38.5442

>  <r_i_glide_energy>  (269) 
-31.602

>  <r_i_glide_einternal>  (269) 
0.855544

>  <r_i_glide_intrahb_reward>  (269) 
-0

>  <i_i_glide_confnum>  (269) 
1

>  <i_i_glide_posenum>  (269) 
11

>  <r_i_glide_eff_state_penalty>  (269) 
0

>  <ligand_id>  (269) 
60

>  <original_smiles>  (269) 
Cc1csc2[nH]c(CSc3c[nH]nn3)nc(=O)c12

>  <smiles>  (269) 
[H]c1sc2c(c1C([H])([H])[H])c(=O)nc(C([H])([H])Sc1nnn([H])c1[H])n2[H]

$$$$
60:4:0
     RDKit          3D

 26 28  0  0  1  0  0  0  0  0999 V2000
    0.5742   -6.6855   10.1484 C   0  0  0  0  0  0  0  0  0  0  0  0
    0.3750   -6.5867    8.6826 C   0  0  0  0  0  0  0  0  0  0  0  0
    0.0170   -5.4419    8.0205 C   0  0  0  0  0  0  0  0  0  0  0  0
   -0.1088   -5.6865    6.3043 S   0  0  0  0  0  0  0  0  0  0  0  0
    0.3821   -7.3248    6.4726 C   0  0  0  0  0  0  0  0  0  0  0  0
    0.5088   -8.1368    5.3831 N   0  0  0  0  0  0  0  0  0  0  0  0
    0.7675   -9.3693    5.6443 C   0  0  0  0  0  0  0  0  0  0  0  0
    0.8497  -10.4266    4.5213 C   0  0  0  0  0  0  0  0  0  0  0  0
    1.4240   -9.7481    2.9193 S   0  0  0  0  0  0  0  0  0  0  0  0
    0.2854   -8.4674    2.4443 C   0  0  0  0  0  0  0  0  0  0  0  0
   -1.0376   -8.4600    2.9809 C   0  0  0  0  0  0  0  0  0  0  0  0
   -1.5473   -7.2681    2.7492 N   0  0  0  0  0  0  0  0  0  0  0  0
   -0.5984   -6.6677    2.0745 N   0  0  0  0  0  0  0  0  0  0  0  0
    0.5412   -7.2925    1.8868 N   0  0  0  0  0  0  0  0  0  0  0  0
    1.0057   -9.8674    6.9353 N   0  0  0  0  0  0  0  0  0  0  0  0
    0.9449   -9.1106    8.0444 C   0  0  0  0  0  0  0  0  0  0  0  0
    1.1426   -9.5327    9.1871 O   0  0  0  0  0  0  0  0  0  0  0  0
    0.5653   -7.6788    7.7761 C   0  0  0  0  0  0  0  0  0  0  0  0
    0.4268   -5.7127   10.6149 H   0  0  0  0  0  0  0  0  0  0  0  0
    1.5880   -7.0272   10.3652 H   0  0  0  0  0  0  0  0  0  0  0  0
   -0.1311   -7.3972   10.5772 H   0  0  0  0  0  0  0  0  0  0  0  0
   -0.1714   -4.4490    8.3975 H   0  0  0  0  0  0  0  0  0  0  0  0
    1.4379  -11.2981    4.8312 H   0  0  0  0  0  0  0  0  0  0  0  0
   -0.1370  -10.8292    4.2938 H   0  0  0  0  0  0  0  0  0  0  0  0
   -1.4977   -9.1467    3.6768 H   0  0  0  0  0  0  0  0  0  0  0  0
    1.2104  -10.8592    7.0666 H   0  0  0  0  0  0  0  0  0  0  0  0
  1  2  1  0
  1 19  1  0
  1 20  1  0
  1 21  1  0
  2 18  1  0
  2  3  2  0
  3  4  1  0
  3 22  1  0
  4  5  1  0
  5 18  2  0
  5  6  1  0
  6  7  2  0
  7  8  1  0
  7 15  1  0
  8 23  1  0
  8 24  1  0
  8  9  1  0
  9 10  1  0
 10 11  1  0
 10 14  2  0
 11 25  1  0
 11 12  2  0
 12 13  1  0
 13 14  1  0
 15 16  1  0
 15 26  1  0
 16 17  2  0
 16 18  1  0
M  CHG  1  13  -1
M  END
>  <i_m_ct_stereo_status>  (270) 
1

>  <s_m_source_file>  (270) 
/var/tmp/pbs.5102264.sched01/tmp5h8_9bj8/92lofvt80g.sdf

>  <i_m_source_file_index>  (270) 
6

>  <i_lp_mmshare_version>  (270) 
48012

>  <i_f3d_flags>  (270) 
0

>  <s_epik_input>  (270) 
czFbY0hdYyhbQ0gzXSljKGMxMiljKD1PKW5jKFtuSF0yKVtDSDJdU2MzW2NIXVtuSF1ubjM=

>  <s_epik_cmdline>  (270) 
J2VwaWtfcHl0aG9uJywgJy1waHQnLCAnMi4wJywgJy1waCcsICc3LjAnLCAnLXRuJywgJzgnLCAnLW1hJywgJzIwMCcsICctaW1hZScsICc8aW5maWxlLm1hZT4nLCAnLW9tYWUnLCAnPG91dGZpbGUubWFlPic=

>  <r_lp_tautomer_probability>  (270) 
1

>  <r_epik_Ionization_Penalty>  (270) 
3.76799

>  <r_epik_Ionization_Penalty_Charging>  (270) 
3.76799

>  <r_epik_Ionization_Penalty_Neutral>  (270) 
4.08363e-06

>  <r_epik_State_Penalty>  (270) 
2.46863

>  <r_epik_Charging_Adjusted_Penalty>  (270) 
6.23662

>  <i_epik_Tot_Q>  (270) 
-1

>  <i_epik_Tot_abs_Q>  (270) 
1

>  <s_lp_Force_Field>  (270) 
OPLS3e

>  <r_lp_Energy>  (270) 
18.9837

>  <b_lp_Chiralities_Consistent>  (270) 
1

>  <s_lp_Variant>  (270) 
60:0-5

>  <s_i_glide_gridfile>  (270) 
pfpi4k_grid

>  <i_i_glide_lignum>  (270) 
6

>  <i_i_glide_rotatable_bonds>  (270) 
3

>  <r_i_docking_score>  (270) 
-3.98556

>  <r_i_glide_ligand_efficiency>  (270) 
-0.22142

>  <r_i_glide_ligand_efficiency_sa>  (270) 
-0.580285

>  <r_i_glide_ligand_efficiency_ln>  (270) 
-1.02447

>  <r_i_glide_gscore>  (270) 
-3.98556

>  <r_i_glide_lipo>  (270) 
-0.0684768

>  <r_i_glide_hbond>  (270) 
-0.16

>  <r_i_glide_metal>  (270) 
-0

>  <r_i_glide_rewards>  (270) 
-1.51135

>  <r_i_glide_evdw>  (270) 
-18.6123

>  <r_i_glide_ecoul>  (270) 
-10.702

>  <r_i_glide_erotb>  (270) 
0.697978

>  <r_i_glide_esite>  (270) 
-0.407792

>  <r_i_glide_emodel>  (270) 
-39.5257

>  <r_i_glide_energy>  (270) 
-29.3143

>  <r_i_glide_einternal>  (270) 
2.40998

>  <r_i_glide_intrahb_reward>  (270) 
-0

>  <i_i_glide_confnum>  (270) 
3

>  <i_i_glide_posenum>  (270) 
30

>  <r_i_glide_eff_state_penalty>  (270) 
0

>  <ligand_id>  (270) 
60

>  <original_smiles>  (270) 
Cc1csc2[nH]c(CSc3c[nH]nn3)nc(=O)c12

>  <smiles>  (270) 
[H]c1n[n-]nc1SC([H])([H])c1nc2sc([H])c(C([H])([H])[H])c2c(=O)n1[H]

$$$$
60:4:1
     RDKit          3D

 26 28  0  0  1  0  0  0  0  0999 V2000
    0.7177   -6.9376   11.5959 C   0  0  0  0  0  0  0  0  0  0  0  0
    0.4601   -6.6069   10.1583 C   0  0  0  0  0  0  0  0  0  0  0  0
    0.0305   -5.3667    9.7446 C   0  0  0  0  0  0  0  0  0  0  0  0
   -0.1931   -5.2947    8.0203 S   0  0  0  0  0  0  0  0  0  0  0  0
    0.2938   -6.9699    7.8382 C   0  0  0  0  0  0  0  0  0  0  0  0
    0.3258   -7.5909    6.6069 N   0  0  0  0  0  0  0  0  0  0  0  0
    0.7451   -8.8425    6.6670 C   0  0  0  0  0  0  0  0  0  0  0  0
    0.9006   -9.7160    5.4452 C   0  0  0  0  0  0  0  0  0  0  0  0
    1.6354   -8.8680    3.9999 S   0  0  0  0  0  0  0  0  0  0  0  0
    0.3578   -7.9198    3.2456 C   0  0  0  0  0  0  0  0  0  0  0  0
   -1.0260   -8.2046    3.4646 C   0  0  0  0  0  0  0  0  0  0  0  0
   -1.7116   -7.3596    2.7119 N   0  0  0  0  0  0  0  0  0  0  0  0
   -0.7912   -6.6503    2.0771 N   0  0  0  0  0  0  0  0  0  0  0  0
    0.4687   -6.9044    2.3856 N   0  0  0  0  0  0  0  0  0  0  0  0
    1.0884   -9.5134    7.8324 N   0  0  0  0  0  0  0  0  0  0  0  0
    1.0444   -8.9431    9.0618 C   0  0  0  0  0  0  0  0  0  0  0  0
    1.3137   -9.5436   10.0926 O   0  0  0  0  0  0  0  0  0  0  0  0
    0.6119   -7.5072    9.0571 C   0  0  0  0  0  0  0  0  0  0  0  0
    0.5573   -6.0728   12.2363 H   0  0  0  0  0  0  0  0  0  0  0  0
    1.7478   -7.2659   11.7376 H   0  0  0  0  0  0  0  0  0  0  0  0
    0.0474   -7.7267   11.9388 H   0  0  0  0  0  0  0  0  0  0  0  0
   -0.1680   -4.4818   10.3379 H   0  0  0  0  0  0  0  0  0  0  0  0
    1.4688  -10.6185    5.6971 H   0  0  0  0  0  0  0  0  0  0  0  0
   -0.0898  -10.0989    5.1929 H   0  0  0  0  0  0  0  0  0  0  0  0
   -1.5227   -8.9346    4.0830 H   0  0  0  0  0  0  0  0  0  0  0  0
    1.3539  -10.5049    7.7471 H   0  0  0  0  0  0  0  0  0  0  0  0
  1  2  1  0
  1 19  1  0
  1 20  1  0
  1 21  1  0
  2 18  1  0
  2  3  2  0
  3  4  1  0
  3 22  1  0
  4  5  1  0
  5 18  2  0
  5  6  1  0
  6  7  2  0
  7  8  1  0
  7 15  1  0
  8 23  1  0
  8 24  1  0
  8  9  1  0
  9 10  1  0
 10 11  1  0
 10 14  2  0
 11 25  1  0
 11 12  2  0
 12 13  1  0
 13 14  1  0
 15 16  1  0
 15 26  1  0
 16 17  2  0
 16 18  1  0
M  CHG  1  13  -1
M  END
>  <i_m_ct_stereo_status>  (271) 
1

>  <s_m_source_file>  (271) 
/var/tmp/pbs.5102264.sched01/tmp5h8_9bj8/92lofvt80g.sdf

>  <i_m_source_file_index>  (271) 
6

>  <i_lp_mmshare_version>  (271) 
48012

>  <i_f3d_flags>  (271) 
0

>  <s_epik_input>  (271) 
czFbY0hdYyhbQ0gzXSljKGMxMiljKD1PKW5jKFtuSF0yKVtDSDJdU2MzW2NIXVtuSF1ubjM=

>  <s_epik_cmdline>  (271) 
J2VwaWtfcHl0aG9uJywgJy1waHQnLCAnMi4wJywgJy1waCcsICc3LjAnLCAnLXRuJywgJzgnLCAnLW1hJywgJzIwMCcsICctaW1hZScsICc8aW5maWxlLm1hZT4nLCAnLW9tYWUnLCAnPG91dGZpbGUubWFlPic=

>  <r_lp_tautomer_probability>  (271) 
1

>  <r_epik_Ionization_Penalty>  (271) 
3.76799

>  <r_epik_Ionization_Penalty_Charging>  (271) 
3.76799

>  <r_epik_Ionization_Penalty_Neutral>  (271) 
4.08363e-06

>  <r_epik_State_Penalty>  (271) 
2.46863

>  <r_epik_Charging_Adjusted_Penalty>  (271) 
6.23662

>  <i_epik_Tot_Q>  (271) 
-1

>  <i_epik_Tot_abs_Q>  (271) 
1

>  <s_lp_Force_Field>  (271) 
OPLS3e

>  <r_lp_Energy>  (271) 
18.9837

>  <b_lp_Chiralities_Consistent>  (271) 
1

>  <s_lp_Variant>  (271) 
60:0-5

>  <s_i_glide_gridfile>  (271) 
pfpi4k_grid

>  <i_i_glide_lignum>  (271) 
6

>  <i_i_glide_rotatable_bonds>  (271) 
3

>  <r_i_docking_score>  (271) 
-3.90496

>  <r_i_glide_ligand_efficiency>  (271) 
-0.216942

>  <r_i_glide_ligand_efficiency_sa>  (271) 
-0.568549

>  <r_i_glide_ligand_efficiency_ln>  (271) 
-1.00375

>  <r_i_glide_gscore>  (271) 
-3.90496

>  <r_i_glide_lipo>  (271) 
-0.0256669

>  <r_i_glide_hbond>  (271) 
-0.16

>  <r_i_glide_metal>  (271) 
-0

>  <r_i_glide_rewards>  (271) 
-1.51135

>  <r_i_glide_evdw>  (271) 
-16.6772

>  <r_i_glide_ecoul>  (271) 
-11.1353

>  <r_i_glide_erotb>  (271) 
0.697978

>  <r_i_glide_esite>  (271) 
-0.401772

>  <r_i_glide_emodel>  (271) 
-39.465

>  <r_i_glide_energy>  (271) 
-27.8124

>  <r_i_glide_einternal>  (271) 
1.4903

>  <r_i_glide_intrahb_reward>  (271) 
-0

>  <i_i_glide_confnum>  (271) 
3

>  <i_i_glide_posenum>  (271) 
12

>  <r_i_glide_eff_state_penalty>  (271) 
0

>  <ligand_id>  (271) 
60

>  <original_smiles>  (271) 
Cc1csc2[nH]c(CSc3c[nH]nn3)nc(=O)c12

>  <smiles>  (271) 
[H]c1n[n-]nc1SC([H])([H])c1nc2sc([H])c(C([H])([H])[H])c2c(=O)n1[H]

$$$$
60:4:2
     RDKit          3D

 26 28  0  0  1  0  0  0  0  0999 V2000
   -1.8001    2.3626    5.1984 C   0  0  0  0  0  0  0  0  0  0  0  0
   -0.5105    1.6121    5.2665 C   0  0  0  0  0  0  0  0  0  0  0  0
    0.1430    1.3449    6.4466 C   0  0  0  0  0  0  0  0  0  0  0  0
    1.6155    0.4585    6.1856 S   0  0  0  0  0  0  0  0  0  0  0  0
    1.3503    0.4222    4.4693 C   0  0  0  0  0  0  0  0  0  0  0  0
    2.2379   -0.2091    3.6376 N   0  0  0  0  0  0  0  0  0  0  0  0
    1.9084   -0.0888    2.3795 C   0  0  0  0  0  0  0  0  0  0  0  0
    2.7787   -0.6617    1.3107 C   0  0  0  0  0  0  0  0  0  0  0  0
    4.5494   -0.4128    1.5940 S   0  0  0  0  0  0  0  0  0  0  0  0
    5.3556   -1.1266    0.2054 C   0  0  0  0  0  0  0  0  0  0  0  0
    4.6142   -1.4773   -0.9676 C   0  0  0  0  0  0  0  0  0  0  0  0
    5.5007   -1.9533   -1.8392 N   0  0  0  0  0  0  0  0  0  0  0  0
    6.6541   -1.8682   -1.1889 N   0  0  0  0  0  0  0  0  0  0  0  0
    6.6413   -1.4153    0.0561 N   0  0  0  0  0  0  0  0  0  0  0  0
    0.7608    0.5474    1.8602 N   0  0  0  0  0  0  0  0  0  0  0  0
   -0.1409    1.1478    2.6742 C   0  0  0  0  0  0  0  0  0  0  0  0
   -1.1727    1.6695    2.2688 O   0  0  0  0  0  0  0  0  0  0  0  0
    0.1974    1.0900    4.1346 C   0  0  0  0  0  0  0  0  0  0  0  0
   -2.1537    2.6289    6.1934 H   0  0  0  0  0  0  0  0  0  0  0  0
   -2.5735    1.7632    4.7169 H   0  0  0  0  0  0  0  0  0  0  0  0
   -1.6820    3.2862    4.6317 H   0  0  0  0  0  0  0  0  0  0  0  0
   -0.1293    1.6204    7.4532 H   0  0  0  0  0  0  0  0  0  0  0  0
    2.5846   -1.7311    1.2345 H   0  0  0  0  0  0  0  0  0  0  0  0
    2.5296   -0.1914    0.3639 H   0  0  0  0  0  0  0  0  0  0  0  0
    3.5487   -1.4017   -1.1776 H   0  0  0  0  0  0  0  0  0  0  0  0
    0.5861    0.5318    0.8509 H   0  0  0  0  0  0  0  0  0  0  0  0
  1  2  1  0
  1 19  1  0
  1 20  1  0
  1 21  1  0
  2 18  1  0
  2  3  2  0
  3  4  1  0
  3 22  1  0
  4  5  1  0
  5 18  2  0
  5  6  1  0
  6  7  2  0
  7  8  1  0
  7 15  1  0
  8 23  1  0
  8 24  1  0
  8  9  1  0
  9 10  1  0
 10 11  1  0
 10 14  2  0
 11 25  1  0
 11 12  2  0
 12 13  1  0
 13 14  1  0
 15 16  1  0
 15 26  1  0
 16 17  2  0
 16 18  1  0
M  CHG  1  13  -1
M  END
>  <i_m_ct_stereo_status>  (272) 
1

>  <s_m_source_file>  (272) 
/var/tmp/pbs.5102264.sched01/tmp5h8_9bj8/92lofvt80g.sdf

>  <i_m_source_file_index>  (272) 
6

>  <i_lp_mmshare_version>  (272) 
48012

>  <i_f3d_flags>  (272) 
0

>  <s_epik_input>  (272) 
czFbY0hdYyhbQ0gzXSljKGMxMiljKD1PKW5jKFtuSF0yKVtDSDJdU2MzW2NIXVtuSF1ubjM=

>  <s_epik_cmdline>  (272) 
J2VwaWtfcHl0aG9uJywgJy1waHQnLCAnMi4wJywgJy1waCcsICc3LjAnLCAnLXRuJywgJzgnLCAnLW1hJywgJzIwMCcsICctaW1hZScsICc8aW5maWxlLm1hZT4nLCAnLW9tYWUnLCAnPG91dGZpbGUubWFlPic=

>  <r_lp_tautomer_probability>  (272) 
1

>  <r_epik_Ionization_Penalty>  (272) 
3.76799

>  <r_epik_Ionization_Penalty_Charging>  (272) 
3.76799

>  <r_epik_Ionization_Penalty_Neutral>  (272) 
4.08363e-06

>  <r_epik_State_Penalty>  (272) 
2.46863

>  <r_epik_Charging_Adjusted_Penalty>  (272) 
6.23662

>  <i_epik_Tot_Q>  (272) 
-1

>  <i_epik_Tot_abs_Q>  (272) 
1

>  <s_lp_Force_Field>  (272) 
OPLS3e

>  <r_lp_Energy>  (272) 
18.9837

>  <b_lp_Chiralities_Consistent>  (272) 
1

>  <s_lp_Variant>  (272) 
60:0-5

>  <s_i_glide_gridfile>  (272) 
pfpi4k_grid

>  <i_i_glide_lignum>  (272) 
6

>  <i_i_glide_rotatable_bonds>  (272) 
3

>  <r_i_docking_score>  (272) 
-3.23972

>  <r_i_glide_ligand_efficiency>  (272) 
-0.179985

>  <r_i_glide_ligand_efficiency_sa>  (272) 
-0.471693

>  <r_i_glide_ligand_efficiency_ln>  (272) 
-0.832754

>  <r_i_glide_gscore>  (272) 
-3.23972

>  <r_i_glide_lipo>  (272) 
-0.183207

>  <r_i_glide_hbond>  (272) 
-0.0983306

>  <r_i_glide_metal>  (272) 
-0

>  <r_i_glide_rewards>  (272) 
-1.51135

>  <r_i_glide_evdw>  (272) 
-20.912

>  <r_i_glide_ecoul>  (272) 
-5.67165

>  <r_i_glide_erotb>  (272) 
0.697978

>  <r_i_glide_esite>  (272) 
-0.248466

>  <r_i_glide_emodel>  (272) 
-36.0837

>  <r_i_glide_energy>  (272) 
-26.5837

>  <r_i_glide_einternal>  (272) 
1.29022

>  <r_i_glide_intrahb_reward>  (272) 
-0

>  <i_i_glide_confnum>  (272) 
2

>  <i_i_glide_posenum>  (272) 
4

>  <r_i_glide_eff_state_penalty>  (272) 
0

>  <ligand_id>  (272) 
60

>  <original_smiles>  (272) 
Cc1csc2[nH]c(CSc3c[nH]nn3)nc(=O)c12

>  <smiles>  (272) 
[H]c1n[n-]nc1SC([H])([H])c1nc2sc([H])c(C([H])([H])[H])c2c(=O)n1[H]

$$$$
61:0:0
     RDKit          3D

 30 32  0  0  1  0  0  0  0  0999 V2000
    0.7504    1.1637    1.6116 C   0  0  0  0  0  0  0  0  0  0  0  0
   -0.0455    1.6155    2.7965 C   0  0  0  0  0  0  0  0  0  0  0  0
   -0.4361    2.9287    2.8799 N   0  0  0  0  0  0  0  0  0  0  0  0
   -1.1357    3.1992    3.9859 N   0  0  0  0  0  0  0  0  0  0  0  0
   -1.1823    2.0418    4.6430 C   0  0  0  0  0  0  0  0  0  0  0  0
   -1.8833    2.0574    5.9849 C   0  0  0  0  0  0  0  0  0  0  0  0
   -2.9514    3.0670    6.3137 C   0  0  0  0  0  0  0  0  0  0  0  0
   -1.5978    3.1427    6.9966 C   0  0  0  0  0  0  0  0  0  0  0  0
   -0.5119    0.9805    3.9221 C   0  0  0  0  0  0  0  0  0  0  0  0
   -0.2940   -0.4252    4.2245 C   0  0  0  0  0  0  0  0  0  0  0  0
   -0.6688   -1.1104    5.3219 C   0  0  0  0  0  0  0  0  0  0  0  0
   -0.4536   -2.4872    5.6111 C   0  0  0  0  0  0  0  0  0  0  0  0
    0.1785   -3.4878    4.9334 C   0  0  0  0  0  0  0  0  0  0  0  0
    0.0550   -4.6522    5.7448 C   0  0  0  0  0  0  0  0  0  0  0  0
   -0.6476   -4.2757    6.8540 C   0  0  0  0  0  0  0  0  0  0  0  0
   -0.9746   -2.9580    6.7819 O   0  0  0  0  0  0  0  0  0  0  0  0
   -0.2412    3.6356    2.1594 H   0  0  0  0  0  0  0  0  0  0  0  0
    0.9774    0.1002    1.6402 H   0  0  0  0  0  0  0  0  0  0  0  0
    1.6864    1.7166    1.5412 H   0  0  0  0  0  0  0  0  0  0  0  0
    0.2153    1.3609    0.6874 H   0  0  0  0  0  0  0  0  0  0  0  0
   -2.1089    1.0674    6.3651 H   0  0  0  0  0  0  0  0  0  0  0  0
   -3.1994    3.7653    5.5220 H   0  0  0  0  0  0  0  0  0  0  0  0
   -3.7929    2.6932    6.8893 H   0  0  0  0  0  0  0  0  0  0  0  0
   -1.5389    2.8330    8.0377 H   0  0  0  0  0  0  0  0  0  0  0  0
   -0.8928    3.9166    6.6909 H   0  0  0  0  0  0  0  0  0  0  0  0
    0.2385   -1.0099    3.4814 H   0  0  0  0  0  0  0  0  0  0  0  0
   -1.1907   -0.6266    6.1209 H   0  0  0  0  0  0  0  0  0  0  0  0
    0.6656   -3.3717    3.9740 H   0  0  0  0  0  0  0  0  0  0  0  0
    0.4366   -5.6405    5.5413 H   0  0  0  0  0  0  0  0  0  0  0  0
   -0.9844   -4.7944    7.7401 H   0  0  0  0  0  0  0  0  0  0  0  0
  1  2  1  0
  1 18  1  0
  1 19  1  0
  1 20  1  0
  2  9  2  0
  2  3  1  0
  3 17  1  0
  3  4  1  0
  4  5  2  0
  5  6  1  0
  5  9  1  0
  6  8  1  0
  6  7  1  0
  6 21  1  0
  7  8  1  0
  7 22  1  0
  7 23  1  0
  8 24  1  0
  8 25  1  0
  9 10  1  0
 10 11  2  3
 10 26  1  0
 11 12  1  0
 11 27  1  0
 12 16  1  0
 12 13  2  0
 13 14  1  0
 13 28  1  0
 14 15  2  0
 14 29  1  0
 15 16  1  0
 15 30  1  0
M  END
>  <i_m_ct_stereo_status>  (273) 
1

>  <s_m_source_file>  (273) 
/var/tmp/pbs.5102264.sched01/tmp5h8_9bj8/92lofvt80g.sdf

>  <i_m_source_file_index>  (273) 
7

>  <i_lp_mmshare_version>  (273) 
48012

>  <i_f3d_flags>  (273) 
0

>  <s_epik_input>  (273) 
W0NIM11jMVtuSF1uYyhbQ0hdMltDSDJdW0NIMl0yKWMxL1tDSF09W0NIXS9jM1tjSF1bY0hdW2NIXW8z

>  <s_epik_cmdline>  (273) 
J2VwaWtfcHl0aG9uJywgJy1waHQnLCAnMi4wJywgJy1waCcsICc3LjAnLCAnLXRuJywgJzgnLCAnLW1hJywgJzIwMCcsICctaW1hZScsICc8aW5maWxlLm1hZT4nLCAnLW9tYWUnLCAnPG91dGZpbGUubWFlPic=

>  <r_lp_tautomer_probability>  (273) 
1

>  <r_epik_Ionization_Penalty>  (273) 
0.000262636

>  <r_epik_Ionization_Penalty_Charging>  (273) 
0

>  <r_epik_Ionization_Penalty_Neutral>  (273) 
0.000262636

>  <r_epik_State_Penalty>  (273) 
-0

>  <r_epik_Charging_Adjusted_Penalty>  (273) 
0

>  <i_epik_Tot_Q>  (273) 
0

>  <i_epik_Tot_abs_Q>  (273) 
0

>  <s_lp_Force_Field>  (273) 
OPLS3e

>  <r_lp_Energy>  (273) 
13.7325

>  <b_lp_Chiralities_Consistent>  (273) 
1

>  <s_lp_Variant>  (273) 
61:0-1

>  <s_i_glide_gridfile>  (273) 
pfpi4k_grid

>  <i_i_glide_lignum>  (273) 
7

>  <i_i_glide_rotatable_bonds>  (273) 
3

>  <r_i_docking_score>  (273) 
-2.88642

>  <r_i_glide_ligand_efficiency>  (273) 
-0.180401

>  <r_i_glide_ligand_efficiency_sa>  (273) 
-0.454582

>  <r_i_glide_ligand_efficiency_ln>  (273) 
-0.765103

>  <r_i_glide_gscore>  (273) 
-2.88642

>  <r_i_glide_lipo>  (273) 
-0.18534

>  <r_i_glide_hbond>  (273) 
-0.16

>  <r_i_glide_metal>  (273) 
-0

>  <r_i_glide_rewards>  (273) 
-1.94821

>  <r_i_glide_evdw>  (273) 
-14.5292

>  <r_i_glide_ecoul>  (273) 
-5.73077

>  <r_i_glide_erotb>  (273) 
1.09156

>  <r_i_glide_esite>  (273) 
-0.0983513

>  <r_i_glide_emodel>  (273) 
-22.9809

>  <r_i_glide_energy>  (273) 
-20.26

>  <r_i_glide_einternal>  (273) 
3.26404

>  <r_i_glide_intrahb_reward>  (273) 
-0

>  <i_i_glide_confnum>  (273) 
2

>  <i_i_glide_posenum>  (273) 
16

>  <r_i_glide_eff_state_penalty>  (273) 
0

>  <ligand_id>  (273) 
61

>  <original_smiles>  (273) 
Cc1[nH]nc(C2CC2)c1C=Cc1ccco1

>  <smiles>  (273) 
[H]C(=C([H])c1c(C2([H])C([H])([H])C2([H])[H])nn([H])c1C([H])([H])[H])c1oc([H])c([H])c1[H]

$$$$
61:0:1
     RDKit          3D

 30 32  0  0  1  0  0  0  0  0999 V2000
    0.7757    1.1475    1.6031 C   0  0  0  0  0  0  0  0  0  0  0  0
    0.0189    1.6193    2.7950 C   0  0  0  0  0  0  0  0  0  0  0  0
   -0.3780    2.9341    2.8902 N   0  0  0  0  0  0  0  0  0  0  0  0
   -1.0437    3.2111    4.0211 N   0  0  0  0  0  0  0  0  0  0  0  0
   -1.0124    2.0621    4.6820 C   0  0  0  0  0  0  0  0  0  0  0  0
   -1.6088    2.0616    6.0646 C   0  0  0  0  0  0  0  0  0  0  0  0
   -1.0688    2.9871    7.1343 C   0  0  0  0  0  0  0  0  0  0  0  0
   -0.8416    1.5028    7.2401 C   0  0  0  0  0  0  0  0  0  0  0  0
   -0.4031    0.9891    3.9413 C   0  0  0  0  0  0  0  0  0  0  0  0
   -0.1983   -0.4078    4.2453 C   0  0  0  0  0  0  0  0  0  0  0  0
   -0.6745   -1.0940    5.3020 C   0  0  0  0  0  0  0  0  0  0  0  0
   -0.4325   -2.4591    5.6324 C   0  0  0  0  0  0  0  0  0  0  0  0
    0.2622   -3.4504    5.0064 C   0  0  0  0  0  0  0  0  0  0  0  0
    0.1117   -4.6130    5.8182 C   0  0  0  0  0  0  0  0  0  0  0  0
   -0.6468   -4.2356    6.8862 C   0  0  0  0  0  0  0  0  0  0  0  0
   -0.9808   -2.9214    6.7947 O   0  0  0  0  0  0  0  0  0  0  0  0
   -0.1893    3.6351    2.1529 H   0  0  0  0  0  0  0  0  0  0  0  0
    0.9791    0.0810    1.6343 H   0  0  0  0  0  0  0  0  0  0  0  0
    1.7215    1.6773    1.5044 H   0  0  0  0  0  0  0  0  0  0  0  0
    0.2081    1.3619    0.7048 H   0  0  0  0  0  0  0  0  0  0  0  0
   -2.6830    1.9148    6.0405 H   0  0  0  0  0  0  0  0  0  0  0  0
   -0.2080    3.6036    6.8771 H   0  0  0  0  0  0  0  0  0  0  0  0
   -1.7720    3.4243    7.8443 H   0  0  0  0  0  0  0  0  0  0  0  0
   -1.4147    0.9497    7.9846 H   0  0  0  0  0  0  0  0  0  0  0  0
    0.1570    1.1169    7.0295 H   0  0  0  0  0  0  0  0  0  0  0  0
    0.4221   -0.9813    3.5730 H   0  0  0  0  0  0  0  0  0  0  0  0
   -1.3177   -0.6074    6.0071 H   0  0  0  0  0  0  0  0  0  0  0  0
    0.7927   -3.3278    4.0711 H   0  0  0  0  0  0  0  0  0  0  0  0
    0.5091   -5.6008    5.6410 H   0  0  0  0  0  0  0  0  0  0  0  0
   -1.0209   -4.7595    7.7546 H   0  0  0  0  0  0  0  0  0  0  0  0
  1  2  1  0
  1 18  1  0
  1 19  1  0
  1 20  1  0
  2  9  2  0
  2  3  1  0
  3 17  1  0
  3  4  1  0
  4  5  2  0
  5  6  1  0
  5  9  1  0
  6  8  1  0
  6  7  1  0
  6 21  1  0
  7  8  1  0
  7 22  1  0
  7 23  1  0
  8 24  1  0
  8 25  1  0
  9 10  1  0
 10 11  2  3
 10 26  1  0
 11 12  1  0
 11 27  1  0
 12 16  1  0
 12 13  2  0
 13 14  1  0
 13 28  1  0
 14 15  2  0
 14 29  1  0
 15 16  1  0
 15 30  1  0
M  END
>  <i_m_ct_stereo_status>  (274) 
1

>  <s_m_source_file>  (274) 
/var/tmp/pbs.5102264.sched01/tmp5h8_9bj8/92lofvt80g.sdf

>  <i_m_source_file_index>  (274) 
7

>  <i_lp_mmshare_version>  (274) 
48012

>  <i_f3d_flags>  (274) 
0

>  <s_epik_input>  (274) 
W0NIM11jMVtuSF1uYyhbQ0hdMltDSDJdW0NIMl0yKWMxL1tDSF09W0NIXS9jM1tjSF1bY0hdW2NIXW8z

>  <s_epik_cmdline>  (274) 
J2VwaWtfcHl0aG9uJywgJy1waHQnLCAnMi4wJywgJy1waCcsICc3LjAnLCAnLXRuJywgJzgnLCAnLW1hJywgJzIwMCcsICctaW1hZScsICc8aW5maWxlLm1hZT4nLCAnLW9tYWUnLCAnPG91dGZpbGUubWFlPic=

>  <r_lp_tautomer_probability>  (274) 
1

>  <r_epik_Ionization_Penalty>  (274) 
0.000262636

>  <r_epik_Ionization_Penalty_Charging>  (274) 
0

>  <r_epik_Ionization_Penalty_Neutral>  (274) 
0.000262636

>  <r_epik_State_Penalty>  (274) 
-0

>  <r_epik_Charging_Adjusted_Penalty>  (274) 
0

>  <i_epik_Tot_Q>  (274) 
0

>  <i_epik_Tot_abs_Q>  (274) 
0

>  <s_lp_Force_Field>  (274) 
OPLS3e

>  <r_lp_Energy>  (274) 
13.7325

>  <b_lp_Chiralities_Consistent>  (274) 
1

>  <s_lp_Variant>  (274) 
61:0-1

>  <s_i_glide_gridfile>  (274) 
pfpi4k_grid

>  <i_i_glide_lignum>  (274) 
7

>  <i_i_glide_rotatable_bonds>  (274) 
3

>  <r_i_docking_score>  (274) 
-2.65504

>  <r_i_glide_ligand_efficiency>  (274) 
-0.16594

>  <r_i_glide_ligand_efficiency_sa>  (274) 
-0.418143

>  <r_i_glide_ligand_efficiency_ln>  (274) 
-0.703772

>  <r_i_glide_gscore>  (274) 
-2.65504

>  <r_i_glide_lipo>  (274) 
-0.00895826

>  <r_i_glide_hbond>  (274) 
-0.16

>  <r_i_glide_metal>  (274) 
-0

>  <r_i_glide_rewards>  (274) 
-1.94821

>  <r_i_glide_evdw>  (274) 
-12.808

>  <r_i_glide_ecoul>  (274) 
-5.93929

>  <r_i_glide_erotb>  (274) 
1.09156

>  <r_i_glide_esite>  (274) 
-0.0981415

>  <r_i_glide_emodel>  (274) 
-22.6679

>  <r_i_glide_energy>  (274) 
-18.7473

>  <r_i_glide_einternal>  (274) 
0.0909716

>  <r_i_glide_intrahb_reward>  (274) 
-0

>  <i_i_glide_confnum>  (274) 
2

>  <i_i_glide_posenum>  (274) 
36

>  <r_i_glide_eff_state_penalty>  (274) 
0

>  <ligand_id>  (274) 
61

>  <original_smiles>  (274) 
Cc1[nH]nc(C2CC2)c1C=Cc1ccco1

>  <smiles>  (274) 
[H]C(=C([H])c1c(C2([H])C([H])([H])C2([H])[H])nn([H])c1C([H])([H])[H])c1oc([H])c([H])c1[H]

$$$$
61:0:2
     RDKit          3D

 30 32  0  0  1  0  0  0  0  0999 V2000
    0.9887    0.0623    4.8415 C   0  0  0  0  0  0  0  0  0  0  0  0
   -0.1168    0.8700    4.2371 C   0  0  0  0  0  0  0  0  0  0  0  0
   -0.2258    0.9413    2.8677 N   0  0  0  0  0  0  0  0  0  0  0  0
   -1.2499    1.7055    2.4823 N   0  0  0  0  0  0  0  0  0  0  0  0
   -1.8061    2.1445    3.6019 C   0  0  0  0  0  0  0  0  0  0  0  0
   -2.9888    3.0801    3.4394 C   0  0  0  0  0  0  0  0  0  0  0  0
   -3.7864    3.1525    2.1560 C   0  0  0  0  0  0  0  0  0  0  0  0
   -2.8879    4.3087    2.5610 C   0  0  0  0  0  0  0  0  0  0  0  0
   -1.1294    1.6352    4.7733 C   0  0  0  0  0  0  0  0  0  0  0  0
   -1.3762    1.8172    6.1891 C   0  0  0  0  0  0  0  0  0  0  0  0
   -2.4377    2.4009    6.7844 C   0  0  0  0  0  0  0  0  0  0  0  0
   -2.6624    2.6109    8.1748 C   0  0  0  0  0  0  0  0  0  0  0  0
   -3.7464    3.0617    8.8757 C   0  0  0  0  0  0  0  0  0  0  0  0
   -3.3751    3.0253   10.2498 C   0  0  0  0  0  0  0  0  0  0  0  0
   -2.0974    2.5522   10.2769 C   0  0  0  0  0  0  0  0  0  0  0  0
   -1.6519    2.2786    9.0232 O   0  0  0  0  0  0  0  0  0  0  0  0
    0.3846    0.5028    2.1930 H   0  0  0  0  0  0  0  0  0  0  0  0
    0.9502    0.0628    5.9309 H   0  0  0  0  0  0  0  0  0  0  0  0
    1.9581    0.4593    4.5365 H   0  0  0  0  0  0  0  0  0  0  0  0
    0.9350   -0.9710    4.4975 H   0  0  0  0  0  0  0  0  0  0  0  0
   -3.5966    3.1440    4.3223 H   0  0  0  0  0  0  0  0  0  0  0  0
   -3.4903    2.4957    1.3383 H   0  0  0  0  0  0  0  0  0  0  0  0
   -4.8619    3.2842    2.2682 H   0  0  0  0  0  0  0  0  0  0  0  0
   -3.3907    5.2263    2.8613 H   0  0  0  0  0  0  0  0  0  0  0  0
   -1.9178    4.4530    2.0859 H   0  0  0  0  0  0  0  0  0  0  0  0
   -0.6158    1.4539    6.8718 H   0  0  0  0  0  0  0  0  0  0  0  0
   -3.2490    2.7903    6.2089 H   0  0  0  0  0  0  0  0  0  0  0  0
   -4.6996    3.3657    8.4706 H   0  0  0  0  0  0  0  0  0  0  0  0
   -3.9595    3.2861   11.1185 H   0  0  0  0  0  0  0  0  0  0  0  0
   -1.4008    2.3335   11.0736 H   0  0  0  0  0  0  0  0  0  0  0  0
  1  2  1  0
  1 18  1  0
  1 19  1  0
  1 20  1  0
  2  9  2  0
  2  3  1  0
  3 17  1  0
  3  4  1  0
  4  5  2  0
  5  6  1  0
  5  9  1  0
  6  8  1  0
  6  7  1  0
  6 21  1  0
  7  8  1  0
  7 22  1  0
  7 23  1  0
  8 24  1  0
  8 25  1  0
  9 10  1  0
 10 11  2  3
 10 26  1  0
 11 12  1  0
 11 27  1  0
 12 16  1  0
 12 13  2  0
 13 14  1  0
 13 28  1  0
 14 15  2  0
 14 29  1  0
 15 16  1  0
 15 30  1  0
M  END
>  <i_m_ct_stereo_status>  (275) 
1

>  <s_m_source_file>  (275) 
/var/tmp/pbs.5102264.sched01/tmp5h8_9bj8/92lofvt80g.sdf

>  <i_m_source_file_index>  (275) 
7

>  <i_lp_mmshare_version>  (275) 
48012

>  <i_f3d_flags>  (275) 
0

>  <s_epik_input>  (275) 
W0NIM11jMVtuSF1uYyhbQ0hdMltDSDJdW0NIMl0yKWMxL1tDSF09W0NIXS9jM1tjSF1bY0hdW2NIXW8z

>  <s_epik_cmdline>  (275) 
J2VwaWtfcHl0aG9uJywgJy1waHQnLCAnMi4wJywgJy1waCcsICc3LjAnLCAnLXRuJywgJzgnLCAnLW1hJywgJzIwMCcsICctaW1hZScsICc8aW5maWxlLm1hZT4nLCAnLW9tYWUnLCAnPG91dGZpbGUubWFlPic=

>  <r_lp_tautomer_probability>  (275) 
1

>  <r_epik_Ionization_Penalty>  (275) 
0.000262636

>  <r_epik_Ionization_Penalty_Charging>  (275) 
0

>  <r_epik_Ionization_Penalty_Neutral>  (275) 
0.000262636

>  <r_epik_State_Penalty>  (275) 
-0

>  <r_epik_Charging_Adjusted_Penalty>  (275) 
0

>  <i_epik_Tot_Q>  (275) 
0

>  <i_epik_Tot_abs_Q>  (275) 
0

>  <s_lp_Force_Field>  (275) 
OPLS3e

>  <r_lp_Energy>  (275) 
13.7325

>  <b_lp_Chiralities_Consistent>  (275) 
1

>  <s_lp_Variant>  (275) 
61:0-1

>  <s_i_glide_gridfile>  (275) 
pfpi4k_grid

>  <i_i_glide_lignum>  (275) 
7

>  <i_i_glide_rotatable_bonds>  (275) 
3

>  <r_i_docking_score>  (275) 
-2.14114

>  <r_i_glide_ligand_efficiency>  (275) 
-0.133821

>  <r_i_glide_ligand_efficiency_sa>  (275) 
-0.337209

>  <r_i_glide_ligand_efficiency_ln>  (275) 
-0.567553

>  <r_i_glide_gscore>  (275) 
-2.14114

>  <r_i_glide_lipo>  (275) 
-0.211244

>  <r_i_glide_hbond>  (275) 
0

>  <r_i_glide_metal>  (275) 
-0

>  <r_i_glide_rewards>  (275) 
-1.94821

>  <r_i_glide_evdw>  (275) 
-20.1355

>  <r_i_glide_ecoul>  (275) 
-0.148845

>  <r_i_glide_erotb>  (275) 
1.09156

>  <r_i_glide_esite>  (275) 
-0.0441478

>  <r_i_glide_emodel>  (275) 
-21.7201

>  <r_i_glide_energy>  (275) 
-20.2844

>  <r_i_glide_einternal>  (275) 
3.60848

>  <r_i_glide_intrahb_reward>  (275) 
-0

>  <i_i_glide_confnum>  (275) 
3

>  <i_i_glide_posenum>  (275) 
3

>  <r_i_glide_eff_state_penalty>  (275) 
0

>  <ligand_id>  (275) 
61

>  <original_smiles>  (275) 
Cc1[nH]nc(C2CC2)c1C=Cc1ccco1

>  <smiles>  (275) 
[H]C(=C([H])c1c(C2([H])C([H])([H])C2([H])[H])nn([H])c1C([H])([H])[H])c1oc([H])c([H])c1[H]

$$$$
62:0:0
     RDKit          3D

 24 25  0  0  1  0  0  0  0  0999 V2000
   -7.8482   -4.6220   -6.4548 O   0  0  0  0  0  0  0  0  0  0  0  0
   -6.8875   -4.6555   -5.6566 C   0  0  0  0  0  0  0  0  0  0  0  0
   -5.7840   -4.0958   -5.7940 O   0  0  0  0  0  0  0  0  0  0  0  0
   -7.0042   -5.5035   -4.4122 C   0  0  2  0  0  0  0  0  0  0  0  0
   -6.9718   -4.6591   -3.2858 O   0  0  0  0  0  0  0  0  0  0  0  0
   -5.8450   -6.5217   -4.3224 C   0  0  0  0  0  0  0  0  0  0  0  0
   -5.9385   -7.6435   -5.3051 C   0  0  0  0  0  0  0  0  0  0  0  0
   -6.8117   -7.8942   -6.3377 C   0  0  0  0  0  0  0  0  0  0  0  0
   -6.4273   -9.1627   -6.8819 C   0  0  0  0  0  0  0  0  0  0  0  0
   -6.8556  -10.0064   -7.9291 C   0  0  0  0  0  0  0  0  0  0  0  0
   -6.2120  -11.2382   -8.1886 C   0  0  0  0  0  0  0  0  0  0  0  0
   -5.1259  -11.6546   -7.3920 C   0  0  0  0  0  0  0  0  0  0  0  0
   -4.6807  -10.8360   -6.3366 C   0  0  0  0  0  0  0  0  0  0  0  0
   -5.3298   -9.6078   -6.1074 C   0  0  0  0  0  0  0  0  0  0  0  0
   -5.0325   -8.6628   -5.1511 O   0  0  0  0  0  0  0  0  0  0  0  0
   -7.9696   -5.9912   -4.4584 H   0  0  0  0  0  0  0  0  0  0  0  0
   -6.2055   -4.1154   -3.3689 H   0  0  0  0  0  0  0  0  0  0  0  0
   -4.8691   -6.0343   -4.4458 H   0  0  0  0  0  0  0  0  0  0  0  0
   -5.8329   -6.9480   -3.3186 H   0  0  0  0  0  0  0  0  0  0  0  0
   -7.6246   -7.2661   -6.6746 H   0  0  0  0  0  0  0  0  0  0  0  0
   -7.6868   -9.6834   -8.5363 H   0  0  0  0  0  0  0  0  0  0  0  0
   -6.5694  -11.8521   -9.0018 H   0  0  0  0  0  0  0  0  0  0  0  0
   -4.6395  -12.5951   -7.5867 H   0  0  0  0  0  0  0  0  0  0  0  0
   -3.8584  -11.1242   -5.7040 H   0  0  0  0  0  0  0  0  0  0  0  0
  1  2  2  0
  2  3  1  0
  2  4  1  0
  4  5  1  0
  4  6  1  0
  4 16  1  6
  5 17  1  0
  6  7  1  0
  6 18  1  0
  6 19  1  0
  7 15  1  0
  7  8  2  0
  8  9  1  0
  8 20  1  0
  9 14  2  0
  9 10  1  0
 10 11  2  0
 10 21  1  0
 11 12  1  0
 11 22  1  0
 12 13  2  0
 12 23  1  0
 13 14  1  0
 13 24  1  0
 14 15  1  0
M  CHG  1   3  -1
M  END
>  <i_m_ct_stereo_status>  (276) 
1

>  <s_m_source_file>  (276) 
/var/tmp/pbs.5102264.sched01/tmp5h8_9bj8/92lofvt80g.sdf

>  <i_m_source_file_index>  (276) 
9

>  <i_lp_mmshare_version>  (276) 
48012

>  <i_f3d_flags>  (276) 
0

>  <s_epik_input>  (276) 
Tz1DKFtPSF0pW0NASF0oW09IXSlbQ0gyXWMoW2NIXTEpb2MoYzEyKVtjSF1bY0hdW2NIXVtjSF0y

>  <s_epik_cmdline>  (276) 
J2VwaWtfcHl0aG9uJywgJy1waHQnLCAnMi4wJywgJy1waCcsICc3LjAnLCAnLXRuJywgJzgnLCAnLW1hJywgJzIwMCcsICctaW1hZScsICc8aW5maWxlLm1hZT4nLCAnLW9tYWUnLCAnPG91dGZpbGUubWFlPic=

>  <r_epik_Ionization_Penalty>  (276) 
0.000333332

>  <r_epik_Ionization_Penalty_Charging>  (276) 
0.000317312

>  <r_epik_Ionization_Penalty_Neutral>  (276) 
1.60204e-05

>  <r_epik_State_Penalty>  (276) 
0.000191473

>  <r_epik_Charging_Adjusted_Penalty>  (276) 
0.000508785

>  <i_epik_Tot_Q>  (276) 
-1

>  <i_epik_Tot_abs_Q>  (276) 
1

>  <s_lp_Force_Field>  (276) 
OPLS3e

>  <r_lp_Energy>  (276) 
17.539

>  <b_lp_Chiralities_Consistent>  (276) 
1

>  <s_lp_Variant>  (276) 
62:0-1

>  <s_i_glide_gridfile>  (276) 
pfpi4k_grid

>  <i_i_glide_lignum>  (276) 
9

>  <i_i_glide_rotatable_bonds>  (276) 
4

>  <r_i_docking_score>  (276) 
-5.00996

>  <r_i_glide_ligand_efficiency>  (276) 
-0.333997

>  <r_i_glide_ligand_efficiency_sa>  (276) 
-0.823708

>  <r_i_glide_ligand_efficiency_ln>  (276) 
-1.3511

>  <r_i_glide_gscore>  (276) 
-5.00996

>  <r_i_glide_lipo>  (276) 
-1.7721

>  <r_i_glide_hbond>  (276) 
0

>  <r_i_glide_metal>  (276) 
-0

>  <r_i_glide_rewards>  (276) 
-2.76987

>  <r_i_glide_evdw>  (276) 
-18.9077

>  <r_i_glide_ecoul>  (276) 
0.57432

>  <r_i_glide_erotb>  (276) 
0.391247

>  <r_i_glide_esite>  (276) 
0

>  <r_i_glide_emodel>  (276) 
-26.3915

>  <r_i_glide_energy>  (276) 
-18.3334

>  <r_i_glide_einternal>  (276) 
2.78333

>  <r_i_glide_intrahb_reward>  (276) 
-0

>  <i_i_glide_confnum>  (276) 
1

>  <i_i_glide_posenum>  (276) 
11

>  <r_i_glide_eff_state_penalty>  (276) 
0

>  <ligand_id>  (276) 
62

>  <original_smiles>  (276) 
O=C(O)C(O)Cc1cc2ccccc2o1

>  <smiles>  (276) 
[H]OC([H])(C(=O)[O-])C([H])([H])c1oc2c([H])c([H])c([H])c([H])c2c1[H]

$$$$
62:0:1
     RDKit          3D

 24 25  0  0  1  0  0  0  0  0999 V2000
   -2.1831    1.6525    6.5622 O   0  0  0  0  0  0  0  0  0  0  0  0
   -2.0579    2.4946    5.6343 C   0  0  0  0  0  0  0  0  0  0  0  0
   -2.2482    3.7265    5.7400 O   0  0  0  0  0  0  0  0  0  0  0  0
   -1.6737    1.9288    4.2445 C   0  0  2  0  0  0  0  0  0  0  0  0
   -0.6302    0.9746    4.3321 O   0  0  0  0  0  0  0  0  0  0  0  0
   -1.2645    3.0257    3.2436 C   0  0  0  0  0  0  0  0  0  0  0  0
   -2.4012    3.8809    2.7889 C   0  0  0  0  0  0  0  0  0  0  0  0
   -3.7258    3.6031    2.5177 C   0  0  0  0  0  0  0  0  0  0  0  0
   -4.3044    4.8469    2.0765 C   0  0  0  0  0  0  0  0  0  0  0  0
   -5.5669    5.3399    1.6896 C   0  0  0  0  0  0  0  0  0  0  0  0
   -5.7703    6.6795    1.2740 C   0  0  0  0  0  0  0  0  0  0  0  0
   -4.6872    7.5802    1.2549 C   0  0  0  0  0  0  0  0  0  0  0  0
   -3.4146    7.1249    1.6633 C   0  0  0  0  0  0  0  0  0  0  0  0
   -3.2554    5.7886    2.0810 C   0  0  0  0  0  0  0  0  0  0  0  0
   -2.0932    5.1881    2.5202 O   0  0  0  0  0  0  0  0  0  0  0  0
   -2.5374    1.3958    3.8532 H   0  0  0  0  0  0  0  0  0  0  0  0
    0.1529    1.4427    4.5598 H   0  0  0  0  0  0  0  0  0  0  0  0
   -0.4879    3.6578    3.6898 H   0  0  0  0  0  0  0  0  0  0  0  0
   -0.7954    2.5816    2.3613 H   0  0  0  0  0  0  0  0  0  0  0  0
   -4.2239    2.6480    2.6392 H   0  0  0  0  0  0  0  0  0  0  0  0
   -6.3938    4.6645    1.7313 H   0  0  0  0  0  0  0  0  0  0  0  0
   -6.7617    7.0016    0.9867 H   0  0  0  0  0  0  0  0  0  0  0  0
   -4.8321    8.6136    0.9548 H   0  0  0  0  0  0  0  0  0  0  0  0
   -2.5626    7.7836    1.6373 H   0  0  0  0  0  0  0  0  0  0  0  0
  1  2  2  0
  2  3  1  0
  2  4  1  0
  4  5  1  0
  4  6  1  0
  4 16  1  6
  5 17  1  0
  6  7  1  0
  6 18  1  0
  6 19  1  0
  7 15  1  0
  7  8  2  0
  8  9  1  0
  8 20  1  0
  9 14  2  0
  9 10  1  0
 10 11  2  0
 10 21  1  0
 11 12  1  0
 11 22  1  0
 12 13  2  0
 12 23  1  0
 13 14  1  0
 13 24  1  0
 14 15  1  0
M  CHG  1   3  -1
M  END
>  <i_m_ct_stereo_status>  (277) 
1

>  <s_m_source_file>  (277) 
/var/tmp/pbs.5102264.sched01/tmp5h8_9bj8/92lofvt80g.sdf

>  <i_m_source_file_index>  (277) 
9

>  <i_lp_mmshare_version>  (277) 
48012

>  <i_f3d_flags>  (277) 
0

>  <s_epik_input>  (277) 
Tz1DKFtPSF0pW0NASF0oW09IXSlbQ0gyXWMoW2NIXTEpb2MoYzEyKVtjSF1bY0hdW2NIXVtjSF0y

>  <s_epik_cmdline>  (277) 
J2VwaWtfcHl0aG9uJywgJy1waHQnLCAnMi4wJywgJy1waCcsICc3LjAnLCAnLXRuJywgJzgnLCAnLW1hJywgJzIwMCcsICctaW1hZScsICc8aW5maWxlLm1hZT4nLCAnLW9tYWUnLCAnPG91dGZpbGUubWFlPic=

>  <r_epik_Ionization_Penalty>  (277) 
0.000333332

>  <r_epik_Ionization_Penalty_Charging>  (277) 
0.000317312

>  <r_epik_Ionization_Penalty_Neutral>  (277) 
1.60204e-05

>  <r_epik_State_Penalty>  (277) 
0.000191473

>  <r_epik_Charging_Adjusted_Penalty>  (277) 
0.000508785

>  <i_epik_Tot_Q>  (277) 
-1

>  <i_epik_Tot_abs_Q>  (277) 
1

>  <s_lp_Force_Field>  (277) 
OPLS3e

>  <r_lp_Energy>  (277) 
17.539

>  <b_lp_Chiralities_Consistent>  (277) 
1

>  <s_lp_Variant>  (277) 
62:0-1

>  <s_i_glide_gridfile>  (277) 
pfpi4k_grid

>  <i_i_glide_lignum>  (277) 
9

>  <i_i_glide_rotatable_bonds>  (277) 
4

>  <r_i_docking_score>  (277) 
-3.85399

>  <r_i_glide_ligand_efficiency>  (277) 
-0.256933

>  <r_i_glide_ligand_efficiency_sa>  (277) 
-0.633651

>  <r_i_glide_ligand_efficiency_ln>  (277) 
-1.03936

>  <r_i_glide_gscore>  (277) 
-3.85399

>  <r_i_glide_lipo>  (277) 
-0.648373

>  <r_i_glide_hbond>  (277) 
-0.16

>  <r_i_glide_metal>  (277) 
-0

>  <r_i_glide_rewards>  (277) 
-2.06453

>  <r_i_glide_evdw>  (277) 
-9.21155

>  <r_i_glide_ecoul>  (277) 
-6.07838

>  <r_i_glide_erotb>  (277) 
0.391247

>  <r_i_glide_esite>  (277) 
0

>  <r_i_glide_emodel>  (277) 
-21.2521

>  <r_i_glide_energy>  (277) 
-15.2899

>  <r_i_glide_einternal>  (277) 
3.254

>  <r_i_glide_intrahb_reward>  (277) 
-0

>  <i_i_glide_confnum>  (277) 
1

>  <i_i_glide_posenum>  (277) 
2

>  <r_i_glide_eff_state_penalty>  (277) 
0

>  <ligand_id>  (277) 
62

>  <original_smiles>  (277) 
O=C(O)C(O)Cc1cc2ccccc2o1

>  <smiles>  (277) 
[H]OC([H])(C(=O)[O-])C([H])([H])c1oc2c([H])c([H])c([H])c([H])c2c1[H]

$$$$
62:0:2
     RDKit          3D

 24 25  0  0  1  0  0  0  0  0999 V2000
   -2.5335    3.2434    7.1307 O   0  0  0  0  0  0  0  0  0  0  0  0
   -2.3024    2.1402    6.6602 C   0  0  0  0  0  0  0  0  0  0  0  0
   -2.5113    1.0247    7.2467 O   0  0  0  0  0  0  0  0  0  0  0  0
   -1.6202    2.0842    5.2707 C   0  0  2  0  0  0  0  0  0  0  0  0
   -2.3033    2.9611    4.3852 O   0  0  0  0  0  0  0  0  0  0  0  0
   -1.5477    0.6734    4.6361 C   0  0  0  0  0  0  0  0  0  0  0  0
   -0.7933   -0.3822    5.4137 C   0  0  0  0  0  0  0  0  0  0  0  0
   -0.0861   -0.3316    6.5986 C   0  0  0  0  0  0  0  0  0  0  0  0
    0.3464   -1.6441    6.8720 C   0  0  0  0  0  0  0  0  0  0  0  0
    1.0529   -2.2942    7.8975 C   0  0  0  0  0  0  0  0  0  0  0  0
    1.3310   -3.6726    7.8304 C   0  0  0  0  0  0  0  0  0  0  0  0
    0.8985   -4.4312    6.7139 C   0  0  0  0  0  0  0  0  0  0  0  0
    0.1722   -3.8106    5.6790 C   0  0  0  0  0  0  0  0  0  0  0  0
   -0.0839   -2.4392    5.7829 C   0  0  0  0  0  0  0  0  0  0  0  0
   -0.7862   -1.6378    4.8948 O   0  0  0  0  0  0  0  0  0  0  0  0
   -0.5840    2.4500    5.3765 H   0  0  0  0  0  0  0  0  0  0  0  0
   -1.8827    2.9240    3.5543 H   0  0  0  0  0  0  0  0  0  0  0  0
   -2.5692    0.3004    4.4978 H   0  0  0  0  0  0  0  0  0  0  0  0
   -1.1172    0.7424    3.6310 H   0  0  0  0  0  0  0  0  0  0  0  0
    0.0718    0.5620    7.2135 H   0  0  0  0  0  0  0  0  0  0  0  0
    1.3709   -1.7185    8.7563 H   0  0  0  0  0  0  0  0  0  0  0  0
    1.8901   -4.1384    8.6183 H   0  0  0  0  0  0  0  0  0  0  0  0
    1.1423   -5.4683    6.6557 H   0  0  0  0  0  0  0  0  0  0  0  0
   -0.1690   -4.3694    4.8232 H   0  0  0  0  0  0  0  0  0  0  0  0
  1  2  2  0
  2  3  1  0
  2  4  1  0
  4  5  1  0
  4  6  1  0
  4 16  1  1
  5 17  1  0
  6  7  1  0
  6 18  1  0
  6 19  1  0
  7 15  1  0
  7  8  2  0
  8  9  1  0
  8 20  1  0
  9 14  2  0
  9 10  1  0
 10 11  2  0
 10 21  1  0
 11 12  1  0
 11 22  1  0
 12 13  2  0
 12 23  1  0
 13 14  1  0
 13 24  1  0
 14 15  1  0
M  CHG  1   3  -1
M  END
>  <i_m_ct_stereo_status>  (278) 
1

>  <s_m_source_file>  (278) 
/var/tmp/pbs.5102264.sched01/tmp5h8_9bj8/92lofvt80g.sdf

>  <i_m_source_file_index>  (278) 
9

>  <i_lp_mmshare_version>  (278) 
48012

>  <i_f3d_flags>  (278) 
0

>  <s_epik_input>  (278) 
Tz1DKFtPSF0pW0NASF0oW09IXSlbQ0gyXWMoW2NIXTEpb2MoYzEyKVtjSF1bY0hdW2NIXVtjSF0y

>  <s_epik_cmdline>  (278) 
J2VwaWtfcHl0aG9uJywgJy1waHQnLCAnMi4wJywgJy1waCcsICc3LjAnLCAnLXRuJywgJzgnLCAnLW1hJywgJzIwMCcsICctaW1hZScsICc8aW5maWxlLm1hZT4nLCAnLW9tYWUnLCAnPG91dGZpbGUubWFlPic=

>  <r_epik_Ionization_Penalty>  (278) 
0.000333332

>  <r_epik_Ionization_Penalty_Charging>  (278) 
0.000317312

>  <r_epik_Ionization_Penalty_Neutral>  (278) 
1.60204e-05

>  <r_epik_State_Penalty>  (278) 
0.000191473

>  <r_epik_Charging_Adjusted_Penalty>  (278) 
0.000508785

>  <i_epik_Tot_Q>  (278) 
-1

>  <i_epik_Tot_abs_Q>  (278) 
1

>  <s_lp_Force_Field>  (278) 
OPLS3e

>  <r_lp_Energy>  (278) 
17.539

>  <b_lp_Chiralities_Consistent>  (278) 
1

>  <s_lp_Variant>  (278) 
62:0-1

>  <s_i_glide_gridfile>  (278) 
pfpi4k_grid

>  <i_i_glide_lignum>  (278) 
9

>  <i_i_glide_rotatable_bonds>  (278) 
4

>  <r_i_docking_score>  (278) 
-3.28924

>  <r_i_glide_ligand_efficiency>  (278) 
-0.219283

>  <r_i_glide_ligand_efficiency_sa>  (278) 
-0.540798

>  <r_i_glide_ligand_efficiency_ln>  (278) 
-0.887055

>  <r_i_glide_gscore>  (278) 
-3.28924

>  <r_i_glide_lipo>  (278) 
0

>  <r_i_glide_hbond>  (278) 
-0.2

>  <r_i_glide_metal>  (278) 
-0

>  <r_i_glide_rewards>  (278) 
-2.03576

>  <r_i_glide_evdw>  (278) 
-11.3182

>  <r_i_glide_ecoul>  (278) 
-5.85879

>  <r_i_glide_erotb>  (278) 
0.391247

>  <r_i_glide_esite>  (278) 
0

>  <r_i_glide_emodel>  (278) 
-22.9179

>  <r_i_glide_energy>  (278) 
-17.177

>  <r_i_glide_einternal>  (278) 
0.291665

>  <r_i_glide_intrahb_reward>  (278) 
-0

>  <i_i_glide_confnum>  (278) 
3

>  <i_i_glide_posenum>  (278) 
1

>  <r_i_glide_eff_state_penalty>  (278) 
0

>  <ligand_id>  (278) 
62

>  <original_smiles>  (278) 
O=C(O)C(O)Cc1cc2ccccc2o1

>  <smiles>  (278) 
[H]OC([H])(C(=O)[O-])C([H])([H])c1oc2c([H])c([H])c([H])c([H])c2c1[H]

$$$$
63:0:0
     RDKit          3D

 36 38  0  0  1  0  0  0  0  0999 V2000
   -9.7130   -3.5656   -5.9705 C   0  0  0  0  0  0  0  0  0  0  0  0
   -8.6383   -4.6332   -5.9194 C   0  0  0  0  0  0  0  0  0  0  0  0
   -8.4952   -5.5992   -6.9362 C   0  0  0  0  0  0  0  0  0  0  0  0
   -7.4621   -6.5545   -6.8239 C   0  0  0  0  0  0  0  0  0  0  0  0
   -6.5861   -6.5450   -5.6989 C   0  0  0  0  0  0  0  0  0  0  0  0
   -6.7933   -5.5413   -4.7173 C   0  0  0  0  0  0  0  0  0  0  0  0
   -7.7930   -4.6423   -4.8669 N   0  0  0  0  0  0  0  0  0  0  0  0
   -5.6515   -7.6248   -5.8556 C   0  0  0  0  0  0  0  0  0  0  0  0
   -4.5556   -8.0248   -4.9208 C   0  0  0  0  0  0  0  0  0  0  0  0
   -5.9577   -8.2246   -7.0471 C   0  0  0  0  0  0  0  0  0  0  0  0
   -7.0552   -7.6083   -7.6343 N   0  0  0  0  0  0  0  0  0  0  0  0
   -7.6469   -8.0076   -8.9061 C   0  0  0  0  0  0  0  0  0  0  0  0
   -8.2936   -9.4064   -8.8451 C   0  0  2  0  0  0  0  0  0  0  0  0
   -9.5237   -9.4659   -7.9311 C   0  0  0  0  0  0  0  0  0  0  0  0
   -9.4698  -10.8805   -7.3997 C   0  0  0  0  0  0  0  0  0  0  0  0
   -7.9690  -11.1205   -7.2824 C   0  0  0  0  0  0  0  0  0  0  0  0
   -7.3797  -10.3899   -8.3541 O   0  0  0  0  0  0  0  0  0  0  0  0
  -10.3361   -3.6655   -6.8587 H   0  0  0  0  0  0  0  0  0  0  0  0
   -9.2601   -2.5749   -5.9804 H   0  0  0  0  0  0  0  0  0  0  0  0
  -10.3621   -3.6348   -5.0997 H   0  0  0  0  0  0  0  0  0  0  0  0
   -9.1684   -5.6183   -7.7751 H   0  0  0  0  0  0  0  0  0  0  0  0
   -6.1881   -5.4440   -3.8288 H   0  0  0  0  0  0  0  0  0  0  0  0
   -4.0104   -8.8946   -5.2858 H   0  0  0  0  0  0  0  0  0  0  0  0
   -4.9429   -8.2673   -3.9300 H   0  0  0  0  0  0  0  0  0  0  0  0
   -3.8378   -7.2151   -4.8158 H   0  0  0  0  0  0  0  0  0  0  0  0
   -5.4713   -9.0679   -7.5145 H   0  0  0  0  0  0  0  0  0  0  0  0
   -8.3993   -7.2702   -9.1937 H   0  0  0  0  0  0  0  0  0  0  0  0
   -6.8749   -7.9557   -9.6799 H   0  0  0  0  0  0  0  0  0  0  0  0
   -8.5896   -9.7184   -9.8453 H   0  0  0  0  0  0  0  0  0  0  0  0
   -9.4295   -8.7496   -7.1162 H   0  0  0  0  0  0  0  0  0  0  0  0
  -10.4550   -9.2335   -8.4540 H   0  0  0  0  0  0  0  0  0  0  0  0
  -10.0037  -11.0017   -6.4569 H   0  0  0  0  0  0  0  0  0  0  0  0
   -9.8932  -11.5681   -8.1346 H   0  0  0  0  0  0  0  0  0  0  0  0
   -7.5957  -10.7233   -6.3369 H   0  0  0  0  0  0  0  0  0  0  0  0
   -7.7056  -12.1764   -7.3327 H   0  0  0  0  0  0  0  0  0  0  0  0
   -7.9115   -3.9227   -4.1499 H   0  0  0  0  0  0  0  0  0  0  0  0
  1  2  1  0
  1 18  1  0
  1 19  1  0
  1 20  1  0
  2  7  2  0
  2  3  1  0
  3  4  2  0
  3 21  1  0
  4 11  1  0
  4  5  1  0
  5  6  2  0
  5  8  1  0
  6  7  1  0
  6 22  1  0
  7 36  1  0
  8  9  1  0
  8 10  2  0
  9 23  1  0
  9 24  1  0
  9 25  1  0
 10 11  1  0
 10 26  1  0
 11 12  1  0
 12 13  1  0
 12 27  1  0
 12 28  1  0
 13 17  1  0
 13 14  1  0
 13 29  1  6
 14 15  1  0
 14 30  1  0
 14 31  1  0
 15 16  1  0
 15 32  1  0
 15 33  1  0
 16 17  1  0
 16 34  1  0
 16 35  1  0
M  CHG  1   7   1
M  END
>  <i_m_ct_stereo_status>  (279) 
1

>  <s_m_source_file>  (279) 
/var/tmp/pbs.5102264.sched01/tmp5h8_9bj8/92lofvt80g.sdf

>  <i_m_source_file_index>  (279) 
10

>  <i_lp_mmshare_version>  (279) 
48012

>  <i_f3d_flags>  (279) 
0

>  <s_epik_input>  (279) 
W0NIM11jKFtjSF0xKW5bY0hdYyhjMTIpYyhbQ0gzXSlbY0hdbjJbQ0gyXVtDQEBIXTNbQ0gyXVtDSDJdW0NIMl1PMw==

>  <s_epik_cmdline>  (279) 
J2VwaWtfcHl0aG9uJywgJy1waHQnLCAnMi4wJywgJy1waCcsICc3LjAnLCAnLXRuJywgJzgnLCAnLW1hJywgJzIwMCcsICctaW1hZScsICc8aW5maWxlLm1hZT4nLCAnLW9tYWUnLCAnPG91dGZpbGUubWFlPic=

>  <r_lp_tautomer_probability>  (279) 
1

>  <r_epik_Ionization_Penalty>  (279) 
0.00858048

>  <r_epik_Ionization_Penalty_Charging>  (279) 
0.00858048

>  <r_epik_Ionization_Penalty_Neutral>  (279) 
3.05794e-12

>  <r_epik_State_Penalty>  (279) 
0.00647329

>  <r_epik_Charging_Adjusted_Penalty>  (279) 
0.0150538

>  <i_epik_Tot_Q>  (279) 
1

>  <i_epik_Tot_abs_Q>  (279) 
1

>  <s_lp_Force_Field>  (279) 
OPLS3e

>  <r_lp_Energy>  (279) 
16.4161

>  <b_lp_Chiralities_Consistent>  (279) 
1

>  <s_lp_Variant>  (279) 
63:0-1

>  <s_i_glide_gridfile>  (279) 
pfpi4k_grid

>  <i_i_glide_lignum>  (279) 
10

>  <i_i_glide_rotatable_bonds>  (279) 
2

>  <r_i_docking_score>  (279) 
-5.79162

>  <r_i_glide_ligand_efficiency>  (279) 
-0.340684

>  <r_i_glide_ligand_efficiency_sa>  (279) 
-0.875993

>  <r_i_glide_ligand_efficiency_ln>  (279) 
-1.5109

>  <r_i_glide_gscore>  (279) 
-5.79162

>  <r_i_glide_lipo>  (279) 
-2.74927

>  <r_i_glide_hbond>  (279) 
0

>  <r_i_glide_metal>  (279) 
-0

>  <r_i_glide_rewards>  (279) 
-2.30266

>  <r_i_glide_evdw>  (279) 
-25.8988

>  <r_i_glide_ecoul>  (279) 
-0.56088

>  <r_i_glide_erotb>  (279) 
0.639376

>  <r_i_glide_esite>  (279) 
0

>  <r_i_glide_emodel>  (279) 
-36.2717

>  <r_i_glide_energy>  (279) 
-26.4597

>  <r_i_glide_einternal>  (279) 
1.75483

>  <r_i_glide_intrahb_reward>  (279) 
-0

>  <i_i_glide_confnum>  (279) 
3

>  <i_i_glide_posenum>  (279) 
7

>  <r_i_glide_eff_state_penalty>  (279) 
0

>  <ligand_id>  (279) 
63

>  <original_smiles>  (279) 
Cc1cc2c(cn1)c(C)cn2CC1CCCO1

>  <smiles>  (279) 
[H]c1c(C([H])([H])[H])[n+]([H])c([H])c2c(C([H])([H])[H])c([H])n(C([H])([H])C3([H])OC([H])([H])C([H])([H])C3([H])[H])c12

$$$$
63:0:1
     RDKit          3D

 36 38  0  0  1  0  0  0  0  0999 V2000
   -9.7968   -3.3965   -5.8383 C   0  0  0  0  0  0  0  0  0  0  0  0
   -8.7416   -4.4780   -5.8685 C   0  0  0  0  0  0  0  0  0  0  0  0
   -8.6795   -5.4413   -6.8943 C   0  0  0  0  0  0  0  0  0  0  0  0
   -7.6744   -6.4283   -6.8430 C   0  0  0  0  0  0  0  0  0  0  0  0
   -6.7296   -6.4517   -5.7748 C   0  0  0  0  0  0  0  0  0  0  0  0
   -6.8508   -5.4431   -4.7816 C   0  0  0  0  0  0  0  0  0  0  0  0
   -7.8336   -4.5167   -4.8678 N   0  0  0  0  0  0  0  0  0  0  0  0
   -5.8336   -7.5517   -5.9969 C   0  0  0  0  0  0  0  0  0  0  0  0
   -4.6700   -7.9549   -5.1432 C   0  0  0  0  0  0  0  0  0  0  0  0
   -6.2459   -8.1529   -7.1576 C   0  0  0  0  0  0  0  0  0  0  0  0
   -7.3468   -7.4837   -7.6829 N   0  0  0  0  0  0  0  0  0  0  0  0
   -8.0163   -7.8303   -8.9220 C   0  0  0  0  0  0  0  0  0  0  0  0
   -9.2928   -8.6528   -8.6893 C   0  0  2  0  0  0  0  0  0  0  0  0
  -10.0070   -9.0208   -9.9880 C   0  0  0  0  0  0  0  0  0  0  0  0
  -11.4497   -9.1024   -9.5479 C   0  0  0  0  0  0  0  0  0  0  0  0
  -11.5361   -7.9928   -8.5050 C   0  0  0  0  0  0  0  0  0  0  0  0
  -10.2387   -7.9071   -7.9278 O   0  0  0  0  0  0  0  0  0  0  0  0
  -10.4801   -3.4781   -6.6822 H   0  0  0  0  0  0  0  0  0  0  0  0
   -9.3318   -2.4118   -5.8694 H   0  0  0  0  0  0  0  0  0  0  0  0
  -10.3857   -3.4663   -4.9258 H   0  0  0  0  0  0  0  0  0  0  0  0
   -9.4046   -5.4500   -7.6919 H   0  0  0  0  0  0  0  0  0  0  0  0
   -6.1905   -5.3623   -3.9310 H   0  0  0  0  0  0  0  0  0  0  0  0
   -4.1554   -8.8282   -5.5442 H   0  0  0  0  0  0  0  0  0  0  0  0
   -4.9851   -8.1974   -4.1290 H   0  0  0  0  0  0  0  0  0  0  0  0
   -3.9420   -7.1469   -5.0810 H   0  0  0  0  0  0  0  0  0  0  0  0
   -5.8289   -9.0083   -7.6690 H   0  0  0  0  0  0  0  0  0  0  0  0
   -8.2643   -6.9039   -9.4466 H   0  0  0  0  0  0  0  0  0  0  0  0
   -7.3189   -8.3740   -9.5636 H   0  0  0  0  0  0  0  0  0  0  0  0
   -9.0689   -9.5640   -8.1288 H   0  0  0  0  0  0  0  0  0  0  0  0
   -9.8865   -8.2233  -10.7257 H   0  0  0  0  0  0  0  0  0  0  0  0
   -9.6334   -9.9470  -10.4275 H   0  0  0  0  0  0  0  0  0  0  0  0
  -12.1488   -8.9697  -10.3717 H   0  0  0  0  0  0  0  0  0  0  0  0
  -11.6468  -10.0670   -9.0769 H   0  0  0  0  0  0  0  0  0  0  0  0
  -11.7656   -7.0386   -8.9792 H   0  0  0  0  0  0  0  0  0  0  0  0
  -12.2984   -8.1848   -7.7507 H   0  0  0  0  0  0  0  0  0  0  0  0
   -7.8982   -3.8068   -4.1320 H   0  0  0  0  0  0  0  0  0  0  0  0
  1  2  1  0
  1 18  1  0
  1 19  1  0
  1 20  1  0
  2  7  2  0
  2  3  1  0
  3  4  2  0
  3 21  1  0
  4 11  1  0
  4  5  1  0
  5  6  2  0
  5  8  1  0
  6  7  1  0
  6 22  1  0
  7 36  1  0
  8  9  1  0
  8 10  2  0
  9 23  1  0
  9 24  1  0
  9 25  1  0
 10 11  1  0
 10 26  1  0
 11 12  1  0
 12 13  1  0
 12 27  1  0
 12 28  1  0
 13 17  1  0
 13 14  1  0
 13 29  1  1
 14 15  1  0
 14 30  1  0
 14 31  1  0
 15 16  1  0
 15 32  1  0
 15 33  1  0
 16 17  1  0
 16 34  1  0
 16 35  1  0
M  CHG  1   7   1
M  END
>  <i_m_ct_stereo_status>  (280) 
1

>  <s_m_source_file>  (280) 
/var/tmp/pbs.5102264.sched01/tmp5h8_9bj8/92lofvt80g.sdf

>  <i_m_source_file_index>  (280) 
10

>  <i_lp_mmshare_version>  (280) 
48012

>  <i_f3d_flags>  (280) 
0

>  <s_epik_input>  (280) 
W0NIM11jKFtjSF0xKW5bY0hdYyhjMTIpYyhbQ0gzXSlbY0hdbjJbQ0gyXVtDQEBIXTNbQ0gyXVtDSDJdW0NIMl1PMw==

>  <s_epik_cmdline>  (280) 
J2VwaWtfcHl0aG9uJywgJy1waHQnLCAnMi4wJywgJy1waCcsICc3LjAnLCAnLXRuJywgJzgnLCAnLW1hJywgJzIwMCcsICctaW1hZScsICc8aW5maWxlLm1hZT4nLCAnLW9tYWUnLCAnPG91dGZpbGUubWFlPic=

>  <r_lp_tautomer_probability>  (280) 
1

>  <r_epik_Ionization_Penalty>  (280) 
0.00858048

>  <r_epik_Ionization_Penalty_Charging>  (280) 
0.00858048

>  <r_epik_Ionization_Penalty_Neutral>  (280) 
3.05794e-12

>  <r_epik_State_Penalty>  (280) 
0.00647329

>  <r_epik_Charging_Adjusted_Penalty>  (280) 
0.0150538

>  <i_epik_Tot_Q>  (280) 
1

>  <i_epik_Tot_abs_Q>  (280) 
1

>  <s_lp_Force_Field>  (280) 
OPLS3e

>  <r_lp_Energy>  (280) 
16.4161

>  <b_lp_Chiralities_Consistent>  (280) 
1

>  <s_lp_Variant>  (280) 
63:0-1

>  <s_i_glide_gridfile>  (280) 
pfpi4k_grid

>  <i_i_glide_lignum>  (280) 
10

>  <i_i_glide_rotatable_bonds>  (280) 
2

>  <r_i_docking_score>  (280) 
-5.59197

>  <r_i_glide_ligand_efficiency>  (280) 
-0.328939

>  <r_i_glide_ligand_efficiency_sa>  (280) 
-0.845796

>  <r_i_glide_ligand_efficiency_ln>  (280) 
-1.45882

>  <r_i_glide_gscore>  (280) 
-5.59197

>  <r_i_glide_lipo>  (280) 
-2.59534

>  <r_i_glide_hbond>  (280) 
0

>  <r_i_glide_metal>  (280) 
-0

>  <r_i_glide_rewards>  (280) 
-2.30254

>  <r_i_glide_evdw>  (280) 
-24.8805

>  <r_i_glide_ecoul>  (280) 
-0.596235

>  <r_i_glide_erotb>  (280) 
0.639376

>  <r_i_glide_esite>  (280) 
0

>  <r_i_glide_emodel>  (280) 
-35.7568

>  <r_i_glide_energy>  (280) 
-25.4768

>  <r_i_glide_einternal>  (280) 
0.236736

>  <r_i_glide_intrahb_reward>  (280) 
-0

>  <i_i_glide_confnum>  (280) 
3

>  <i_i_glide_posenum>  (280) 
1

>  <r_i_glide_eff_state_penalty>  (280) 
0

>  <ligand_id>  (280) 
63

>  <original_smiles>  (280) 
Cc1cc2c(cn1)c(C)cn2CC1CCCO1

>  <smiles>  (280) 
[H]c1c(C([H])([H])[H])[n+]([H])c([H])c2c(C([H])([H])[H])c([H])n(C([H])([H])C3([H])OC([H])([H])C([H])([H])C3([H])[H])c12

$$$$
63:0:2
     RDKit          3D

 36 38  0  0  1  0  0  0  0  0999 V2000
   -8.2319  -11.8593   -8.3693 C   0  0  0  0  0  0  0  0  0  0  0  0
   -7.6686  -10.6588   -7.6413 C   0  0  0  0  0  0  0  0  0  0  0  0
   -8.1223   -9.3490   -7.8996 C   0  0  0  0  0  0  0  0  0  0  0  0
   -7.5504   -8.2847   -7.1735 C   0  0  0  0  0  0  0  0  0  0  0  0
   -6.5288   -8.5250   -6.2094 C   0  0  0  0  0  0  0  0  0  0  0  0
   -6.1232   -9.8666   -6.0088 C   0  0  0  0  0  0  0  0  0  0  0  0
   -6.7049  -10.8626   -6.7190 N   0  0  0  0  0  0  0  0  0  0  0  0
   -6.1382   -7.2725   -5.6393 C   0  0  0  0  0  0  0  0  0  0  0  0
   -5.1216   -7.0250   -4.5765 C   0  0  0  0  0  0  0  0  0  0  0  0
   -6.8876   -6.3233   -6.2727 C   0  0  0  0  0  0  0  0  0  0  0  0
   -7.7727   -6.9176   -7.1681 N   0  0  0  0  0  0  0  0  0  0  0  0
   -8.7354   -6.2018   -7.9873 C   0  0  0  0  0  0  0  0  0  0  0  0
   -9.7450   -5.3995   -7.1407 C   0  0  2  0  0  0  0  0  0  0  0  0
  -10.4227   -4.2769   -7.8962 C   0  0  0  0  0  0  0  0  0  0  0  0
  -10.5925   -3.1541   -6.8681 C   0  0  0  0  0  0  0  0  0  0  0  0
   -9.9933   -3.7419   -5.6039 C   0  0  0  0  0  0  0  0  0  0  0  0
   -9.1026   -4.7256   -6.0715 O   0  0  0  0  0  0  0  0  0  0  0  0
   -8.9880  -11.5640   -9.0952 H   0  0  0  0  0  0  0  0  0  0  0  0
   -8.6912  -12.5484   -7.6616 H   0  0  0  0  0  0  0  0  0  0  0  0
   -7.4367  -12.3811   -8.8998 H   0  0  0  0  0  0  0  0  0  0  0  0
   -8.8886   -9.1622   -8.6317 H   0  0  0  0  0  0  0  0  0  0  0  0
   -5.3601  -10.1491   -5.2982 H   0  0  0  0  0  0  0  0  0  0  0  0
   -5.0494   -5.9643   -4.3355 H   0  0  0  0  0  0  0  0  0  0  0  0
   -4.1369   -7.3830   -4.8818 H   0  0  0  0  0  0  0  0  0  0  0  0
   -5.3947   -7.5493   -3.6639 H   0  0  0  0  0  0  0  0  0  0  0  0
   -6.8523   -5.2561   -6.1230 H   0  0  0  0  0  0  0  0  0  0  0  0
   -8.1611   -5.5612   -8.6585 H   0  0  0  0  0  0  0  0  0  0  0  0
   -9.2741   -6.8985   -8.6308 H   0  0  0  0  0  0  0  0  0  0  0  0
  -10.5463   -6.0318   -6.7616 H   0  0  0  0  0  0  0  0  0  0  0  0
   -9.7573   -3.9548   -8.6931 H   0  0  0  0  0  0  0  0  0  0  0  0
  -11.3637   -4.6491   -8.3215 H   0  0  0  0  0  0  0  0  0  0  0  0
  -10.0248   -2.2722   -7.1565 H   0  0  0  0  0  0  0  0  0  0  0  0
  -11.6315   -2.8531   -6.7273 H   0  0  0  0  0  0  0  0  0  0  0  0
   -9.4726   -3.0136   -4.9890 H   0  0  0  0  0  0  0  0  0  0  0  0
  -10.7699   -4.2272   -5.0283 H   0  0  0  0  0  0  0  0  0  0  0  0
   -6.4019  -11.8224   -6.5390 H   0  0  0  0  0  0  0  0  0  0  0  0
  1  2  1  0
  1 18  1  0
  1 19  1  0
  1 20  1  0
  2  7  2  0
  2  3  1  0
  3  4  2  0
  3 21  1  0
  4 11  1  0
  4  5  1  0
  5  6  2  0
  5  8  1  0
  6  7  1  0
  6 22  1  0
  7 36  1  0
  8  9  1  0
  8 10  2  0
  9 23  1  0
  9 24  1  0
  9 25  1  0
 10 11  1  0
 10 26  1  0
 11 12  1  0
 12 13  1  0
 12 27  1  0
 12 28  1  0
 13 17  1  0
 13 14  1  0
 13 29  1  1
 14 15  1  0
 14 30  1  0
 14 31  1  0
 15 16  1  0
 15 32  1  0
 15 33  1  0
 16 17  1  0
 16 34  1  0
 16 35  1  0
M  CHG  1   7   1
M  END
>  <i_m_ct_stereo_status>  (281) 
1

>  <s_m_source_file>  (281) 
/var/tmp/pbs.5102264.sched01/tmp5h8_9bj8/92lofvt80g.sdf

>  <i_m_source_file_index>  (281) 
10

>  <i_lp_mmshare_version>  (281) 
48012

>  <i_f3d_flags>  (281) 
0

>  <s_epik_input>  (281) 
W0NIM11jKFtjSF0xKW5bY0hdYyhjMTIpYyhbQ0gzXSlbY0hdbjJbQ0gyXVtDQEBIXTNbQ0gyXVtDSDJdW0NIMl1PMw==

>  <s_epik_cmdline>  (281) 
J2VwaWtfcHl0aG9uJywgJy1waHQnLCAnMi4wJywgJy1waCcsICc3LjAnLCAnLXRuJywgJzgnLCAnLW1hJywgJzIwMCcsICctaW1hZScsICc8aW5maWxlLm1hZT4nLCAnLW9tYWUnLCAnPG91dGZpbGUubWFlPic=

>  <r_lp_tautomer_probability>  (281) 
1

>  <r_epik_Ionization_Penalty>  (281) 
0.00858048

>  <r_epik_Ionization_Penalty_Charging>  (281) 
0.00858048

>  <r_epik_Ionization_Penalty_Neutral>  (281) 
3.05794e-12

>  <r_epik_State_Penalty>  (281) 
0.00647329

>  <r_epik_Charging_Adjusted_Penalty>  (281) 
0.0150538

>  <i_epik_Tot_Q>  (281) 
1

>  <i_epik_Tot_abs_Q>  (281) 
1

>  <s_lp_Force_Field>  (281) 
OPLS3e

>  <r_lp_Energy>  (281) 
16.4161

>  <b_lp_Chiralities_Consistent>  (281) 
1

>  <s_lp_Variant>  (281) 
63:0-1

>  <s_i_glide_gridfile>  (281) 
pfpi4k_grid

>  <i_i_glide_lignum>  (281) 
10

>  <i_i_glide_rotatable_bonds>  (281) 
2

>  <r_i_docking_score>  (281) 
-4.68143

>  <r_i_glide_ligand_efficiency>  (281) 
-0.275378

>  <r_i_glide_ligand_efficiency_sa>  (281) 
-0.708075

>  <r_i_glide_ligand_efficiency_ln>  (281) 
-1.22128

>  <r_i_glide_gscore>  (281) 
-4.68143

>  <r_i_glide_lipo>  (281) 
-2.02648

>  <r_i_glide_hbond>  (281) 
0

>  <r_i_glide_metal>  (281) 
-0

>  <r_i_glide_rewards>  (281) 
-2.34063

>  <r_i_glide_evdw>  (281) 
-19.1142

>  <r_i_glide_ecoul>  (281) 
0.0134442

>  <r_i_glide_erotb>  (281) 
0.639376

>  <r_i_glide_esite>  (281) 
0

>  <r_i_glide_emodel>  (281) 
-26.0289

>  <r_i_glide_energy>  (281) 
-19.1008

>  <r_i_glide_einternal>  (281) 
2.7798

>  <r_i_glide_intrahb_reward>  (281) 
-0

>  <i_i_glide_confnum>  (281) 
2

>  <i_i_glide_posenum>  (281) 
4

>  <r_i_glide_eff_state_penalty>  (281) 
0

>  <ligand_id>  (281) 
63

>  <original_smiles>  (281) 
Cc1cc2c(cn1)c(C)cn2CC1CCCO1

>  <smiles>  (281) 
[H]c1c(C([H])([H])[H])[n+]([H])c([H])c2c(C([H])([H])[H])c([H])n(C([H])([H])C3([H])OC([H])([H])C([H])([H])C3([H])[H])c12

$$$$
63:1:0
     RDKit          3D

 35 37  0  0  1  0  0  0  0  0999 V2000
    2.6590   -3.0238   -3.7293 C   0  0  0  0  0  0  0  0  0  0  0  0
    3.8329   -2.7292   -2.8218 C   0  0  0  0  0  0  0  0  0  0  0  0
    3.6724   -1.9518   -1.6678 C   0  0  0  0  0  0  0  0  0  0  0  0
    4.7969   -1.7477   -0.8489 C   0  0  0  0  0  0  0  0  0  0  0  0
    6.0548   -2.2999   -1.2077 C   0  0  0  0  0  0  0  0  0  0  0  0
    6.1064   -3.0579   -2.4064 C   0  0  0  0  0  0  0  0  0  0  0  0
    5.0191   -3.2552   -3.1879 N   0  0  0  0  0  0  0  0  0  0  0  0
    7.0103   -1.9278   -0.2029 C   0  0  0  0  0  0  0  0  0  0  0  0
    8.4662   -2.2856   -0.1693 C   0  0  0  0  0  0  0  0  0  0  0  0
    6.3217   -1.1870    0.7226 C   0  0  0  0  0  0  0  0  0  0  0  0
    4.9864   -1.0773    0.3524 N   0  0  0  0  0  0  0  0  0  0  0  0
    3.9643   -0.3749    1.1057 C   0  0  0  0  0  0  0  0  0  0  0  0
    2.8515   -1.3234    1.5897 C   0  0  2  0  0  0  0  0  0  0  0  0
    1.7311   -0.6211    2.3543 C   0  0  0  0  0  0  0  0  0  0  0  0
    1.3098   -1.6476    3.3950 C   0  0  0  0  0  0  0  0  0  0  0  0
    2.2258   -2.8456    3.1438 C   0  0  0  0  0  0  0  0  0  0  0  0
    3.3575   -2.2804    2.5071 O   0  0  0  0  0  0  0  0  0  0  0  0
    1.7442   -2.5591   -3.3619 H   0  0  0  0  0  0  0  0  0  0  0  0
    2.4795   -4.0961   -3.8140 H   0  0  0  0  0  0  0  0  0  0  0  0
    2.8670   -2.6306   -4.7177 H   0  0  0  0  0  0  0  0  0  0  0  0
    2.7056   -1.5413   -1.4201 H   0  0  0  0  0  0  0  0  0  0  0  0
    7.0330   -3.5059   -2.7282 H   0  0  0  0  0  0  0  0  0  0  0  0
    8.9674   -1.8598    0.7009 H   0  0  0  0  0  0  0  0  0  0  0  0
    8.9894   -1.9254   -1.0564 H   0  0  0  0  0  0  0  0  0  0  0  0
    8.5974   -3.3678   -0.1356 H   0  0  0  0  0  0  0  0  0  0  0  0
    6.6826   -0.7273    1.6322 H   0  0  0  0  0  0  0  0  0  0  0  0
    4.4319    0.1253    1.9554 H   0  0  0  0  0  0  0  0  0  0  0  0
    3.5520    0.4110    0.4794 H   0  0  0  0  0  0  0  0  0  0  0  0
    2.4012   -1.8731    0.7613 H   0  0  0  0  0  0  0  0  0  0  0  0
    2.0976    0.2835    2.8414 H   0  0  0  0  0  0  0  0  0  0  0  0
    0.9188   -0.3379    1.6824 H   0  0  0  0  0  0  0  0  0  0  0  0
    1.4832   -1.2431    4.3911 H   0  0  0  0  0  0  0  0  0  0  0  0
    0.2578   -1.9181    3.3138 H   0  0  0  0  0  0  0  0  0  0  0  0
    2.5055   -3.3633    4.0595 H   0  0  0  0  0  0  0  0  0  0  0  0
    1.7498   -3.5645    2.4754 H   0  0  0  0  0  0  0  0  0  0  0  0
  1  2  1  0
  1 18  1  0
  1 19  1  0
  1 20  1  0
  2  7  2  0
  2  3  1  0
  3  4  2  0
  3 21  1  0
  4 11  1  0
  4  5  1  0
  5  6  2  0
  5  8  1  0
  6  7  1  0
  6 22  1  0
  8  9  1  0
  8 10  2  0
  9 23  1  0
  9 24  1  0
  9 25  1  0
 10 11  1  0
 10 26  1  0
 11 12  1  0
 12 13  1  0
 12 27  1  0
 12 28  1  0
 13 17  1  0
 13 14  1  0
 13 29  1  6
 14 15  1  0
 14 30  1  0
 14 31  1  0
 15 16  1  0
 15 32  1  0
 15 33  1  0
 16 17  1  0
 16 34  1  0
 16 35  1  0
M  END
>  <i_m_ct_stereo_status>  (282) 
1

>  <s_m_source_file>  (282) 
/var/tmp/pbs.5102264.sched01/tmp5h8_9bj8/92lofvt80g.sdf

>  <i_m_source_file_index>  (282) 
11

>  <i_lp_mmshare_version>  (282) 
48012

>  <i_f3d_flags>  (282) 
0

>  <s_epik_input>  (282) 
W0NIM11jKFtjSF0xKW5bY0hdYyhjMTIpYyhbQ0gzXSlbY0hdbjJbQ0gyXVtDQEBIXTNbQ0gyXVtDSDJdW0NIMl1PMw==

>  <s_epik_cmdline>  (282) 
J2VwaWtfcHl0aG9uJywgJy1waHQnLCAnMi4wJywgJy1waCcsICc3LjAnLCAnLXRuJywgJzgnLCAnLW1hJywgJzIwMCcsICctaW1hZScsICc8aW5maWxlLm1hZT4nLCAnLW9tYWUnLCAnPG91dGZpbGUubWFlPic=

>  <r_lp_tautomer_probability>  (282) 
1

>  <r_epik_Ionization_Penalty>  (282) 
2.51337

>  <r_epik_Ionization_Penalty_Charging>  (282) 
0

>  <r_epik_Ionization_Penalty_Neutral>  (282) 
2.51337

>  <r_epik_State_Penalty>  (282) 
2.67928

>  <r_epik_Charging_Adjusted_Penalty>  (282) 
2.67928

>  <i_epik_Tot_Q>  (282) 
0

>  <i_epik_Tot_abs_Q>  (282) 
0

>  <s_lp_Force_Field>  (282) 
OPLS3e

>  <r_lp_Energy>  (282) 
10.009

>  <b_lp_Chiralities_Consistent>  (282) 
1

>  <s_lp_Variant>  (282) 
63:0-2

>  <s_i_glide_gridfile>  (282) 
pfpi4k_grid

>  <i_i_glide_lignum>  (282) 
11

>  <i_i_glide_rotatable_bonds>  (282) 
2

>  <r_i_docking_score>  (282) 
-3.75239

>  <r_i_glide_ligand_efficiency>  (282) 
-0.220729

>  <r_i_glide_ligand_efficiency_sa>  (282) 
-0.567556

>  <r_i_glide_ligand_efficiency_ln>  (282) 
-0.978914

>  <r_i_glide_gscore>  (282) 
-3.75239

>  <r_i_glide_lipo>  (282) 
-0.573742

>  <r_i_glide_hbond>  (282) 
0

>  <r_i_glide_metal>  (282) 
-0

>  <r_i_glide_rewards>  (282) 
-1.94563

>  <r_i_glide_evdw>  (282) 
-23.9882

>  <r_i_glide_ecoul>  (282) 
-4.51826

>  <r_i_glide_erotb>  (282) 
0.644134

>  <r_i_glide_esite>  (282) 
0

>  <r_i_glide_emodel>  (282) 
-35.0417

>  <r_i_glide_energy>  (282) 
-28.5065

>  <r_i_glide_einternal>  (282) 
0.557469

>  <r_i_glide_intrahb_reward>  (282) 
-0

>  <i_i_glide_confnum>  (282) 
4

>  <i_i_glide_posenum>  (282) 
38

>  <r_i_glide_eff_state_penalty>  (282) 
0

>  <ligand_id>  (282) 
63

>  <original_smiles>  (282) 
Cc1cc2c(cn1)c(C)cn2CC1CCCO1

>  <smiles>  (282) 
[H]c1nc(C([H])([H])[H])c([H])c2c1c(C([H])([H])[H])c([H])n2C([H])([H])C1([H])OC([H])([H])C([H])([H])C1([H])[H]

$$$$
63:1:1
     RDKit          3D

 35 37  0  0  1  0  0  0  0  0999 V2000
    2.5520   -3.1411   -3.7146 C   0  0  0  0  0  0  0  0  0  0  0  0
    3.7409   -2.8137   -2.8468 C   0  0  0  0  0  0  0  0  0  0  0  0
    3.5963   -2.0075   -1.6974 C   0  0  0  0  0  0  0  0  0  0  0  0
    4.7428   -1.7487   -0.9382 C   0  0  0  0  0  0  0  0  0  0  0  0
    5.9950   -2.3073   -1.3185 C   0  0  0  0  0  0  0  0  0  0  0  0
    6.0278   -3.1143   -2.4802 C   0  0  0  0  0  0  0  0  0  0  0  0
    4.9224   -3.3288   -3.2366 N   0  0  0  0  0  0  0  0  0  0  0  0
    6.9848   -1.8778   -0.3748 C   0  0  0  0  0  0  0  0  0  0  0  0
    8.4433   -2.2205   -0.3239 C   0  0  0  0  0  0  0  0  0  0  0  0
    6.3486   -1.0126    0.4632 C   0  0  0  0  0  0  0  0  0  0  0  0
    4.9765   -0.9934    0.2084 N   0  0  0  0  0  0  0  0  0  0  0  0
    3.9569   -0.2864    0.9886 C   0  0  0  0  0  0  0  0  0  0  0  0
    3.6775   -0.9138    2.3713 C   0  0  2  0  0  0  0  0  0  0  0  0
    4.8246   -0.8012    3.4013 C   0  0  0  0  0  0  0  0  0  0  0  0
    4.8265   -2.1344    4.1283 C   0  0  0  0  0  0  0  0  0  0  0  0
    3.6346   -2.8790    3.5456 C   0  0  0  0  0  0  0  0  0  0  0  0
    3.4588   -2.3075    2.2516 O   0  0  0  0  0  0  0  0  0  0  0  0
    1.6470   -2.6641   -3.3485 H   0  0  0  0  0  0  0  0  0  0  0  0
    2.3931   -4.2183   -3.7514 H   0  0  0  0  0  0  0  0  0  0  0  0
    2.7534   -2.7877   -4.7192 H   0  0  0  0  0  0  0  0  0  0  0  0
    2.6320   -1.5958   -1.4374 H   0  0  0  0  0  0  0  0  0  0  0  0
    6.9610   -3.5382   -2.7981 H   0  0  0  0  0  0  0  0  0  0  0  0
    8.9190   -1.7352    0.5296 H   0  0  0  0  0  0  0  0  0  0  0  0
    8.9570   -1.8762   -1.2147 H   0  0  0  0  0  0  0  0  0  0  0  0
    8.5981   -3.2926   -0.2246 H   0  0  0  0  0  0  0  0  0  0  0  0
    6.8378   -0.4308    1.2202 H   0  0  0  0  0  0  0  0  0  0  0  0
    4.2392    0.7601    1.0753 H   0  0  0  0  0  0  0  0  0  0  0  0
    3.0251   -0.2750    0.4158 H   0  0  0  0  0  0  0  0  0  0  0  0
    2.7744   -0.4784    2.7935 H   0  0  0  0  0  0  0  0  0  0  0  0
    5.8263   -0.7383    2.9857 H   0  0  0  0  0  0  0  0  0  0  0  0
    4.7099    0.0746    4.0508 H   0  0  0  0  0  0  0  0  0  0  0  0
    5.7408   -2.6702    3.8692 H   0  0  0  0  0  0  0  0  0  0  0  0
    4.7912   -2.0208    5.2048 H   0  0  0  0  0  0  0  0  0  0  0  0
    3.7871   -3.9640    3.4921 H   0  0  0  0  0  0  0  0  0  0  0  0
    2.7462   -2.6790    4.1445 H   0  0  0  0  0  0  0  0  0  0  0  0
  1  2  1  0
  1 18  1  0
  1 19  1  0
  1 20  1  0
  2  7  2  0
  2  3  1  0
  3  4  2  0
  3 21  1  0
  4 11  1  0
  4  5  1  0
  5  6  2  0
  5  8  1  0
  6  7  1  0
  6 22  1  0
  8  9  1  0
  8 10  2  0
  9 23  1  0
  9 24  1  0
  9 25  1  0
 10 11  1  0
 10 26  1  0
 11 12  1  0
 12 13  1  0
 12 27  1  0
 12 28  1  0
 13 17  1  0
 13 14  1  0
 13 29  1  1
 14 15  1  0
 14 30  1  0
 14 31  1  0
 15 16  1  0
 15 32  1  0
 15 33  1  0
 16 17  1  0
 16 34  1  0
 16 35  1  0
M  END
>  <i_m_ct_stereo_status>  (283) 
1

>  <s_m_source_file>  (283) 
/var/tmp/pbs.5102264.sched01/tmp5h8_9bj8/92lofvt80g.sdf

>  <i_m_source_file_index>  (283) 
11

>  <i_lp_mmshare_version>  (283) 
48012

>  <i_f3d_flags>  (283) 
0

>  <s_epik_input>  (283) 
W0NIM11jKFtjSF0xKW5bY0hdYyhjMTIpYyhbQ0gzXSlbY0hdbjJbQ0gyXVtDQEBIXTNbQ0gyXVtDSDJdW0NIMl1PMw==

>  <s_epik_cmdline>  (283) 
J2VwaWtfcHl0aG9uJywgJy1waHQnLCAnMi4wJywgJy1waCcsICc3LjAnLCAnLXRuJywgJzgnLCAnLW1hJywgJzIwMCcsICctaW1hZScsICc8aW5maWxlLm1hZT4nLCAnLW9tYWUnLCAnPG91dGZpbGUubWFlPic=

>  <r_lp_tautomer_probability>  (283) 
1

>  <r_epik_Ionization_Penalty>  (283) 
2.51337

>  <r_epik_Ionization_Penalty_Charging>  (283) 
0

>  <r_epik_Ionization_Penalty_Neutral>  (283) 
2.51337

>  <r_epik_State_Penalty>  (283) 
2.67928

>  <r_epik_Charging_Adjusted_Penalty>  (283) 
2.67928

>  <i_epik_Tot_Q>  (283) 
0

>  <i_epik_Tot_abs_Q>  (283) 
0

>  <s_lp_Force_Field>  (283) 
OPLS3e

>  <r_lp_Energy>  (283) 
10.009

>  <b_lp_Chiralities_Consistent>  (283) 
1

>  <s_lp_Variant>  (283) 
63:0-2

>  <s_i_glide_gridfile>  (283) 
pfpi4k_grid

>  <i_i_glide_lignum>  (283) 
11

>  <i_i_glide_rotatable_bonds>  (283) 
2

>  <r_i_docking_score>  (283) 
-3.67157

>  <r_i_glide_ligand_efficiency>  (283) 
-0.215975

>  <r_i_glide_ligand_efficiency_sa>  (283) 
-0.555332

>  <r_i_glide_ligand_efficiency_ln>  (283) 
-0.957832

>  <r_i_glide_gscore>  (283) 
-3.67157

>  <r_i_glide_lipo>  (283) 
-0.692807

>  <r_i_glide_hbond>  (283) 
0

>  <r_i_glide_metal>  (283) 
-0

>  <r_i_glide_rewards>  (283) 
-1.91604

>  <r_i_glide_evdw>  (283) 
-21.5882

>  <r_i_glide_ecoul>  (283) 
-4.18297

>  <r_i_glide_erotb>  (283) 
0.644134

>  <r_i_glide_esite>  (283) 
0

>  <r_i_glide_emodel>  (283) 
-31.1641

>  <r_i_glide_energy>  (283) 
-25.7712

>  <r_i_glide_einternal>  (283) 
1.71237

>  <r_i_glide_intrahb_reward>  (283) 
-0

>  <i_i_glide_confnum>  (283) 
4

>  <i_i_glide_posenum>  (283) 
34

>  <r_i_glide_eff_state_penalty>  (283) 
0

>  <ligand_id>  (283) 
63

>  <original_smiles>  (283) 
Cc1cc2c(cn1)c(C)cn2CC1CCCO1

>  <smiles>  (283) 
[H]c1nc(C([H])([H])[H])c([H])c2c1c(C([H])([H])[H])c([H])n2C([H])([H])C1([H])OC([H])([H])C([H])([H])C1([H])[H]

$$$$
63:1:2
     RDKit          3D

 35 37  0  0  1  0  0  0  0  0999 V2000
    2.4749   -3.3915   -3.9129 C   0  0  0  0  0  0  0  0  0  0  0  0
    3.6706   -3.0639   -3.0460 C   0  0  0  0  0  0  0  0  0  0  0  0
    3.5444   -2.2642   -1.9102 C   0  0  0  0  0  0  0  0  0  0  0  0
    4.6875   -2.0171   -1.1401 C   0  0  0  0  0  0  0  0  0  0  0  0
    5.9349   -2.5845   -1.5228 C   0  0  0  0  0  0  0  0  0  0  0  0
    5.9544   -3.3848   -2.6851 C   0  0  0  0  0  0  0  0  0  0  0  0
    4.8481   -3.5855   -3.4430 N   0  0  0  0  0  0  0  0  0  0  0  0
    6.9211   -2.1818   -0.5544 C   0  0  0  0  0  0  0  0  0  0  0  0
    8.3633   -2.5446   -0.5144 C   0  0  0  0  0  0  0  0  0  0  0  0
    6.2678   -1.3511    0.3269 C   0  0  0  0  0  0  0  0  0  0  0  0
    4.9192   -1.2898    0.0132 N   0  0  0  0  0  0  0  0  0  0  0  0
    3.8941   -0.5799    0.7656 C   0  0  0  0  0  0  0  0  0  0  0  0
    3.3095   -1.4262    1.9141 C   0  0  2  0  0  0  0  0  0  0  0  0
    4.3066   -1.7906    3.0299 C   0  0  0  0  0  0  0  0  0  0  0  0
    3.9192   -3.2008    3.4359 C   0  0  0  0  0  0  0  0  0  0  0  0
    2.7107   -3.5319    2.5636 C   0  0  0  0  0  0  0  0  0  0  0  0
    2.8536   -2.6862    1.4333 O   0  0  0  0  0  0  0  0  0  0  0  0
    1.5734   -2.9018   -3.5574 H   0  0  0  0  0  0  0  0  0  0  0  0
    2.2824   -4.4596   -3.9507 H   0  0  0  0  0  0  0  0  0  0  0  0
    2.6963   -3.0556   -4.9123 H   0  0  0  0  0  0  0  0  0  0  0  0
    2.6011   -1.8481   -1.6056 H   0  0  0  0  0  0  0  0  0  0  0  0
    6.8762   -3.8507   -3.0193 H   0  0  0  0  0  0  0  0  0  0  0  0
    8.8701   -2.0786    0.3332 H   0  0  0  0  0  0  0  0  0  0  0  0
    8.8722   -2.2246   -1.4242 H   0  0  0  0  0  0  0  0  0  0  0  0
    8.4932   -3.6243   -0.4286 H   0  0  0  0  0  0  0  0  0  0  0  0
    6.6780   -0.8216    1.1720 H   0  0  0  0  0  0  0  0  0  0  0  0
    4.3094    0.3557    1.1413 H   0  0  0  0  0  0  0  0  0  0  0  0
    3.0893   -0.3044    0.0821 H   0  0  0  0  0  0  0  0  0  0  0  0
    2.4486   -0.9095    2.3469 H   0  0  0  0  0  0  0  0  0  0  0  0
    5.3416   -1.8402    2.6928 H   0  0  0  0  0  0  0  0  0  0  0  0
    4.2600   -1.0716    3.8518 H   0  0  0  0  0  0  0  0  0  0  0  0
    4.7428   -3.8740    3.1957 H   0  0  0  0  0  0  0  0  0  0  0  0
    3.7097   -3.2861    4.5009 H   0  0  0  0  0  0  0  0  0  0  0  0
    2.6762   -4.5829    2.2699 H   0  0  0  0  0  0  0  0  0  0  0  0
    1.7857   -3.2839    3.0869 H   0  0  0  0  0  0  0  0  0  0  0  0
  1  2  1  0
  1 18  1  0
  1 19  1  0
  1 20  1  0
  2  7  2  0
  2  3  1  0
  3  4  2  0
  3 21  1  0
  4 11  1  0
  4  5  1  0
  5  6  2  0
  5  8  1  0
  6  7  1  0
  6 22  1  0
  8  9  1  0
  8 10  2  0
  9 23  1  0
  9 24  1  0
  9 25  1  0
 10 11  1  0
 10 26  1  0
 11 12  1  0
 12 13  1  0
 12 27  1  0
 12 28  1  0
 13 17  1  0
 13 14  1  0
 13 29  1  1
 14 15  1  0
 14 30  1  0
 14 31  1  0
 15 16  1  0
 15 32  1  0
 15 33  1  0
 16 17  1  0
 16 34  1  0
 16 35  1  0
M  END
>  <i_m_ct_stereo_status>  (284) 
1

>  <s_m_source_file>  (284) 
/var/tmp/pbs.5102264.sched01/tmp5h8_9bj8/92lofvt80g.sdf

>  <i_m_source_file_index>  (284) 
11

>  <i_lp_mmshare_version>  (284) 
48012

>  <i_f3d_flags>  (284) 
0

>  <s_epik_input>  (284) 
W0NIM11jKFtjSF0xKW5bY0hdYyhjMTIpYyhbQ0gzXSlbY0hdbjJbQ0gyXVtDQEBIXTNbQ0gyXVtDSDJdW0NIMl1PMw==

>  <s_epik_cmdline>  (284) 
J2VwaWtfcHl0aG9uJywgJy1waHQnLCAnMi4wJywgJy1waCcsICc3LjAnLCAnLXRuJywgJzgnLCAnLW1hJywgJzIwMCcsICctaW1hZScsICc8aW5maWxlLm1hZT4nLCAnLW9tYWUnLCAnPG91dGZpbGUubWFlPic=

>  <r_lp_tautomer_probability>  (284) 
1

>  <r_epik_Ionization_Penalty>  (284) 
2.51337

>  <r_epik_Ionization_Penalty_Charging>  (284) 
0

>  <r_epik_Ionization_Penalty_Neutral>  (284) 
2.51337

>  <r_epik_State_Penalty>  (284) 
2.67928

>  <r_epik_Charging_Adjusted_Penalty>  (284) 
2.67928

>  <i_epik_Tot_Q>  (284) 
0

>  <i_epik_Tot_abs_Q>  (284) 
0

>  <s_lp_Force_Field>  (284) 
OPLS3e

>  <r_lp_Energy>  (284) 
10.009

>  <b_lp_Chiralities_Consistent>  (284) 
1

>  <s_lp_Variant>  (284) 
63:0-2

>  <s_i_glide_gridfile>  (284) 
pfpi4k_grid

>  <i_i_glide_lignum>  (284) 
11

>  <i_i_glide_rotatable_bonds>  (284) 
2

>  <r_i_docking_score>  (284) 
-3.31351

>  <r_i_glide_ligand_efficiency>  (284) 
-0.194913

>  <r_i_glide_ligand_efficiency_sa>  (284) 
-0.501175

>  <r_i_glide_ligand_efficiency_ln>  (284) 
-0.864422

>  <r_i_glide_gscore>  (284) 
-3.31351

>  <r_i_glide_lipo>  (284) 
-0.532302

>  <r_i_glide_hbond>  (284) 
0

>  <r_i_glide_metal>  (284) 
-0

>  <r_i_glide_rewards>  (284) 
-1.83883

>  <r_i_glide_evdw>  (284) 
-21.4495

>  <r_i_glide_ecoul>  (284) 
-3.40006

>  <r_i_glide_erotb>  (284) 
0.644134

>  <r_i_glide_esite>  (284) 
-0.00403694

>  <r_i_glide_emodel>  (284) 
-30.2605

>  <r_i_glide_energy>  (284) 
-24.8495

>  <r_i_glide_einternal>  (284) 
1.02093

>  <r_i_glide_intrahb_reward>  (284) 
-0

>  <i_i_glide_confnum>  (284) 
4

>  <i_i_glide_posenum>  (284) 
22

>  <r_i_glide_eff_state_penalty>  (284) 
0

>  <ligand_id>  (284) 
63

>  <original_smiles>  (284) 
Cc1cc2c(cn1)c(C)cn2CC1CCCO1

>  <smiles>  (284) 
[H]c1nc(C([H])([H])[H])c([H])c2c1c(C([H])([H])[H])c([H])n2C([H])([H])C1([H])OC([H])([H])C([H])([H])C1([H])[H]

$$$$
64:0:0
     RDKit          3D

 31 32  0  0  1  0  0  0  0  0999 V2000
    2.1185   -0.1199   -5.0353 C   0  0  0  0  0  0  0  0  0  0  0  0
    3.1578   -0.6576   -4.0475 C   0  0  0  0  0  0  0  0  0  0  0  0
    4.1945    0.4076   -3.9844 C   0  0  0  0  0  0  0  0  0  0  0  0
    2.6697   -0.8736   -2.7542 O   0  0  0  0  0  0  0  0  0  0  0  0
    2.6276   -2.2780   -2.5715 C   0  0  2  0  0  0  0  0  0  0  0  0
    2.7258   -2.8514   -1.0932 C   0  0  1  0  0  0  0  0  0  0  0  0
    2.3088   -4.2524   -1.0372 N   0  0  0  0  0  0  0  0  0  0  0  0
    4.0586   -2.6218   -0.3955 C   0  0  0  0  0  0  0  0  0  0  0  0
    5.1623   -3.2254   -1.2212 C   0  0  0  0  0  0  0  0  0  0  0  0
    5.1529   -2.6176   -2.6184 C   0  0  1  0  0  0  0  0  0  0  0  0
    6.1209   -3.4359   -3.1960 O   0  0  0  0  0  0  0  0  0  0  0  0
    3.8158   -2.7100   -3.4170 C   0  0  2  0  0  0  0  0  0  0  0  0
    3.7693   -1.8092   -4.5043 O   0  0  0  0  0  0  0  0  0  0  0  0
    1.2548   -0.7953   -5.1089 H   0  0  0  0  0  0  0  0  0  0  0  0
    2.5764    0.0305   -6.0466 H   0  0  0  0  0  0  0  0  0  0  0  0
    1.6945    0.8362   -4.6941 H   0  0  0  0  0  0  0  0  0  0  0  0
    4.9114    0.1591   -3.1970 H   0  0  0  0  0  0  0  0  0  0  0  0
    3.7553    1.3763   -3.7310 H   0  0  0  0  0  0  0  0  0  0  0  0
    4.6529    0.4933   -4.9977 H   0  0  0  0  0  0  0  0  0  0  0  0
    1.7057   -2.6034   -3.0535 H   0  0  0  0  0  0  0  0  0  0  0  0
    2.0906   -2.4143   -0.3370 H   0  0  0  0  0  0  0  0  0  0  0  0
    2.9454   -4.8740   -1.5669 H   0  0  0  0  0  0  0  0  0  0  0  0
    1.3870   -4.3488   -1.4605 H   0  0  0  0  0  0  0  0  0  0  0  0
    4.2184   -1.5462   -0.2668 H   0  0  0  0  0  0  0  0  0  0  0  0
    4.0536   -3.0597    0.6058 H   0  0  0  0  0  0  0  0  0  0  0  0
    6.1290   -3.0575   -0.7223 H   0  0  0  0  0  0  0  0  0  0  0  0
    5.0118   -4.3079   -1.2994 H   0  0  0  0  0  0  0  0  0  0  0  0
    5.5014   -1.6004   -2.4741 H   0  0  0  0  0  0  0  0  0  0  0  0
    6.9757   -3.0600   -3.0076 H   0  0  0  0  0  0  0  0  0  0  0  0
    3.6646   -3.7217   -3.7831 H   0  0  0  0  0  0  0  0  0  0  0  0
    2.2767   -4.5527   -0.0596 H   0  0  0  0  0  0  0  0  0  0  0  0
  1  2  1  0
  1 14  1  0
  1 15  1  0
  1 16  1  0
  2 13  1  0
  2  3  1  0
  2  4  1  0
  3 17  1  0
  3 18  1  0
  3 19  1  0
  4  5  1  0
  5 12  1  0
  5  6  1  0
  5 20  1  6
  6  7  1  0
  6  8  1  0
  6 21  1  1
  7 22  1  0
  7 23  1  0
  7 31  1  0
  8  9  1  0
  8 24  1  0
  8 25  1  0
  9 10  1  0
  9 26  1  0
  9 27  1  0
 10 11  1  0
 10 12  1  0
 10 28  1  1
 11 29  1  0
 12 13  1  0
 12 30  1  6
M  CHG  1   7   1
M  END
>  <i_m_ct_stereo_status>  (285) 
1

>  <s_m_source_file>  (285) 
/var/tmp/pbs.5102264.sched01/tmp5h8_9bj8/92lofvt80g.sdf

>  <i_m_source_file_index>  (285) 
12

>  <i_lp_mmshare_version>  (285) 
48012

>  <i_f3d_flags>  (285) 
0

>  <s_epik_input>  (285) 
W0NIM11DKE8xKShbQ0gzXSlPW0NASF0oW0NASF0xMilbQ0BIXShbT0hdKVtDSDJdW0NIMl1bQ0BASF0yW05IMl0=

>  <s_epik_cmdline>  (285) 
J2VwaWtfcHl0aG9uJywgJy1waHQnLCAnMi4wJywgJy1waCcsICc3LjAnLCAnLXRuJywgJzgnLCAnLW1hJywgJzIwMCcsICctaW1hZScsICc8aW5maWxlLm1hZT4nLCAnLW9tYWUnLCAnPG91dGZpbGUubWFlPic=

>  <r_epik_Ionization_Penalty>  (285) 
0.00910744

>  <r_epik_Ionization_Penalty_Charging>  (285) 
0.0091072

>  <r_epik_Ionization_Penalty_Neutral>  (285) 
2.4019e-07

>  <r_epik_State_Penalty>  (285) 
0.00689896

>  <r_epik_Charging_Adjusted_Penalty>  (285) 
0.0160062

>  <i_epik_Tot_Q>  (285) 
1

>  <i_epik_Tot_abs_Q>  (285) 
1

>  <s_lp_Force_Field>  (285) 
OPLS3e

>  <r_lp_Energy>  (285) 
0.902597

>  <b_lp_Chiralities_Consistent>  (285) 
1

>  <s_lp_Variant>  (285) 
64:0-1

>  <s_i_glide_gridfile>  (285) 
pfpi4k_grid

>  <i_i_glide_lignum>  (285) 
12

>  <i_i_glide_rotatable_bonds>  (285) 
1

>  <r_i_docking_score>  (285) 
-4.71052

>  <r_i_glide_ligand_efficiency>  (285) 
-0.362348

>  <r_i_glide_ligand_efficiency_sa>  (285) 
-0.852001

>  <r_i_glide_ligand_efficiency_ln>  (285) 
-1.32134

>  <r_i_glide_gscore>  (285) 
-4.71052

>  <r_i_glide_lipo>  (285) 
-0.440841

>  <r_i_glide_hbond>  (285) 
-0.32

>  <r_i_glide_metal>  (285) 
-0

>  <r_i_glide_rewards>  (285) 
-2.4413

>  <r_i_glide_evdw>  (285) 
4.66695

>  <r_i_glide_ecoul>  (285) 
-11.236

>  <r_i_glide_erotb>  (285) 
0

>  <r_i_glide_esite>  (285) 
-0.0563276

>  <r_i_glide_emodel>  (285) 
-5.41551

>  <r_i_glide_energy>  (285) 
-6.56903

>  <r_i_glide_einternal>  (285) 
0.323389

>  <r_i_glide_intrahb_reward>  (285) 
-0

>  <i_i_glide_confnum>  (285) 
2

>  <i_i_glide_posenum>  (285) 
1

>  <r_i_glide_eff_state_penalty>  (285) 
0

>  <ligand_id>  (285) 
64

>  <original_smiles>  (285) 
CC1(C)OC2C(N)CCC(O)C2O1

>  <smiles>  (285) 
[H]OC1([H])C([H])([H])C([H])([H])C([H])([N+]([H])([H])[H])C2([H])OC(C([H])([H])[H])(C([H])([H])[H])OC12[H]

$$$$
64:0:1
     RDKit          3D

 31 32  0  0  1  0  0  0  0  0999 V2000
    2.2831   -0.3700   -4.7167 C   0  0  0  0  0  0  0  0  0  0  0  0
    3.3183   -0.8351   -3.6568 C   0  0  0  0  0  0  0  0  0  0  0  0
    4.2187    0.3244   -3.5061 C   0  0  0  0  0  0  0  0  0  0  0  0
    2.7507   -1.1140   -2.4010 O   0  0  0  0  0  0  0  0  0  0  0  0
    2.7755   -2.5139   -2.2382 C   0  0  2  0  0  0  0  0  0  0  0  0
    2.7409   -3.0453   -0.7551 C   0  0  1  0  0  0  0  0  0  0  0  0
    2.4514   -4.4794   -0.7017 N   0  0  0  0  0  0  0  0  0  0  0  0
    3.9888   -2.7413    0.0811 C   0  0  0  0  0  0  0  0  0  0  0  0
    5.2231   -3.2303   -0.6625 C   0  0  0  0  0  0  0  0  0  0  0  0
    5.3078   -2.5462   -2.0312 C   0  0  1  0  0  0  0  0  0  0  0  0
    6.4175   -3.1199   -2.6547 O   0  0  0  0  0  0  0  0  0  0  0  0
    4.0850   -2.8001   -2.9574 C   0  0  2  0  0  0  0  0  0  0  0  0
    4.0331   -1.9203   -4.0685 O   0  0  0  0  0  0  0  0  0  0  0  0
    1.5071   -1.1150   -4.7348 H   0  0  0  0  0  0  0  0  0  0  0  0
    2.7535   -0.1961   -5.6786 H   0  0  0  0  0  0  0  0  0  0  0  0
    1.8301    0.5697   -4.4034 H   0  0  0  0  0  0  0  0  0  0  0  0
    5.0064    0.1820   -2.7660 H   0  0  0  0  0  0  0  0  0  0  0  0
    3.8082    1.2694   -3.2250 H   0  0  0  0  0  0  0  0  0  0  0  0
    4.6081    0.5196   -4.5053 H   0  0  0  0  0  0  0  0  0  0  0  0
    1.9219   -2.9054   -2.8032 H   0  0  0  0  0  0  0  0  0  0  0  0
    1.8997   -2.6455   -0.2162 H   0  0  0  0  0  0  0  0  0  0  0  0
    3.2016   -4.9541   -1.1762 H   0  0  0  0  0  0  0  0  0  0  0  0
    1.6432   -4.7145   -1.2548 H   0  0  0  0  0  0  0  0  0  0  0  0
    4.0596   -1.6698    0.2783 H   0  0  0  0  0  0  0  0  0  0  0  0
    3.9264   -3.2127    1.0631 H   0  0  0  0  0  0  0  0  0  0  0  0
    6.1085   -3.0093   -0.0729 H   0  0  0  0  0  0  0  0  0  0  0  0
    5.2210   -4.3166   -0.7554 H   0  0  0  0  0  0  0  0  0  0  0  0
    5.4679   -1.4918   -1.8301 H   0  0  0  0  0  0  0  0  0  0  0  0
    6.5371   -2.7421   -3.5128 H   0  0  0  0  0  0  0  0  0  0  0  0
    4.0540   -3.8216   -3.3066 H   0  0  0  0  0  0  0  0  0  0  0  0
    2.4035   -4.8288    0.2464 H   0  0  0  0  0  0  0  0  0  0  0  0
  1  2  1  0
  1 14  1  0
  1 15  1  0
  1 16  1  0
  2 13  1  0
  2  3  1  0
  2  4  1  0
  3 17  1  0
  3 18  1  0
  3 19  1  0
  4  5  1  0
  5 12  1  0
  5  6  1  0
  5 20  1  6
  6  7  1  0
  6  8  1  0
  6 21  1  1
  7 22  1  0
  7 23  1  0
  7 31  1  0
  8  9  1  0
  8 24  1  0
  8 25  1  0
  9 10  1  0
  9 26  1  0
  9 27  1  0
 10 11  1  0
 10 12  1  0
 10 28  1  1
 11 29  1  0
 12 13  1  0
 12 30  1  6
M  CHG  1   7   1
M  END
>  <i_m_ct_stereo_status>  (286) 
1

>  <s_m_source_file>  (286) 
/var/tmp/pbs.5102264.sched01/tmp5h8_9bj8/92lofvt80g.sdf

>  <i_m_source_file_index>  (286) 
12

>  <i_lp_mmshare_version>  (286) 
48012

>  <i_f3d_flags>  (286) 
0

>  <s_epik_input>  (286) 
W0NIM11DKE8xKShbQ0gzXSlPW0NASF0oW0NASF0xMilbQ0BIXShbT0hdKVtDSDJdW0NIMl1bQ0BASF0yW05IMl0=

>  <s_epik_cmdline>  (286) 
J2VwaWtfcHl0aG9uJywgJy1waHQnLCAnMi4wJywgJy1waCcsICc3LjAnLCAnLXRuJywgJzgnLCAnLW1hJywgJzIwMCcsICctaW1hZScsICc8aW5maWxlLm1hZT4nLCAnLW9tYWUnLCAnPG91dGZpbGUubWFlPic=

>  <r_epik_Ionization_Penalty>  (286) 
0.00910744

>  <r_epik_Ionization_Penalty_Charging>  (286) 
0.0091072

>  <r_epik_Ionization_Penalty_Neutral>  (286) 
2.4019e-07

>  <r_epik_State_Penalty>  (286) 
0.00689896

>  <r_epik_Charging_Adjusted_Penalty>  (286) 
0.0160062

>  <i_epik_Tot_Q>  (286) 
1

>  <i_epik_Tot_abs_Q>  (286) 
1

>  <s_lp_Force_Field>  (286) 
OPLS3e

>  <r_lp_Energy>  (286) 
0.902597

>  <b_lp_Chiralities_Consistent>  (286) 
1

>  <s_lp_Variant>  (286) 
64:0-1

>  <s_i_glide_gridfile>  (286) 
pfpi4k_grid

>  <i_i_glide_lignum>  (286) 
12

>  <i_i_glide_rotatable_bonds>  (286) 
1

>  <r_i_docking_score>  (286) 
-4.141

>  <r_i_glide_ligand_efficiency>  (286) 
-0.318538

>  <r_i_glide_ligand_efficiency_sa>  (286) 
-0.74899

>  <r_i_glide_ligand_efficiency_ln>  (286) 
-1.16159

>  <r_i_glide_gscore>  (286) 
-4.141

>  <r_i_glide_lipo>  (286) 
-0.20259

>  <r_i_glide_hbond>  (286) 
-0.23677

>  <r_i_glide_metal>  (286) 
-0

>  <r_i_glide_rewards>  (286) 
-2.45405

>  <r_i_glide_evdw>  (286) 
-1.30251

>  <r_i_glide_ecoul>  (286) 
-7.43276

>  <r_i_glide_erotb>  (286) 
0

>  <r_i_glide_esite>  (286) 
-0.0675468

>  <r_i_glide_emodel>  (286) 
-8.60549

>  <r_i_glide_energy>  (286) 
-8.73527

>  <r_i_glide_einternal>  (286) 
0.357172

>  <r_i_glide_intrahb_reward>  (286) 
-0

>  <i_i_glide_confnum>  (286) 
4

>  <i_i_glide_posenum>  (286) 
20

>  <r_i_glide_eff_state_penalty>  (286) 
0

>  <ligand_id>  (286) 
64

>  <original_smiles>  (286) 
CC1(C)OC2C(N)CCC(O)C2O1

>  <smiles>  (286) 
[H]OC1([H])C([H])([H])C([H])([H])C([H])([N+]([H])([H])[H])C2([H])OC(C([H])([H])[H])(C([H])([H])[H])OC12[H]

$$$$
64:0:2
     RDKit          3D

 31 32  0  0  1  0  0  0  0  0999 V2000
    2.2563   -0.3602   -4.7175 C   0  0  0  0  0  0  0  0  0  0  0  0
    3.2932   -0.8190   -3.6609 C   0  0  0  0  0  0  0  0  0  0  0  0
    4.2121    0.3327   -3.5328 C   0  0  0  0  0  0  0  0  0  0  0  0
    2.7506   -1.1128   -2.4185 O   0  0  0  0  0  0  0  0  0  0  0  0
    2.7890   -2.5192   -2.2312 C   0  0  2  0  0  0  0  0  0  0  0  0
    2.7520   -3.0435   -0.7487 C   0  0  1  0  0  0  0  0  0  0  0  0
    2.4815   -4.4817   -0.7049 N   0  0  0  0  0  0  0  0  0  0  0  0
    4.0155   -2.7480    0.0709 C   0  0  0  0  0  0  0  0  0  0  0  0
    5.2469   -3.2443   -0.6832 C   0  0  0  0  0  0  0  0  0  0  0  0
    5.3247   -2.5741   -2.0598 C   0  0  1  0  0  0  0  0  0  0  0  0
    6.4683   -3.0833   -2.6841 O   0  0  0  0  0  0  0  0  0  0  0  0
    4.0845   -2.8165   -2.9585 C   0  0  2  0  0  0  0  0  0  0  0  0
    4.0091   -1.9268   -4.0715 O   0  0  0  0  0  0  0  0  0  0  0  0
    1.4963   -1.1268   -4.7573 H   0  0  0  0  0  0  0  0  0  0  0  0
    2.7288   -0.1778   -5.6850 H   0  0  0  0  0  0  0  0  0  0  0  0
    1.7873    0.5703   -4.3983 H   0  0  0  0  0  0  0  0  0  0  0  0
    5.0158    0.1945   -2.7951 H   0  0  0  0  0  0  0  0  0  0  0  0
    3.8336    1.2738   -3.2467 H   0  0  0  0  0  0  0  0  0  0  0  0
    4.6139    0.5585   -4.5229 H   0  0  0  0  0  0  0  0  0  0  0  0
    1.9319   -2.9222   -2.7756 H   0  0  0  0  0  0  0  0  0  0  0  0
    1.9104   -2.6393   -0.2024 H   0  0  0  0  0  0  0  0  0  0  0  0
    3.2320   -4.9606   -1.1803 H   0  0  0  0  0  0  0  0  0  0  0  0
    1.6699   -4.7222   -1.2511 H   0  0  0  0  0  0  0  0  0  0  0  0
    4.0915   -1.6770    0.2639 H   0  0  0  0  0  0  0  0  0  0  0  0
    3.9633   -3.2189    1.0571 H   0  0  0  0  0  0  0  0  0  0  0  0
    6.1385   -3.0179   -0.1010 H   0  0  0  0  0  0  0  0  0  0  0  0
    5.2337   -4.3313   -0.7684 H   0  0  0  0  0  0  0  0  0  0  0  0
    5.4793   -1.5193   -1.8757 H   0  0  0  0  0  0  0  0  0  0  0  0
    6.3649   -4.0062   -2.8670 H   0  0  0  0  0  0  0  0  0  0  0  0
    4.0494   -3.8409   -3.2981 H   0  0  0  0  0  0  0  0  0  0  0  0
    2.4336   -4.8413    0.2408 H   0  0  0  0  0  0  0  0  0  0  0  0
  1  2  1  0
  1 14  1  0
  1 15  1  0
  1 16  1  0
  2 13  1  0
  2  3  1  0
  2  4  1  0
  3 17  1  0
  3 18  1  0
  3 19  1  0
  4  5  1  0
  5 12  1  0
  5  6  1  0
  5 20  1  6
  6  7  1  0
  6  8  1  0
  6 21  1  1
  7 22  1  0
  7 23  1  0
  7 31  1  0
  8  9  1  0
  8 24  1  0
  8 25  1  0
  9 10  1  0
  9 26  1  0
  9 27  1  0
 10 11  1  0
 10 12  1  0
 10 28  1  1
 11 29  1  0
 12 13  1  0
 12 30  1  6
M  CHG  1   7   1
M  END
>  <i_m_ct_stereo_status>  (287) 
1

>  <s_m_source_file>  (287) 
/var/tmp/pbs.5102264.sched01/tmp5h8_9bj8/92lofvt80g.sdf

>  <i_m_source_file_index>  (287) 
12

>  <i_lp_mmshare_version>  (287) 
48012

>  <i_f3d_flags>  (287) 
0

>  <s_epik_input>  (287) 
W0NIM11DKE8xKShbQ0gzXSlPW0NASF0oW0NASF0xMilbQ0BIXShbT0hdKVtDSDJdW0NIMl1bQ0BASF0yW05IMl0=

>  <s_epik_cmdline>  (287) 
J2VwaWtfcHl0aG9uJywgJy1waHQnLCAnMi4wJywgJy1waCcsICc3LjAnLCAnLXRuJywgJzgnLCAnLW1hJywgJzIwMCcsICctaW1hZScsICc8aW5maWxlLm1hZT4nLCAnLW9tYWUnLCAnPG91dGZpbGUubWFlPic=

>  <r_epik_Ionization_Penalty>  (287) 
0.00910744

>  <r_epik_Ionization_Penalty_Charging>  (287) 
0.0091072

>  <r_epik_Ionization_Penalty_Neutral>  (287) 
2.4019e-07

>  <r_epik_State_Penalty>  (287) 
0.00689896

>  <r_epik_Charging_Adjusted_Penalty>  (287) 
0.0160062

>  <i_epik_Tot_Q>  (287) 
1

>  <i_epik_Tot_abs_Q>  (287) 
1

>  <s_lp_Force_Field>  (287) 
OPLS3e

>  <r_lp_Energy>  (287) 
0.902597

>  <b_lp_Chiralities_Consistent>  (287) 
1

>  <s_lp_Variant>  (287) 
64:0-1

>  <s_i_glide_gridfile>  (287) 
pfpi4k_grid

>  <i_i_glide_lignum>  (287) 
12

>  <i_i_glide_rotatable_bonds>  (287) 
1

>  <r_i_docking_score>  (287) 
-4.13671

>  <r_i_glide_ligand_efficiency>  (287) 
-0.318209

>  <r_i_glide_ligand_efficiency_sa>  (287) 
-0.748215

>  <r_i_glide_ligand_efficiency_ln>  (287) 
-1.16039

>  <r_i_glide_gscore>  (287) 
-4.13671

>  <r_i_glide_lipo>  (287) 
-0.203928

>  <r_i_glide_hbond>  (287) 
-0.238661

>  <r_i_glide_metal>  (287) 
-0

>  <r_i_glide_rewards>  (287) 
-2.45387

>  <r_i_glide_evdw>  (287) 
-0.896401

>  <r_i_glide_ecoul>  (287) 
-7.52497

>  <r_i_glide_erotb>  (287) 
0

>  <r_i_glide_esite>  (287) 
-0.0666907

>  <r_i_glide_emodel>  (287) 
-8.73384

>  <r_i_glide_energy>  (287) 
-8.42137

>  <r_i_glide_einternal>  (287) 
0.00468344

>  <r_i_glide_intrahb_reward>  (287) 
-0

>  <i_i_glide_confnum>  (287) 
2

>  <i_i_glide_posenum>  (287) 
32

>  <r_i_glide_eff_state_penalty>  (287) 
0

>  <ligand_id>  (287) 
64

>  <original_smiles>  (287) 
CC1(C)OC2C(N)CCC(O)C2O1

>  <smiles>  (287) 
[H]OC1([H])C([H])([H])C([H])([H])C([H])([N+]([H])([H])[H])C2([H])OC(C([H])([H])[H])(C([H])([H])[H])OC12[H]

$$$$
64:1:0
     RDKit          3D

 30 31  0  0  1  0  0  0  0  0999 V2000
    2.6708   -3.1391   -3.6400 C   0  0  0  0  0  0  0  0  0  0  0  0
    3.6302   -2.4594   -2.6351 C   0  0  0  0  0  0  0  0  0  0  0  0
    3.7886   -0.9782   -3.0067 C   0  0  0  0  0  0  0  0  0  0  0  0
    3.1513   -2.5845   -1.3234 O   0  0  0  0  0  0  0  0  0  0  0  0
    3.9230   -3.6131   -0.7358 C   0  0  2  0  0  0  0  0  0  0  0  0
    3.9836   -3.5887    0.8192 C   0  0  1  0  0  0  0  0  0  0  0  0
    4.4932   -4.8705    1.3670 N   0  0  0  0  0  0  0  0  0  0  0  0
    4.8024   -2.4091    1.3768 C   0  0  0  0  0  0  0  0  0  0  0  0
    6.2049   -2.3627    0.7578 C   0  0  0  0  0  0  0  0  0  0  0  0
    6.1020   -2.2439   -0.7664 C   0  0  1  0  0  0  0  0  0  0  0  0
    7.4173   -2.2633   -1.2749 O   0  0  0  0  0  0  0  0  0  0  0  0
    5.2711   -3.3850   -1.4118 C   0  0  2  0  0  0  0  0  0  0  0  0
    4.8824   -3.0520   -2.7235 O   0  0  0  0  0  0  0  0  0  0  0  0
    2.5032   -4.1990   -3.4700 H   0  0  0  0  0  0  0  0  0  0  0  0
    3.0863   -3.0129   -4.6348 H   0  0  0  0  0  0  0  0  0  0  0  0
    1.7187   -2.6253   -3.5997 H   0  0  0  0  0  0  0  0  0  0  0  0
    4.4591   -0.4203   -2.3674 H   0  0  0  0  0  0  0  0  0  0  0  0
    2.8080   -0.5213   -2.9761 H   0  0  0  0  0  0  0  0  0  0  0  0
    4.1800   -0.9487   -4.0175 H   0  0  0  0  0  0  0  0  0  0  0  0
    3.4845   -4.5483   -1.0790 H   0  0  0  0  0  0  0  0  0  0  0  0
    2.9668   -3.4304    1.1664 H   0  0  0  0  0  0  0  0  0  0  0  0
    4.5121   -4.8655    2.3892 H   0  0  0  0  0  0  0  0  0  0  0  0
    3.9672   -5.6761    1.0599 H   0  0  0  0  0  0  0  0  0  0  0  0
    4.2774   -1.4645    1.1832 H   0  0  0  0  0  0  0  0  0  0  0  0
    4.8851   -2.4749    2.4643 H   0  0  0  0  0  0  0  0  0  0  0  0
    6.7574   -1.5126    1.1690 H   0  0  0  0  0  0  0  0  0  0  0  0
    6.7538   -3.2580    1.0453 H   0  0  0  0  0  0  0  0  0  0  0  0
    5.6715   -1.2670   -0.9459 H   0  0  0  0  0  0  0  0  0  0  0  0
    7.7645   -3.1351   -1.1772 H   0  0  0  0  0  0  0  0  0  0  0  0
    5.8053   -4.3328   -1.4363 H   0  0  0  0  0  0  0  0  0  0  0  0
  1  2  1  0
  1 14  1  0
  1 15  1  0
  1 16  1  0
  2 13  1  0
  2  3  1  0
  2  4  1  0
  3 17  1  0
  3 18  1  0
  3 19  1  0
  4  5  1  0
  5 12  1  0
  5  6  1  0
  5 20  1  1
  6  7  1  0
  6  8  1  0
  6 21  1  1
  7 22  1  0
  7 23  1  0
  8  9  1  0
  8 24  1  0
  8 25  1  0
  9 10  1  0
  9 26  1  0
  9 27  1  0
 10 11  1  0
 10 12  1  0
 10 28  1  1
 11 29  1  0
 12 13  1  0
 12 30  1  6
M  END
>  <i_m_ct_stereo_status>  (288) 
1

>  <s_m_source_file>  (288) 
/var/tmp/pbs.5102264.sched01/tmp5h8_9bj8/92lofvt80g.sdf

>  <i_m_source_file_index>  (288) 
13

>  <i_lp_mmshare_version>  (288) 
48012

>  <i_f3d_flags>  (288) 
0

>  <s_epik_input>  (288) 
W0NIM11DKE8xKShbQ0gzXSlPW0NASF0oW0NASF0xMilbQ0BIXShbT0hdKVtDSDJdW0NIMl1bQ0BASF0yW05IMl0=

>  <s_epik_cmdline>  (288) 
J2VwaWtfcHl0aG9uJywgJy1waHQnLCAnMi4wJywgJy1waCcsICc3LjAnLCAnLXRuJywgJzgnLCAnLW1hJywgJzIwMCcsICctaW1hZScsICc8aW5maWxlLm1hZT4nLCAnLW9tYWUnLCAnPG91dGZpbGUubWFlPic=

>  <r_epik_Ionization_Penalty>  (288) 
2.47833

>  <r_epik_Ionization_Penalty_Charging>  (288) 
0

>  <r_epik_Ionization_Penalty_Neutral>  (288) 
2.47833

>  <r_epik_State_Penalty>  (288) 
2.64176

>  <r_epik_Charging_Adjusted_Penalty>  (288) 
2.64176

>  <i_epik_Tot_Q>  (288) 
0

>  <i_epik_Tot_abs_Q>  (288) 
0

>  <s_lp_Force_Field>  (288) 
OPLS3e

>  <r_lp_Energy>  (288) 
2.12168

>  <b_lp_Chiralities_Consistent>  (288) 
1

>  <s_lp_Variant>  (288) 
64:0-2

>  <s_i_glide_gridfile>  (288) 
pfpi4k_grid

>  <i_i_glide_lignum>  (288) 
13

>  <i_i_glide_rotatable_bonds>  (288) 
1

>  <r_i_docking_score>  (288) 
-4.14109

>  <r_i_glide_ligand_efficiency>  (288) 
-0.318546

>  <r_i_glide_ligand_efficiency_sa>  (288) 
-0.749008

>  <r_i_glide_ligand_efficiency_ln>  (288) 
-1.16161

>  <r_i_glide_gscore>  (288) 
-4.14109

>  <r_i_glide_lipo>  (288) 
-0.50123

>  <r_i_glide_hbond>  (288) 
0

>  <r_i_glide_metal>  (288) 
-0

>  <r_i_glide_rewards>  (288) 
-2.13248

>  <r_i_glide_evdw>  (288) 
-19.3474

>  <r_i_glide_ecoul>  (288) 
-3.57058

>  <r_i_glide_erotb>  (288) 
0

>  <r_i_glide_esite>  (288) 
-0.00442512

>  <r_i_glide_emodel>  (288) 
-27.9999

>  <r_i_glide_energy>  (288) 
-22.918

>  <r_i_glide_einternal>  (288) 
0.0717201

>  <r_i_glide_intrahb_reward>  (288) 
-0

>  <i_i_glide_confnum>  (288) 
2

>  <i_i_glide_posenum>  (288) 
8

>  <r_i_glide_eff_state_penalty>  (288) 
0

>  <ligand_id>  (288) 
64

>  <original_smiles>  (288) 
CC1(C)OC2C(N)CCC(O)C2O1

>  <smiles>  (288) 
[H]OC1([H])C([H])([H])C([H])([H])C([H])(N([H])[H])C2([H])OC(C([H])([H])[H])(C([H])([H])[H])OC12[H]

$$$$
64:1:1
     RDKit          3D

 30 31  0  0  1  0  0  0  0  0999 V2000
    1.9257    0.7980   -4.7463 C   0  0  0  0  0  0  0  0  0  0  0  0
    2.9860   -0.2672   -4.3959 C   0  0  0  0  0  0  0  0  0  0  0  0
    3.8216   -0.2525   -5.5728 C   0  0  0  0  0  0  0  0  0  0  0  0
    3.8255   -0.0167   -3.3063 O   0  0  0  0  0  0  0  0  0  0  0  0
    3.4461   -1.0020   -2.3588 C   0  0  2  0  0  0  0  0  0  0  0  0
    4.4184   -1.2976   -1.1892 C   0  0  1  0  0  0  0  0  0  0  0  0
    3.7476   -1.9504   -0.0434 N   0  0  0  0  0  0  0  0  0  0  0  0
    5.6090   -2.1324   -1.6481 C   0  0  0  0  0  0  0  0  0  0  0  0
    5.1277   -3.3914   -2.3721 C   0  0  0  0  0  0  0  0  0  0  0  0
    4.2554   -3.0458   -3.5684 C   0  0  1  0  0  0  0  0  0  0  0  0
    3.9092   -4.2480   -4.1967 O   0  0  0  0  0  0  0  0  0  0  0  0
    3.0340   -2.1908   -3.1933 C   0  0  2  0  0  0  0  0  0  0  0  0
    2.4705   -1.5390   -4.3110 O   0  0  0  0  0  0  0  0  0  0  0  0
    1.2520    0.9456   -3.9233 H   0  0  0  0  0  0  0  0  0  0  0  0
    1.2358    0.5046   -5.5004 H   0  0  0  0  0  0  0  0  0  0  0  0
    2.4180    1.7613   -4.9253 H   0  0  0  0  0  0  0  0  0  0  0  0
    4.5287   -1.0501   -5.4758 H   0  0  0  0  0  0  0  0  0  0  0  0
    4.2257    0.7306   -5.7060 H   0  0  0  0  0  0  0  0  0  0  0  0
    3.2149   -0.4404   -6.4427 H   0  0  0  0  0  0  0  0  0  0  0  0
    2.5570   -0.5983   -1.9454 H   0  0  0  0  0  0  0  0  0  0  0  0
    4.8007   -0.3383   -0.8480 H   0  0  0  0  0  0  0  0  0  0  0  0
    4.3854   -2.1231    0.7326 H   0  0  0  0  0  0  0  0  0  0  0  0
    2.9300   -1.4317    0.2874 H   0  0  0  0  0  0  0  0  0  0  0  0
    6.2095   -1.5239   -2.3230 H   0  0  0  0  0  0  0  0  0  0  0  0
    6.2517   -2.3967   -0.8103 H   0  0  0  0  0  0  0  0  0  0  0  0
    5.9887   -3.9491   -2.7272 H   0  0  0  0  0  0  0  0  0  0  0  0
    4.5844   -4.0334   -1.6800 H   0  0  0  0  0  0  0  0  0  0  0  0
    4.8913   -2.5028   -4.2341 H   0  0  0  0  0  0  0  0  0  0  0  0
    3.4354   -4.7797   -3.5621 H   0  0  0  0  0  0  0  0  0  0  0  0
    2.2567   -2.7337   -2.6629 H   0  0  0  0  0  0  0  0  0  0  0  0
  1  2  1  0
  1 14  1  0
  1 15  1  0
  1 16  1  0
  2 13  1  0
  2  3  1  0
  2  4  1  0
  3 17  1  0
  3 18  1  0
  3 19  1  0
  4  5  1  0
  5 12  1  0
  5  6  1  0
  5 20  1  1
  6  7  1  0
  6  8  1  0
  6 21  1  1
  7 22  1  0
  7 23  1  0
  8  9  1  0
  8 24  1  0
  8 25  1  0
  9 10  1  0
  9 26  1  0
  9 27  1  0
 10 11  1  0
 10 12  1  0
 10 28  1  6
 11 29  1  0
 12 13  1  0
 12 30  1  1
M  END
>  <i_m_ct_stereo_status>  (289) 
1

>  <s_m_source_file>  (289) 
/var/tmp/pbs.5102264.sched01/tmp5h8_9bj8/92lofvt80g.sdf

>  <i_m_source_file_index>  (289) 
13

>  <i_lp_mmshare_version>  (289) 
48012

>  <i_f3d_flags>  (289) 
0

>  <s_epik_input>  (289) 
W0NIM11DKE8xKShbQ0gzXSlPW0NASF0oW0NASF0xMilbQ0BIXShbT0hdKVtDSDJdW0NIMl1bQ0BASF0yW05IMl0=

>  <s_epik_cmdline>  (289) 
J2VwaWtfcHl0aG9uJywgJy1waHQnLCAnMi4wJywgJy1waCcsICc3LjAnLCAnLXRuJywgJzgnLCAnLW1hJywgJzIwMCcsICctaW1hZScsICc8aW5maWxlLm1hZT4nLCAnLW9tYWUnLCAnPG91dGZpbGUubWFlPic=

>  <r_epik_Ionization_Penalty>  (289) 
2.47833

>  <r_epik_Ionization_Penalty_Charging>  (289) 
0

>  <r_epik_Ionization_Penalty_Neutral>  (289) 
2.47833

>  <r_epik_State_Penalty>  (289) 
2.64176

>  <r_epik_Charging_Adjusted_Penalty>  (289) 
2.64176

>  <i_epik_Tot_Q>  (289) 
0

>  <i_epik_Tot_abs_Q>  (289) 
0

>  <s_lp_Force_Field>  (289) 
OPLS3e

>  <r_lp_Energy>  (289) 
2.12168

>  <b_lp_Chiralities_Consistent>  (289) 
1

>  <s_lp_Variant>  (289) 
64:0-2

>  <s_i_glide_gridfile>  (289) 
pfpi4k_grid

>  <i_i_glide_lignum>  (289) 
13

>  <i_i_glide_rotatable_bonds>  (289) 
1

>  <r_i_docking_score>  (289) 
-3.77951

>  <r_i_glide_ligand_efficiency>  (289) 
-0.290731

>  <r_i_glide_ligand_efficiency_sa>  (289) 
-0.683607

>  <r_i_glide_ligand_efficiency_ln>  (289) 
-1.06019

>  <r_i_glide_gscore>  (289) 
-3.77951

>  <r_i_glide_lipo>  (289) 
-0.449686

>  <r_i_glide_hbond>  (289) 
0

>  <r_i_glide_metal>  (289) 
-0

>  <r_i_glide_rewards>  (289) 
-2.49197

>  <r_i_glide_evdw>  (289) 
0.100198

>  <r_i_glide_ecoul>  (289) 
-5.61906

>  <r_i_glide_erotb>  (289) 
0

>  <r_i_glide_esite>  (289) 
0

>  <r_i_glide_emodel>  (289) 
-7.76564

>  <r_i_glide_energy>  (289) 
-5.51886

>  <r_i_glide_einternal>  (289) 
0.0725626

>  <r_i_glide_intrahb_reward>  (289) 
-0

>  <i_i_glide_confnum>  (289) 
2

>  <i_i_glide_posenum>  (289) 
12

>  <r_i_glide_eff_state_penalty>  (289) 
0

>  <ligand_id>  (289) 
64

>  <original_smiles>  (289) 
CC1(C)OC2C(N)CCC(O)C2O1

>  <smiles>  (289) 
[H]OC1([H])C([H])([H])C([H])([H])C([H])(N([H])[H])C2([H])OC(C([H])([H])[H])(C([H])([H])[H])OC12[H]

$$$$
64:1:2
     RDKit          3D

 30 31  0  0  1  0  0  0  0  0999 V2000
    2.4175   -0.6567   -4.6808 C   0  0  0  0  0  0  0  0  0  0  0  0
    3.4408   -0.9107   -3.5754 C   0  0  0  0  0  0  0  0  0  0  0  0
    4.2110    0.3879   -3.5852 C   0  0  0  0  0  0  0  0  0  0  0  0
    2.8733   -1.0915   -2.3074 O   0  0  0  0  0  0  0  0  0  0  0  0
    3.0749   -2.4570   -1.9506 C   0  0  2  0  0  0  0  0  0  0  0  0
    3.0722   -2.8319   -0.4230 C   0  0  1  0  0  0  0  0  0  0  0  0
    2.9394   -4.2852   -0.2201 N   0  0  0  0  0  0  0  0  0  0  0  0
    4.2809   -2.3108    0.3657 C   0  0  0  0  0  0  0  0  0  0  0  0
    5.5726   -2.7529   -0.3145 C   0  0  0  0  0  0  0  0  0  0  0  0
    5.6325   -2.2443   -1.7670 C   0  0  1  0  0  0  0  0  0  0  0  0
    6.8338   -2.6942   -2.2975 O   0  0  0  0  0  0  0  0  0  0  0  0
    4.4192   -2.7113   -2.6366 C   0  0  2  0  0  0  0  0  0  0  0  0
    4.2808   -1.9621   -3.8498 O   0  0  0  0  0  0  0  0  0  0  0  0
    1.7301   -1.5054   -4.7143 H   0  0  0  0  0  0  0  0  0  0  0  0
    2.8869   -0.4990   -5.6390 H   0  0  0  0  0  0  0  0  0  0  0  0
    1.8790    0.2418   -4.4694 H   0  0  0  0  0  0  0  0  0  0  0  0
    4.9689    0.4189   -2.8279 H   0  0  0  0  0  0  0  0  0  0  0  0
    3.6139    1.2691   -3.4748 H   0  0  0  0  0  0  0  0  0  0  0  0
    4.6301    0.5328   -4.5645 H   0  0  0  0  0  0  0  0  0  0  0  0
    2.2775   -3.0200   -2.4462 H   0  0  0  0  0  0  0  0  0  0  0  0
    2.2088   -2.3772    0.0472 H   0  0  0  0  0  0  0  0  0  0  0  0
    2.9024   -4.5509    0.7641 H   0  0  0  0  0  0  0  0  0  0  0  0
    2.1672   -4.6945   -0.7445 H   0  0  0  0  0  0  0  0  0  0  0  0
    4.2472   -1.2236    0.4360 H   0  0  0  0  0  0  0  0  0  0  0  0
    4.2669   -2.6778    1.3936 H   0  0  0  0  0  0  0  0  0  0  0  0
    6.4293   -2.3769    0.2365 H   0  0  0  0  0  0  0  0  0  0  0  0
    5.6563   -3.8380   -0.2908 H   0  0  0  0  0  0  0  0  0  0  0  0
    5.6419   -1.1583   -1.7071 H   0  0  0  0  0  0  0  0  0  0  0  0
    6.7979   -3.6407   -2.3879 H   0  0  0  0  0  0  0  0  0  0  0  0
    4.4848   -3.7757   -2.8443 H   0  0  0  0  0  0  0  0  0  0  0  0
  1  2  1  0
  1 14  1  0
  1 15  1  0
  1 16  1  0
  2 13  1  0
  2  3  1  0
  2  4  1  0
  3 17  1  0
  3 18  1  0
  3 19  1  0
  4  5  1  0
  5 12  1  0
  5  6  1  0
  5 20  1  6
  6  7  1  0
  6  8  1  0
  6 21  1  1
  7 22  1  0
  7 23  1  0
  8  9  1  0
  8 24  1  0
  8 25  1  0
  9 10  1  0
  9 26  1  0
  9 27  1  0
 10 11  1  0
 10 12  1  0
 10 28  1  1
 11 29  1  0
 12 13  1  0
 12 30  1  6
M  END
>  <i_m_ct_stereo_status>  (290) 
1

>  <s_m_source_file>  (290) 
/var/tmp/pbs.5102264.sched01/tmp5h8_9bj8/92lofvt80g.sdf

>  <i_m_source_file_index>  (290) 
13

>  <i_lp_mmshare_version>  (290) 
48012

>  <i_f3d_flags>  (290) 
0

>  <s_epik_input>  (290) 
W0NIM11DKE8xKShbQ0gzXSlPW0NASF0oW0NASF0xMilbQ0BIXShbT0hdKVtDSDJdW0NIMl1bQ0BASF0yW05IMl0=

>  <s_epik_cmdline>  (290) 
J2VwaWtfcHl0aG9uJywgJy1waHQnLCAnMi4wJywgJy1waCcsICc3LjAnLCAnLXRuJywgJzgnLCAnLW1hJywgJzIwMCcsICctaW1hZScsICc8aW5maWxlLm1hZT4nLCAnLW9tYWUnLCAnPG91dGZpbGUubWFlPic=

>  <r_epik_Ionization_Penalty>  (290) 
2.47833

>  <r_epik_Ionization_Penalty_Charging>  (290) 
0

>  <r_epik_Ionization_Penalty_Neutral>  (290) 
2.47833

>  <r_epik_State_Penalty>  (290) 
2.64176

>  <r_epik_Charging_Adjusted_Penalty>  (290) 
2.64176

>  <i_epik_Tot_Q>  (290) 
0

>  <i_epik_Tot_abs_Q>  (290) 
0

>  <s_lp_Force_Field>  (290) 
OPLS3e

>  <r_lp_Energy>  (290) 
2.12168

>  <b_lp_Chiralities_Consistent>  (290) 
1

>  <s_lp_Variant>  (290) 
64:0-2

>  <s_i_glide_gridfile>  (290) 
pfpi4k_grid

>  <i_i_glide_lignum>  (290) 
13

>  <i_i_glide_rotatable_bonds>  (290) 
1

>  <r_i_docking_score>  (290) 
-2.95482

>  <r_i_glide_ligand_efficiency>  (290) 
-0.227294

>  <r_i_glide_ligand_efficiency_sa>  (290) 
-0.534445

>  <r_i_glide_ligand_efficiency_ln>  (290) 
-0.828854

>  <r_i_glide_gscore>  (290) 
-2.95482

>  <r_i_glide_lipo>  (290) 
-0.132503

>  <r_i_glide_hbond>  (290) 
-0.0780139

>  <r_i_glide_metal>  (290) 
-0

>  <r_i_glide_rewards>  (290) 
-2.4445

>  <r_i_glide_evdw>  (290) 
0.175651

>  <r_i_glide_ecoul>  (290) 
-2.05724

>  <r_i_glide_erotb>  (290) 
0

>  <r_i_glide_esite>  (290) 
0

>  <r_i_glide_emodel>  (290) 
-3.89277

>  <r_i_glide_energy>  (290) 
-1.88159

>  <r_i_glide_einternal>  (290) 
3.77413e-05

>  <r_i_glide_intrahb_reward>  (290) 
-0

>  <i_i_glide_confnum>  (290) 
2

>  <i_i_glide_posenum>  (290) 
1

>  <r_i_glide_eff_state_penalty>  (290) 
0

>  <ligand_id>  (290) 
64

>  <original_smiles>  (290) 
CC1(C)OC2C(N)CCC(O)C2O1

>  <smiles>  (290) 
[H]OC1([H])C([H])([H])C([H])([H])C([H])(N([H])[H])C2([H])OC(C([H])([H])[H])(C([H])([H])[H])OC12[H]

$$$$
65:0:0
     RDKit          3D

 37 39  0  0  1  0  0  0  0  0999 V2000
    0.4354   -8.1180    6.7440 C   0  0  0  0  0  0  0  0  0  0  0  0
   -0.5492   -9.0153    5.9364 C   0  0  0  0  0  0  0  0  0  0  0  0
   -1.3359   -8.3304    4.7803 C   0  0  0  0  0  0  0  0  0  0  0  0
   -0.5015   -7.7806    3.6884 C   0  0  0  0  0  0  0  0  0  0  0  0
   -0.9797   -7.1433    2.6195 N   0  0  0  0  0  0  0  0  0  0  0  0
    0.0185   -6.6489    1.8092 N   0  0  0  0  0  0  0  0  0  0  0  0
    1.2498   -6.8470    2.3249 C   0  0  0  0  0  0  0  0  0  0  0  0
    2.4033   -6.3175    1.8785 N   0  0  0  0  0  0  0  0  0  0  0  0
    2.6153   -5.6287    0.7232 C   0  0  0  0  0  0  0  0  0  0  0  0
    1.8036   -5.3486   -0.1691 O   0  0  0  0  0  0  0  0  0  0  0  0
    4.0294   -5.1502    0.5738 C   0  0  0  0  0  0  0  0  0  0  0  0
    4.3451   -4.1638   -0.3866 C   0  0  0  0  0  0  0  0  0  0  0  0
    5.6705   -3.6823   -0.5237 C   0  0  0  0  0  0  0  0  0  0  0  0
    6.0463   -2.7364   -1.4278 O   0  0  0  0  0  0  0  0  0  0  0  0
    5.1249   -2.2213   -2.3101 C   0  0  0  0  0  0  0  0  0  0  0  0
    4.6472   -2.9432   -3.4192 C   0  0  0  0  0  0  0  0  0  0  0  0
    3.7912   -2.3996   -4.3193 N   0  0  0  0  0  0  0  0  0  0  0  0
    3.4242   -1.1334   -4.0803 C   0  0  0  0  0  0  0  0  0  0  0  0
    3.8165   -0.3414   -3.0791 N   0  0  0  0  0  0  0  0  0  0  0  0
    4.6530   -0.9062   -2.1712 C   0  0  0  0  0  0  0  0  0  0  0  0
    6.6664   -4.2229    0.3174 C   0  0  0  0  0  0  0  0  0  0  0  0
    6.2848   -5.1955    1.2598 C   0  0  0  0  0  0  0  0  0  0  0  0
    5.0197   -5.6441    1.3828 N   0  0  0  0  0  0  0  0  0  0  0  0
    1.2224   -7.8660    3.7505 S   0  0  0  0  0  0  0  0  0  0  0  0
    0.8578   -8.7284    7.5725 H   0  0  0  0  0  0  0  0  0  0  0  0
   -0.1351   -7.3091    7.2232 H   0  0  0  0  0  0  0  0  0  0  0  0
    1.2241   -7.6899    6.1191 H   0  0  0  0  0  0  0  0  0  0  0  0
   -0.0263   -9.8782    5.5225 H   0  0  0  0  0  0  0  0  0  0  0  0
   -1.2872   -9.4512    6.6030 H   0  0  0  0  0  0  0  0  0  0  0  0
   -2.0172   -9.0395    4.3103 H   0  0  0  0  0  0  0  0  0  0  0  0
   -1.9310   -7.5106    5.1608 H   0  0  0  0  0  0  0  0  0  0  0  0
    3.5341   -3.7907   -0.9934 H   0  0  0  0  0  0  0  0  0  0  0  0
    4.9837   -3.9613   -3.6215 H   0  0  0  0  0  0  0  0  0  0  0  0
    2.7348   -0.6842   -4.7923 H   0  0  0  0  0  0  0  0  0  0  0  0
    4.9924   -0.2998   -1.3610 H   0  0  0  0  0  0  0  0  0  0  0  0
    7.6822   -3.8945    0.2353 H   0  0  0  0  0  0  0  0  0  0  0  0
    7.0262   -5.6213    1.9246 H   0  0  0  0  0  0  0  0  0  0  0  0
  1  2  1  0
  1 25  1  0
  1 26  1  0
  1 27  1  0
  2  3  1  0
  2 28  1  0
  2 29  1  0
  3  4  1  0
  3 30  1  0
  3 31  1  0
  4 24  1  0
  4  5  2  0
  5  6  1  0
  6  7  2  0
  7  8  1  0
  7 24  1  0
  8  9  1  0
  9 10  2  0
  9 11  1  0
 11 23  1  0
 11 12  2  0
 12 13  1  0
 12 32  1  0
 13 14  1  0
 13 21  2  0
 14 15  1  0
 15 20  1  0
 15 16  2  0
 16 17  1  0
 16 33  1  0
 17 18  2  0
 18 19  1  0
 18 34  1  0
 19 20  2  0
 20 35  1  0
 21 22  1  0
 21 36  1  0
 22 23  2  0
 22 37  1  0
M  CHG  1   8  -1
M  END
>  <i_m_ct_stereo_status>  (291) 
1

>  <s_m_source_file>  (291) 
/var/tmp/pbs.5102264.sched01/tmp5h8_9bj8/92lofvt80g.sdf

>  <i_m_source_file_index>  (291) 
14

>  <i_lp_mmshare_version>  (291) 
48012

>  <i_f3d_flags>  (291) 
0

>  <s_epik_input>  (291) 
W0NIM11bQ0gyXVtDSDJdYzFuW25IXS9jKHMxKT1OXEMoPU8pYzJbY0hdYyhbY0hdW2NIXW4yKU9jM1tjSF1uW2NIXW5bY0hdMw==

>  <s_epik_cmdline>  (291) 
J2VwaWtfcHl0aG9uJywgJy1waHQnLCAnMi4wJywgJy1waCcsICc3LjAnLCAnLXRuJywgJzgnLCAnLW1hJywgJzIwMCcsICctaW1hZScsICc8aW5maWxlLm1hZT4nLCAnLW9tYWUnLCAnPG91dGZpbGUubWFlPic=

>  <r_lp_tautomer_probability>  (291) 
1

>  <r_epik_Ionization_Penalty>  (291) 
0.534782

>  <r_epik_Ionization_Penalty_Charging>  (291) 
0.17731

>  <r_epik_Ionization_Penalty_Neutral>  (291) 
0.357471

>  <r_epik_State_Penalty>  (291) 
0.451025

>  <r_epik_Charging_Adjusted_Penalty>  (291) 
0.628336

>  <i_epik_Tot_Q>  (291) 
-1

>  <i_epik_Tot_abs_Q>  (291) 
1

>  <s_lp_Force_Field>  (291) 
OPLS3e

>  <r_lp_Energy>  (291) 
52.4102

>  <b_lp_Chiralities_Consistent>  (291) 
1

>  <s_lp_Variant>  (291) 
65:0-1

>  <s_i_glide_gridfile>  (291) 
pfpi4k_grid

>  <i_i_glide_lignum>  (291) 
14

>  <i_i_glide_rotatable_bonds>  (291) 
7

>  <r_i_docking_score>  (291) 
-3.77884

>  <r_i_glide_ligand_efficiency>  (291) 
-0.157452

>  <r_i_glide_ligand_efficiency_sa>  (291) 
-0.454169

>  <r_i_glide_ligand_efficiency_ln>  (291) 
-0.90445

>  <r_i_glide_gscore>  (291) 
-3.77884

>  <r_i_glide_lipo>  (291) 
-0.52308

>  <r_i_glide_hbond>  (291) 
-0.377687

>  <r_i_glide_metal>  (291) 
-0

>  <r_i_glide_rewards>  (291) 
-1.20582

>  <r_i_glide_evdw>  (291) 
-30.7551

>  <r_i_glide_ecoul>  (291) 
-5.84966

>  <r_i_glide_erotb>  (291) 
0.975646

>  <r_i_glide_esite>  (291) 
-0.232696

>  <r_i_glide_emodel>  (291) 
-41.9733

>  <r_i_glide_energy>  (291) 
-36.6048

>  <r_i_glide_einternal>  (291) 
7.22199

>  <r_i_glide_intrahb_reward>  (291) 
-0

>  <i_i_glide_confnum>  (291) 
8

>  <i_i_glide_posenum>  (291) 
11

>  <r_i_glide_eff_state_penalty>  (291) 
0

>  <ligand_id>  (291) 
65

>  <original_smiles>  (291) 
CCCc1n[nH]c(=NC(=O)c2cc(Oc3cncnc3)ccn2)s1

>  <smiles>  (291) 
[H]c1nc([H])c(Oc2c([H])c([H])nc(C(=O)[N-]c3nnc(C([H])([H])C([H])([H])C([H])([H])[H])s3)c2[H])c([H])n1

$$$$
65:0:1
     RDKit          3D

 37 39  0  0  1  0  0  0  0  0999 V2000
    2.3550  -10.4067    5.3628 C   0  0  0  0  0  0  0  0  0  0  0  0
    0.9053  -10.8136    5.0454 C   0  0  0  0  0  0  0  0  0  0  0  0
    0.4502  -10.5325    3.6000 C   0  0  0  0  0  0  0  0  0  0  0  0
    0.5096   -9.0984    3.1781 C   0  0  0  0  0  0  0  0  0  0  0  0
   -0.5629   -8.2940    3.1614 N   0  0  0  0  0  0  0  0  0  0  0  0
   -0.2366   -6.9834    2.8147 N   0  0  0  0  0  0  0  0  0  0  0  0
    1.0800   -6.8191    2.5855 C   0  0  0  0  0  0  0  0  0  0  0  0
    1.6515   -5.6296    2.3559 N   0  0  0  0  0  0  0  0  0  0  0  0
    2.2059   -5.4069    1.1367 C   0  0  0  0  0  0  0  0  0  0  0  0
    1.7811   -5.8489    0.0693 O   0  0  0  0  0  0  0  0  0  0  0  0
    3.4313   -4.5081    1.1437 C   0  0  0  0  0  0  0  0  0  0  0  0
    3.9478   -4.0046   -0.0715 C   0  0  0  0  0  0  0  0  0  0  0  0
    5.0928   -3.1795   -0.0509 C   0  0  0  0  0  0  0  0  0  0  0  0
    5.6831   -2.6841   -1.1878 O   0  0  0  0  0  0  0  0  0  0  0  0
    4.8939   -2.1652   -2.1829 C   0  0  0  0  0  0  0  0  0  0  0  0
    4.5025   -2.9421   -3.2866 C   0  0  0  0  0  0  0  0  0  0  0  0
    3.8081   -2.4077   -4.3102 N   0  0  0  0  0  0  0  0  0  0  0  0
    3.4753   -1.1230   -4.2181 C   0  0  0  0  0  0  0  0  0  0  0  0
    3.8114   -0.2933   -3.2392 N   0  0  0  0  0  0  0  0  0  0  0  0
    4.5041   -0.8131   -2.2055 C   0  0  0  0  0  0  0  0  0  0  0  0
    5.6994   -2.8983    1.1846 C   0  0  0  0  0  0  0  0  0  0  0  0
    5.1320   -3.4522    2.3418 C   0  0  0  0  0  0  0  0  0  0  0  0
    4.0397   -4.2367    2.3291 N   0  0  0  0  0  0  0  0  0  0  0  0
    2.0039   -8.3197    2.6673 S   0  0  0  0  0  0  0  0  0  0  0  0
    2.6304  -10.6775    6.3847 H   0  0  0  0  0  0  0  0  0  0  0  0
    2.4923   -9.3285    5.2890 H   0  0  0  0  0  0  0  0  0  0  0  0
    3.0487  -10.8965    4.6751 H   0  0  0  0  0  0  0  0  0  0  0  0
    0.7976  -11.8807    5.2379 H   0  0  0  0  0  0  0  0  0  0  0  0
    0.2222  -10.3248    5.7388 H   0  0  0  0  0  0  0  0  0  0  0  0
    1.0482  -11.1055    2.8926 H   0  0  0  0  0  0  0  0  0  0  0  0
   -0.5860  -10.8430    3.4969 H   0  0  0  0  0  0  0  0  0  0  0  0
    3.4612   -4.2669   -1.0020 H   0  0  0  0  0  0  0  0  0  0  0  0
    4.7936   -3.9847   -3.3705 H   0  0  0  0  0  0  0  0  0  0  0  0
    2.9278   -0.6973   -5.0375 H   0  0  0  0  0  0  0  0  0  0  0  0
    4.7873   -0.1312   -1.4166 H   0  0  0  0  0  0  0  0  0  0  0  0
    6.5872   -2.2876    1.2445 H   0  0  0  0  0  0  0  0  0  0  0  0
    5.5730   -3.2720    3.3078 H   0  0  0  0  0  0  0  0  0  0  0  0
  1  2  1  0
  1 25  1  0
  1 26  1  0
  1 27  1  0
  2  3  1  0
  2 28  1  0
  2 29  1  0
  3  4  1  0
  3 30  1  0
  3 31  1  0
  4 24  1  0
  4  5  2  0
  5  6  1  0
  6  7  2  0
  7  8  1  0
  7 24  1  0
  8  9  1  0
  9 10  2  0
  9 11  1  0
 11 23  1  0
 11 12  2  0
 12 13  1  0
 12 32  1  0
 13 14  1  0
 13 21  2  0
 14 15  1  0
 15 20  1  0
 15 16  2  0
 16 17  1  0
 16 33  1  0
 17 18  2  0
 18 19  1  0
 18 34  1  0
 19 20  2  0
 20 35  1  0
 21 22  1  0
 21 36  1  0
 22 23  2  0
 22 37  1  0
M  CHG  1   8  -1
M  END
>  <i_m_ct_stereo_status>  (292) 
1

>  <s_m_source_file>  (292) 
/var/tmp/pbs.5102264.sched01/tmp5h8_9bj8/92lofvt80g.sdf

>  <i_m_source_file_index>  (292) 
14

>  <i_lp_mmshare_version>  (292) 
48012

>  <i_f3d_flags>  (292) 
0

>  <s_epik_input>  (292) 
W0NIM11bQ0gyXVtDSDJdYzFuW25IXS9jKHMxKT1OXEMoPU8pYzJbY0hdYyhbY0hdW2NIXW4yKU9jM1tjSF1uW2NIXW5bY0hdMw==

>  <s_epik_cmdline>  (292) 
J2VwaWtfcHl0aG9uJywgJy1waHQnLCAnMi4wJywgJy1waCcsICc3LjAnLCAnLXRuJywgJzgnLCAnLW1hJywgJzIwMCcsICctaW1hZScsICc8aW5maWxlLm1hZT4nLCAnLW9tYWUnLCAnPG91dGZpbGUubWFlPic=

>  <r_lp_tautomer_probability>  (292) 
1

>  <r_epik_Ionization_Penalty>  (292) 
0.534782

>  <r_epik_Ionization_Penalty_Charging>  (292) 
0.17731

>  <r_epik_Ionization_Penalty_Neutral>  (292) 
0.357471

>  <r_epik_State_Penalty>  (292) 
0.451025

>  <r_epik_Charging_Adjusted_Penalty>  (292) 
0.628336

>  <i_epik_Tot_Q>  (292) 
-1

>  <i_epik_Tot_abs_Q>  (292) 
1

>  <s_lp_Force_Field>  (292) 
OPLS3e

>  <r_lp_Energy>  (292) 
52.4102

>  <b_lp_Chiralities_Consistent>  (292) 
1

>  <s_lp_Variant>  (292) 
65:0-1

>  <s_i_glide_gridfile>  (292) 
pfpi4k_grid

>  <i_i_glide_lignum>  (292) 
14

>  <i_i_glide_rotatable_bonds>  (292) 
7

>  <r_i_docking_score>  (292) 
-3.31227

>  <r_i_glide_ligand_efficiency>  (292) 
-0.138011

>  <r_i_glide_ligand_efficiency_sa>  (292) 
-0.398094

>  <r_i_glide_ligand_efficiency_ln>  (292) 
-0.792779

>  <r_i_glide_gscore>  (292) 
-3.31227

>  <r_i_glide_lipo>  (292) 
-0.318284

>  <r_i_glide_hbond>  (292) 
-0.365103

>  <r_i_glide_metal>  (292) 
-0

>  <r_i_glide_rewards>  (292) 
-1.14546

>  <r_i_glide_evdw>  (292) 
-32.0785

>  <r_i_glide_ecoul>  (292) 
-4.48571

>  <r_i_glide_erotb>  (292) 
0.975646

>  <r_i_glide_esite>  (292) 
-0.182293

>  <r_i_glide_emodel>  (292) 
-44.0494

>  <r_i_glide_energy>  (292) 
-36.5642

>  <r_i_glide_einternal>  (292) 
3.28967

>  <r_i_glide_intrahb_reward>  (292) 
-0

>  <i_i_glide_confnum>  (292) 
1

>  <i_i_glide_posenum>  (292) 
3

>  <r_i_glide_eff_state_penalty>  (292) 
0

>  <ligand_id>  (292) 
65

>  <original_smiles>  (292) 
CCCc1n[nH]c(=NC(=O)c2cc(Oc3cncnc3)ccn2)s1

>  <smiles>  (292) 
[H]c1nc([H])c(Oc2c([H])c([H])nc(C(=O)[N-]c3nnc(C([H])([H])C([H])([H])C([H])([H])[H])s3)c2[H])c([H])n1

$$$$
65:0:2
     RDKit          3D

 37 39  0  0  1  0  0  0  0  0999 V2000
    3.2900    0.3958   -5.3694 C   0  0  0  0  0  0  0  0  0  0  0  0
    3.8218   -0.7331   -4.4812 C   0  0  0  0  0  0  0  0  0  0  0  0
    3.6821   -0.4185   -2.9866 C   0  0  0  0  0  0  0  0  0  0  0  0
    4.2450   -1.4869   -2.1158 C   0  0  0  0  0  0  0  0  0  0  0  0
    5.4242   -1.3873   -1.4915 N   0  0  0  0  0  0  0  0  0  0  0  0
    5.7141   -2.5266   -0.7439 N   0  0  0  0  0  0  0  0  0  0  0  0
    4.7494   -3.4619   -0.8140 C   0  0  0  0  0  0  0  0  0  0  0  0
    4.8663   -4.6265   -0.1551 N   0  0  0  0  0  0  0  0  0  0  0  0
    3.8773   -5.0050    0.7149 C   0  0  0  0  0  0  0  0  0  0  0  0
    2.9934   -4.2871    1.1904 O   0  0  0  0  0  0  0  0  0  0  0  0
    3.8785   -6.4840    1.0782 C   0  0  0  0  0  0  0  0  0  0  0  0
    2.8585   -7.0035    1.9218 C   0  0  0  0  0  0  0  0  0  0  0  0
    2.8706   -8.3816    2.2633 C   0  0  0  0  0  0  0  0  0  0  0  0
    1.9809   -8.9775    3.1316 O   0  0  0  0  0  0  0  0  0  0  0  0
    0.6639   -8.5988    3.1252 C   0  0  0  0  0  0  0  0  0  0  0  0
    0.2284   -7.4236    3.7651 C   0  0  0  0  0  0  0  0  0  0  0  0
   -1.0662   -7.0570    3.7788 N   0  0  0  0  0  0  0  0  0  0  0  0
   -1.9216   -7.9019    3.2164 C   0  0  0  0  0  0  0  0  0  0  0  0
   -1.6395   -9.0328    2.5855 N   0  0  0  0  0  0  0  0  0  0  0  0
   -0.3440   -9.4057    2.5558 C   0  0  0  0  0  0  0  0  0  0  0  0
    3.8999   -9.1811    1.7450 C   0  0  0  0  0  0  0  0  0  0  0  0
    4.8527   -8.5943    0.9010 C   0  0  0  0  0  0  0  0  0  0  0  0
    4.8409   -7.2907    0.5753 N   0  0  0  0  0  0  0  0  0  0  0  0
    3.4189   -3.0278   -1.9096 S   0  0  0  0  0  0  0  0  0  0  0  0
    3.4142    0.1481   -6.4229 H   0  0  0  0  0  0  0  0  0  0  0  0
    3.8149    1.3325   -5.1800 H   0  0  0  0  0  0  0  0  0  0  0  0
    2.2276    0.5702   -5.1928 H   0  0  0  0  0  0  0  0  0  0  0  0
    3.2873   -1.6546   -4.7159 H   0  0  0  0  0  0  0  0  0  0  0  0
    4.8677   -0.9167   -4.7161 H   0  0  0  0  0  0  0  0  0  0  0  0
    4.1780    0.5241   -2.7448 H   0  0  0  0  0  0  0  0  0  0  0  0
    2.6308   -0.3155   -2.7191 H   0  0  0  0  0  0  0  0  0  0  0  0
    2.1127   -6.3268    2.3063 H   0  0  0  0  0  0  0  0  0  0  0  0
    0.9325   -6.7613    4.2527 H   0  0  0  0  0  0  0  0  0  0  0  0
   -2.9562   -7.6115    3.2535 H   0  0  0  0  0  0  0  0  0  0  0  0
   -0.1193  -10.3519    2.0799 H   0  0  0  0  0  0  0  0  0  0  0  0
    3.9717  -10.2343    1.9859 H   0  0  0  0  0  0  0  0  0  0  0  0
    5.6602   -9.1695    0.4793 H   0  0  0  0  0  0  0  0  0  0  0  0
  1  2  1  0
  1 25  1  0
  1 26  1  0
  1 27  1  0
  2  3  1  0
  2 28  1  0
  2 29  1  0
  3  4  1  0
  3 30  1  0
  3 31  1  0
  4 24  1  0
  4  5  2  0
  5  6  1  0
  6  7  2  0
  7  8  1  0
  7 24  1  0
  8  9  1  0
  9 10  2  0
  9 11  1  0
 11 23  1  0
 11 12  2  0
 12 13  1  0
 12 32  1  0
 13 14  1  0
 13 21  2  0
 14 15  1  0
 15 20  1  0
 15 16  2  0
 16 17  1  0
 16 33  1  0
 17 18  2  0
 18 19  1  0
 18 34  1  0
 19 20  2  0
 20 35  1  0
 21 22  1  0
 21 36  1  0
 22 23  2  0
 22 37  1  0
M  CHG  1   8  -1
M  END
>  <i_m_ct_stereo_status>  (293) 
1

>  <s_m_source_file>  (293) 
/var/tmp/pbs.5102264.sched01/tmp5h8_9bj8/92lofvt80g.sdf

>  <i_m_source_file_index>  (293) 
14

>  <i_lp_mmshare_version>  (293) 
48012

>  <i_f3d_flags>  (293) 
0

>  <s_epik_input>  (293) 
W0NIM11bQ0gyXVtDSDJdYzFuW25IXS9jKHMxKT1OXEMoPU8pYzJbY0hdYyhbY0hdW2NIXW4yKU9jM1tjSF1uW2NIXW5bY0hdMw==

>  <s_epik_cmdline>  (293) 
J2VwaWtfcHl0aG9uJywgJy1waHQnLCAnMi4wJywgJy1waCcsICc3LjAnLCAnLXRuJywgJzgnLCAnLW1hJywgJzIwMCcsICctaW1hZScsICc8aW5maWxlLm1hZT4nLCAnLW9tYWUnLCAnPG91dGZpbGUubWFlPic=

>  <r_lp_tautomer_probability>  (293) 
1

>  <r_epik_Ionization_Penalty>  (293) 
0.534782

>  <r_epik_Ionization_Penalty_Charging>  (293) 
0.17731

>  <r_epik_Ionization_Penalty_Neutral>  (293) 
0.357471

>  <r_epik_State_Penalty>  (293) 
0.451025

>  <r_epik_Charging_Adjusted_Penalty>  (293) 
0.628336

>  <i_epik_Tot_Q>  (293) 
-1

>  <i_epik_Tot_abs_Q>  (293) 
1

>  <s_lp_Force_Field>  (293) 
OPLS3e

>  <r_lp_Energy>  (293) 
52.4102

>  <b_lp_Chiralities_Consistent>  (293) 
1

>  <s_lp_Variant>  (293) 
65:0-1

>  <s_i_glide_gridfile>  (293) 
pfpi4k_grid

>  <i_i_glide_lignum>  (293) 
14

>  <i_i_glide_rotatable_bonds>  (293) 
7

>  <r_i_docking_score>  (293) 
-3.04107

>  <r_i_glide_ligand_efficiency>  (293) 
-0.126711

>  <r_i_glide_ligand_efficiency_sa>  (293) 
-0.365498

>  <r_i_glide_ligand_efficiency_ln>  (293) 
-0.727867

>  <r_i_glide_gscore>  (293) 
-3.04107

>  <r_i_glide_lipo>  (293) 
-0.594566

>  <r_i_glide_hbond>  (293) 
-0.0276877

>  <r_i_glide_metal>  (293) 
-0

>  <r_i_glide_rewards>  (293) 
-1.15094

>  <r_i_glide_evdw>  (293) 
-38.3878

>  <r_i_glide_ecoul>  (293) 
-1.21491

>  <r_i_glide_erotb>  (293) 
0.975646

>  <r_i_glide_esite>  (293) 
-0.141889

>  <r_i_glide_emodel>  (293) 
-46.9245

>  <r_i_glide_energy>  (293) 
-39.6027

>  <r_i_glide_einternal>  (293) 
1.89596

>  <r_i_glide_intrahb_reward>  (293) 
-0

>  <i_i_glide_confnum>  (293) 
8

>  <i_i_glide_posenum>  (293) 
2

>  <r_i_glide_eff_state_penalty>  (293) 
0

>  <ligand_id>  (293) 
65

>  <original_smiles>  (293) 
CCCc1n[nH]c(=NC(=O)c2cc(Oc3cncnc3)ccn2)s1

>  <smiles>  (293) 
[H]c1nc([H])c(Oc2c([H])c([H])nc(C(=O)[N-]c3nnc(C([H])([H])C([H])([H])C([H])([H])[H])s3)c2[H])c([H])n1

$$$$
65:1:0
     RDKit          3D

 38 40  0  0  1  0  0  0  0  0999 V2000
    1.3168  -11.7075    4.7757 C   0  0  0  0  0  0  0  0  0  0  0  0
    1.0498  -10.2467    4.4096 C   0  0  0  0  0  0  0  0  0  0  0  0
    0.2172  -10.0930    3.1219 C   0  0  0  0  0  0  0  0  0  0  0  0
    0.3770   -8.7532    2.4853 C   0  0  0  0  0  0  0  0  0  0  0  0
   -0.5734   -7.8111    2.4827 N   0  0  0  0  0  0  0  0  0  0  0  0
   -0.1706   -6.6877    1.7916 N   0  0  0  0  0  0  0  0  0  0  0  0
    1.0921   -6.7467    1.3534 C   0  0  0  0  0  0  0  0  0  0  0  0
    1.6330   -5.7003    0.6928 N   0  0  0  0  0  0  0  0  0  0  0  0
    2.6216   -4.9869    1.2860 C   0  0  0  0  0  0  0  0  0  0  0  0
    3.1984   -5.2017    2.3639 O   0  0  0  0  0  0  0  0  0  0  0  0
    3.0344   -3.7707    0.5128 C   0  0  0  0  0  0  0  0  0  0  0  0
    3.2702   -2.5350    1.1478 C   0  0  0  0  0  0  0  0  0  0  0  0
    3.6458   -1.4030    0.3831 C   0  0  0  0  0  0  0  0  0  0  0  0
    3.8759   -0.1701    0.9473 O   0  0  0  0  0  0  0  0  0  0  0  0
    3.0777    0.2397    1.9865 C   0  0  0  0  0  0  0  0  0  0  0  0
    3.6127    0.4010    3.2781 C   0  0  0  0  0  0  0  0  0  0  0  0
    2.8639    0.8212    4.3147 N   0  0  0  0  0  0  0  0  0  0  0  0
    1.5893    1.0975    4.0562 C   0  0  0  0  0  0  0  0  0  0  0  0
    0.9723    0.9929    2.8839 N   0  0  0  0  0  0  0  0  0  0  0  0
    1.7144    0.5849    1.8347 C   0  0  0  0  0  0  0  0  0  0  0  0
    3.8170   -1.5599   -1.0103 C   0  0  0  0  0  0  0  0  0  0  0  0
    3.5955   -2.8237   -1.5987 C   0  0  0  0  0  0  0  0  0  0  0  0
    3.2115   -3.8704   -0.8302 N   0  0  0  0  0  0  0  0  0  0  0  0
    1.8831   -8.2983    1.6909 S   0  0  0  0  0  0  0  0  0  0  0  0
    1.9636  -11.7668    5.6503 H   0  0  0  0  0  0  0  0  0  0  0  0
    1.8346  -12.2266    3.9700 H   0  0  0  0  0  0  0  0  0  0  0  0
    0.3940  -12.2457    4.9936 H   0  0  0  0  0  0  0  0  0  0  0  0
    0.5605   -9.7289    5.2343 H   0  0  0  0  0  0  0  0  0  0  0  0
    2.0259   -9.7775    4.2791 H   0  0  0  0  0  0  0  0  0  0  0  0
    0.5246  -10.8300    2.3766 H   0  0  0  0  0  0  0  0  0  0  0  0
   -0.8409  -10.2563    3.3224 H   0  0  0  0  0  0  0  0  0  0  0  0
    3.1224   -2.4608    2.2190 H   0  0  0  0  0  0  0  0  0  0  0  0
    4.6531    0.1905    3.4830 H   0  0  0  0  0  0  0  0  0  0  0  0
    0.9933    1.4216    4.8905 H   0  0  0  0  0  0  0  0  0  0  0  0
    1.2109    0.5507    0.8798 H   0  0  0  0  0  0  0  0  0  0  0  0
    4.0885   -0.7090   -1.6197 H   0  0  0  0  0  0  0  0  0  0  0  0
    3.6971   -3.0318   -2.6566 H   0  0  0  0  0  0  0  0  0  0  0  0
    3.0358   -4.7860   -1.2575 H   0  0  0  0  0  0  0  0  0  0  0  0
  1  2  1  0
  1 25  1  0
  1 26  1  0
  1 27  1  0
  2  3  1  0
  2 28  1  0
  2 29  1  0
  3  4  1  0
  3 30  1  0
  3 31  1  0
  4 24  1  0
  4  5  2  0
  5  6  1  0
  6  7  2  0
  7  8  1  0
  7 24  1  0
  8  9  1  0
  9 10  2  0
  9 11  1  0
 11 23  1  0
 11 12  2  0
 12 13  1  0
 12 32  1  0
 13 14  1  0
 13 21  2  0
 14 15  1  0
 15 20  1  0
 15 16  2  0
 16 17  1  0
 16 33  1  0
 17 18  2  0
 18 19  1  0
 18 34  1  0
 19 20  2  0
 20 35  1  0
 21 22  1  0
 21 36  1  0
 22 23  2  0
 22 37  1  0
 23 38  1  0
M  CHG  2   8  -1  23   1
M  END
>  <i_m_ct_stereo_status>  (294) 
1

>  <s_m_source_file>  (294) 
/var/tmp/pbs.5102264.sched01/tmp5h8_9bj8/92lofvt80g.sdf

>  <i_m_source_file_index>  (294) 
15

>  <i_lp_mmshare_version>  (294) 
48012

>  <i_f3d_flags>  (294) 
0

>  <s_epik_input>  (294) 
W0NIM11bQ0gyXVtDSDJdYzFuW25IXS9jKHMxKT1OXEMoPU8pYzJbY0hdYyhbY0hdW2NIXW4yKU9jM1tjSF1uW2NIXW5bY0hdMw==

>  <s_epik_cmdline>  (294) 
J2VwaWtfcHl0aG9uJywgJy1waHQnLCAnMi4wJywgJy1waCcsICc3LjAnLCAnLXRuJywgJzgnLCAnLW1hJywgJzIwMCcsICctaW1hZScsICc8aW5maWxlLm1hZT4nLCAnLW9tYWUnLCAnPG91dGZpbGUubWFlPic=

>  <r_lp_tautomer_probability>  (294) 
1

>  <r_epik_Ionization_Penalty>  (294) 
0.470156

>  <r_epik_Ionization_Penalty_Charging>  (294) 
0.469884

>  <r_epik_Ionization_Penalty_Neutral>  (294) 
0.000272098

>  <r_epik_State_Penalty>  (294) 
0.571603

>  <r_epik_Charging_Adjusted_Penalty>  (294) 
1.04149

>  <i_epik_Tot_Q>  (294) 
0

>  <i_epik_Tot_abs_Q>  (294) 
2

>  <s_lp_Force_Field>  (294) 
OPLS3e

>  <r_lp_Energy>  (294) 
47.1054

>  <b_lp_Chiralities_Consistent>  (294) 
1

>  <s_lp_Variant>  (294) 
65:0-2

>  <s_i_glide_gridfile>  (294) 
pfpi4k_grid

>  <i_i_glide_lignum>  (294) 
15

>  <i_i_glide_rotatable_bonds>  (294) 
7

>  <r_i_docking_score>  (294) 
-3.34386

>  <r_i_glide_ligand_efficiency>  (294) 
-0.139327

>  <r_i_glide_ligand_efficiency_sa>  (294) 
-0.40189

>  <r_i_glide_ligand_efficiency_ln>  (294) 
-0.800339

>  <r_i_glide_gscore>  (294) 
-3.34386

>  <r_i_glide_lipo>  (294) 
-0.0527722

>  <r_i_glide_hbond>  (294) 
-0.166989

>  <r_i_glide_metal>  (294) 
-0

>  <r_i_glide_rewards>  (294) 
-1.0747

>  <r_i_glide_evdw>  (294) 
-28.2612

>  <r_i_glide_ecoul>  (294) 
-9.35368

>  <r_i_glide_erotb>  (294) 
0.970557

>  <r_i_glide_esite>  (294) 
-0.203839

>  <r_i_glide_emodel>  (294) 
-44.7905

>  <r_i_glide_energy>  (294) 
-37.6148

>  <r_i_glide_einternal>  (294) 
4.84802

>  <r_i_glide_intrahb_reward>  (294) 
-0

>  <i_i_glide_confnum>  (294) 
1

>  <i_i_glide_posenum>  (294) 
13

>  <r_i_glide_eff_state_penalty>  (294) 
0

>  <ligand_id>  (294) 
65

>  <original_smiles>  (294) 
CCCc1n[nH]c(=NC(=O)c2cc(Oc3cncnc3)ccn2)s1

>  <smiles>  (294) 
[H]c1nc([H])c(Oc2c([H])c([H])[n+]([H])c(C(=O)[N-]c3nnc(C([H])([H])C([H])([H])C([H])([H])[H])s3)c2[H])c([H])n1

$$$$
65:1:1
     RDKit          3D

 38 40  0  0  1  0  0  0  0  0999 V2000
    0.4701   -9.1689    5.5991 C   0  0  0  0  0  0  0  0  0  0  0  0
    1.0974  -10.1627    4.6164 C   0  0  0  0  0  0  0  0  0  0  0  0
    0.4326  -10.1726    3.2291 C   0  0  0  0  0  0  0  0  0  0  0  0
    0.4861   -8.8618    2.5150 C   0  0  0  0  0  0  0  0  0  0  0  0
   -0.5215   -7.9781    2.4825 N   0  0  0  0  0  0  0  0  0  0  0  0
   -0.1832   -6.8390    1.7600 N   0  0  0  0  0  0  0  0  0  0  0  0
    1.0694   -6.8593    1.2920 C   0  0  0  0  0  0  0  0  0  0  0  0
    1.5429   -5.8111    0.5832 N   0  0  0  0  0  0  0  0  0  0  0  0
    2.5927   -5.1041    1.0832 C   0  0  0  0  0  0  0  0  0  0  0  0
    3.2608   -5.3358    2.1012 O   0  0  0  0  0  0  0  0  0  0  0  0
    2.9434   -3.8663    0.2932 C   0  0  0  0  0  0  0  0  0  0  0  0
    3.5026   -2.7235    0.8933 C   0  0  0  0  0  0  0  0  0  0  0  0
    3.7917   -1.5823    0.0946 C   0  0  0  0  0  0  0  0  0  0  0  0
    4.3118   -0.4167    0.5957 O   0  0  0  0  0  0  0  0  0  0  0  0
    3.9461   -0.0060    1.8517 C   0  0  0  0  0  0  0  0  0  0  0  0
    2.8072    0.7941    2.0832 C   0  0  0  0  0  0  0  0  0  0  0  0
    2.5138    1.2515    3.3165 N   0  0  0  0  0  0  0  0  0  0  0  0
    3.3519    0.9310    4.2978 C   0  0  0  0  0  0  0  0  0  0  0  0
    4.4510    0.1894    4.1971 N   0  0  0  0  0  0  0  0  0  0  0  0
    4.7558   -0.2760    2.9726 C   0  0  0  0  0  0  0  0  0  0  0  0
    3.5622   -1.6531   -1.2977 C   0  0  0  0  0  0  0  0  0  0  0  0
    3.0181   -2.8246   -1.8529 C   0  0  0  0  0  0  0  0  0  0  0  0
    2.7184   -3.8609   -1.0426 N   0  0  0  0  0  0  0  0  0  0  0  0
    1.9515   -8.3477    1.6863 S   0  0  0  0  0  0  0  0  0  0  0  0
    0.9459   -9.2398    6.5770 H   0  0  0  0  0  0  0  0  0  0  0  0
   -0.5898   -9.3806    5.7317 H   0  0  0  0  0  0  0  0  0  0  0  0
    0.5707   -8.1408    5.2497 H   0  0  0  0  0  0  0  0  0  0  0  0
    2.1607   -9.9423    4.5152 H   0  0  0  0  0  0  0  0  0  0  0  0
    1.0386  -11.1644    5.0447 H   0  0  0  0  0  0  0  0  0  0  0  0
    0.9354  -10.9018    2.5955 H   0  0  0  0  0  0  0  0  0  0  0  0
   -0.6040  -10.4891    3.3063 H   0  0  0  0  0  0  0  0  0  0  0  0
    3.6784   -2.7324    1.9637 H   0  0  0  0  0  0  0  0  0  0  0  0
    2.1502    1.0987    1.2786 H   0  0  0  0  0  0  0  0  0  0  0  0
    3.1085    1.2959    5.2796 H   0  0  0  0  0  0  0  0  0  0  0  0
    5.6669   -0.8516    2.8835 H   0  0  0  0  0  0  0  0  0  0  0  0
    3.7679   -0.7995   -1.9246 H   0  0  0  0  0  0  0  0  0  0  0  0
    2.7887   -2.9718   -2.8993 H   0  0  0  0  0  0  0  0  0  0  0  0
    2.3596   -4.7373   -1.4312 H   0  0  0  0  0  0  0  0  0  0  0  0
  1  2  1  0
  1 25  1  0
  1 26  1  0
  1 27  1  0
  2  3  1  0
  2 28  1  0
  2 29  1  0
  3  4  1  0
  3 30  1  0
  3 31  1  0
  4 24  1  0
  4  5  2  0
  5  6  1  0
  6  7  2  0
  7  8  1  0
  7 24  1  0
  8  9  1  0
  9 10  2  0
  9 11  1  0
 11 23  1  0
 11 12  2  0
 12 13  1  0
 12 32  1  0
 13 14  1  0
 13 21  2  0
 14 15  1  0
 15 20  1  0
 15 16  2  0
 16 17  1  0
 16 33  1  0
 17 18  2  0
 18 19  1  0
 18 34  1  0
 19 20  2  0
 20 35  1  0
 21 22  1  0
 21 36  1  0
 22 23  2  0
 22 37  1  0
 23 38  1  0
M  CHG  2   8  -1  23   1
M  END
>  <i_m_ct_stereo_status>  (295) 
1

>  <s_m_source_file>  (295) 
/var/tmp/pbs.5102264.sched01/tmp5h8_9bj8/92lofvt80g.sdf

>  <i_m_source_file_index>  (295) 
15

>  <i_lp_mmshare_version>  (295) 
48012

>  <i_f3d_flags>  (295) 
0

>  <s_epik_input>  (295) 
W0NIM11bQ0gyXVtDSDJdYzFuW25IXS9jKHMxKT1OXEMoPU8pYzJbY0hdYyhbY0hdW2NIXW4yKU9jM1tjSF1uW2NIXW5bY0hdMw==

>  <s_epik_cmdline>  (295) 
J2VwaWtfcHl0aG9uJywgJy1waHQnLCAnMi4wJywgJy1waCcsICc3LjAnLCAnLXRuJywgJzgnLCAnLW1hJywgJzIwMCcsICctaW1hZScsICc8aW5maWxlLm1hZT4nLCAnLW9tYWUnLCAnPG91dGZpbGUubWFlPic=

>  <r_lp_tautomer_probability>  (295) 
1

>  <r_epik_Ionization_Penalty>  (295) 
0.470156

>  <r_epik_Ionization_Penalty_Charging>  (295) 
0.469884

>  <r_epik_Ionization_Penalty_Neutral>  (295) 
0.000272098

>  <r_epik_State_Penalty>  (295) 
0.571603

>  <r_epik_Charging_Adjusted_Penalty>  (295) 
1.04149

>  <i_epik_Tot_Q>  (295) 
0

>  <i_epik_Tot_abs_Q>  (295) 
2

>  <s_lp_Force_Field>  (295) 
OPLS3e

>  <r_lp_Energy>  (295) 
47.1054

>  <b_lp_Chiralities_Consistent>  (295) 
1

>  <s_lp_Variant>  (295) 
65:0-2

>  <s_i_glide_gridfile>  (295) 
pfpi4k_grid

>  <i_i_glide_lignum>  (295) 
15

>  <i_i_glide_rotatable_bonds>  (295) 
7

>  <r_i_docking_score>  (295) 
-3.29087

>  <r_i_glide_ligand_efficiency>  (295) 
-0.13712

>  <r_i_glide_ligand_efficiency_sa>  (295) 
-0.395521

>  <r_i_glide_ligand_efficiency_ln>  (295) 
-0.787656

>  <r_i_glide_gscore>  (295) 
-3.29087

>  <r_i_glide_lipo>  (295) 
-0.184184

>  <r_i_glide_hbond>  (295) 
-0.182848

>  <r_i_glide_metal>  (295) 
-0

>  <r_i_glide_rewards>  (295) 
-1.0747

>  <r_i_glide_evdw>  (295) 
-27.7087

>  <r_i_glide_ecoul>  (295) 
-8.16548

>  <r_i_glide_erotb>  (295) 
0.970557

>  <r_i_glide_esite>  (295) 
-0.209435

>  <r_i_glide_emodel>  (295) 
-43.6262

>  <r_i_glide_energy>  (295) 
-35.8741

>  <r_i_glide_einternal>  (295) 
3.64402

>  <r_i_glide_intrahb_reward>  (295) 
-0

>  <i_i_glide_confnum>  (295) 
1

>  <i_i_glide_posenum>  (295) 
22

>  <r_i_glide_eff_state_penalty>  (295) 
0

>  <ligand_id>  (295) 
65

>  <original_smiles>  (295) 
CCCc1n[nH]c(=NC(=O)c2cc(Oc3cncnc3)ccn2)s1

>  <smiles>  (295) 
[H]c1nc([H])c(Oc2c([H])c([H])[n+]([H])c(C(=O)[N-]c3nnc(C([H])([H])C([H])([H])C([H])([H])[H])s3)c2[H])c([H])n1

$$$$
65:1:2
     RDKit          3D

 38 40  0  0  1  0  0  0  0  0999 V2000
    0.4916   -9.3254    5.7334 C   0  0  0  0  0  0  0  0  0  0  0  0
    1.0689  -10.3408    4.7397 C   0  0  0  0  0  0  0  0  0  0  0  0
    0.4361  -10.2779    3.3397 C   0  0  0  0  0  0  0  0  0  0  0  0
    0.4959   -8.9350    2.6922 C   0  0  0  0  0  0  0  0  0  0  0  0
   -0.4969   -8.0334    2.7221 N   0  0  0  0  0  0  0  0  0  0  0  0
   -0.1554   -6.8654    2.0514 N   0  0  0  0  0  0  0  0  0  0  0  0
    1.0882   -6.8833    1.5558 C   0  0  0  0  0  0  0  0  0  0  0  0
    1.5671   -5.8247    0.8790 N   0  0  0  0  0  0  0  0  0  0  0  0
    2.5780   -5.1013    1.4356 C   0  0  0  0  0  0  0  0  0  0  0  0
    3.1708   -5.2847    2.5017 O   0  0  0  0  0  0  0  0  0  0  0  0
    2.9982   -3.9130    0.6158 C   0  0  0  0  0  0  0  0  0  0  0  0
    3.3042   -2.6688    1.2030 C   0  0  0  0  0  0  0  0  0  0  0  0
    3.6835   -1.5709    0.3876 C   0  0  0  0  0  0  0  0  0  0  0  0
    3.9961   -0.3442    0.9106 O   0  0  0  0  0  0  0  0  0  0  0  0
    3.2040    0.1597    1.9102 C   0  0  0  0  0  0  0  0  0  0  0  0
    3.7114    0.3217    3.2123 C   0  0  0  0  0  0  0  0  0  0  0  0
    2.9717    0.8454    4.2091 N   0  0  0  0  0  0  0  0  0  0  0  0
    1.7359    1.2247    3.8989 C   0  0  0  0  0  0  0  0  0  0  0  0
    1.1483    1.1253    2.7112 N   0  0  0  0  0  0  0  0  0  0  0  0
    1.8797    0.6059    1.7038 C   0  0  0  0  0  0  0  0  0  0  0  0
    3.7730   -1.7690   -1.0083 C   0  0  0  0  0  0  0  0  0  0  0  0
    3.4693   -3.0367   -1.5455 C   0  0  0  0  0  0  0  0  0  0  0  0
    3.0979   -4.0490   -0.7315 N   0  0  0  0  0  0  0  0  0  0  0  0
    1.9563   -8.4032    1.8619 S   0  0  0  0  0  0  0  0  0  0  0  0
    0.9442   -9.4495    6.7173 H   0  0  0  0  0  0  0  0  0  0  0  0
   -0.5856   -9.4528    5.8413 H   0  0  0  0  0  0  0  0  0  0  0  0
    0.6751   -8.3012    5.4090 H   0  0  0  0  0  0  0  0  0  0  0  0
    2.1445  -10.1841    4.6616 H   0  0  0  0  0  0  0  0  0  0  0  0
    0.9417  -11.3470    5.1424 H   0  0  0  0  0  0  0  0  0  0  0  0
    0.9470  -10.9780    2.6807 H   0  0  0  0  0  0  0  0  0  0  0  0
   -0.5992  -10.5939    3.3810 H   0  0  0  0  0  0  0  0  0  0  0  0
    3.2248   -2.5605    2.2789 H   0  0  0  0  0  0  0  0  0  0  0  0
    4.7266    0.0356    3.4569 H   0  0  0  0  0  0  0  0  0  0  0  0
    1.1466    1.6271    4.6993 H   0  0  0  0  0  0  0  0  0  0  0  0
    1.4010    0.5658    0.7364 H   0  0  0  0  0  0  0  0  0  0  0  0
    4.0389   -0.9456   -1.6581 H   0  0  0  0  0  0  0  0  0  0  0  0
    3.5037   -3.2811   -2.6002 H   0  0  0  0  0  0  0  0  0  0  0  0
    2.8841   -4.9642   -1.1378 H   0  0  0  0  0  0  0  0  0  0  0  0
  1  2  1  0
  1 25  1  0
  1 26  1  0
  1 27  1  0
  2  3  1  0
  2 28  1  0
  2 29  1  0
  3  4  1  0
  3 30  1  0
  3 31  1  0
  4 24  1  0
  4  5  2  0
  5  6  1  0
  6  7  2  0
  7  8  1  0
  7 24  1  0
  8  9  1  0
  9 10  2  0
  9 11  1  0
 11 23  1  0
 11 12  2  0
 12 13  1  0
 12 32  1  0
 13 14  1  0
 13 21  2  0
 14 15  1  0
 15 20  1  0
 15 16  2  0
 16 17  1  0
 16 33  1  0
 17 18  2  0
 18 19  1  0
 18 34  1  0
 19 20  2  0
 20 35  1  0
 21 22  1  0
 21 36  1  0
 22 23  2  0
 22 37  1  0
 23 38  1  0
M  CHG  2   8  -1  23   1
M  END
>  <i_m_ct_stereo_status>  (296) 
1

>  <s_m_source_file>  (296) 
/var/tmp/pbs.5102264.sched01/tmp5h8_9bj8/92lofvt80g.sdf

>  <i_m_source_file_index>  (296) 
15

>  <i_lp_mmshare_version>  (296) 
48012

>  <i_f3d_flags>  (296) 
0

>  <s_epik_input>  (296) 
W0NIM11bQ0gyXVtDSDJdYzFuW25IXS9jKHMxKT1OXEMoPU8pYzJbY0hdYyhbY0hdW2NIXW4yKU9jM1tjSF1uW2NIXW5bY0hdMw==

>  <s_epik_cmdline>  (296) 
J2VwaWtfcHl0aG9uJywgJy1waHQnLCAnMi4wJywgJy1waCcsICc3LjAnLCAnLXRuJywgJzgnLCAnLW1hJywgJzIwMCcsICctaW1hZScsICc8aW5maWxlLm1hZT4nLCAnLW9tYWUnLCAnPG91dGZpbGUubWFlPic=

>  <r_lp_tautomer_probability>  (296) 
1

>  <r_epik_Ionization_Penalty>  (296) 
0.470156

>  <r_epik_Ionization_Penalty_Charging>  (296) 
0.469884

>  <r_epik_Ionization_Penalty_Neutral>  (296) 
0.000272098

>  <r_epik_State_Penalty>  (296) 
0.571603

>  <r_epik_Charging_Adjusted_Penalty>  (296) 
1.04149

>  <i_epik_Tot_Q>  (296) 
0

>  <i_epik_Tot_abs_Q>  (296) 
2

>  <s_lp_Force_Field>  (296) 
OPLS3e

>  <r_lp_Energy>  (296) 
47.1054

>  <b_lp_Chiralities_Consistent>  (296) 
1

>  <s_lp_Variant>  (296) 
65:0-2

>  <s_i_glide_gridfile>  (296) 
pfpi4k_grid

>  <i_i_glide_lignum>  (296) 
15

>  <i_i_glide_rotatable_bonds>  (296) 
7

>  <r_i_docking_score>  (296) 
-3.213

>  <r_i_glide_ligand_efficiency>  (296) 
-0.133875

>  <r_i_glide_ligand_efficiency_sa>  (296) 
-0.386162

>  <r_i_glide_ligand_efficiency_ln>  (296) 
-0.769018

>  <r_i_glide_gscore>  (296) 
-3.213

>  <r_i_glide_lipo>  (296) 
-0.0414752

>  <r_i_glide_hbond>  (296) 
-0.180222

>  <r_i_glide_metal>  (296) 
-0

>  <r_i_glide_rewards>  (296) 
-1.0747

>  <r_i_glide_evdw>  (296) 
-27.895

>  <r_i_glide_ecoul>  (296) 
-8.55809

>  <r_i_glide_erotb>  (296) 
0.970557

>  <r_i_glide_esite>  (296) 
-0.208688

>  <r_i_glide_emodel>  (296) 
-43.9123

>  <r_i_glide_energy>  (296) 
-36.4531

>  <r_i_glide_einternal>  (296) 
3.76917

>  <r_i_glide_intrahb_reward>  (296) 
-0

>  <i_i_glide_confnum>  (296) 
6

>  <i_i_glide_posenum>  (296) 
29

>  <r_i_glide_eff_state_penalty>  (296) 
0

>  <ligand_id>  (296) 
65

>  <original_smiles>  (296) 
CCCc1n[nH]c(=NC(=O)c2cc(Oc3cncnc3)ccn2)s1

>  <smiles>  (296) 
[H]c1nc([H])c(Oc2c([H])c([H])[n+]([H])c(C(=O)[N-]c3nnc(C([H])([H])C([H])([H])C([H])([H])[H])s3)c2[H])c([H])n1

$$$$
65:2:0
     RDKit          3D

 38 40  0  0  1  0  0  0  0  0999 V2000
   -1.2723   -8.0209    4.4803 C   0  0  0  0  0  0  0  0  0  0  0  0
   -1.6309   -8.8535    3.2419 C   0  0  0  0  0  0  0  0  0  0  0  0
   -0.5462   -9.8695    2.8388 C   0  0  0  0  0  0  0  0  0  0  0  0
    0.8049   -9.2687    2.6117 C   0  0  0  0  0  0  0  0  0  0  0  0
    1.9384   -9.8621    3.0068 N   0  0  0  0  0  0  0  0  0  0  0  0
    3.0714   -9.1187    2.6824 N   0  0  0  0  0  0  0  0  0  0  0  0
    2.7603   -7.9791    2.0581 C   0  0  0  0  0  0  0  0  0  0  0  0
    3.8007   -7.0920    1.6725 N   0  0  0  0  0  0  0  0  0  0  0  0
    3.6729   -5.8722    1.1214 C   0  0  0  0  0  0  0  0  0  0  0  0
    2.5962   -5.3329    0.8635 O   0  0  0  0  0  0  0  0  0  0  0  0
    4.9674   -5.1744    0.7895 C   0  0  0  0  0  0  0  0  0  0  0  0
    4.9973   -4.2142   -0.2444 C   0  0  0  0  0  0  0  0  0  0  0  0
    6.2049   -3.5382   -0.5274 C   0  0  0  0  0  0  0  0  0  0  0  0
    6.3515   -2.5948   -1.5161 O   0  0  0  0  0  0  0  0  0  0  0  0
    5.2833   -2.2643   -2.3070 C   0  0  0  0  0  0  0  0  0  0  0  0
    4.8311   -3.0949   -3.3524 C   0  0  0  0  0  0  0  0  0  0  0  0
    3.8156   -2.7219   -4.1564 N   0  0  0  0  0  0  0  0  0  0  0  0
    3.2428   -1.5450   -3.8997 C   0  0  0  0  0  0  0  0  0  0  0  0
    3.6011   -0.6771   -2.9588 N   0  0  0  0  0  0  0  0  0  0  0  0
    4.6050   -1.0432   -2.1421 C   0  0  0  0  0  0  0  0  0  0  0  0
    7.3348   -3.8518    0.2476 C   0  0  0  0  0  0  0  0  0  0  0  0
    7.2109   -4.8123    1.2678 C   0  0  0  0  0  0  0  0  0  0  0  0
    6.0591   -5.4621    1.5366 N   0  0  0  0  0  0  0  0  0  0  0  0
    1.0351   -7.7321    1.7808 S   0  0  0  0  0  0  0  0  0  0  0  0
   -2.0679   -7.3179    4.7234 H   0  0  0  0  0  0  0  0  0  0  0  0
   -0.3625   -7.4386    4.3355 H   0  0  0  0  0  0  0  0  0  0  0  0
   -1.1096   -8.6709    5.3415 H   0  0  0  0  0  0  0  0  0  0  0  0
   -2.5605   -9.3918    3.4242 H   0  0  0  0  0  0  0  0  0  0  0  0
   -1.8352   -8.1888    2.4027 H   0  0  0  0  0  0  0  0  0  0  0  0
   -0.4527  -10.6327    3.6148 H   0  0  0  0  0  0  0  0  0  0  0  0
   -0.8416  -10.3871    1.9257 H   0  0  0  0  0  0  0  0  0  0  0  0
    4.0934   -4.0194   -0.8030 H   0  0  0  0  0  0  0  0  0  0  0  0
    5.3054   -4.0383   -3.5818 H   0  0  0  0  0  0  0  0  0  0  0  0
    2.4218   -1.2428   -4.5340 H   0  0  0  0  0  0  0  0  0  0  0  0
    4.8956   -0.3365   -1.3791 H   0  0  0  0  0  0  0  0  0  0  0  0
    8.2823   -3.3658    0.0648 H   0  0  0  0  0  0  0  0  0  0  0  0
    8.0555   -5.0655    1.8895 H   0  0  0  0  0  0  0  0  0  0  0  0
    4.7465   -7.3974    1.8495 H   0  0  0  0  0  0  0  0  0  0  0  0
  1  2  1  0
  1 25  1  0
  1 26  1  0
  1 27  1  0
  2  3  1  0
  2 28  1  0
  2 29  1  0
  3  4  1  0
  3 30  1  0
  3 31  1  0
  4 24  1  0
  4  5  2  0
  5  6  1  0
  6  7  2  0
  7  8  1  0
  7 24  1  0
  8  9  1  0
  8 38  1  0
  9 10  2  0
  9 11  1  0
 11 23  1  0
 11 12  2  0
 12 13  1  0
 12 32  1  0
 13 14  1  0
 13 21  2  0
 14 15  1  0
 15 20  1  0
 15 16  2  0
 16 17  1  0
 16 33  1  0
 17 18  2  0
 18 19  1  0
 18 34  1  0
 19 20  2  0
 20 35  1  0
 21 22  1  0
 21 36  1  0
 22 23  2  0
 22 37  1  0
M  END
>  <i_m_ct_stereo_status>  (297) 
1

>  <s_m_source_file>  (297) 
/var/tmp/pbs.5102264.sched01/tmp5h8_9bj8/92lofvt80g.sdf

>  <i_m_source_file_index>  (297) 
16

>  <i_lp_mmshare_version>  (297) 
48012

>  <i_f3d_flags>  (297) 
0

>  <s_epik_input>  (297) 
W0NIM11bQ0gyXVtDSDJdYzFuW25IXS9jKHMxKT1OXEMoPU8pYzJbY0hdYyhbY0hdW2NIXW4yKU9jM1tjSF1uW2NIXW5bY0hdMw==

>  <s_epik_cmdline>  (297) 
J2VwaWtfcHl0aG9uJywgJy1waHQnLCAnMi4wJywgJy1waCcsICc3LjAnLCAnLXRuJywgJzgnLCAnLW1hJywgJzIwMCcsICctaW1hZScsICc8aW5maWxlLm1hZT4nLCAnLW9tYWUnLCAnPG91dGZpbGUubWFlPic=

>  <r_epik_Ionization_Penalty>  (297) 
0.801242

>  <r_epik_Ionization_Penalty_Charging>  (297) 
0

>  <r_epik_Ionization_Penalty_Neutral>  (297) 
0.801242

>  <r_epik_State_Penalty>  (297) 
1.1168

>  <r_epik_Charging_Adjusted_Penalty>  (297) 
1.1168

>  <i_epik_Tot_Q>  (297) 
0

>  <i_epik_Tot_abs_Q>  (297) 
0

>  <s_lp_Force_Field>  (297) 
OPLS3e

>  <r_lp_Energy>  (297) 
41.2158

>  <b_lp_Chiralities_Consistent>  (297) 
1

>  <s_lp_Variant>  (297) 
65:0-3

>  <s_i_glide_gridfile>  (297) 
pfpi4k_grid

>  <i_i_glide_lignum>  (297) 
16

>  <i_i_glide_rotatable_bonds>  (297) 
7

>  <r_i_docking_score>  (297) 
-3.57006

>  <r_i_glide_ligand_efficiency>  (297) 
-0.148752

>  <r_i_glide_ligand_efficiency_sa>  (297) 
-0.429076

>  <r_i_glide_ligand_efficiency_ln>  (297) 
-0.854479

>  <r_i_glide_gscore>  (297) 
-3.57006

>  <r_i_glide_lipo>  (297) 
-0.696036

>  <r_i_glide_hbond>  (297) 
-0.303362

>  <r_i_glide_metal>  (297) 
-0

>  <r_i_glide_rewards>  (297) 
-1.27811

>  <r_i_glide_evdw>  (297) 
-37.2739

>  <r_i_glide_ecoul>  (297) 
-2.55407

>  <r_i_glide_erotb>  (297) 
0.970557

>  <r_i_glide_esite>  (297) 
-0.0163049

>  <r_i_glide_emodel>  (297) 
-46.8194

>  <r_i_glide_energy>  (297) 
-39.828

>  <r_i_glide_einternal>  (297) 
5.10565

>  <r_i_glide_intrahb_reward>  (297) 
-0

>  <i_i_glide_confnum>  (297) 
6

>  <i_i_glide_posenum>  (297) 
28

>  <r_i_glide_eff_state_penalty>  (297) 
0

>  <ligand_id>  (297) 
65

>  <original_smiles>  (297) 
CCCc1n[nH]c(=NC(=O)c2cc(Oc3cncnc3)ccn2)s1

>  <smiles>  (297) 
[H]c1nc([H])c(Oc2c([H])c([H])nc(C(=O)N([H])c3nnc(C([H])([H])C([H])([H])C([H])([H])[H])s3)c2[H])c([H])n1

$$$$
65:2:1
     RDKit          3D

 38 40  0  0  1  0  0  0  0  0999 V2000
    3.2854    0.4714   -5.3801 C   0  0  0  0  0  0  0  0  0  0  0  0
    3.7715   -0.7432   -4.5771 C   0  0  0  0  0  0  0  0  0  0  0  0
    3.9000   -0.4489   -3.0803 C   0  0  0  0  0  0  0  0  0  0  0  0
    4.3052   -1.6293   -2.2550 C   0  0  0  0  0  0  0  0  0  0  0  0
    5.5799   -1.8815   -1.9227 N   0  0  0  0  0  0  0  0  0  0  0  0
    5.7134   -3.0437   -1.1600 N   0  0  0  0  0  0  0  0  0  0  0  0
    4.5303   -3.6164   -0.8982 C   0  0  0  0  0  0  0  0  0  0  0  0
    4.4838   -4.8039   -0.1202 N   0  0  0  0  0  0  0  0  0  0  0  0
    3.4089   -5.3501    0.4812 C   0  0  0  0  0  0  0  0  0  0  0  0
    2.3183   -4.7875    0.5869 O   0  0  0  0  0  0  0  0  0  0  0  0
    3.6114   -6.7227    1.0723 C   0  0  0  0  0  0  0  0  0  0  0  0
    2.6131   -7.2879    1.9006 C   0  0  0  0  0  0  0  0  0  0  0  0
    2.7883   -8.5955    2.4111 C   0  0  0  0  0  0  0  0  0  0  0  0
    1.9050   -9.2316    3.2523 O   0  0  0  0  0  0  0  0  0  0  0  0
    0.6094   -8.7913    3.3448 C   0  0  0  0  0  0  0  0  0  0  0  0
    0.2556   -7.6851    4.1424 C   0  0  0  0  0  0  0  0  0  0  0  0
   -1.0208   -7.2603    4.2392 N   0  0  0  0  0  0  0  0  0  0  0  0
   -1.9303   -7.9683    3.5718 C   0  0  0  0  0  0  0  0  0  0  0  0
   -1.7181   -9.0133    2.7796 N   0  0  0  0  0  0  0  0  0  0  0  0
   -0.4443   -9.4508    2.6827 C   0  0  0  0  0  0  0  0  0  0  0  0
    3.9595   -9.2861    2.0584 C   0  0  0  0  0  0  0  0  0  0  0  0
    4.8930   -8.6575    1.2193 C   0  0  0  0  0  0  0  0  0  0  0  0
    4.7318   -7.4060    0.7398 N   0  0  0  0  0  0  0  0  0  0  0  0
    3.1488   -2.8200   -1.6600 S   0  0  0  0  0  0  0  0  0  0  0  0
    3.2154    0.2258   -6.4385 H   0  0  0  0  0  0  0  0  0  0  0  0
    3.9662    1.3169   -5.2828 H   0  0  0  0  0  0  0  0  0  0  0  0
    2.2998    0.8010   -5.0495 H   0  0  0  0  0  0  0  0  0  0  0  0
    3.0715   -1.5698   -4.7077 H   0  0  0  0  0  0  0  0  0  0  0  0
    4.7307   -1.0609   -4.9701 H   0  0  0  0  0  0  0  0  0  0  0  0
    4.6098    0.3581   -2.9092 H   0  0  0  0  0  0  0  0  0  0  0  0
    2.9281   -0.1149   -2.7187 H   0  0  0  0  0  0  0  0  0  0  0  0
    1.7317   -6.7105    2.1297 H   0  0  0  0  0  0  0  0  0  0  0  0
    0.9937   -7.1197    4.6967 H   0  0  0  0  0  0  0  0  0  0  0  0
   -2.9548   -7.6422    3.6722 H   0  0  0  0  0  0  0  0  0  0  0  0
   -0.2737  -10.3259    2.0722 H   0  0  0  0  0  0  0  0  0  0  0  0
    4.1444  -10.2888    2.4173 H   0  0  0  0  0  0  0  0  0  0  0  0
    5.7976   -9.1653    0.9204 H   0  0  0  0  0  0  0  0  0  0  0  0
    5.3328   -5.3457   -0.0620 H   0  0  0  0  0  0  0  0  0  0  0  0
  1  2  1  0
  1 25  1  0
  1 26  1  0
  1 27  1  0
  2  3  1  0
  2 28  1  0
  2 29  1  0
  3  4  1  0
  3 30  1  0
  3 31  1  0
  4 24  1  0
  4  5  2  0
  5  6  1  0
  6  7  2  0
  7  8  1  0
  7 24  1  0
  8  9  1  0
  8 38  1  0
  9 10  2  0
  9 11  1  0
 11 23  1  0
 11 12  2  0
 12 13  1  0
 12 32  1  0
 13 14  1  0
 13 21  2  0
 14 15  1  0
 15 20  1  0
 15 16  2  0
 16 17  1  0
 16 33  1  0
 17 18  2  0
 18 19  1  0
 18 34  1  0
 19 20  2  0
 20 35  1  0
 21 22  1  0
 21 36  1  0
 22 23  2  0
 22 37  1  0
M  END
>  <i_m_ct_stereo_status>  (298) 
1

>  <s_m_source_file>  (298) 
/var/tmp/pbs.5102264.sched01/tmp5h8_9bj8/92lofvt80g.sdf

>  <i_m_source_file_index>  (298) 
16

>  <i_lp_mmshare_version>  (298) 
48012

>  <i_f3d_flags>  (298) 
0

>  <s_epik_input>  (298) 
W0NIM11bQ0gyXVtDSDJdYzFuW25IXS9jKHMxKT1OXEMoPU8pYzJbY0hdYyhbY0hdW2NIXW4yKU9jM1tjSF1uW2NIXW5bY0hdMw==

>  <s_epik_cmdline>  (298) 
J2VwaWtfcHl0aG9uJywgJy1waHQnLCAnMi4wJywgJy1waCcsICc3LjAnLCAnLXRuJywgJzgnLCAnLW1hJywgJzIwMCcsICctaW1hZScsICc8aW5maWxlLm1hZT4nLCAnLW9tYWUnLCAnPG91dGZpbGUubWFlPic=

>  <r_epik_Ionization_Penalty>  (298) 
0.801242

>  <r_epik_Ionization_Penalty_Charging>  (298) 
0

>  <r_epik_Ionization_Penalty_Neutral>  (298) 
0.801242

>  <r_epik_State_Penalty>  (298) 
1.1168

>  <r_epik_Charging_Adjusted_Penalty>  (298) 
1.1168

>  <i_epik_Tot_Q>  (298) 
0

>  <i_epik_Tot_abs_Q>  (298) 
0

>  <s_lp_Force_Field>  (298) 
OPLS3e

>  <r_lp_Energy>  (298) 
41.2158

>  <b_lp_Chiralities_Consistent>  (298) 
1

>  <s_lp_Variant>  (298) 
65:0-3

>  <s_i_glide_gridfile>  (298) 
pfpi4k_grid

>  <i_i_glide_lignum>  (298) 
16

>  <i_i_glide_rotatable_bonds>  (298) 
7

>  <r_i_docking_score>  (298) 
-3.27831

>  <r_i_glide_ligand_efficiency>  (298) 
-0.136596

>  <r_i_glide_ligand_efficiency_sa>  (298) 
-0.394012

>  <r_i_glide_ligand_efficiency_ln>  (298) 
-0.78465

>  <r_i_glide_gscore>  (298) 
-3.27831

>  <r_i_glide_lipo>  (298) 
-0.603896

>  <r_i_glide_hbond>  (298) 
-0.00643846

>  <r_i_glide_metal>  (298) 
-0

>  <r_i_glide_rewards>  (298) 
-1.1247

>  <r_i_glide_evdw>  (298) 
-38.6778

>  <r_i_glide_ecoul>  (298) 
-2.93678

>  <r_i_glide_erotb>  (298) 
0.970557

>  <r_i_glide_esite>  (298) 
-0.139417

>  <r_i_glide_emodel>  (298) 
-49.0755

>  <r_i_glide_energy>  (298) 
-41.6146

>  <r_i_glide_einternal>  (298) 
2.602

>  <r_i_glide_intrahb_reward>  (298) 
-0

>  <i_i_glide_confnum>  (298) 
4

>  <i_i_glide_posenum>  (298) 
27

>  <r_i_glide_eff_state_penalty>  (298) 
0

>  <ligand_id>  (298) 
65

>  <original_smiles>  (298) 
CCCc1n[nH]c(=NC(=O)c2cc(Oc3cncnc3)ccn2)s1

>  <smiles>  (298) 
[H]c1nc([H])c(Oc2c([H])c([H])nc(C(=O)N([H])c3nnc(C([H])([H])C([H])([H])C([H])([H])[H])s3)c2[H])c([H])n1

$$$$
65:2:2
     RDKit          3D

 38 40  0  0  1  0  0  0  0  0999 V2000
    3.4080    1.0291   -5.0309 C   0  0  0  0  0  0  0  0  0  0  0  0
    3.6141    0.0902   -3.8301 C   0  0  0  0  0  0  0  0  0  0  0  0
    3.6516   -1.3851   -4.2387 C   0  0  0  0  0  0  0  0  0  0  0  0
    4.1080   -2.3125   -3.1503 C   0  0  0  0  0  0  0  0  0  0  0  0
    5.3927   -2.6583   -2.9980 N   0  0  0  0  0  0  0  0  0  0  0  0
    5.6047   -3.4607   -1.8860 N   0  0  0  0  0  0  0  0  0  0  0  0
    4.4656   -3.7656   -1.2588 C   0  0  0  0  0  0  0  0  0  0  0  0
    4.5058   -4.6800   -0.1722 N   0  0  0  0  0  0  0  0  0  0  0  0
    3.4586   -5.2194    0.4795 C   0  0  0  0  0  0  0  0  0  0  0  0
    2.3045   -4.7953    0.4034 O   0  0  0  0  0  0  0  0  0  0  0  0
    3.7618   -6.4182    1.3463 C   0  0  0  0  0  0  0  0  0  0  0  0
    2.7237   -7.0109    2.0981 C   0  0  0  0  0  0  0  0  0  0  0  0
    2.9953   -8.1529    2.8828 C   0  0  0  0  0  0  0  0  0  0  0  0
    2.0708   -8.7943    3.6737 O   0  0  0  0  0  0  0  0  0  0  0  0
    0.7319   -8.5330    3.5205 C   0  0  0  0  0  0  0  0  0  0  0  0
    0.1197   -7.4229    4.1321 C   0  0  0  0  0  0  0  0  0  0  0  0
   -1.1973   -7.1672    3.9881 N   0  0  0  0  0  0  0  0  0  0  0  0
   -1.8960   -8.0475    3.2704 C   0  0  0  0  0  0  0  0  0  0  0  0
   -1.4294   -9.1199    2.6375 N   0  0  0  0  0  0  0  0  0  0  0  0
   -0.1117   -9.3833    2.7781 C   0  0  0  0  0  0  0  0  0  0  0  0
    4.3057   -8.6540    2.8714 C   0  0  0  0  0  0  0  0  0  0  0  0
    5.2782   -8.0138    2.0846 C   0  0  0  0  0  0  0  0  0  0  0  0
    5.0228   -6.9184    1.3362 N   0  0  0  0  0  0  0  0  0  0  0  0
    3.0152   -3.0327   -1.9695 S   0  0  0  0  0  0  0  0  0  0  0  0
    3.3847    2.0720   -4.7219 H   0  0  0  0  0  0  0  0  0  0  0  0
    2.4670    0.8187   -5.5400 H   0  0  0  0  0  0  0  0  0  0  0  0
    4.2145    0.9369   -5.7574 H   0  0  0  0  0  0  0  0  0  0  0  0
    4.5299    0.3723   -3.3072 H   0  0  0  0  0  0  0  0  0  0  0  0
    2.7976    0.1949   -3.1190 H   0  0  0  0  0  0  0  0  0  0  0  0
    2.6500   -1.7010   -4.5399 H   0  0  0  0  0  0  0  0  0  0  0  0
    4.3122   -1.4907   -5.0955 H   0  0  0  0  0  0  0  0  0  0  0  0
    1.7332   -6.5843    2.0629 H   0  0  0  0  0  0  0  0  0  0  0  0
    0.6806   -6.7182    4.7323 H   0  0  0  0  0  0  0  0  0  0  0  0
   -2.9555   -7.8556    3.1874 H   0  0  0  0  0  0  0  0  0  0  0  0
    0.2631  -10.2724    2.2892 H   0  0  0  0  0  0  0  0  0  0  0  0
    4.5657   -9.5217    3.4622 H   0  0  0  0  0  0  0  0  0  0  0  0
    6.2927   -8.3792    2.0561 H   0  0  0  0  0  0  0  0  0  0  0  0
    5.4054   -5.0928    0.0386 H   0  0  0  0  0  0  0  0  0  0  0  0
  1  2  1  0
  1 25  1  0
  1 26  1  0
  1 27  1  0
  2  3  1  0
  2 28  1  0
  2 29  1  0
  3  4  1  0
  3 30  1  0
  3 31  1  0
  4 24  1  0
  4  5  2  0
  5  6  1  0
  6  7  2  0
  7  8  1  0
  7 24  1  0
  8  9  1  0
  8 38  1  0
  9 10  2  0
  9 11  1  0
 11 23  1  0
 11 12  2  0
 12 13  1  0
 12 32  1  0
 13 14  1  0
 13 21  2  0
 14 15  1  0
 15 20  1  0
 15 16  2  0
 16 17  1  0
 16 33  1  0
 17 18  2  0
 18 19  1  0
 18 34  1  0
 19 20  2  0
 20 35  1  0
 21 22  1  0
 21 36  1  0
 22 23  2  0
 22 37  1  0
M  END
>  <i_m_ct_stereo_status>  (299) 
1

>  <s_m_source_file>  (299) 
/var/tmp/pbs.5102264.sched01/tmp5h8_9bj8/92lofvt80g.sdf

>  <i_m_source_file_index>  (299) 
16

>  <i_lp_mmshare_version>  (299) 
48012

>  <i_f3d_flags>  (299) 
0

>  <s_epik_input>  (299) 
W0NIM11bQ0gyXVtDSDJdYzFuW25IXS9jKHMxKT1OXEMoPU8pYzJbY0hdYyhbY0hdW2NIXW4yKU9jM1tjSF1uW2NIXW5bY0hdMw==

>  <s_epik_cmdline>  (299) 
J2VwaWtfcHl0aG9uJywgJy1waHQnLCAnMi4wJywgJy1waCcsICc3LjAnLCAnLXRuJywgJzgnLCAnLW1hJywgJzIwMCcsICctaW1hZScsICc8aW5maWxlLm1hZT4nLCAnLW9tYWUnLCAnPG91dGZpbGUubWFlPic=

>  <r_epik_Ionization_Penalty>  (299) 
0.801242

>  <r_epik_Ionization_Penalty_Charging>  (299) 
0

>  <r_epik_Ionization_Penalty_Neutral>  (299) 
0.801242

>  <r_epik_State_Penalty>  (299) 
1.1168

>  <r_epik_Charging_Adjusted_Penalty>  (299) 
1.1168

>  <i_epik_Tot_Q>  (299) 
0

>  <i_epik_Tot_abs_Q>  (299) 
0

>  <s_lp_Force_Field>  (299) 
OPLS3e

>  <r_lp_Energy>  (299) 
41.2158

>  <b_lp_Chiralities_Consistent>  (299) 
1

>  <s_lp_Variant>  (299) 
65:0-3

>  <s_i_glide_gridfile>  (299) 
pfpi4k_grid

>  <i_i_glide_lignum>  (299) 
16

>  <i_i_glide_rotatable_bonds>  (299) 
7

>  <r_i_docking_score>  (299) 
-2.60656

>  <r_i_glide_ligand_efficiency>  (299) 
-0.108607

>  <r_i_glide_ligand_efficiency_sa>  (299) 
-0.313276

>  <r_i_glide_ligand_efficiency_ln>  (299) 
-0.623871

>  <r_i_glide_gscore>  (299) 
-2.60656

>  <r_i_glide_lipo>  (299) 
-0.323008

>  <r_i_glide_hbond>  (299) 
-0.00613433

>  <r_i_glide_metal>  (299) 
-0

>  <r_i_glide_rewards>  (299) 
-1.0747

>  <r_i_glide_evdw>  (299) 
-37.3467

>  <r_i_glide_ecoul>  (299) 
-1.46646

>  <r_i_glide_erotb>  (299) 
0.970557

>  <r_i_glide_esite>  (299) 
-0.0859702

>  <r_i_glide_emodel>  (299) 
-43.8584

>  <r_i_glide_energy>  (299) 
-38.8132

>  <r_i_glide_einternal>  (299) 
3.80888

>  <r_i_glide_intrahb_reward>  (299) 
-0

>  <i_i_glide_confnum>  (299) 
3

>  <i_i_glide_posenum>  (299) 
33

>  <r_i_glide_eff_state_penalty>  (299) 
0

>  <ligand_id>  (299) 
65

>  <original_smiles>  (299) 
CCCc1n[nH]c(=NC(=O)c2cc(Oc3cncnc3)ccn2)s1

>  <smiles>  (299) 
[H]c1nc([H])c(Oc2c([H])c([H])nc(C(=O)N([H])c3nnc(C([H])([H])C([H])([H])C([H])([H])[H])s3)c2[H])c([H])n1

$$$$
66:1:0
     RDKit          3D

 59 59  0  0  1  0  0  0  0  0999 V2000
    5.1259   -3.4884   -3.6754 C   0  0  0  0  0  0  0  0  0  0  0  0
    4.6224   -3.8412   -2.3624 N   0  0  0  0  0  0  0  0  0  0  0  0
    4.9026   -3.0754   -1.2400 C   0  0  0  0  0  0  0  0  0  0  0  0
    5.6933   -2.1476   -1.1845 O   0  0  0  0  0  0  0  0  0  0  0  0
    4.1329   -3.5476   -0.2311 O   0  0  0  0  0  0  0  0  0  0  0  0
    4.4117   -2.9866    1.0214 N   0  0  0  0  0  0  0  0  0  0  0  0
    3.6138   -3.3524    1.9466 C   0  0  0  0  0  0  0  0  0  0  0  0
    3.7188   -2.6554    3.3203 C   0  0  0  0  0  0  0  0  0  0  0  0
    2.9820   -1.2792    3.3963 C   0  0  2  0  0  0  0  0  0  0  0  0
    1.4715   -1.3699    3.0534 C   0  0  0  0  0  0  0  0  0  0  0  0
    0.7412   -0.0279    3.0325 C   0  0  0  0  0  0  0  0  0  0  0  0
    1.4323    0.9383    2.0646 C   0  0  0  0  0  0  0  0  0  0  0  0
    2.8997    1.1601    2.4520 C   0  0  0  0  0  0  0  0  0  0  0  0
    3.6762   -0.1491    2.5964 C   0  0  0  0  0  0  0  0  0  0  0  0
    4.8210   -0.2425    2.1722 O   0  0  0  0  0  0  0  0  0  0  0  0
    2.4829   -4.3838    1.7746 C   0  0  2  0  0  0  0  0  0  0  0  0
    1.5506   -4.3240    2.8371 O   0  0  0  0  0  0  0  0  0  0  0  0
    2.9709   -5.8636    1.5992 C   0  0  2  0  0  0  0  0  0  0  0  0
    3.7409   -6.0416    0.4346 O   0  0  0  0  0  0  0  0  0  0  0  0
    1.8396   -6.9385    1.4931 C   0  0  2  0  0  0  0  0  0  0  0  0
    0.7922   -6.5333    0.6236 O   0  0  0  0  0  0  0  0  0  0  0  0
    1.2322   -7.4249    2.8025 C   0  0  0  0  0  0  0  0  0  0  0  0
    1.5383   -7.0346    4.0507 C   0  0  0  0  0  0  0  0  0  0  0  0
    0.9061   -7.5404    5.3422 C   0  0  0  0  0  0  0  0  0  0  0  0
    2.0236   -8.1356    6.2104 C   0  0  0  0  0  0  0  0  0  0  0  0
   -0.1574   -8.6155    5.0568 C   0  0  0  0  0  0  0  0  0  0  0  0
    0.2461   -6.3755    6.1080 C   0  0  0  0  0  0  0  0  0  0  0  0
    4.7590   -4.1929   -4.4205 H   0  0  0  0  0  0  0  0  0  0  0  0
    6.2172   -3.4896   -3.6816 H   0  0  0  0  0  0  0  0  0  0  0  0
    4.7774   -2.4861   -3.9366 H   0  0  0  0  0  0  0  0  0  0  0  0
    4.0029   -4.6221   -2.2451 H   0  0  0  0  0  0  0  0  0  0  0  0
    3.3628   -3.3123    4.1123 H   0  0  0  0  0  0  0  0  0  0  0  0
    4.7708   -2.5165    3.5648 H   0  0  0  0  0  0  0  0  0  0  0  0
    3.0465   -0.9438    4.4323 H   0  0  0  0  0  0  0  0  0  0  0  0
    1.3396   -1.8166    2.0666 H   0  0  0  0  0  0  0  0  0  0  0  0
    0.9714   -2.0197    3.7742 H   0  0  0  0  0  0  0  0  0  0  0  0
   -0.2843   -0.1962    2.7093 H   0  0  0  0  0  0  0  0  0  0  0  0
    0.6918    0.3945    4.0367 H   0  0  0  0  0  0  0  0  0  0  0  0
    1.3744    0.5466    1.0469 H   0  0  0  0  0  0  0  0  0  0  0  0
    0.9041    1.8918    2.0557 H   0  0  0  0  0  0  0  0  0  0  0  0
    3.4101    1.7495    1.6966 H   0  0  0  0  0  0  0  0  0  0  0  0
    2.9729    1.7093    3.3896 H   0  0  0  0  0  0  0  0  0  0  0  0
    1.9182   -4.0770    0.8870 H   0  0  0  0  0  0  0  0  0  0  0  0
    2.0088   -4.4893    3.6484 H   0  0  0  0  0  0  0  0  0  0  0  0
    3.6301   -6.1236    2.4279 H   0  0  0  0  0  0  0  0  0  0  0  0
    3.2092   -5.7797   -0.3013 H   0  0  0  0  0  0  0  0  0  0  0  0
    2.2596   -7.8507    1.0722 H   0  0  0  0  0  0  0  0  0  0  0  0
    0.2680   -7.3050    0.4385 H   0  0  0  0  0  0  0  0  0  0  0  0
    0.4848   -8.1928    2.6420 H   0  0  0  0  0  0  0  0  0  0  0  0
    2.3097   -6.2935    4.2174 H   0  0  0  0  0  0  0  0  0  0  0  0
    1.6274   -8.5196    7.1509 H   0  0  0  0  0  0  0  0  0  0  0  0
    2.7819   -7.3872    6.4518 H   0  0  0  0  0  0  0  0  0  0  0  0
    2.5264   -8.9587    5.6991 H   0  0  0  0  0  0  0  0  0  0  0  0
    0.2708   -9.4671    4.5283 H   0  0  0  0  0  0  0  0  0  0  0  0
   -0.9674   -8.2178    4.4455 H   0  0  0  0  0  0  0  0  0  0  0  0
   -0.6004   -9.0006    5.9715 H   0  0  0  0  0  0  0  0  0  0  0  0
   -0.1863   -6.7355    7.0435 H   0  0  0  0  0  0  0  0  0  0  0  0
   -0.5615   -5.9168    5.5364 H   0  0  0  0  0  0  0  0  0  0  0  0
    0.9641   -5.5917    6.3591 H   0  0  0  0  0  0  0  0  0  0  0  0
  1  2  1  0
  1 28  1  0
  1 29  1  0
  1 30  1  0
  2  3  1  0
  2 31  1  0
  3  4  2  0
  3  5  1  0
  5  6  1  0
  6  7  2  3
  7  8  1  0
  7 16  1  0
  8  9  1  0
  8 32  1  0
  8 33  1  0
  9 14  1  0
  9 10  1  0
  9 34  1  1
 10 11  1  0
 10 35  1  0
 10 36  1  0
 11 12  1  0
 11 37  1  0
 11 38  1  0
 12 13  1  0
 12 39  1  0
 12 40  1  0
 13 14  1  0
 13 41  1  0
 13 42  1  0
 14 15  2  0
 16 17  1  0
 16 18  1  0
 16 43  1  6
 17 44  1  0
 18 19  1  0
 18 20  1  0
 18 45  1  1
 19 46  1  0
 20 21  1  0
 20 22  1  0
 20 47  1  6
 21 48  1  0
 22 23  2  3
 22 49  1  0
 23 24  1  0
 23 50  1  0
 24 25  1  0
 24 26  1  0
 24 27  1  0
 25 51  1  0
 25 52  1  0
 25 53  1  0
 26 54  1  0
 26 55  1  0
 26 56  1  0
 27 57  1  0
 27 58  1  0
 27 59  1  0
M  END
>  <i_m_ct_stereo_status>  (300) 
1

>  <s_m_source_file>  (300) 
/var/tmp/pbs.5102264.sched01/tmp5h8_9bj8/92lofvt80g.sdf

>  <i_m_source_file_index>  (300) 
18

>  <i_lp_mmshare_version>  (300) 
48012

>  <i_f3d_flags>  (300) 
0

>  <s_epik_input>  (300) 
W0NIM11DKFtDSDNdKShbQ0gzXSlcW0NIXT1bQ0hdXFtDQEBIXShbT0hdKVtDQEBIXShbT0hdKVtDQEBIXShbT0hdKUMoPU5cT0MoPU8pW05IXVtDSDNdKVxbQ0gyXVtDQEBIXTFbQ0gyXVtDSDJdW0NIMl1bQ0gyXUMxPU8=

>  <s_epik_cmdline>  (300) 
J2VwaWtfcHl0aG9uJywgJy1waHQnLCAnMi4wJywgJy1waCcsICc3LjAnLCAnLXRuJywgJzgnLCAnLW1hJywgJzIwMCcsICctaW1hZScsICc8aW5maWxlLm1hZT4nLCAnLW9tYWUnLCAnPG91dGZpbGUubWFlPic=

>  <r_lp_tautomer_probability>  (300) 
1

>  <r_epik_Ionization_Penalty>  (300) 
6.46737e-06

>  <r_epik_Ionization_Penalty_Charging>  (300) 
0

>  <r_epik_Ionization_Penalty_Neutral>  (300) 
6.46737e-06

>  <r_epik_State_Penalty>  (300) 
-0

>  <r_epik_Charging_Adjusted_Penalty>  (300) 
0

>  <i_epik_Tot_Q>  (300) 
0

>  <i_epik_Tot_abs_Q>  (300) 
0

>  <s_epik_Chemistry_Notes>  (300) 
This compound has an imine and may undergo hydrolysis.

>  <s_lp_Force_Field>  (300) 
OPLS3e

>  <r_lp_Energy>  (300) 
23.9356

>  <b_lp_Chiralities_Consistent>  (300) 
1

>  <s_lp_Variant>  (300) 
66:0-2

>  <s_i_glide_gridfile>  (300) 
pfpi4k_grid

>  <i_i_glide_lignum>  (300) 
18

>  <i_i_glide_rotatable_bonds>  (300) 
13

>  <r_i_docking_score>  (300) 
-2.86411

>  <r_i_glide_ligand_efficiency>  (300) 
-0.106078

>  <r_i_glide_ligand_efficiency_sa>  (300) 
-0.318235

>  <r_i_glide_ligand_efficiency_ln>  (300) 
-0.666718

>  <r_i_glide_gscore>  (300) 
-2.86411

>  <r_i_glide_lipo>  (300) 
-0.245283

>  <r_i_glide_hbond>  (300) 
-0.367643

>  <r_i_glide_metal>  (300) 
-0

>  <r_i_glide_rewards>  (300) 
-0.848586

>  <r_i_glide_evdw>  (300) 
-25.7125

>  <r_i_glide_ecoul>  (300) 
-7.65192

>  <r_i_glide_erotb>  (300) 
1.05228

>  <r_i_glide_esite>  (300) 
-0.0214688

>  <r_i_glide_emodel>  (300) 
-34.7542

>  <r_i_glide_energy>  (300) 
-33.3645

>  <r_i_glide_einternal>  (300) 
8.56664

>  <r_i_glide_intrahb_reward>  (300) 
-0

>  <i_i_glide_confnum>  (300) 
8

>  <i_i_glide_posenum>  (300) 
10

>  <r_i_glide_eff_state_penalty>  (300) 
0

>  <ligand_id>  (300) 
66

>  <original_smiles>  (300) 
CNC(=O)ON=C(CC1CCCCC1=O)C(O)C(O)C(O)C=CC(C)(C)C

>  <smiles>  (300) 
[H]OC([H])(C(=NOC(=O)N([H])C([H])([H])[H])C([H])([H])C1([H])C(=O)C([H])([H])C([H])([H])C([H])([H])C1([H])[H])C([H])(O[H])C([H])(O[H])C([H])=C([H])C(C([H])([H])[H])(C([H])([H])[H])C([H])([H])[H]

$$$$
66:1:1
     RDKit          3D

 59 59  0  0  1  0  0  0  0  0999 V2000
    5.1956   -3.3385   -3.4488 C   0  0  0  0  0  0  0  0  0  0  0  0
    4.6083   -3.7930   -2.1934 N   0  0  0  0  0  0  0  0  0  0  0  0
    4.9641   -3.2643   -0.9624 C   0  0  0  0  0  0  0  0  0  0  0  0
    5.8290   -2.4111   -0.7641 O   0  0  0  0  0  0  0  0  0  0  0  0
    4.1865   -3.8754   -0.0242 O   0  0  0  0  0  0  0  0  0  0  0  0
    4.6179   -3.5986    1.2837 N   0  0  0  0  0  0  0  0  0  0  0  0
    3.8036   -3.9827    2.1983 C   0  0  0  0  0  0  0  0  0  0  0  0
    4.1487   -3.6734    3.6618 C   0  0  0  0  0  0  0  0  0  0  0  0
    4.1799   -2.1529    4.0393 C   0  0  2  0  0  0  0  0  0  0  0  0
    5.2076   -1.3137    3.2331 C   0  0  0  0  0  0  0  0  0  0  0  0
    5.3613    0.1238    3.7123 C   0  0  0  0  0  0  0  0  0  0  0  0
    5.7318    0.2013    5.1864 C   0  0  0  0  0  0  0  0  0  0  0  0
    4.7045   -0.5314    6.0599 C   0  0  0  0  0  0  0  0  0  0  0  0
    4.4360   -1.9655    5.5614 C   0  0  0  0  0  0  0  0  0  0  0  0
    4.4054   -2.8936    6.3605 O   0  0  0  0  0  0  0  0  0  0  0  0
    2.5242   -4.7865    1.9432 C   0  0  2  0  0  0  0  0  0  0  0  0
    1.5601   -4.6293    2.9694 O   0  0  0  0  0  0  0  0  0  0  0  0
    2.8202   -6.3060    1.7045 C   0  0  2  0  0  0  0  0  0  0  0  0
    3.5915   -6.5284    0.5430 O   0  0  0  0  0  0  0  0  0  0  0  0
    1.5685   -7.2271    1.5517 C   0  0  2  0  0  0  0  0  0  0  0  0
    0.5685   -6.6300    0.7404 O   0  0  0  0  0  0  0  0  0  0  0  0
    0.9456   -7.7090    2.8570 C   0  0  0  0  0  0  0  0  0  0  0  0
    1.3750   -7.5202    4.1140 C   0  0  0  0  0  0  0  0  0  0  0  0
    0.7003   -8.0341    5.3838 C   0  0  0  0  0  0  0  0  0  0  0  0
    1.6303   -9.0646    6.0423 C   0  0  0  0  0  0  0  0  0  0  0  0
   -0.6614   -8.6845    5.0934 C   0  0  0  0  0  0  0  0  0  0  0  0
    0.4820   -6.8686    6.3634 C   0  0  0  0  0  0  0  0  0  0  0  0
    4.7664   -3.8990   -4.2845 H   0  0  0  0  0  0  0  0  0  0  0  0
    6.2764   -3.4804   -3.4527 H   0  0  0  0  0  0  0  0  0  0  0  0
    4.9866   -2.2785   -3.5974 H   0  0  0  0  0  0  0  0  0  0  0  0
    3.9150   -4.5212   -2.1999 H   0  0  0  0  0  0  0  0  0  0  0  0
    3.4844   -4.2006    4.3464 H   0  0  0  0  0  0  0  0  0  0  0  0
    5.1294   -4.1024    3.8609 H   0  0  0  0  0  0  0  0  0  0  0  0
    3.1931   -1.7211    3.8566 H   0  0  0  0  0  0  0  0  0  0  0  0
    6.1725   -1.8182    3.2397 H   0  0  0  0  0  0  0  0  0  0  0  0
    4.9117   -1.2198    2.1900 H   0  0  0  0  0  0  0  0  0  0  0  0
    6.1472    0.5668    3.1144 H   0  0  0  0  0  0  0  0  0  0  0  0
    4.4388    0.6706    3.5185 H   0  0  0  0  0  0  0  0  0  0  0  0
    6.7216   -0.2227    5.3380 H   0  0  0  0  0  0  0  0  0  0  0  0
    5.7980    1.2435    5.4933 H   0  0  0  0  0  0  0  0  0  0  0  0
    5.0628   -0.5872    7.0906 H   0  0  0  0  0  0  0  0  0  0  0  0
    3.7558    0.0075    6.0711 H   0  0  0  0  0  0  0  0  0  0  0  0
    2.0363   -4.3709    1.0584 H   0  0  0  0  0  0  0  0  0  0  0  0
    1.9304   -4.9515    3.7865 H   0  0  0  0  0  0  0  0  0  0  0  0
    3.4602   -6.6925    2.5023 H   0  0  0  0  0  0  0  0  0  0  0  0
    4.3234   -5.9165    0.5587 H   0  0  0  0  0  0  0  0  0  0  0  0
    1.8723   -8.1504    1.0461 H   0  0  0  0  0  0  0  0  0  0  0  0
   -0.0088   -7.3402    0.4685 H   0  0  0  0  0  0  0  0  0  0  0  0
    0.0521   -8.2920    2.6728 H   0  0  0  0  0  0  0  0  0  0  0  0
    2.2842   -6.9562    4.3006 H   0  0  0  0  0  0  0  0  0  0  0  0
    1.2000   -9.4598    6.9630 H   0  0  0  0  0  0  0  0  0  0  0  0
    2.5985   -8.6268    6.2965 H   0  0  0  0  0  0  0  0  0  0  0  0
    1.8174   -9.9130    5.3836 H   0  0  0  0  0  0  0  0  0  0  0  0
   -0.5567   -9.5381    4.4305 H   0  0  0  0  0  0  0  0  0  0  0  0
   -1.3505   -7.9814    4.6279 H   0  0  0  0  0  0  0  0  0  0  0  0
   -1.1222   -9.0599    5.9981 H   0  0  0  0  0  0  0  0  0  0  0  0
    0.0306   -7.2330    7.2888 H   0  0  0  0  0  0  0  0  0  0  0  0
   -0.1852   -6.1082    5.9522 H   0  0  0  0  0  0  0  0  0  0  0  0
    1.4211   -6.3794    6.6367 H   0  0  0  0  0  0  0  0  0  0  0  0
  1  2  1  0
  1 28  1  0
  1 29  1  0
  1 30  1  0
  2  3  1  0
  2 31  1  0
  3  4  2  0
  3  5  1  0
  5  6  1  0
  6  7  2  3
  7  8  1  0
  7 16  1  0
  8  9  1  0
  8 32  1  0
  8 33  1  0
  9 14  1  0
  9 10  1  0
  9 34  1  1
 10 11  1  0
 10 35  1  0
 10 36  1  0
 11 12  1  0
 11 37  1  0
 11 38  1  0
 12 13  1  0
 12 39  1  0
 12 40  1  0
 13 14  1  0
 13 41  1  0
 13 42  1  0
 14 15  2  0
 16 17  1  0
 16 18  1  0
 16 43  1  6
 17 44  1  0
 18 19  1  0
 18 20  1  0
 18 45  1  1
 19 46  1  0
 20 21  1  0
 20 22  1  0
 20 47  1  6
 21 48  1  0
 22 23  2  3
 22 49  1  0
 23 24  1  0
 23 50  1  0
 24 25  1  0
 24 26  1  0
 24 27  1  0
 25 51  1  0
 25 52  1  0
 25 53  1  0
 26 54  1  0
 26 55  1  0
 26 56  1  0
 27 57  1  0
 27 58  1  0
 27 59  1  0
M  END
>  <i_m_ct_stereo_status>  (301) 
1

>  <s_m_source_file>  (301) 
/var/tmp/pbs.5102264.sched01/tmp5h8_9bj8/92lofvt80g.sdf

>  <i_m_source_file_index>  (301) 
18

>  <i_lp_mmshare_version>  (301) 
48012

>  <i_f3d_flags>  (301) 
0

>  <s_epik_input>  (301) 
W0NIM11DKFtDSDNdKShbQ0gzXSlcW0NIXT1bQ0hdXFtDQEBIXShbT0hdKVtDQEBIXShbT0hdKVtDQEBIXShbT0hdKUMoPU5cT0MoPU8pW05IXVtDSDNdKVxbQ0gyXVtDQEBIXTFbQ0gyXVtDSDJdW0NIMl1bQ0gyXUMxPU8=

>  <s_epik_cmdline>  (301) 
J2VwaWtfcHl0aG9uJywgJy1waHQnLCAnMi4wJywgJy1waCcsICc3LjAnLCAnLXRuJywgJzgnLCAnLW1hJywgJzIwMCcsICctaW1hZScsICc8aW5maWxlLm1hZT4nLCAnLW9tYWUnLCAnPG91dGZpbGUubWFlPic=

>  <r_lp_tautomer_probability>  (301) 
1

>  <r_epik_Ionization_Penalty>  (301) 
6.46737e-06

>  <r_epik_Ionization_Penalty_Charging>  (301) 
0

>  <r_epik_Ionization_Penalty_Neutral>  (301) 
6.46737e-06

>  <r_epik_State_Penalty>  (301) 
-0

>  <r_epik_Charging_Adjusted_Penalty>  (301) 
0

>  <i_epik_Tot_Q>  (301) 
0

>  <i_epik_Tot_abs_Q>  (301) 
0

>  <s_epik_Chemistry_Notes>  (301) 
This compound has an imine and may undergo hydrolysis.

>  <s_lp_Force_Field>  (301) 
OPLS3e

>  <r_lp_Energy>  (301) 
23.9356

>  <b_lp_Chiralities_Consistent>  (301) 
1

>  <s_lp_Variant>  (301) 
66:0-2

>  <s_i_glide_gridfile>  (301) 
pfpi4k_grid

>  <i_i_glide_lignum>  (301) 
18

>  <i_i_glide_rotatable_bonds>  (301) 
13

>  <r_i_docking_score>  (301) 
-2.70491

>  <r_i_glide_ligand_efficiency>  (301) 
-0.100182

>  <r_i_glide_ligand_efficiency_sa>  (301) 
-0.300546

>  <r_i_glide_ligand_efficiency_ln>  (301) 
-0.629659

>  <r_i_glide_gscore>  (301) 
-2.70491

>  <r_i_glide_lipo>  (301) 
-0.541395

>  <r_i_glide_hbond>  (301) 
-0.32

>  <r_i_glide_metal>  (301) 
-0

>  <r_i_glide_rewards>  (301) 
-0.866369

>  <r_i_glide_evdw>  (301) 
-23.2716

>  <r_i_glide_ecoul>  (301) 
-5.64099

>  <r_i_glide_erotb>  (301) 
1.05228

>  <r_i_glide_esite>  (301) 
-0.0197007

>  <r_i_glide_emodel>  (301) 
-31.1578

>  <r_i_glide_energy>  (301) 
-28.9126

>  <r_i_glide_einternal>  (301) 
7.12638

>  <r_i_glide_intrahb_reward>  (301) 
-0

>  <i_i_glide_confnum>  (301) 
8

>  <i_i_glide_posenum>  (301) 
30

>  <r_i_glide_eff_state_penalty>  (301) 
0

>  <ligand_id>  (301) 
66

>  <original_smiles>  (301) 
CNC(=O)ON=C(CC1CCCCC1=O)C(O)C(O)C(O)C=CC(C)(C)C

>  <smiles>  (301) 
[H]OC([H])(C(=NOC(=O)N([H])C([H])([H])[H])C([H])([H])C1([H])C(=O)C([H])([H])C([H])([H])C([H])([H])C1([H])[H])C([H])(O[H])C([H])(O[H])C([H])=C([H])C(C([H])([H])[H])(C([H])([H])[H])C([H])([H])[H]

$$$$
66:1:2
     RDKit          3D

 59 59  0  0  1  0  0  0  0  0999 V2000
    5.1739   -3.3752   -3.5198 C   0  0  0  0  0  0  0  0  0  0  0  0
    4.6113   -3.8509   -2.2641 N   0  0  0  0  0  0  0  0  0  0  0  0
    4.9442   -3.3123   -1.0362 C   0  0  0  0  0  0  0  0  0  0  0  0
    5.7581   -2.3978   -0.8486 O   0  0  0  0  0  0  0  0  0  0  0  0
    4.2289   -3.9670   -0.0850 O   0  0  0  0  0  0  0  0  0  0  0  0
    4.6259   -3.6225    1.2202 N   0  0  0  0  0  0  0  0  0  0  0  0
    3.8516   -4.0535    2.1353 C   0  0  0  0  0  0  0  0  0  0  0  0
    4.1870   -3.7267    3.5975 C   0  0  0  0  0  0  0  0  0  0  0  0
    4.1770   -2.2117    3.9703 C   0  0  2  0  0  0  0  0  0  0  0  0
    5.2175   -1.3744    3.1835 C   0  0  0  0  0  0  0  0  0  0  0  0
    5.3298    0.0746    3.6551 C   0  0  0  0  0  0  0  0  0  0  0  0
    5.6480    0.1664    5.1459 C   0  0  0  0  0  0  0  0  0  0  0  0
    4.6018   -0.5814    5.9886 C   0  0  0  0  0  0  0  0  0  0  0  0
    4.3787   -2.0129    5.4888 C   0  0  0  0  0  0  0  0  0  0  0  0
    4.3401   -2.9518    6.2878 O   0  0  0  0  0  0  0  0  0  0  0  0
    2.6087   -4.9415    1.9019 C   0  0  2  0  0  0  0  0  0  0  0  0
    1.5988   -4.6929    2.8675 O   0  0  0  0  0  0  0  0  0  0  0  0
    2.9728   -6.4586    1.8461 C   0  0  2  0  0  0  0  0  0  0  0  0
    3.8161   -6.7150    0.7362 O   0  0  0  0  0  0  0  0  0  0  0  0
    1.7637   -7.4421    1.7339 C   0  0  2  0  0  0  0  0  0  0  0  0
    0.7617   -6.9581    0.8551 O   0  0  0  0  0  0  0  0  0  0  0  0
    1.0936   -7.8366    3.0410 C   0  0  0  0  0  0  0  0  0  0  0  0
    1.4503   -7.4994    4.2967 C   0  0  0  0  0  0  0  0  0  0  0  0
    0.7494   -7.9303    5.5843 C   0  0  0  0  0  0  0  0  0  0  0  0
    1.7389   -8.7497    6.4291 C   0  0  0  0  0  0  0  0  0  0  0  0
   -0.4920   -8.7893    5.2967 C   0  0  0  0  0  0  0  0  0  0  0  0
    0.3157   -6.6908    6.3917 C   0  0  0  0  0  0  0  0  0  0  0  0
    4.7762   -3.9595   -4.3488 H   0  0  0  0  0  0  0  0  0  0  0  0
    6.2614   -3.4718   -3.5183 H   0  0  0  0  0  0  0  0  0  0  0  0
    4.9222   -2.3250   -3.6788 H   0  0  0  0  0  0  0  0  0  0  0  0
    3.9437   -4.6135   -2.2700 H   0  0  0  0  0  0  0  0  0  0  0  0
    3.5231   -4.2761    4.2614 H   0  0  0  0  0  0  0  0  0  0  0  0
    5.1692   -4.1478    3.8088 H   0  0  0  0  0  0  0  0  0  0  0  0
    3.1890   -1.8083    3.7437 H   0  0  0  0  0  0  0  0  0  0  0  0
    6.1934   -1.8570    3.2380 H   0  0  0  0  0  0  0  0  0  0  0  0
    4.9610   -1.3157    2.1240 H   0  0  0  0  0  0  0  0  0  0  0  0
    6.1204    0.5488    3.0828 H   0  0  0  0  0  0  0  0  0  0  0  0
    4.4029    0.6046    3.4320 H   0  0  0  0  0  0  0  0  0  0  0  0
    6.6352   -0.2550    5.3331 H   0  0  0  0  0  0  0  0  0  0  0  0
    5.6885    1.2124    5.4504 H   0  0  0  0  0  0  0  0  0  0  0  0
    4.9252   -0.6174    7.0306 H   0  0  0  0  0  0  0  0  0  0  0  0
    3.6453   -0.0546    5.9639 H   0  0  0  0  0  0  0  0  0  0  0  0
    2.1523   -4.6565    0.9516 H   0  0  0  0  0  0  0  0  0  0  0  0
    1.9343   -4.9035    3.7287 H   0  0  0  0  0  0  0  0  0  0  0  0
    3.5771   -6.7402    2.7112 H   0  0  0  0  0  0  0  0  0  0  0  0
    4.0994   -7.6177    0.7754 H   0  0  0  0  0  0  0  0  0  0  0  0
    2.1119   -8.3909    1.3107 H   0  0  0  0  0  0  0  0  0  0  0  0
    0.2692   -7.7078    0.5380 H   0  0  0  0  0  0  0  0  0  0  0  0
    0.2396   -8.4791    2.8863 H   0  0  0  0  0  0  0  0  0  0  0  0
    2.3104   -6.8657    4.4655 H   0  0  0  0  0  0  0  0  0  0  0  0
    1.2865   -9.0797    7.3663 H   0  0  0  0  0  0  0  0  0  0  0  0
    2.6254   -8.1663    6.6814 H   0  0  0  0  0  0  0  0  0  0  0  0
    2.0725   -9.6445    5.8999 H   0  0  0  0  0  0  0  0  0  0  0  0
   -0.2267   -9.6971    4.7540 H   0  0  0  0  0  0  0  0  0  0  0  0
   -1.2324   -8.2478    4.7079 H   0  0  0  0  0  0  0  0  0  0  0  0
   -0.9793   -9.1109    6.2142 H   0  0  0  0  0  0  0  0  0  0  0  0
   -0.1603   -6.9944    7.3266 H   0  0  0  0  0  0  0  0  0  0  0  0
   -0.4009   -6.0807    5.8400 H   0  0  0  0  0  0  0  0  0  0  0  0
    1.1680   -6.0609    6.6504 H   0  0  0  0  0  0  0  0  0  0  0  0
  1  2  1  0
  1 28  1  0
  1 29  1  0
  1 30  1  0
  2  3  1  0
  2 31  1  0
  3  4  2  0
  3  5  1  0
  5  6  1  0
  6  7  2  3
  7  8  1  0
  7 16  1  0
  8  9  1  0
  8 32  1  0
  8 33  1  0
  9 14  1  0
  9 10  1  0
  9 34  1  6
 10 11  1  0
 10 35  1  0
 10 36  1  0
 11 12  1  0
 11 37  1  0
 11 38  1  0
 12 13  1  0
 12 39  1  0
 12 40  1  0
 13 14  1  0
 13 41  1  0
 13 42  1  0
 14 15  2  0
 16 17  1  0
 16 18  1  0
 16 43  1  6
 17 44  1  0
 18 19  1  0
 18 20  1  0
 18 45  1  1
 19 46  1  0
 20 21  1  0
 20 22  1  0
 20 47  1  6
 21 48  1  0
 22 23  2  3
 22 49  1  0
 23 24  1  0
 23 50  1  0
 24 25  1  0
 24 26  1  0
 24 27  1  0
 25 51  1  0
 25 52  1  0
 25 53  1  0
 26 54  1  0
 26 55  1  0
 26 56  1  0
 27 57  1  0
 27 58  1  0
 27 59  1  0
M  END
>  <i_m_ct_stereo_status>  (302) 
1

>  <s_m_source_file>  (302) 
/var/tmp/pbs.5102264.sched01/tmp5h8_9bj8/92lofvt80g.sdf

>  <i_m_source_file_index>  (302) 
18

>  <i_lp_mmshare_version>  (302) 
48012

>  <i_f3d_flags>  (302) 
0

>  <s_epik_input>  (302) 
W0NIM11DKFtDSDNdKShbQ0gzXSlcW0NIXT1bQ0hdXFtDQEBIXShbT0hdKVtDQEBIXShbT0hdKVtDQEBIXShbT0hdKUMoPU5cT0MoPU8pW05IXVtDSDNdKVxbQ0gyXVtDQEBIXTFbQ0gyXVtDSDJdW0NIMl1bQ0gyXUMxPU8=

>  <s_epik_cmdline>  (302) 
J2VwaWtfcHl0aG9uJywgJy1waHQnLCAnMi4wJywgJy1waCcsICc3LjAnLCAnLXRuJywgJzgnLCAnLW1hJywgJzIwMCcsICctaW1hZScsICc8aW5maWxlLm1hZT4nLCAnLW9tYWUnLCAnPG91dGZpbGUubWFlPic=

>  <r_lp_tautomer_probability>  (302) 
1

>  <r_epik_Ionization_Penalty>  (302) 
6.46737e-06

>  <r_epik_Ionization_Penalty_Charging>  (302) 
0

>  <r_epik_Ionization_Penalty_Neutral>  (302) 
6.46737e-06

>  <r_epik_State_Penalty>  (302) 
-0

>  <r_epik_Charging_Adjusted_Penalty>  (302) 
0

>  <i_epik_Tot_Q>  (302) 
0

>  <i_epik_Tot_abs_Q>  (302) 
0

>  <s_epik_Chemistry_Notes>  (302) 
This compound has an imine and may undergo hydrolysis.

>  <s_lp_Force_Field>  (302) 
OPLS3e

>  <r_lp_Energy>  (302) 
23.9356

>  <b_lp_Chiralities_Consistent>  (302) 
1

>  <s_lp_Variant>  (302) 
66:0-2

>  <s_i_glide_gridfile>  (302) 
pfpi4k_grid

>  <i_i_glide_lignum>  (302) 
18

>  <i_i_glide_rotatable_bonds>  (302) 
13

>  <r_i_docking_score>  (302) 
-2.66087

>  <r_i_glide_ligand_efficiency>  (302) 
-0.0985509

>  <r_i_glide_ligand_efficiency_sa>  (302) 
-0.295653

>  <r_i_glide_ligand_efficiency_ln>  (302) 
-0.619408

>  <r_i_glide_gscore>  (302) 
-2.66087

>  <r_i_glide_lipo>  (302) 
-0.559377

>  <r_i_glide_hbond>  (302) 
-0.32

>  <r_i_glide_metal>  (302) 
-0

>  <r_i_glide_rewards>  (302) 
-0.873437

>  <r_i_glide_evdw>  (302) 
-23.7498

>  <r_i_glide_ecoul>  (302) 
-4.99873

>  <r_i_glide_erotb>  (302) 
1.05228

>  <r_i_glide_esite>  (302) 
-0.0230427

>  <r_i_glide_emodel>  (302) 
-31.1265

>  <r_i_glide_energy>  (302) 
-28.7485

>  <r_i_glide_einternal>  (302) 
7.11421

>  <r_i_glide_intrahb_reward>  (302) 
-0

>  <i_i_glide_confnum>  (302) 
8

>  <i_i_glide_posenum>  (302) 
36

>  <r_i_glide_eff_state_penalty>  (302) 
0

>  <ligand_id>  (302) 
66

>  <original_smiles>  (302) 
CNC(=O)ON=C(CC1CCCCC1=O)C(O)C(O)C(O)C=CC(C)(C)C

>  <smiles>  (302) 
[H]OC([H])(C(=NOC(=O)N([H])C([H])([H])[H])C([H])([H])C1([H])C(=O)C([H])([H])C([H])([H])C([H])([H])C1([H])[H])C([H])(O[H])C([H])(O[H])C([H])=C([H])C(C([H])([H])[H])(C([H])([H])[H])C([H])([H])[H]

$$$$
66:2:0
     RDKit          3D

 59 59  0  0  1  0  0  0  0  0999 V2000
    3.5807   -1.0707   -3.7999 C   0  0  0  0  0  0  0  0  0  0  0  0
    3.5235   -1.5354   -2.4274 N   0  0  0  0  0  0  0  0  0  0  0  0
    2.8949   -2.6996   -2.0695 C   0  0  0  0  0  0  0  0  0  0  0  0
    2.2639   -3.4525   -2.8330 O   0  0  0  0  0  0  0  0  0  0  0  0
    3.1007   -2.8819   -0.7529 O   0  0  0  0  0  0  0  0  0  0  0  0
    2.7710   -4.1803   -0.3179 N   0  0  0  0  0  0  0  0  0  0  0  0
    3.6232   -4.6589    0.5173 C   0  0  0  0  0  0  0  0  0  0  0  0
    4.8856   -3.9094    1.0580 C   0  0  0  0  0  0  0  0  0  0  0  0
    6.2370   -4.5761    0.7058 C   0  0  2  0  0  0  0  0  0  0  0  0
    6.5775   -5.7321    1.6979 C   0  0  0  0  0  0  0  0  0  0  0  0
    7.9611   -6.3579    1.4321 C   0  0  0  0  0  0  0  0  0  0  0  0
    9.0500   -5.3098    1.4899 C   0  0  0  0  0  0  0  0  0  0  0  0
    8.8091   -4.1791    0.4642 C   0  0  0  0  0  0  0  0  0  0  0  0
    7.4048   -3.5818    0.5865 C   0  0  0  0  0  0  0  0  0  0  0  0
    7.2550   -2.3674    0.5174 O   0  0  0  0  0  0  0  0  0  0  0  0
    3.4894   -6.0894    1.0440 C   0  0  2  0  0  0  0  0  0  0  0  0
    4.2335   -6.9494    0.2164 O   0  0  0  0  0  0  0  0  0  0  0  0
    2.0327   -6.6155    1.2614 C   0  0  2  0  0  0  0  0  0  0  0  0
    1.3203   -5.6989    2.0825 O   0  0  0  0  0  0  0  0  0  0  0  0
    2.0123   -7.9885    2.0336 C   0  0  2  0  0  0  0  0  0  0  0  0
    2.5414   -9.0525    1.2302 O   0  0  0  0  0  0  0  0  0  0  0  0
    0.5983   -8.3918    2.4681 C   0  0  0  0  0  0  0  0  0  0  0  0
   -0.0124   -8.3117    3.6540 C   0  0  0  0  0  0  0  0  0  0  0  0
    0.4375   -7.7739    5.0056 C   0  0  0  0  0  0  0  0  0  0  0  0
   -0.3515   -6.4831    5.2914 C   0  0  0  0  0  0  0  0  0  0  0  0
    1.9341   -7.4447    5.0970 C   0  0  0  0  0  0  0  0  0  0  0  0
    0.1075   -8.8223    6.0858 C   0  0  0  0  0  0  0  0  0  0  0  0
    4.1382   -0.1358   -3.8736 H   0  0  0  0  0  0  0  0  0  0  0  0
    2.5756   -0.9054   -4.1959 H   0  0  0  0  0  0  0  0  0  0  0  0
    4.0700   -1.8197   -4.4270 H   0  0  0  0  0  0  0  0  0  0  0  0
    3.9509   -1.0002   -1.6783 H   0  0  0  0  0  0  0  0  0  0  0  0
    4.8753   -2.8845    0.7134 H   0  0  0  0  0  0  0  0  0  0  0  0
    4.7645   -3.8158    2.1377 H   0  0  0  0  0  0  0  0  0  0  0  0
    6.1506   -5.0129   -0.2848 H   0  0  0  0  0  0  0  0  0  0  0  0
    6.5920   -5.3352    2.7243 H   0  0  0  0  0  0  0  0  0  0  0  0
    5.8503   -6.5615    1.6767 H   0  0  0  0  0  0  0  0  0  0  0  0
    8.1582   -7.1256    2.1749 H   0  0  0  0  0  0  0  0  0  0  0  0
    7.9636   -6.8495    0.4627 H   0  0  0  0  0  0  0  0  0  0  0  0
    9.0822   -4.8836    2.4891 H   0  0  0  0  0  0  0  0  0  0  0  0
    9.9987   -5.8039    1.3246 H   0  0  0  0  0  0  0  0  0  0  0  0
    9.5387   -3.3639    0.6204 H   0  0  0  0  0  0  0  0  0  0  0  0
    8.9441   -4.5443   -0.5653 H   0  0  0  0  0  0  0  0  0  0  0  0
    4.0195   -6.1293    1.9866 H   0  0  0  0  0  0  0  0  0  0  0  0
    4.2395   -7.8041    0.6268 H   0  0  0  0  0  0  0  0  0  0  0  0
    1.4823   -6.6532    0.3083 H   0  0  0  0  0  0  0  0  0  0  0  0
    1.7988   -5.6003    2.8933 H   0  0  0  0  0  0  0  0  0  0  0  0
    2.6770   -7.9099    2.8884 H   0  0  0  0  0  0  0  0  0  0  0  0
    1.8374   -9.5365    0.8002 H   0  0  0  0  0  0  0  0  0  0  0  0
   -0.0319   -8.7878    1.6855 H   0  0  0  0  0  0  0  0  0  0  0  0
   -1.0177   -8.6718    3.6696 H   0  0  0  0  0  0  0  0  0  0  0  0
   -0.0730   -6.0790    6.2639 H   0  0  0  0  0  0  0  0  0  0  0  0
   -1.4298   -6.6582    5.2784 H   0  0  0  0  0  0  0  0  0  0  0  0
   -0.1416   -5.7226    4.5391 H   0  0  0  0  0  0  0  0  0  0  0  0
    2.2457   -6.7670    4.3029 H   0  0  0  0  0  0  0  0  0  0  0  0
    2.5189   -8.3471    4.9666 H   0  0  0  0  0  0  0  0  0  0  0  0
    2.1898   -7.0357    6.0797 H   0  0  0  0  0  0  0  0  0  0  0  0
    0.3734   -8.4544    7.0742 H   0  0  0  0  0  0  0  0  0  0  0  0
    0.6552   -9.7452    5.9130 H   0  0  0  0  0  0  0  0  0  0  0  0
   -0.9527   -9.0703    6.0950 H   0  0  0  0  0  0  0  0  0  0  0  0
  1  2  1  0
  1 28  1  0
  1 29  1  0
  1 30  1  0
  2  3  1  0
  2 31  1  0
  3  4  2  0
  3  5  1  0
  5  6  1  0
  6  7  2  3
  7  8  1  0
  7 16  1  0
  8  9  1  0
  8 32  1  0
  8 33  1  0
  9 14  1  0
  9 10  1  0
  9 34  1  6
 10 11  1  0
 10 35  1  0
 10 36  1  0
 11 12  1  0
 11 37  1  0
 11 38  1  0
 12 13  1  0
 12 39  1  0
 12 40  1  0
 13 14  1  0
 13 41  1  0
 13 42  1  0
 14 15  2  0
 16 17  1  0
 16 18  1  0
 16 43  1  1
 17 44  1  0
 18 19  1  0
 18 20  1  0
 18 45  1  6
 19 46  1  0
 20 21  1  0
 20 22  1  0
 20 47  1  1
 21 48  1  0
 22 23  2  3
 22 49  1  0
 23 24  1  0
 23 50  1  0
 24 25  1  0
 24 26  1  0
 24 27  1  0
 25 51  1  0
 25 52  1  0
 25 53  1  0
 26 54  1  0
 26 55  1  0
 26 56  1  0
 27 57  1  0
 27 58  1  0
 27 59  1  0
M  END
>  <i_m_ct_stereo_status>  (303) 
1

>  <s_m_source_file>  (303) 
/var/tmp/pbs.5102264.sched01/tmp5h8_9bj8/92lofvt80g.sdf

>  <i_m_source_file_index>  (303) 
19

>  <i_lp_mmshare_version>  (303) 
48012

>  <i_f3d_flags>  (303) 
0

>  <s_epik_input>  (303) 
W0NIM11DKFtDSDNdKShbQ0gzXSlcW0NIXT1bQ0hdXFtDQEBIXShbT0hdKVtDQEBIXShbT0hdKVtDQEBIXShbT0hdKUMoPU5cT0MoPU8pW05IXVtDSDNdKVxbQ0gyXVtDQEBIXTFbQ0gyXVtDSDJdW0NIMl1bQ0gyXUMxPU8=

>  <s_epik_cmdline>  (303) 
J2VwaWtfcHl0aG9uJywgJy1waHQnLCAnMi4wJywgJy1waCcsICc3LjAnLCAnLXRuJywgJzgnLCAnLW1hJywgJzIwMCcsICctaW1hZScsICc8aW5maWxlLm1hZT4nLCAnLW9tYWUnLCAnPG91dGZpbGUubWFlPic=

>  <r_lp_tautomer_probability>  (303) 
1

>  <r_epik_Ionization_Penalty>  (303) 
6.46737e-06

>  <r_epik_Ionization_Penalty_Charging>  (303) 
0

>  <r_epik_Ionization_Penalty_Neutral>  (303) 
6.46737e-06

>  <r_epik_State_Penalty>  (303) 
-0

>  <r_epik_Charging_Adjusted_Penalty>  (303) 
0

>  <i_epik_Tot_Q>  (303) 
0

>  <i_epik_Tot_abs_Q>  (303) 
0

>  <s_epik_Chemistry_Notes>  (303) 
This compound has an imine and may undergo hydrolysis.

>  <s_lp_Force_Field>  (303) 
OPLS3e

>  <r_lp_Energy>  (303) 
29.2413

>  <b_lp_Chiralities_Consistent>  (303) 
1

>  <s_lp_Variant>  (303) 
66:0-3

>  <s_i_glide_gridfile>  (303) 
pfpi4k_grid

>  <i_i_glide_lignum>  (303) 
19

>  <i_i_glide_rotatable_bonds>  (303) 
13

>  <r_i_docking_score>  (303) 
-2.53569

>  <r_i_glide_ligand_efficiency>  (303) 
-0.0939146

>  <r_i_glide_ligand_efficiency_sa>  (303) 
-0.281744

>  <r_i_glide_ligand_efficiency_ln>  (303) 
-0.590268

>  <r_i_glide_gscore>  (303) 
-2.53569

>  <r_i_glide_lipo>  (303) 
-0.428433

>  <r_i_glide_hbond>  (303) 
-0.0562996

>  <r_i_glide_metal>  (303) 
-0

>  <r_i_glide_rewards>  (303) 
-1.48073

>  <r_i_glide_evdw>  (303) 
-30.2434

>  <r_i_glide_ecoul>  (303) 
0.362414

>  <r_i_glide_erotb>  (303) 
1.05228

>  <r_i_glide_esite>  (303) 
-0.164701

>  <r_i_glide_emodel>  (303) 
-35.5384

>  <r_i_glide_energy>  (303) 
-29.881

>  <r_i_glide_einternal>  (303) 
5.95062

>  <r_i_glide_intrahb_reward>  (303) 
-0.5

>  <i_i_glide_confnum>  (303) 
5

>  <i_i_glide_posenum>  (303) 
39

>  <r_i_glide_eff_state_penalty>  (303) 
0

>  <ligand_id>  (303) 
66

>  <original_smiles>  (303) 
CNC(=O)ON=C(CC1CCCCC1=O)C(O)C(O)C(O)C=CC(C)(C)C

>  <smiles>  (303) 
[H]OC([H])(C(=NOC(=O)N([H])C([H])([H])[H])C([H])([H])C1([H])C(=O)C([H])([H])C([H])([H])C([H])([H])C1([H])[H])C([H])(O[H])C([H])(O[H])C([H])=C([H])C(C([H])([H])[H])(C([H])([H])[H])C([H])([H])[H]

$$$$
66:2:1
     RDKit          3D

 59 59  0  0  1  0  0  0  0  0999 V2000
    1.9246    1.4376    3.5634 C   0  0  0  0  0  0  0  0  0  0  0  0
    2.5103    0.4127    2.7140 N   0  0  0  0  0  0  0  0  0  0  0  0
    2.1826   -0.9319    2.8199 C   0  0  0  0  0  0  0  0  0  0  0  0
    1.3459   -1.4151    3.5851 O   0  0  0  0  0  0  0  0  0  0  0  0
    2.9590   -1.6123    1.9448 O   0  0  0  0  0  0  0  0  0  0  0  0
    2.7362   -3.0079    2.0044 N   0  0  0  0  0  0  0  0  0  0  0  0
    3.4242   -3.6652    1.1486 C   0  0  0  0  0  0  0  0  0  0  0  0
    4.3897   -3.0215    0.1508 C   0  0  0  0  0  0  0  0  0  0  0  0
    3.6662   -2.3838   -1.0547 C   0  0  2  0  0  0  0  0  0  0  0  0
    3.1015   -3.4478   -2.0298 C   0  0  0  0  0  0  0  0  0  0  0  0
    2.4899   -2.8495   -3.2970 C   0  0  0  0  0  0  0  0  0  0  0  0
    3.4983   -1.9661   -4.0248 C   0  0  0  0  0  0  0  0  0  0  0  0
    4.0305   -0.8492   -3.1169 C   0  0  0  0  0  0  0  0  0  0  0  0
    4.5702   -1.4055   -1.8065 C   0  0  0  0  0  0  0  0  0  0  0  0
    5.6774   -1.0579   -1.3808 O   0  0  0  0  0  0  0  0  0  0  0  0
    3.2931   -5.1879    1.0170 C   0  0  2  0  0  0  0  0  0  0  0  0
    2.1160   -5.4811    0.2938 O   0  0  0  0  0  0  0  0  0  0  0  0
    3.3022   -5.9691    2.3619 C   0  0  2  0  0  0  0  0  0  0  0  0
    4.4885   -5.6581    3.0712 O   0  0  0  0  0  0  0  0  0  0  0  0
    3.2433   -7.5252    2.2325 C   0  0  2  0  0  0  0  0  0  0  0  0
    4.1129   -7.9811    1.2086 O   0  0  0  0  0  0  0  0  0  0  0  0
    1.8460   -8.0541    1.9045 C   0  0  0  0  0  0  0  0  0  0  0  0
    0.9766   -8.7398    2.6738 C   0  0  0  0  0  0  0  0  0  0  0  0
    1.0300   -9.2160    4.1192 C   0  0  0  0  0  0  0  0  0  0  0  0
   -0.1977   -8.6713    4.8715 C   0  0  0  0  0  0  0  0  0  0  0  0
    2.2716   -8.7634    4.9003 C   0  0  0  0  0  0  0  0  0  0  0  0
    0.9731  -10.7552    4.1457 C   0  0  0  0  0  0  0  0  0  0  0  0
    2.3184    2.4210    3.3009 H   0  0  0  0  0  0  0  0  0  0  0  0
    2.1589    1.2547    4.6136 H   0  0  0  0  0  0  0  0  0  0  0  0
    0.8391    1.4709    3.4555 H   0  0  0  0  0  0  0  0  0  0  0  0
    3.2015    0.6659    2.0232 H   0  0  0  0  0  0  0  0  0  0  0  0
    5.0089   -2.3179    0.7086 H   0  0  0  0  0  0  0  0  0  0  0  0
    5.0927   -3.7684   -0.2106 H   0  0  0  0  0  0  0  0  0  0  0  0
    2.8285   -1.7942   -0.6760 H   0  0  0  0  0  0  0  0  0  0  0  0
    3.8951   -4.1461   -2.2976 H   0  0  0  0  0  0  0  0  0  0  0  0
    2.2875   -4.0002   -1.5666 H   0  0  0  0  0  0  0  0  0  0  0  0
    2.1464   -3.6501   -3.9510 H   0  0  0  0  0  0  0  0  0  0  0  0
    1.6091   -2.2666   -3.0255 H   0  0  0  0  0  0  0  0  0  0  0  0
    4.3239   -2.5869   -4.3678 H   0  0  0  0  0  0  0  0  0  0  0  0
    3.0355   -1.5137   -4.8978 H   0  0  0  0  0  0  0  0  0  0  0  0
    4.8312   -0.3230   -3.6280 H   0  0  0  0  0  0  0  0  0  0  0  0
    3.2419   -0.1203   -2.9075 H   0  0  0  0  0  0  0  0  0  0  0  0
    4.1350   -5.5484    0.4258 H   0  0  0  0  0  0  0  0  0  0  0  0
    2.3523   -5.4871   -0.6251 H   0  0  0  0  0  0  0  0  0  0  0  0
    2.4678   -5.6324    2.9643 H   0  0  0  0  0  0  0  0  0  0  0  0
    5.2051   -6.0722    2.6202 H   0  0  0  0  0  0  0  0  0  0  0  0
    3.6407   -7.9704    3.1207 H   0  0  0  0  0  0  0  0  0  0  0  0
    4.1019   -8.9282    1.2261 H   0  0  0  0  0  0  0  0  0  0  0  0
    1.4824   -7.8434    0.9097 H   0  0  0  0  0  0  0  0  0  0  0  0
    0.0545   -8.9981    2.1888 H   0  0  0  0  0  0  0  0  0  0  0  0
   -0.1970   -9.0088    5.9084 H   0  0  0  0  0  0  0  0  0  0  0  0
   -1.1334   -9.0160    4.4258 H   0  0  0  0  0  0  0  0  0  0  0  0
   -0.2092   -7.5815    4.8786 H   0  0  0  0  0  0  0  0  0  0  0  0
    2.4019   -7.6857    4.8291 H   0  0  0  0  0  0  0  0  0  0  0  0
    3.1621   -9.2401    4.4962 H   0  0  0  0  0  0  0  0  0  0  0  0
    2.1917   -9.0076    5.9574 H   0  0  0  0  0  0  0  0  0  0  0  0
    0.9656  -11.1324    5.1691 H   0  0  0  0  0  0  0  0  0  0  0  0
    1.8311  -11.1937    3.6389 H   0  0  0  0  0  0  0  0  0  0  0  0
    0.0738  -11.1330    3.6585 H   0  0  0  0  0  0  0  0  0  0  0  0
  1  2  1  0
  1 28  1  0
  1 29  1  0
  1 30  1  0
  2  3  1  0
  2 31  1  0
  3  4  2  0
  3  5  1  0
  5  6  1  0
  6  7  2  3
  7  8  1  0
  7 16  1  0
  8  9  1  0
  8 32  1  0
  8 33  1  0
  9 14  1  0
  9 10  1  0
  9 34  1  1
 10 11  1  0
 10 35  1  0
 10 36  1  0
 11 12  1  0
 11 37  1  0
 11 38  1  0
 12 13  1  0
 12 39  1  0
 12 40  1  0
 13 14  1  0
 13 41  1  0
 13 42  1  0
 14 15  2  0
 16 17  1  0
 16 18  1  0
 16 43  1  6
 17 44  1  0
 18 19  1  0
 18 20  1  0
 18 45  1  1
 19 46  1  0
 20 21  1  0
 20 22  1  0
 20 47  1  1
 21 48  1  0
 22 23  2  3
 22 49  1  0
 23 24  1  0
 23 50  1  0
 24 25  1  0
 24 26  1  0
 24 27  1  0
 25 51  1  0
 25 52  1  0
 25 53  1  0
 26 54  1  0
 26 55  1  0
 26 56  1  0
 27 57  1  0
 27 58  1  0
 27 59  1  0
M  END
>  <i_m_ct_stereo_status>  (304) 
1

>  <s_m_source_file>  (304) 
/var/tmp/pbs.5102264.sched01/tmp5h8_9bj8/92lofvt80g.sdf

>  <i_m_source_file_index>  (304) 
19

>  <i_lp_mmshare_version>  (304) 
48012

>  <i_f3d_flags>  (304) 
0

>  <s_epik_input>  (304) 
W0NIM11DKFtDSDNdKShbQ0gzXSlcW0NIXT1bQ0hdXFtDQEBIXShbT0hdKVtDQEBIXShbT0hdKVtDQEBIXShbT0hdKUMoPU5cT0MoPU8pW05IXVtDSDNdKVxbQ0gyXVtDQEBIXTFbQ0gyXVtDSDJdW0NIMl1bQ0gyXUMxPU8=

>  <s_epik_cmdline>  (304) 
J2VwaWtfcHl0aG9uJywgJy1waHQnLCAnMi4wJywgJy1waCcsICc3LjAnLCAnLXRuJywgJzgnLCAnLW1hJywgJzIwMCcsICctaW1hZScsICc8aW5maWxlLm1hZT4nLCAnLW9tYWUnLCAnPG91dGZpbGUubWFlPic=

>  <r_lp_tautomer_probability>  (304) 
1

>  <r_epik_Ionization_Penalty>  (304) 
6.46737e-06

>  <r_epik_Ionization_Penalty_Charging>  (304) 
0

>  <r_epik_Ionization_Penalty_Neutral>  (304) 
6.46737e-06

>  <r_epik_State_Penalty>  (304) 
-0

>  <r_epik_Charging_Adjusted_Penalty>  (304) 
0

>  <i_epik_Tot_Q>  (304) 
0

>  <i_epik_Tot_abs_Q>  (304) 
0

>  <s_epik_Chemistry_Notes>  (304) 
This compound has an imine and may undergo hydrolysis.

>  <s_lp_Force_Field>  (304) 
OPLS3e

>  <r_lp_Energy>  (304) 
29.2413

>  <b_lp_Chiralities_Consistent>  (304) 
1

>  <s_lp_Variant>  (304) 
66:0-3

>  <s_i_glide_gridfile>  (304) 
pfpi4k_grid

>  <i_i_glide_lignum>  (304) 
19

>  <i_i_glide_rotatable_bonds>  (304) 
13

>  <r_i_docking_score>  (304) 
-2.41542

>  <r_i_glide_ligand_efficiency>  (304) 
-0.08946

>  <r_i_glide_ligand_efficiency_sa>  (304) 
-0.26838

>  <r_i_glide_ligand_efficiency_ln>  (304) 
-0.56227

>  <r_i_glide_gscore>  (304) 
-2.41542

>  <r_i_glide_lipo>  (304) 
-0.36892

>  <r_i_glide_hbond>  (304) 
-0.0480287

>  <r_i_glide_metal>  (304) 
-0

>  <r_i_glide_rewards>  (304) 
-0.787724

>  <r_i_glide_evdw>  (304) 
-27.8246

>  <r_i_glide_ecoul>  (304) 
-5.21902

>  <r_i_glide_erotb>  (304) 
1.05228

>  <r_i_glide_esite>  (304) 
-0.0889451

>  <r_i_glide_emodel>  (304) 
-35.3666

>  <r_i_glide_energy>  (304) 
-33.0437

>  <r_i_glide_einternal>  (304) 
6.02628

>  <r_i_glide_intrahb_reward>  (304) 
-0

>  <i_i_glide_confnum>  (304) 
6

>  <i_i_glide_posenum>  (304) 
3

>  <r_i_glide_eff_state_penalty>  (304) 
0

>  <ligand_id>  (304) 
66

>  <original_smiles>  (304) 
CNC(=O)ON=C(CC1CCCCC1=O)C(O)C(O)C(O)C=CC(C)(C)C

>  <smiles>  (304) 
[H]OC([H])(C(=NOC(=O)N([H])C([H])([H])[H])C([H])([H])C1([H])C(=O)C([H])([H])C([H])([H])C([H])([H])C1([H])[H])C([H])(O[H])C([H])(O[H])C([H])=C([H])C(C([H])([H])[H])(C([H])([H])[H])C([H])([H])[H]

$$$$
66:2:2
     RDKit          3D

 59 59  0  0  1  0  0  0  0  0999 V2000
    3.4633   -2.0983   -1.9165 C   0  0  0  0  0  0  0  0  0  0  0  0
    3.8988   -3.0492   -0.9087 N   0  0  0  0  0  0  0  0  0  0  0  0
    3.0722   -4.0338   -0.3961 C   0  0  0  0  0  0  0  0  0  0  0  0
    1.9195   -4.2589   -0.7337 O   0  0  0  0  0  0  0  0  0  0  0  0
    3.7725   -4.7229    0.5119 O   0  0  0  0  0  0  0  0  0  0  0  0
    3.2415   -5.9853    0.8130 N   0  0  0  0  0  0  0  0  0  0  0  0
    3.8303   -6.5764    1.7797 C   0  0  0  0  0  0  0  0  0  0  0  0
    4.9143   -5.9456    2.6607 C   0  0  0  0  0  0  0  0  0  0  0  0
    6.3644   -6.3441    2.3116 C   0  0  2  0  0  0  0  0  0  0  0  0
    7.2763   -6.2599    3.5645 C   0  0  0  0  0  0  0  0  0  0  0  0
    8.7564   -6.5512    3.2493 C   0  0  0  0  0  0  0  0  0  0  0  0
    9.2791   -5.6432    2.1254 C   0  0  0  0  0  0  0  0  0  0  0  0
    8.4463   -5.8019    0.8347 C   0  0  0  0  0  0  0  0  0  0  0  0
    6.9687   -5.5562    1.1317 C   0  0  0  0  0  0  0  0  0  0  0  0
    6.3271   -4.7249    0.4625 O   0  0  0  0  0  0  0  0  0  0  0  0
    3.4146   -7.9980    2.2152 C   0  0  2  0  0  0  0  0  0  0  0  0
    3.7214   -8.9659    1.2202 O   0  0  0  0  0  0  0  0  0  0  0  0
    1.9203   -8.1209    2.6753 C   0  0  2  0  0  0  0  0  0  0  0  0
    1.5572   -6.9647    3.4245 O   0  0  0  0  0  0  0  0  0  0  0  0
    1.6572   -9.3516    3.6159 C   0  0  2  0  0  0  0  0  0  0  0  0
    1.7390  -10.5500    2.8838 O   0  0  0  0  0  0  0  0  0  0  0  0
    0.2645   -9.3105    4.2450 C   0  0  0  0  0  0  0  0  0  0  0  0
   -0.1179   -8.9470    5.4858 C   0  0  0  0  0  0  0  0  0  0  0  0
    0.6684   -8.4546    6.7174 C   0  0  0  0  0  0  0  0  0  0  0  0
    0.0921   -9.1274    7.9789 C   0  0  0  0  0  0  0  0  0  0  0  0
    0.5055   -6.9276    6.8801 C   0  0  0  0  0  0  0  0  0  0  0  0
    2.1662   -8.7712    6.6776 C   0  0  0  0  0  0  0  0  0  0  0  0
    4.2557   -1.3918   -2.1748 H   0  0  0  0  0  0  0  0  0  0  0  0
    2.6188   -1.5291   -1.5345 H   0  0  0  0  0  0  0  0  0  0  0  0
    3.1417   -2.6085   -2.8257 H   0  0  0  0  0  0  0  0  0  0  0  0
    4.8395   -3.0658   -0.5661 H   0  0  0  0  0  0  0  0  0  0  0  0
    4.8157   -4.8609    2.6713 H   0  0  0  0  0  0  0  0  0  0  0  0
    4.6655   -6.2116    3.6795 H   0  0  0  0  0  0  0  0  0  0  0  0
    6.3562   -7.4022    2.0432 H   0  0  0  0  0  0  0  0  0  0  0  0
    7.1758   -5.2752    4.0158 H   0  0  0  0  0  0  0  0  0  0  0  0
    6.9450   -6.9585    4.3377 H   0  0  0  0  0  0  0  0  0  0  0  0
    9.3710   -6.4110    4.1444 H   0  0  0  0  0  0  0  0  0  0  0  0
    8.8771   -7.5932    2.9418 H   0  0  0  0  0  0  0  0  0  0  0  0
    9.2242   -4.6060    2.4552 H   0  0  0  0  0  0  0  0  0  0  0  0
   10.3339   -5.8471    1.9341 H   0  0  0  0  0  0  0  0  0  0  0  0
    8.7675   -5.0402    0.1341 H   0  0  0  0  0  0  0  0  0  0  0  0
    8.6147   -6.7894    0.3723 H   0  0  0  0  0  0  0  0  0  0  0  0
    4.0540   -8.2604    3.0575 H   0  0  0  0  0  0  0  0  0  0  0  0
    3.5919   -9.8386    1.5715 H   0  0  0  0  0  0  0  0  0  0  0  0
    1.2779   -8.1259    1.7845 H   0  0  0  0  0  0  0  0  0  0  0  0
    2.1077   -6.8948    4.1874 H   0  0  0  0  0  0  0  0  0  0  0  0
    2.4417   -9.4063    4.3594 H   0  0  0  0  0  0  0  0  0  0  0  0
    1.6843  -11.2600    3.5066 H   0  0  0  0  0  0  0  0  0  0  0  0
   -0.5531   -9.5962    3.5911 H   0  0  0  0  0  0  0  0  0  0  0  0
   -1.1784   -9.0033    5.6696 H   0  0  0  0  0  0  0  0  0  0  0  0
    0.6362   -8.8143    8.8724 H   0  0  0  0  0  0  0  0  0  0  0  0
    0.1800  -10.2131    7.9145 H   0  0  0  0  0  0  0  0  0  0  0  0
   -0.9602   -8.8853    8.1411 H   0  0  0  0  0  0  0  0  0  0  0  0
   -0.5396   -6.6186    6.9236 H   0  0  0  0  0  0  0  0  0  0  0  0
    0.9709   -6.3966    6.0505 H   0  0  0  0  0  0  0  0  0  0  0  0
    0.9844   -6.5847    7.8018 H   0  0  0  0  0  0  0  0  0  0  0  0
    2.6499   -8.5816    7.6385 H   0  0  0  0  0  0  0  0  0  0  0  0
    2.6553   -8.2293    5.8652 H   0  0  0  0  0  0  0  0  0  0  0  0
    2.3106   -9.8317    6.4804 H   0  0  0  0  0  0  0  0  0  0  0  0
  1  2  1  0
  1 28  1  0
  1 29  1  0
  1 30  1  0
  2  3  1  0
  2 31  1  0
  3  4  2  0
  3  5  1  0
  5  6  1  0
  6  7  2  3
  7  8  1  0
  7 16  1  0
  8  9  1  0
  8 32  1  0
  8 33  1  0
  9 14  1  0
  9 10  1  0
  9 34  1  6
 10 11  1  0
 10 35  1  0
 10 36  1  0
 11 12  1  0
 11 37  1  0
 11 38  1  0
 12 13  1  0
 12 39  1  0
 12 40  1  0
 13 14  1  0
 13 41  1  0
 13 42  1  0
 14 15  2  0
 16 17  1  0
 16 18  1  0
 16 43  1  1
 17 44  1  0
 18 19  1  0
 18 20  1  0
 18 45  1  6
 19 46  1  0
 20 21  1  0
 20 22  1  0
 20 47  1  1
 21 48  1  0
 22 23  2  3
 22 49  1  0
 23 24  1  0
 23 50  1  0
 24 25  1  0
 24 26  1  0
 24 27  1  0
 25 51  1  0
 25 52  1  0
 25 53  1  0
 26 54  1  0
 26 55  1  0
 26 56  1  0
 27 57  1  0
 27 58  1  0
 27 59  1  0
M  END
>  <i_m_ct_stereo_status>  (305) 
1

>  <s_m_source_file>  (305) 
/var/tmp/pbs.5102264.sched01/tmp5h8_9bj8/92lofvt80g.sdf

>  <i_m_source_file_index>  (305) 
19

>  <i_lp_mmshare_version>  (305) 
48012

>  <i_f3d_flags>  (305) 
0

>  <s_epik_input>  (305) 
W0NIM11DKFtDSDNdKShbQ0gzXSlcW0NIXT1bQ0hdXFtDQEBIXShbT0hdKVtDQEBIXShbT0hdKVtDQEBIXShbT0hdKUMoPU5cT0MoPU8pW05IXVtDSDNdKVxbQ0gyXVtDQEBIXTFbQ0gyXVtDSDJdW0NIMl1bQ0gyXUMxPU8=

>  <s_epik_cmdline>  (305) 
J2VwaWtfcHl0aG9uJywgJy1waHQnLCAnMi4wJywgJy1waCcsICc3LjAnLCAnLXRuJywgJzgnLCAnLW1hJywgJzIwMCcsICctaW1hZScsICc8aW5maWxlLm1hZT4nLCAnLW9tYWUnLCAnPG91dGZpbGUubWFlPic=

>  <r_lp_tautomer_probability>  (305) 
1

>  <r_epik_Ionization_Penalty>  (305) 
6.46737e-06

>  <r_epik_Ionization_Penalty_Charging>  (305) 
0

>  <r_epik_Ionization_Penalty_Neutral>  (305) 
6.46737e-06

>  <r_epik_State_Penalty>  (305) 
-0

>  <r_epik_Charging_Adjusted_Penalty>  (305) 
0

>  <i_epik_Tot_Q>  (305) 
0

>  <i_epik_Tot_abs_Q>  (305) 
0

>  <s_epik_Chemistry_Notes>  (305) 
This compound has an imine and may undergo hydrolysis.

>  <s_lp_Force_Field>  (305) 
OPLS3e

>  <r_lp_Energy>  (305) 
29.2413

>  <b_lp_Chiralities_Consistent>  (305) 
1

>  <s_lp_Variant>  (305) 
66:0-3

>  <s_i_glide_gridfile>  (305) 
pfpi4k_grid

>  <i_i_glide_lignum>  (305) 
19

>  <i_i_glide_rotatable_bonds>  (305) 
13

>  <r_i_docking_score>  (305) 
-2.39804

>  <r_i_glide_ligand_efficiency>  (305) 
-0.0888163

>  <r_i_glide_ligand_efficiency_sa>  (305) 
-0.266449

>  <r_i_glide_ligand_efficiency_ln>  (305) 
-0.558224

>  <r_i_glide_gscore>  (305) 
-2.39804

>  <r_i_glide_lipo>  (305) 
-0.0293299

>  <r_i_glide_hbond>  (305) 
0

>  <r_i_glide_metal>  (305) 
-0

>  <r_i_glide_rewards>  (305) 
-1.97022

>  <r_i_glide_evdw>  (305) 
-24.2209

>  <r_i_glide_ecoul>  (305) 
-1.38631

>  <r_i_glide_erotb>  (305) 
1.05228

>  <r_i_glide_esite>  (305) 
-0.0317788

>  <r_i_glide_emodel>  (305) 
-37.5075

>  <r_i_glide_energy>  (305) 
-25.6072

>  <r_i_glide_einternal>  (305) 
6.05359

>  <r_i_glide_intrahb_reward>  (305) 
-1

>  <i_i_glide_confnum>  (305) 
12

>  <i_i_glide_posenum>  (305) 
26

>  <r_i_glide_eff_state_penalty>  (305) 
0

>  <ligand_id>  (305) 
66

>  <original_smiles>  (305) 
CNC(=O)ON=C(CC1CCCCC1=O)C(O)C(O)C(O)C=CC(C)(C)C

>  <smiles>  (305) 
[H]OC([H])(C(=NOC(=O)N([H])C([H])([H])[H])C([H])([H])C1([H])C(=O)C([H])([H])C([H])([H])C([H])([H])C1([H])[H])C([H])(O[H])C([H])(O[H])C([H])=C([H])C(C([H])([H])[H])(C([H])([H])[H])C([H])([H])[H]

$$$$
66:3:0
     RDKit          3D

 59 59  0  0  1  0  0  0  0  0999 V2000
    3.5855   -0.8122   -4.4219 C   0  0  0  0  0  0  0  0  0  0  0  0
    3.5397   -0.6539   -2.9819 N   0  0  0  0  0  0  0  0  0  0  0  0
    4.0949   -1.5593   -2.1001 C   0  0  0  0  0  0  0  0  0  0  0  0
    4.7527   -2.5556   -2.4106 O   0  0  0  0  0  0  0  0  0  0  0  0
    3.7911   -1.1601   -0.8461 O   0  0  0  0  0  0  0  0  0  0  0  0
    4.0845   -2.1479    0.1192 N   0  0  0  0  0  0  0  0  0  0  0  0
    3.8472   -1.7998    1.3282 C   0  0  0  0  0  0  0  0  0  0  0  0
    4.0376   -2.7580    2.5024 C   0  0  0  0  0  0  0  0  0  0  0  0
    4.3509   -4.2178    2.1333 C   0  0  2  0  0  0  0  0  0  0  0  0
    3.1107   -4.9243    1.5277 C   0  0  0  0  0  0  0  0  0  0  0  0
    3.3401   -6.4221    1.2844 C   0  0  0  0  0  0  0  0  0  0  0  0
    3.7580   -7.1274    2.5833 C   0  0  0  0  0  0  0  0  0  0  0  0
    5.0164   -6.4979    3.2048 C   0  0  0  0  0  0  0  0  0  0  0  0
    4.8732   -4.9919    3.3543 C   0  0  0  0  0  0  0  0  0  0  0  0
    5.2028   -4.4405    4.4066 O   0  0  0  0  0  0  0  0  0  0  0  0
    3.3806   -0.4142    1.7866 C   0  0  2  0  0  0  0  0  0  0  0  0
    4.3063    0.1697    2.6928 O   0  0  0  0  0  0  0  0  0  0  0  0
    1.9806   -0.3911    2.4478 C   0  0  2  0  0  0  0  0  0  0  0  0
    1.0639   -1.1587    1.6826 O   0  0  0  0  0  0  0  0  0  0  0  0
    1.3391    1.0216    2.6298 C   0  0  2  0  0  0  0  0  0  0  0  0
    1.8226    1.9798    1.6830 O   0  0  0  0  0  0  0  0  0  0  0  0
    1.6485    1.6408    4.0134 C   0  0  0  0  0  0  0  0  0  0  0  0
    0.7940    2.0701    4.9809 C   0  0  0  0  0  0  0  0  0  0  0  0
   -0.7498    2.0785    5.0565 C   0  0  0  0  0  0  0  0  0  0  0  0
   -1.4340    1.7423    3.7199 C   0  0  0  0  0  0  0  0  0  0  0  0
   -1.2687    3.4704    5.4778 C   0  0  0  0  0  0  0  0  0  0  0  0
   -1.2131    1.0149    6.0670 C   0  0  0  0  0  0  0  0  0  0  0  0
    3.0403   -0.0021   -4.9116 H   0  0  0  0  0  0  0  0  0  0  0  0
    3.1263   -1.7608   -4.7101 H   0  0  0  0  0  0  0  0  0  0  0  0
    4.6217   -0.7978   -4.7643 H   0  0  0  0  0  0  0  0  0  0  0  0
    3.0026    0.1025   -2.5769 H   0  0  0  0  0  0  0  0  0  0  0  0
    4.8355   -2.3294    3.1074 H   0  0  0  0  0  0  0  0  0  0  0  0
    3.1439   -2.7557    3.1331 H   0  0  0  0  0  0  0  0  0  0  0  0
    5.1541   -4.2260    1.3952 H   0  0  0  0  0  0  0  0  0  0  0  0
    2.2530   -4.7925    2.1884 H   0  0  0  0  0  0  0  0  0  0  0  0
    2.8252   -4.4677    0.5793 H   0  0  0  0  0  0  0  0  0  0  0  0
    2.4284   -6.8754    0.8918 H   0  0  0  0  0  0  0  0  0  0  0  0
    4.1086   -6.5573    0.5209 H   0  0  0  0  0  0  0  0  0  0  0  0
    2.9381   -7.0872    3.3026 H   0  0  0  0  0  0  0  0  0  0  0  0
    3.9419   -8.1835    2.3857 H   0  0  0  0  0  0  0  0  0  0  0  0
    5.2112   -6.9306    4.1856 H   0  0  0  0  0  0  0  0  0  0  0  0
    5.8905   -6.6986    2.5855 H   0  0  0  0  0  0  0  0  0  0  0  0
    3.3341    0.2360    0.9176 H   0  0  0  0  0  0  0  0  0  0  0  0
    4.1921    1.0944    2.6375 H   0  0  0  0  0  0  0  0  0  0  0  0
    1.9951   -0.9041    3.4253 H   0  0  0  0  0  0  0  0  0  0  0  0
    1.0266   -0.8857    0.7489 H   0  0  0  0  0  0  0  0  0  0  0  0
    0.3264    0.9004    2.3546 H   0  0  0  0  0  0  0  0  0  0  0  0
    1.1260    2.6201    1.6447 H   0  0  0  0  0  0  0  0  0  0  0  0
    2.7125    1.7680    4.2341 H   0  0  0  0  0  0  0  0  0  0  0  0
    1.2653    2.5101    5.8599 H   0  0  0  0  0  0  0  0  0  0  0  0
   -2.5291    1.8600    3.7461 H   0  0  0  0  0  0  0  0  0  0  0  0
   -1.2249    0.7063    3.4771 H   0  0  0  0  0  0  0  0  0  0  0  0
   -1.0533    2.4092    2.9405 H   0  0  0  0  0  0  0  0  0  0  0  0
   -0.9006    4.2514    4.8098 H   0  0  0  0  0  0  0  0  0  0  0  0
   -0.9877    3.7339    6.4984 H   0  0  0  0  0  0  0  0  0  0  0  0
   -2.3590    3.4946    5.4203 H   0  0  0  0  0  0  0  0  0  0  0  0
   -2.3009    0.9452    6.0691 H   0  0  0  0  0  0  0  0  0  0  0  0
   -0.8847    1.2330    7.0823 H   0  0  0  0  0  0  0  0  0  0  0  0
   -0.8298    0.0305    5.7941 H   0  0  0  0  0  0  0  0  0  0  0  0
  1  2  1  0
  1 28  1  0
  1 29  1  0
  1 30  1  0
  2  3  1  0
  2 31  1  0
  3  4  2  0
  3  5  1  0
  5  6  1  0
  6  7  2  3
  7  8  1  0
  7 16  1  0
  8  9  1  0
  8 32  1  0
  8 33  1  0
  9 14  1  0
  9 10  1  0
  9 34  1  6
 10 11  1  0
 10 35  1  0
 10 36  1  0
 11 12  1  0
 11 37  1  0
 11 38  1  0
 12 13  1  0
 12 39  1  0
 12 40  1  0
 13 14  1  0
 13 41  1  0
 13 42  1  0
 14 15  2  0
 16 17  1  0
 16 18  1  0
 16 43  1  6
 17 44  1  0
 18 19  1  0
 18 20  1  0
 18 45  1  1
 19 46  1  0
 20 21  1  0
 20 22  1  0
 20 47  1  6
 21 48  1  0
 22 23  2  3
 22 49  1  0
 23 24  1  0
 23 50  1  0
 24 25  1  0
 24 26  1  0
 24 27  1  0
 25 51  1  0
 25 52  1  0
 25 53  1  0
 26 54  1  0
 26 55  1  0
 26 56  1  0
 27 57  1  0
 27 58  1  0
 27 59  1  0
M  END
>  <i_m_ct_stereo_status>  (306) 
1

>  <s_m_source_file>  (306) 
/var/tmp/pbs.5102264.sched01/tmp5h8_9bj8/92lofvt80g.sdf

>  <i_m_source_file_index>  (306) 
20

>  <i_lp_mmshare_version>  (306) 
48012

>  <i_f3d_flags>  (306) 
0

>  <s_epik_input>  (306) 
W0NIM11DKFtDSDNdKShbQ0gzXSlcW0NIXT1bQ0hdXFtDQEBIXShbT0hdKVtDQEBIXShbT0hdKVtDQEBIXShbT0hdKUMoPU5cT0MoPU8pW05IXVtDSDNdKVxbQ0gyXVtDQEBIXTFbQ0gyXVtDSDJdW0NIMl1bQ0gyXUMxPU8=

>  <s_epik_cmdline>  (306) 
J2VwaWtfcHl0aG9uJywgJy1waHQnLCAnMi4wJywgJy1waCcsICc3LjAnLCAnLXRuJywgJzgnLCAnLW1hJywgJzIwMCcsICctaW1hZScsICc8aW5maWxlLm1hZT4nLCAnLW9tYWUnLCAnPG91dGZpbGUubWFlPic=

>  <r_lp_tautomer_probability>  (306) 
1

>  <r_epik_Ionization_Penalty>  (306) 
6.46737e-06

>  <r_epik_Ionization_Penalty_Charging>  (306) 
0

>  <r_epik_Ionization_Penalty_Neutral>  (306) 
6.46737e-06

>  <r_epik_State_Penalty>  (306) 
-0

>  <r_epik_Charging_Adjusted_Penalty>  (306) 
0

>  <i_epik_Tot_Q>  (306) 
0

>  <i_epik_Tot_abs_Q>  (306) 
0

>  <s_epik_Chemistry_Notes>  (306) 
This compound has an imine and may undergo hydrolysis.

>  <s_lp_Force_Field>  (306) 
OPLS3e

>  <r_lp_Energy>  (306) 
24.1861

>  <b_lp_Chiralities_Consistent>  (306) 
1

>  <s_lp_Variant>  (306) 
66:0-4

>  <s_i_glide_gridfile>  (306) 
pfpi4k_grid

>  <i_i_glide_lignum>  (306) 
20

>  <i_i_glide_rotatable_bonds>  (306) 
13

>  <r_i_docking_score>  (306) 
-2.62817

>  <r_i_glide_ligand_efficiency>  (306) 
-0.0973396

>  <r_i_glide_ligand_efficiency_sa>  (306) 
-0.292019

>  <r_i_glide_ligand_efficiency_ln>  (306) 
-0.611795

>  <r_i_glide_gscore>  (306) 
-2.62817

>  <r_i_glide_lipo>  (306) 
-0.18578

>  <r_i_glide_hbond>  (306) 
0

>  <r_i_glide_metal>  (306) 
-0

>  <r_i_glide_rewards>  (306) 
-0.79252

>  <r_i_glide_evdw>  (306) 
-22.4035

>  <r_i_glide_ecoul>  (306) 
-7.5462

>  <r_i_glide_erotb>  (306) 
0.736598

>  <r_i_glide_esite>  (306) 
-0.134364

>  <r_i_glide_emodel>  (306) 
-30.0981

>  <r_i_glide_energy>  (306) 
-29.9497

>  <r_i_glide_einternal>  (306) 
9.39915

>  <r_i_glide_intrahb_reward>  (306) 
-0

>  <i_i_glide_confnum>  (306) 
9

>  <i_i_glide_posenum>  (306) 
24

>  <r_i_glide_eff_state_penalty>  (306) 
0

>  <ligand_id>  (306) 
66

>  <original_smiles>  (306) 
CNC(=O)ON=C(CC1CCCCC1=O)C(O)C(O)C(O)C=CC(C)(C)C

>  <smiles>  (306) 
[H]OC([H])(C(=NOC(=O)N([H])C([H])([H])[H])C([H])([H])C1([H])C(=O)C([H])([H])C([H])([H])C([H])([H])C1([H])[H])C([H])(O[H])C([H])(O[H])C([H])=C([H])C(C([H])([H])[H])(C([H])([H])[H])C([H])([H])[H]

$$$$
66:3:1
     RDKit          3D

 59 59  0  0  1  0  0  0  0  0999 V2000
    4.3766   -2.1230   -1.9264 C   0  0  0  0  0  0  0  0  0  0  0  0
    3.8394   -1.3375   -0.8196 N   0  0  0  0  0  0  0  0  0  0  0  0
    4.5521   -1.0602    0.3211 C   0  0  0  0  0  0  0  0  0  0  0  0
    5.7271   -1.3837    0.5587 O   0  0  0  0  0  0  0  0  0  0  0  0
    3.7389   -0.3869    1.1540 O   0  0  0  0  0  0  0  0  0  0  0  0
    4.1874   -0.4087    2.4845 N   0  0  0  0  0  0  0  0  0  0  0  0
    3.4710    0.2985    3.2657 C   0  0  0  0  0  0  0  0  0  0  0  0
    3.7350    0.2864    4.7851 C   0  0  0  0  0  0  0  0  0  0  0  0
    4.9653    1.1086    5.2396 C   0  0  2  0  0  0  0  0  0  0  0  0
    6.2836    0.4273    4.8203 C   0  0  0  0  0  0  0  0  0  0  0  0
    7.5451    1.1049    5.3843 C   0  0  0  0  0  0  0  0  0  0  0  0
    7.4750    1.2111    6.9077 C   0  0  0  0  0  0  0  0  0  0  0  0
    6.2152    1.9664    7.3649 C   0  0  0  0  0  0  0  0  0  0  0  0
    4.9453    1.3723    6.7544 C   0  0  0  0  0  0  0  0  0  0  0  0
    3.9658    1.1670    7.4592 O   0  0  0  0  0  0  0  0  0  0  0  0
    2.2980    1.2120    2.8498 C   0  0  2  0  0  0  0  0  0  0  0  0
    2.5391    2.5066    3.3479 O   0  0  0  0  0  0  0  0  0  0  0  0
    0.9246    0.6531    3.3514 C   0  0  2  0  0  0  0  0  0  0  0  0
    0.7097   -0.6269    2.7947 O   0  0  0  0  0  0  0  0  0  0  0  0
   -0.3298    1.5207    3.0383 C   0  0  2  0  0  0  0  0  0  0  0  0
   -0.3064    1.7454    1.6478 O   0  0  0  0  0  0  0  0  0  0  0  0
   -0.3430    2.8689    3.7498 C   0  0  0  0  0  0  0  0  0  0  0  0
   -0.8720    3.2145    4.9418 C   0  0  0  0  0  0  0  0  0  0  0  0
   -1.6194    2.4181    6.0090 C   0  0  0  0  0  0  0  0  0  0  0  0
   -0.7985    2.4675    7.3067 C   0  0  0  0  0  0  0  0  0  0  0  0
   -1.8562    0.9324    5.6588 C   0  0  0  0  0  0  0  0  0  0  0  0
   -2.9831    3.0810    6.2613 C   0  0  0  0  0  0  0  0  0  0  0  0
    3.6099   -2.2581   -2.6891 H   0  0  0  0  0  0  0  0  0  0  0  0
    4.6944   -3.1104   -1.5884 H   0  0  0  0  0  0  0  0  0  0  0  0
    5.2303   -1.6192   -2.3787 H   0  0  0  0  0  0  0  0  0  0  0  0
    2.8665   -1.0593   -0.8235 H   0  0  0  0  0  0  0  0  0  0  0  0
    2.8538    0.6690    5.2949 H   0  0  0  0  0  0  0  0  0  0  0  0
    3.8025   -0.7582    5.1061 H   0  0  0  0  0  0  0  0  0  0  0  0
    4.9087    2.0862    4.7717 H   0  0  0  0  0  0  0  0  0  0  0  0
    6.2282   -0.6076    5.1587 H   0  0  0  0  0  0  0  0  0  0  0  0
    6.3962    0.3900    3.7347 H   0  0  0  0  0  0  0  0  0  0  0  0
    8.4182    0.5355    5.0771 H   0  0  0  0  0  0  0  0  0  0  0  0
    7.7065    2.0984    4.9595 H   0  0  0  0  0  0  0  0  0  0  0  0
    7.4830    0.2142    7.3461 H   0  0  0  0  0  0  0  0  0  0  0  0
    8.3613    1.7258    7.2766 H   0  0  0  0  0  0  0  0  0  0  0  0
    6.1269    1.9178    8.4512 H   0  0  0  0  0  0  0  0  0  0  0  0
    6.2739    3.0230    7.0925 H   0  0  0  0  0  0  0  0  0  0  0  0
    2.2573    1.3166    1.7587 H   0  0  0  0  0  0  0  0  0  0  0  0
    3.2812    2.8838    2.8576 H   0  0  0  0  0  0  0  0  0  0  0  0
    0.9632    0.5079    4.4254 H   0  0  0  0  0  0  0  0  0  0  0  0
    0.6699   -0.5210    1.8397 H   0  0  0  0  0  0  0  0  0  0  0  0
   -1.2564    0.9690    3.2652 H   0  0  0  0  0  0  0  0  0  0  0  0
   -0.1722    2.6904    1.4487 H   0  0  0  0  0  0  0  0  0  0  0  0
    0.1559    3.6653    3.2161 H   0  0  0  0  0  0  0  0  0  0  0  0
   -0.7446    4.2526    5.2051 H   0  0  0  0  0  0  0  0  0  0  0  0
   -1.3009    1.9200    8.1019 H   0  0  0  0  0  0  0  0  0  0  0  0
   -0.6540    3.4933    7.6533 H   0  0  0  0  0  0  0  0  0  0  0  0
    0.1873    2.0253    7.1639 H   0  0  0  0  0  0  0  0  0  0  0  0
   -0.9223    0.4212    5.4385 H   0  0  0  0  0  0  0  0  0  0  0  0
   -2.4956    0.8516    4.7737 H   0  0  0  0  0  0  0  0  0  0  0  0
   -2.3213    0.4059    6.4972 H   0  0  0  0  0  0  0  0  0  0  0  0
   -3.5220    2.5658    7.0539 H   0  0  0  0  0  0  0  0  0  0  0  0
   -3.5959    3.0573    5.3621 H   0  0  0  0  0  0  0  0  0  0  0  0
   -2.8706    4.1218    6.5652 H   0  0  0  0  0  0  0  0  0  0  0  0
  1  2  1  0
  1 28  1  0
  1 29  1  0
  1 30  1  0
  2  3  1  0
  2 31  1  0
  3  4  2  0
  3  5  1  0
  5  6  1  0
  6  7  2  3
  7  8  1  0
  7 16  1  0
  8  9  1  0
  8 32  1  0
  8 33  1  0
  9 14  1  0
  9 10  1  0
  9 34  1  6
 10 11  1  0
 10 35  1  0
 10 36  1  0
 11 12  1  0
 11 37  1  0
 11 38  1  0
 12 13  1  0
 12 39  1  0
 12 40  1  0
 13 14  1  0
 13 41  1  0
 13 42  1  0
 14 15  2  0
 16 17  1  0
 16 18  1  0
 16 43  1  6
 17 44  1  0
 18 19  1  0
 18 20  1  0
 18 45  1  1
 19 46  1  0
 20 21  1  0
 20 22  1  0
 20 47  1  6
 21 48  1  0
 22 23  2  3
 22 49  1  0
 23 24  1  0
 23 50  1  0
 24 25  1  0
 24 26  1  0
 24 27  1  0
 25 51  1  0
 25 52  1  0
 25 53  1  0
 26 54  1  0
 26 55  1  0
 26 56  1  0
 27 57  1  0
 27 58  1  0
 27 59  1  0
M  END
>  <i_m_ct_stereo_status>  (307) 
1

>  <s_m_source_file>  (307) 
/var/tmp/pbs.5102264.sched01/tmp5h8_9bj8/92lofvt80g.sdf

>  <i_m_source_file_index>  (307) 
20

>  <i_lp_mmshare_version>  (307) 
48012

>  <i_f3d_flags>  (307) 
0

>  <s_epik_input>  (307) 
W0NIM11DKFtDSDNdKShbQ0gzXSlcW0NIXT1bQ0hdXFtDQEBIXShbT0hdKVtDQEBIXShbT0hdKVtDQEBIXShbT0hdKUMoPU5cT0MoPU8pW05IXVtDSDNdKVxbQ0gyXVtDQEBIXTFbQ0gyXVtDSDJdW0NIMl1bQ0gyXUMxPU8=

>  <s_epik_cmdline>  (307) 
J2VwaWtfcHl0aG9uJywgJy1waHQnLCAnMi4wJywgJy1waCcsICc3LjAnLCAnLXRuJywgJzgnLCAnLW1hJywgJzIwMCcsICctaW1hZScsICc8aW5maWxlLm1hZT4nLCAnLW9tYWUnLCAnPG91dGZpbGUubWFlPic=

>  <r_lp_tautomer_probability>  (307) 
1

>  <r_epik_Ionization_Penalty>  (307) 
6.46737e-06

>  <r_epik_Ionization_Penalty_Charging>  (307) 
0

>  <r_epik_Ionization_Penalty_Neutral>  (307) 
6.46737e-06

>  <r_epik_State_Penalty>  (307) 
-0

>  <r_epik_Charging_Adjusted_Penalty>  (307) 
0

>  <i_epik_Tot_Q>  (307) 
0

>  <i_epik_Tot_abs_Q>  (307) 
0

>  <s_epik_Chemistry_Notes>  (307) 
This compound has an imine and may undergo hydrolysis.

>  <s_lp_Force_Field>  (307) 
OPLS3e

>  <r_lp_Energy>  (307) 
24.1861

>  <b_lp_Chiralities_Consistent>  (307) 
1

>  <s_lp_Variant>  (307) 
66:0-4

>  <s_i_glide_gridfile>  (307) 
pfpi4k_grid

>  <i_i_glide_lignum>  (307) 
20

>  <i_i_glide_rotatable_bonds>  (307) 
13

>  <r_i_docking_score>  (307) 
-2.42154

>  <r_i_glide_ligand_efficiency>  (307) 
-0.0896867

>  <r_i_glide_ligand_efficiency_sa>  (307) 
-0.26906

>  <r_i_glide_ligand_efficiency_ln>  (307) 
-0.563695

>  <r_i_glide_gscore>  (307) 
-2.42154

>  <r_i_glide_lipo>  (307) 
-0.472366

>  <r_i_glide_hbond>  (307) 
-0.111866

>  <r_i_glide_metal>  (307) 
-0

>  <r_i_glide_rewards>  (307) 
-0.825162

>  <r_i_glide_evdw>  (307) 
-24.3967

>  <r_i_glide_ecoul>  (307) 
-5.12025

>  <r_i_glide_erotb>  (307) 
1.05228

>  <r_i_glide_esite>  (307) 
-0.0765555

>  <r_i_glide_emodel>  (307) 
-29.9698

>  <r_i_glide_energy>  (307) 
-29.517

>  <r_i_glide_einternal>  (307) 
9.21708

>  <r_i_glide_intrahb_reward>  (307) 
-0

>  <i_i_glide_confnum>  (307) 
7

>  <i_i_glide_posenum>  (307) 
2

>  <r_i_glide_eff_state_penalty>  (307) 
0

>  <ligand_id>  (307) 
66

>  <original_smiles>  (307) 
CNC(=O)ON=C(CC1CCCCC1=O)C(O)C(O)C(O)C=CC(C)(C)C

>  <smiles>  (307) 
[H]OC([H])(C(=NOC(=O)N([H])C([H])([H])[H])C([H])([H])C1([H])C(=O)C([H])([H])C([H])([H])C([H])([H])C1([H])[H])C([H])(O[H])C([H])(O[H])C([H])=C([H])C(C([H])([H])[H])(C([H])([H])[H])C([H])([H])[H]

$$$$
66:3:2
     RDKit          3D

 59 59  0  0  1  0  0  0  0  0999 V2000
    3.6748   -1.2191   -3.9055 C   0  0  0  0  0  0  0  0  0  0  0  0
    3.4153   -1.0455   -2.4804 N   0  0  0  0  0  0  0  0  0  0  0  0
    4.3018   -1.4330   -1.4890 C   0  0  0  0  0  0  0  0  0  0  0  0
    5.3903   -1.9675   -1.6664 O   0  0  0  0  0  0  0  0  0  0  0  0
    3.7521   -1.1321   -0.2839 O   0  0  0  0  0  0  0  0  0  0  0  0
    4.3314   -1.8967    0.7466 N   0  0  0  0  0  0  0  0  0  0  0  0
    4.1608   -1.4214    1.9203 C   0  0  0  0  0  0  0  0  0  0  0  0
    4.6379   -2.1938    3.1560 C   0  0  0  0  0  0  0  0  0  0  0  0
    4.4757   -3.7317    3.1204 C   0  0  2  0  0  0  0  0  0  0  0  0
    4.5305   -4.3054    4.5595 C   0  0  0  0  0  0  0  0  0  0  0  0
    4.4905   -5.8390    4.5951 C   0  0  0  0  0  0  0  0  0  0  0  0
    5.6130   -6.4378    3.7379 C   0  0  0  0  0  0  0  0  0  0  0  0
    5.5394   -5.9610    2.2789 C   0  0  0  0  0  0  0  0  0  0  0  0
    5.5131   -4.4444    2.2259 C   0  0  0  0  0  0  0  0  0  0  0  0
    6.3219   -3.8382    1.5115 O   0  0  0  0  0  0  0  0  0  0  0  0
    3.5240   -0.0731    2.2532 C   0  0  2  0  0  0  0  0  0  0  0  0
    4.2115    0.5879    3.2884 O   0  0  0  0  0  0  0  0  0  0  0  0
    2.0306   -0.1714    2.6842 C   0  0  2  0  0  0  0  0  0  0  0  0
    1.3182   -1.0379    1.8351 O   0  0  0  0  0  0  0  0  0  0  0  0
    1.2537    1.1821    2.7434 C   0  0  2  0  0  0  0  0  0  0  0  0
    1.6840    2.0518    1.7158 O   0  0  0  0  0  0  0  0  0  0  0  0
    1.4416    1.9227    4.0584 C   0  0  0  0  0  0  0  0  0  0  0  0
    0.5338    2.3642    4.9471 C   0  0  0  0  0  0  0  0  0  0  0  0
   -1.0010    2.3157    4.9775 C   0  0  0  0  0  0  0  0  0  0  0  0
   -1.5407    3.7412    5.1632 C   0  0  0  0  0  0  0  0  0  0  0  0
   -1.4648    1.4597    6.1672 C   0  0  0  0  0  0  0  0  0  0  0  0
   -1.6579    1.7504    3.7147 C   0  0  0  0  0  0  0  0  0  0  0  0
    2.8251   -0.8557   -4.4863 H   0  0  0  0  0  0  0  0  0  0  0  0
    3.8282   -2.2736   -4.1497 H   0  0  0  0  0  0  0  0  0  0  0  0
    4.5618   -0.6599   -4.2131 H   0  0  0  0  0  0  0  0  0  0  0  0
    2.5281   -0.6689   -2.1641 H   0  0  0  0  0  0  0  0  0  0  0  0
    5.6798   -1.9267    3.3155 H   0  0  0  0  0  0  0  0  0  0  0  0
    4.1088   -1.8185    4.0316 H   0  0  0  0  0  0  0  0  0  0  0  0
    3.4775   -3.9617    2.7371 H   0  0  0  0  0  0  0  0  0  0  0  0
    5.4347   -3.9510    5.0542 H   0  0  0  0  0  0  0  0  0  0  0  0
    3.7005   -3.9177    5.1522 H   0  0  0  0  0  0  0  0  0  0  0  0
    4.5859   -6.1831    5.6244 H   0  0  0  0  0  0  0  0  0  0  0  0
    3.5221   -6.1902    4.2380 H   0  0  0  0  0  0  0  0  0  0  0  0
    6.5795   -6.1587    4.1636 H   0  0  0  0  0  0  0  0  0  0  0  0
    5.5628   -7.5252    3.7607 H   0  0  0  0  0  0  0  0  0  0  0  0
    6.4205   -6.2899    1.7332 H   0  0  0  0  0  0  0  0  0  0  0  0
    4.6562   -6.3564    1.7713 H   0  0  0  0  0  0  0  0  0  0  0  0
    3.6313    0.5667    1.3760 H   0  0  0  0  0  0  0  0  0  0  0  0
    4.2786    1.5048    3.0443 H   0  0  0  0  0  0  0  0  0  0  0  0
    1.9887   -0.6590    3.6588 H   0  0  0  0  0  0  0  0  0  0  0  0
    1.2939   -0.6603    0.9583 H   0  0  0  0  0  0  0  0  0  0  0  0
    0.2273    0.9332    2.5326 H   0  0  0  0  0  0  0  0  0  0  0  0
    1.0292    2.7404    1.5958 H   0  0  0  0  0  0  0  0  0  0  0  0
    2.4713    2.1314    4.3431 H   0  0  0  0  0  0  0  0  0  0  0  0
    0.9331    2.8477    5.8182 H   0  0  0  0  0  0  0  0  0  0  0  0
   -2.6304    3.7403    5.1778 H   0  0  0  0  0  0  0  0  0  0  0  0
   -1.2253    4.3881    4.3475 H   0  0  0  0  0  0  0  0  0  0  0  0
   -1.2047    4.1905    6.1002 H   0  0  0  0  0  0  0  0  0  0  0  0
   -1.0578    1.8208    7.1171 H   0  0  0  0  0  0  0  0  0  0  0  0
   -1.1528    0.4215    6.0436 H   0  0  0  0  0  0  0  0  0  0  0  0
   -2.5546    1.4755    6.2553 H   0  0  0  0  0  0  0  0  0  0  0  0
   -2.7371    1.8827    3.7368 H   0  0  0  0  0  0  0  0  0  0  0  0
   -1.3990    0.6957    3.5936 H   0  0  0  0  0  0  0  0  0  0  0  0
   -1.3046    2.2834    2.8369 H   0  0  0  0  0  0  0  0  0  0  0  0
  1  2  1  0
  1 28  1  0
  1 29  1  0
  1 30  1  0
  2  3  1  0
  2 31  1  0
  3  4  2  0
  3  5  1  0
  5  6  1  0
  6  7  2  3
  7  8  1  0
  7 16  1  0
  8  9  1  0
  8 32  1  0
  8 33  1  0
  9 14  1  0
  9 10  1  0
  9 34  1  6
 10 11  1  0
 10 35  1  0
 10 36  1  0
 11 12  1  0
 11 37  1  0
 11 38  1  0
 12 13  1  0
 12 39  1  0
 12 40  1  0
 13 14  1  0
 13 41  1  0
 13 42  1  0
 14 15  2  0
 16 17  1  0
 16 18  1  0
 16 43  1  6
 17 44  1  0
 18 19  1  0
 18 20  1  0
 18 45  1  1
 19 46  1  0
 20 21  1  0
 20 22  1  0
 20 47  1  6
 21 48  1  0
 22 23  2  3
 22 49  1  0
 23 24  1  0
 23 50  1  0
 24 25  1  0
 24 26  1  0
 24 27  1  0
 25 51  1  0
 25 52  1  0
 25 53  1  0
 26 54  1  0
 26 55  1  0
 26 56  1  0
 27 57  1  0
 27 58  1  0
 27 59  1  0
M  END
>  <i_m_ct_stereo_status>  (308) 
1

>  <s_m_source_file>  (308) 
/var/tmp/pbs.5102264.sched01/tmp5h8_9bj8/92lofvt80g.sdf

>  <i_m_source_file_index>  (308) 
20

>  <i_lp_mmshare_version>  (308) 
48012

>  <i_f3d_flags>  (308) 
0

>  <s_epik_input>  (308) 
W0NIM11DKFtDSDNdKShbQ0gzXSlcW0NIXT1bQ0hdXFtDQEBIXShbT0hdKVtDQEBIXShbT0hdKVtDQEBIXShbT0hdKUMoPU5cT0MoPU8pW05IXVtDSDNdKVxbQ0gyXVtDQEBIXTFbQ0gyXVtDSDJdW0NIMl1bQ0gyXUMxPU8=

>  <s_epik_cmdline>  (308) 
J2VwaWtfcHl0aG9uJywgJy1waHQnLCAnMi4wJywgJy1waCcsICc3LjAnLCAnLXRuJywgJzgnLCAnLW1hJywgJzIwMCcsICctaW1hZScsICc8aW5maWxlLm1hZT4nLCAnLW9tYWUnLCAnPG91dGZpbGUubWFlPic=

>  <r_lp_tautomer_probability>  (308) 
1

>  <r_epik_Ionization_Penalty>  (308) 
6.46737e-06

>  <r_epik_Ionization_Penalty_Charging>  (308) 
0

>  <r_epik_Ionization_Penalty_Neutral>  (308) 
6.46737e-06

>  <r_epik_State_Penalty>  (308) 
-0

>  <r_epik_Charging_Adjusted_Penalty>  (308) 
0

>  <i_epik_Tot_Q>  (308) 
0

>  <i_epik_Tot_abs_Q>  (308) 
0

>  <s_epik_Chemistry_Notes>  (308) 
This compound has an imine and may undergo hydrolysis.

>  <s_lp_Force_Field>  (308) 
OPLS3e

>  <r_lp_Energy>  (308) 
24.1861

>  <b_lp_Chiralities_Consistent>  (308) 
1

>  <s_lp_Variant>  (308) 
66:0-4

>  <s_i_glide_gridfile>  (308) 
pfpi4k_grid

>  <i_i_glide_lignum>  (308) 
20

>  <i_i_glide_rotatable_bonds>  (308) 
13

>  <r_i_docking_score>  (308) 
-2.38967

>  <r_i_glide_ligand_efficiency>  (308) 
-0.0885064

>  <r_i_glide_ligand_efficiency_sa>  (308) 
-0.265519

>  <r_i_glide_ligand_efficiency_ln>  (308) 
-0.556276

>  <r_i_glide_gscore>  (308) 
-2.38967

>  <r_i_glide_lipo>  (308) 
-0.212348

>  <r_i_glide_hbond>  (308) 
-0.0609569

>  <r_i_glide_metal>  (308) 
-0

>  <r_i_glide_rewards>  (308) 
-0.826313

>  <r_i_glide_evdw>  (308) 
-22.6474

>  <r_i_glide_ecoul>  (308) 
-6.95089

>  <r_i_glide_erotb>  (308) 
1.05228

>  <r_i_glide_esite>  (308) 
-0.167335

>  <r_i_glide_emodel>  (308) 
-29.2995

>  <r_i_glide_energy>  (308) 
-29.5983

>  <r_i_glide_einternal>  (308) 
10.1459

>  <r_i_glide_intrahb_reward>  (308) 
-0

>  <i_i_glide_confnum>  (308) 
6

>  <i_i_glide_posenum>  (308) 
16

>  <r_i_glide_eff_state_penalty>  (308) 
0

>  <ligand_id>  (308) 
66

>  <original_smiles>  (308) 
CNC(=O)ON=C(CC1CCCCC1=O)C(O)C(O)C(O)C=CC(C)(C)C

>  <smiles>  (308) 
[H]OC([H])(C(=NOC(=O)N([H])C([H])([H])[H])C([H])([H])C1([H])C(=O)C([H])([H])C([H])([H])C([H])([H])C1([H])[H])C([H])(O[H])C([H])(O[H])C([H])=C([H])C(C([H])([H])[H])(C([H])([H])[H])C([H])([H])[H]

$$$$
67:0:0
     RDKit          3D

 50 54  0  0  1  0  0  0  0  0999 V2000
    6.6183  -11.8253    1.1210 O   0  0  0  0  0  0  0  0  0  0  0  0
    6.5838  -11.3103    2.3838 C   0  0  0  0  0  0  0  0  0  0  0  0
    7.6071  -11.5838    3.2930 C   0  0  0  0  0  0  0  0  0  0  0  0
    7.5860  -11.0634    4.6115 C   0  0  0  0  0  0  0  0  0  0  0  0
    6.5110  -10.2518    4.9975 C   0  0  0  0  0  0  0  0  0  0  0  0
    5.4594   -9.9830    4.0920 C   0  0  0  0  0  0  0  0  0  0  0  0
    5.4958  -10.4977    2.7641 C   0  0  0  0  0  0  0  0  0  0  0  0
    4.3248   -9.0232    4.4698 C   0  0  2  0  0  0  0  0  0  0  0  0
    2.9704   -9.4370    3.8717 C   0  0  0  0  0  0  0  0  0  0  0  0
    2.4323  -10.6831    4.2629 C   0  0  0  0  0  0  0  0  0  0  0  0
    1.1917  -11.1184    3.7675 C   0  0  0  0  0  0  0  0  0  0  0  0
    0.4609  -10.3049    2.8818 C   0  0  0  0  0  0  0  0  0  0  0  0
    0.9725   -9.0516    2.4963 C   0  0  0  0  0  0  0  0  0  0  0  0
    2.2151   -8.6082    2.9929 C   0  0  0  0  0  0  0  0  0  0  0  0
    4.7905   -7.6434    3.9361 C   0  0  0  0  0  0  0  0  0  0  0  0
    6.0664   -7.1174    4.6342 C   0  0  0  0  0  0  0  0  0  0  0  0
    5.9593   -7.1860    6.1237 N   0  0  1  0  0  0  0  0  0  0  0  0
    5.3144   -5.9653    6.7379 C   0  0  0  0  0  0  0  0  0  0  0  0
    3.8831   -5.6665    6.2442 C   0  0  0  0  0  0  0  0  0  0  0  0
    3.6032   -4.6871    5.1440 C   0  0  0  0  0  0  0  0  0  0  0  0
    3.1664   -4.3847    6.5639 C   0  0  0  0  0  0  0  0  0  0  0  0
    5.4769   -8.5216    6.6414 C   0  0  2  0  0  0  0  0  0  0  0  0
    6.5082   -9.6701    6.4183 C   0  0  0  0  0  0  0  0  0  0  0  0
    4.1595   -8.9902    6.0142 C   0  0  0  0  0  0  0  0  0  0  0  0
    5.6983  -11.8715    0.7841 H   0  0  0  0  0  0  0  0  0  0  0  0
    8.4343  -12.2038    3.0016 H   0  0  0  0  0  0  0  0  0  0  0  0
    8.3772  -11.2653    5.2992 H   0  0  0  0  0  0  0  0  0  0  0  0
    4.7010  -10.2633    2.0641 H   0  0  0  0  0  0  0  0  0  0  0  0
    2.9787  -11.3223    4.9443 H   0  0  0  0  0  0  0  0  0  0  0  0
    0.8117  -12.0857    4.0667 H   0  0  0  0  0  0  0  0  0  0  0  0
   -0.4884  -10.6446    2.4861 H   0  0  0  0  0  0  0  0  0  0  0  0
    0.4097   -8.4436    1.8019 H   0  0  0  0  0  0  0  0  0  0  0  0
    2.5612   -7.6343    2.6621 H   0  0  0  0  0  0  0  0  0  0  0  0
    4.9432   -7.5939    2.8539 H   0  0  0  0  0  0  0  0  0  0  0  0
    3.9639   -6.9829    4.0850 H   0  0  0  0  0  0  0  0  0  0  0  0
    6.9419   -7.6834    4.2897 H   0  0  0  0  0  0  0  0  0  0  0  0
    6.3020   -6.0897    4.3475 H   0  0  0  0  0  0  0  0  0  0  0  0
    5.3728   -6.0773    7.8378 H   0  0  0  0  0  0  0  0  0  0  0  0
    5.9836   -5.1069    6.5270 H   0  0  0  0  0  0  0  0  0  0  0  0
    3.1885   -6.4763    6.3996 H   0  0  0  0  0  0  0  0  0  0  0  0
    4.4694   -4.2002    4.6890 H   0  0  0  0  0  0  0  0  0  0  0  0
    2.8512   -5.0575    4.4613 H   0  0  0  0  0  0  0  0  0  0  0  0
    2.1125   -4.5836    6.7979 H   0  0  0  0  0  0  0  0  0  0  0  0
    3.6886   -3.6235    7.1701 H   0  0  0  0  0  0  0  0  0  0  0  0
    5.3750   -8.3986    7.7198 H   0  0  0  0  0  0  0  0  0  0  0  0
    6.1912  -10.4882    7.0649 H   0  0  0  0  0  0  0  0  0  0  0  0
    7.5238   -9.4054    6.7453 H   0  0  0  0  0  0  0  0  0  0  0  0
    3.2650   -8.4604    6.3375 H   0  0  0  0  0  0  0  0  0  0  0  0
    3.9672   -9.9900    6.4037 H   0  0  0  0  0  0  0  0  0  0  0  0
    6.9372   -7.1329    6.4336 H   0  0  0  0  0  0  0  0  0  0  0  0
  1  2  1  0
  1 25  1  0
  2  7  2  0
  2  3  1  0
  3  4  2  0
  3 26  1  0
  4  5  1  0
  4 27  1  0
  5 23  1  0
  5  6  2  0
  6  7  1  0
  6  8  1  0
  7 28  1  0
  8 24  1  0
  8  9  1  6
  8 15  1  0
  9 14  1  0
  9 10  2  0
 10 11  1  0
 10 29  1  0
 11 12  2  0
 11 30  1  0
 12 13  1  0
 12 31  1  0
 13 14  2  0
 13 32  1  0
 14 33  1  0
 15 16  1  0
 15 34  1  0
 15 35  1  0
 16 17  1  0
 16 36  1  0
 16 37  1  0
 17 18  1  0
 17 22  1  0
 17 50  1  1
 18 19  1  0
 18 38  1  0
 18 39  1  0
 19 21  1  0
 19 20  1  0
 19 40  1  0
 20 21  1  0
 20 41  1  0
 20 42  1  0
 21 43  1  0
 21 44  1  0
 22 23  1  0
 22 24  1  0
 22 45  1  1
 23 46  1  0
 23 47  1  0
 24 48  1  0
 24 49  1  0
M  CHG  1  17   1
M  END
>  <i_m_ct_stereo_status>  (309) 
1

>  <s_m_source_file>  (309) 
/var/tmp/pbs.5102264.sched01/tmp5h8_9bj8/92lofvt80g.sdf

>  <i_m_source_file_index>  (309) 
21

>  <i_lp_mmshare_version>  (309) 
48012

>  <i_f3d_flags>  (309) 
0

>  <s_epik_input>  (309) 
W0NIMl0xW0NIMl1bQ0hdMVtDSDJdTihbQ0gyXVtDSDJdMilbQ0BASF0oW0NIMl0zKVtDSDJdYyhbY0hdW2NIXWMoW09IXSlbY0hdNCljNFtDQF0yM2M1W2NIXVtjSF1bY0hdW2NIXVtjSF01

>  <s_epik_cmdline>  (309) 
J2VwaWtfcHl0aG9uJywgJy1waHQnLCAnMi4wJywgJy1waCcsICc3LjAnLCAnLXRuJywgJzgnLCAnLW1hJywgJzIwMCcsICctaW1hZScsICc8aW5maWxlLm1hZT4nLCAnLW9tYWUnLCAnPG91dGZpbGUubWFlPic=

>  <r_lp_tautomer_probability>  (309) 
1

>  <r_epik_Ionization_Penalty>  (309) 
0.012163

>  <r_epik_Ionization_Penalty_Charging>  (309) 
0.00941387

>  <r_epik_Ionization_Penalty_Neutral>  (309) 
0.00274908

>  <r_epik_State_Penalty>  (309) 
0.00714761

>  <r_epik_Charging_Adjusted_Penalty>  (309) 
0.0165615

>  <i_epik_Tot_Q>  (309) 
1

>  <i_epik_Tot_abs_Q>  (309) 
1

>  <s_lp_Force_Field>  (309) 
OPLS3e

>  <r_lp_Energy>  (309) 
48.4228

>  <b_lp_Chiralities_Consistent>  (309) 
1

>  <s_lp_Variant>  (309) 
67:0-1

>  <s_i_glide_gridfile>  (309) 
pfpi4k_grid

>  <i_i_glide_lignum>  (309) 
21

>  <i_i_glide_rotatable_bonds>  (309) 
4

>  <r_i_docking_score>  (309) 
-3.45206

>  <r_i_glide_ligand_efficiency>  (309) 
-0.143836

>  <r_i_glide_ligand_efficiency_sa>  (309) 
-0.414894

>  <r_i_glide_ligand_efficiency_ln>  (309) 
-0.826236

>  <r_i_glide_gscore>  (309) 
-3.45206

>  <r_i_glide_lipo>  (309) 
-0.280166

>  <r_i_glide_hbond>  (309) 
-0.431791

>  <r_i_glide_metal>  (309) 
-0

>  <r_i_glide_rewards>  (309) 
-1.22422

>  <r_i_glide_evdw>  (309) 
-16.2706

>  <r_i_glide_ecoul>  (309) 
-8.31922

>  <r_i_glide_erotb>  (309) 
0.545529

>  <r_i_glide_esite>  (309) 
0

>  <r_i_glide_emodel>  (309) 
-25.1491

>  <r_i_glide_energy>  (309) 
-24.5898

>  <r_i_glide_einternal>  (309) 
7.78546

>  <r_i_glide_intrahb_reward>  (309) 
-0

>  <i_i_glide_confnum>  (309) 
4

>  <i_i_glide_posenum>  (309) 
15

>  <r_i_glide_eff_state_penalty>  (309) 
0

>  <ligand_id>  (309) 
67

>  <original_smiles>  (309) 
Oc1ccc2c(c1)C1(c3ccccc3)CCN(CC3CC3)C(C2)C1

>  <smiles>  (309) 
[H]Oc1c([H])c([H])c2c(c1[H])C1(c3c([H])c([H])c([H])c([H])c3[H])C([H])([H])C([H])([H])[N+]([H])(C([H])([H])C3([H])C([H])([H])C3([H])[H])C([H])(C2([H])[H])C1([H])[H]

$$$$
67:0:1
     RDKit          3D

 50 54  0  0  1  0  0  0  0  0999 V2000
    1.0209   -9.8556    8.6507 O   0  0  0  0  0  0  0  0  0  0  0  0
    1.7111   -8.9086    7.9631 C   0  0  0  0  0  0  0  0  0  0  0  0
    2.5382   -8.0043    8.6599 C   0  0  0  0  0  0  0  0  0  0  0  0
    3.2583   -7.0244    7.9602 C   0  0  0  0  0  0  0  0  0  0  0  0
    3.1525   -6.9412    6.5542 C   0  0  0  0  0  0  0  0  0  0  0  0
    2.3156   -7.8489    5.8457 C   0  0  0  0  0  0  0  0  0  0  0  0
    1.6051   -8.8342    6.5630 C   0  0  0  0  0  0  0  0  0  0  0  0
    2.2666   -7.8456    4.3071 C   0  0  2  0  0  0  0  0  0  0  0  0
    0.8466   -8.1304    3.7906 C   0  0  0  0  0  0  0  0  0  0  0  0
   -0.2111   -7.2789    4.1923 C   0  0  0  0  0  0  0  0  0  0  0  0
   -1.5238   -7.5034    3.7396 C   0  0  0  0  0  0  0  0  0  0  0  0
   -1.7918   -8.5842    2.8811 C   0  0  0  0  0  0  0  0  0  0  0  0
   -0.7558   -9.4409    2.4862 C   0  0  0  0  0  0  0  0  0  0  0  0
    0.5583   -9.2198    2.9295 C   0  0  0  0  0  0  0  0  0  0  0  0
    3.3240   -8.8667    3.8147 C   0  0  0  0  0  0  0  0  0  0  0  0
    4.7478   -8.5175    4.3010 C   0  0  0  0  0  0  0  0  0  0  0  0
    5.1293   -7.1267    3.9365 N   0  0  1  0  0  0  0  0  0  0  0  0
    5.5878   -7.0292    2.5216 C   0  0  0  0  0  0  0  0  0  0  0  0
    7.0353   -7.4523    2.3552 C   0  0  0  0  0  0  0  0  0  0  0  0
    8.1634   -6.4583    2.5101 C   0  0  0  0  0  0  0  0  0  0  0  0
    7.8121   -6.9766    1.1451 C   0  0  0  0  0  0  0  0  0  0  0  0
    4.0959   -6.1068    4.3018 C   0  0  2  0  0  0  0  0  0  0  0  0
    3.9627   -5.8794    5.8239 C   0  0  0  0  0  0  0  0  0  0  0  0
    2.7258   -6.4881    3.7326 C   0  0  0  0  0  0  0  0  0  0  0  0
    1.0158  -10.7299    8.2375 H   0  0  0  0  0  0  0  0  0  0  0  0
    2.6371   -8.0832    9.7319 H   0  0  0  0  0  0  0  0  0  0  0  0
    3.9155   -6.3500    8.4975 H   0  0  0  0  0  0  0  0  0  0  0  0
    0.9786   -9.5503    6.0446 H   0  0  0  0  0  0  0  0  0  0  0  0
   -0.0214   -6.4558    4.8656 H   0  0  0  0  0  0  0  0  0  0  0  0
   -2.3276   -6.8592    4.0671 H   0  0  0  0  0  0  0  0  0  0  0  0
   -2.7923   -8.7728    2.5255 H   0  0  0  0  0  0  0  0  0  0  0  0
   -0.9724  -10.2697    1.8267 H   0  0  0  0  0  0  0  0  0  0  0  0
    1.3225   -9.9038    2.5881 H   0  0  0  0  0  0  0  0  0  0  0  0
    3.0833   -9.8705    4.1648 H   0  0  0  0  0  0  0  0  0  0  0  0
    3.3201   -8.9152    2.7237 H   0  0  0  0  0  0  0  0  0  0  0  0
    4.8403   -8.6530    5.3777 H   0  0  0  0  0  0  0  0  0  0  0  0
    5.4588   -9.2178    3.8736 H   0  0  0  0  0  0  0  0  0  0  0  0
    4.9703   -7.6450    1.8671 H   0  0  0  0  0  0  0  0  0  0  0  0
    5.4917   -6.0139    2.1473 H   0  0  0  0  0  0  0  0  0  0  0  0
    7.2521   -8.4791    2.6423 H   0  0  0  0  0  0  0  0  0  0  0  0
    7.8914   -5.4346    2.7542 H   0  0  0  0  0  0  0  0  0  0  0  0
    9.0901   -6.8201    2.9534 H   0  0  0  0  0  0  0  0  0  0  0  0
    8.5226   -7.6632    0.6859 H   0  0  0  0  0  0  0  0  0  0  0  0
    7.3217   -6.2929    0.4565 H   0  0  0  0  0  0  0  0  0  0  0  0
    4.4057   -5.1550    3.8767 H   0  0  0  0  0  0  0  0  0  0  0  0
    3.4244   -4.9429    5.9818 H   0  0  0  0  0  0  0  0  0  0  0  0
    4.9399   -5.7424    6.2934 H   0  0  0  0  0  0  0  0  0  0  0  0
    2.7449   -6.5071    2.6398 H   0  0  0  0  0  0  0  0  0  0  0  0
    2.0218   -5.7018    4.0046 H   0  0  0  0  0  0  0  0  0  0  0  0
    5.9399   -6.8884    4.4880 H   0  0  0  0  0  0  0  0  0  0  0  0
  1  2  1  0
  1 25  1  0
  2  7  2  0
  2  3  1  0
  3  4  2  0
  3 26  1  0
  4  5  1  0
  4 27  1  0
  5 23  1  0
  5  6  2  0
  6  7  1  0
  6  8  1  0
  7 28  1  0
  8 24  1  0
  8  9  1  1
  8 15  1  0
  9 14  1  0
  9 10  2  0
 10 11  1  0
 10 29  1  0
 11 12  2  0
 11 30  1  0
 12 13  1  0
 12 31  1  0
 13 14  2  0
 13 32  1  0
 14 33  1  0
 15 16  1  0
 15 34  1  0
 15 35  1  0
 16 17  1  0
 16 36  1  0
 16 37  1  0
 17 18  1  0
 17 22  1  0
 17 50  1  1
 18 19  1  0
 18 38  1  0
 18 39  1  0
 19 21  1  0
 19 20  1  0
 19 40  1  0
 20 21  1  0
 20 41  1  0
 20 42  1  0
 21 43  1  0
 21 44  1  0
 22 23  1  0
 22 24  1  0
 22 45  1  6
 23 46  1  0
 23 47  1  0
 24 48  1  0
 24 49  1  0
M  CHG  1  17   1
M  END
>  <i_m_ct_stereo_status>  (310) 
1

>  <s_m_source_file>  (310) 
/var/tmp/pbs.5102264.sched01/tmp5h8_9bj8/92lofvt80g.sdf

>  <i_m_source_file_index>  (310) 
21

>  <i_lp_mmshare_version>  (310) 
48012

>  <i_f3d_flags>  (310) 
0

>  <s_epik_input>  (310) 
W0NIMl0xW0NIMl1bQ0hdMVtDSDJdTihbQ0gyXVtDSDJdMilbQ0BASF0oW0NIMl0zKVtDSDJdYyhbY0hdW2NIXWMoW09IXSlbY0hdNCljNFtDQF0yM2M1W2NIXVtjSF1bY0hdW2NIXVtjSF01

>  <s_epik_cmdline>  (310) 
J2VwaWtfcHl0aG9uJywgJy1waHQnLCAnMi4wJywgJy1waCcsICc3LjAnLCAnLXRuJywgJzgnLCAnLW1hJywgJzIwMCcsICctaW1hZScsICc8aW5maWxlLm1hZT4nLCAnLW9tYWUnLCAnPG91dGZpbGUubWFlPic=

>  <r_lp_tautomer_probability>  (310) 
1

>  <r_epik_Ionization_Penalty>  (310) 
0.012163

>  <r_epik_Ionization_Penalty_Charging>  (310) 
0.00941387

>  <r_epik_Ionization_Penalty_Neutral>  (310) 
0.00274908

>  <r_epik_State_Penalty>  (310) 
0.00714761

>  <r_epik_Charging_Adjusted_Penalty>  (310) 
0.0165615

>  <i_epik_Tot_Q>  (310) 
1

>  <i_epik_Tot_abs_Q>  (310) 
1

>  <s_lp_Force_Field>  (310) 
OPLS3e

>  <r_lp_Energy>  (310) 
48.4228

>  <b_lp_Chiralities_Consistent>  (310) 
1

>  <s_lp_Variant>  (310) 
67:0-1

>  <s_i_glide_gridfile>  (310) 
pfpi4k_grid

>  <i_i_glide_lignum>  (310) 
21

>  <i_i_glide_rotatable_bonds>  (310) 
4

>  <r_i_docking_score>  (310) 
-2.99636

>  <r_i_glide_ligand_efficiency>  (310) 
-0.124848

>  <r_i_glide_ligand_efficiency_sa>  (310) 
-0.360125

>  <r_i_glide_ligand_efficiency_ln>  (310) 
-0.717167

>  <r_i_glide_gscore>  (310) 
-2.99636

>  <r_i_glide_lipo>  (310) 
-0.193009

>  <r_i_glide_hbond>  (310) 
-0.16

>  <r_i_glide_metal>  (310) 
-0

>  <r_i_glide_rewards>  (310) 
-1.22422

>  <r_i_glide_evdw>  (310) 
-19.4784

>  <r_i_glide_ecoul>  (310) 
-6.60493

>  <r_i_glide_erotb>  (310) 
0.545529

>  <r_i_glide_esite>  (310) 
0

>  <r_i_glide_emodel>  (310) 
-29.6604

>  <r_i_glide_energy>  (310) 
-26.0834

>  <r_i_glide_einternal>  (310) 
2.83067

>  <r_i_glide_intrahb_reward>  (310) 
-0

>  <i_i_glide_confnum>  (310) 
4

>  <i_i_glide_posenum>  (310) 
39

>  <r_i_glide_eff_state_penalty>  (310) 
0

>  <ligand_id>  (310) 
67

>  <original_smiles>  (310) 
Oc1ccc2c(c1)C1(c3ccccc3)CCN(CC3CC3)C(C2)C1

>  <smiles>  (310) 
[H]Oc1c([H])c([H])c2c(c1[H])C1(c3c([H])c([H])c([H])c([H])c3[H])C([H])([H])C([H])([H])[N+]([H])(C([H])([H])C3([H])C([H])([H])C3([H])[H])C([H])(C2([H])[H])C1([H])[H]

$$$$
67:0:2
     RDKit          3D

 50 54  0  0  1  0  0  0  0  0999 V2000
    0.8673   -9.8471    8.6218 O   0  0  0  0  0  0  0  0  0  0  0  0
    1.1932   -8.6479    8.0739 C   0  0  0  0  0  0  0  0  0  0  0  0
    1.5678   -7.5890    8.9227 C   0  0  0  0  0  0  0  0  0  0  0  0
    1.9299   -6.3421    8.3812 C   0  0  0  0  0  0  0  0  0  0  0  0
    1.9146   -6.1504    6.9834 C   0  0  0  0  0  0  0  0  0  0  0  0
    1.5316   -7.2136    6.1177 C   0  0  0  0  0  0  0  0  0  0  0  0
    1.1758   -8.4633    6.6782 C   0  0  0  0  0  0  0  0  0  0  0  0
    1.6178   -7.0590    4.5886 C   0  0  2  0  0  0  0  0  0  0  0  0
    0.4516   -7.7802    3.8892 C   0  0  0  0  0  0  0  0  0  0  0  0
   -0.8643   -7.2830    4.0478 C   0  0  0  0  0  0  0  0  0  0  0  0
   -1.9510   -7.9003    3.4083 C   0  0  0  0  0  0  0  0  0  0  0  0
   -1.7519   -9.0504    2.6254 C   0  0  0  0  0  0  0  0  0  0  0  0
   -0.4555   -9.5741    2.4880 C   0  0  0  0  0  0  0  0  0  0  0  0
    0.6430   -8.9462    3.1027 C   0  0  0  0  0  0  0  0  0  0  0  0
    3.0173   -7.5662    4.1491 C   0  0  0  0  0  0  0  0  0  0  0  0
    4.1632   -6.7808    4.8226 C   0  0  0  0  0  0  0  0  0  0  0  0
    4.0364   -5.3126    4.6215 N   0  0  1  0  0  0  0  0  0  0  0  0
    4.5637   -4.9123    3.2880 C   0  0  0  0  0  0  0  0  0  0  0  0
    4.7613   -3.4193    3.1288 C   0  0  0  0  0  0  0  0  0  0  0  0
    3.7631   -2.5945    2.3470 C   0  0  0  0  0  0  0  0  0  0  0  0
    5.1267   -2.8633    1.7667 C   0  0  0  0  0  0  0  0  0  0  0  0
    2.6702   -4.7875    4.9273 C   0  0  2  0  0  0  0  0  0  0  0  0
    2.3341   -4.7933    6.4338 C   0  0  0  0  0  0  0  0  0  0  0  0
    1.5947   -5.5682    4.1731 C   0  0  0  0  0  0  0  0  0  0  0  0
    1.0145  -10.6183    8.0703 H   0  0  0  0  0  0  0  0  0  0  0  0
    1.6002   -7.7436    9.9902 H   0  0  0  0  0  0  0  0  0  0  0  0
    2.2451   -5.5430    9.0431 H   0  0  0  0  0  0  0  0  0  0  0  0
    0.9025   -9.2941    6.0403 H   0  0  0  0  0  0  0  0  0  0  0  0
   -1.0622   -6.4224    4.6711 H   0  0  0  0  0  0  0  0  0  0  0  0
   -2.9476   -7.5045    3.5422 H   0  0  0  0  0  0  0  0  0  0  0  0
   -2.5879   -9.5374    2.1465 H   0  0  0  0  0  0  0  0  0  0  0  0
   -0.3019  -10.4683    1.8976 H   0  0  0  0  0  0  0  0  0  0  0  0
    1.6197   -9.3835    2.9527 H   0  0  0  0  0  0  0  0  0  0  0  0
    3.1454   -8.6192    4.4033 H   0  0  0  0  0  0  0  0  0  0  0  0
    3.1211   -7.4968    3.0638 H   0  0  0  0  0  0  0  0  0  0  0  0
    4.2085   -6.9992    5.8888 H   0  0  0  0  0  0  0  0  0  0  0  0
    5.1196   -7.1316    4.4414 H   0  0  0  0  0  0  0  0  0  0  0  0
    5.5352   -5.3773    3.1290 H   0  0  0  0  0  0  0  0  0  0  0  0
    3.9206   -5.2778    2.4924 H   0  0  0  0  0  0  0  0  0  0  0  0
    5.2686   -2.9366    3.9612 H   0  0  0  0  0  0  0  0  0  0  0  0
    2.9124   -3.1199    1.9171 H   0  0  0  0  0  0  0  0  0  0  0  0
    3.5573   -1.5900    2.7113 H   0  0  0  0  0  0  0  0  0  0  0  0
    5.8121   -2.0191    1.7212 H   0  0  0  0  0  0  0  0  0  0  0  0
    5.1865   -3.5515    0.9258 H   0  0  0  0  0  0  0  0  0  0  0  0
    2.6247   -3.7474    4.6159 H   0  0  0  0  0  0  0  0  0  0  0  0
    1.4769   -4.1395    6.5981 H   0  0  0  0  0  0  0  0  0  0  0  0
    3.1494   -4.3719    7.0233 H   0  0  0  0  0  0  0  0  0  0  0  0
    1.7022   -5.4652    3.0914 H   0  0  0  0  0  0  0  0  0  0  0  0
    0.6446   -5.1004    4.4173 H   0  0  0  0  0  0  0  0  0  0  0  0
    4.6561   -4.8848    5.2881 H   0  0  0  0  0  0  0  0  0  0  0  0
  1  2  1  0
  1 25  1  0
  2  7  2  0
  2  3  1  0
  3  4  2  0
  3 26  1  0
  4  5  1  0
  4 27  1  0
  5 23  1  0
  5  6  2  0
  6  7  1  0
  6  8  1  0
  7 28  1  0
  8 24  1  0
  8  9  1  6
  8 15  1  0
  9 14  1  0
  9 10  2  0
 10 11  1  0
 10 29  1  0
 11 12  2  0
 11 30  1  0
 12 13  1  0
 12 31  1  0
 13 14  2  0
 13 32  1  0
 14 33  1  0
 15 16  1  0
 15 34  1  0
 15 35  1  0
 16 17  1  0
 16 36  1  0
 16 37  1  0
 17 18  1  0
 17 22  1  0
 17 50  1  1
 18 19  1  0
 18 38  1  0
 18 39  1  0
 19 21  1  0
 19 20  1  0
 19 40  1  0
 20 21  1  0
 20 41  1  0
 20 42  1  0
 21 43  1  0
 21 44  1  0
 22 23  1  0
 22 24  1  0
 22 45  1  6
 23 46  1  0
 23 47  1  0
 24 48  1  0
 24 49  1  0
M  CHG  1  17   1
M  END
>  <i_m_ct_stereo_status>  (311) 
1

>  <s_m_source_file>  (311) 
/var/tmp/pbs.5102264.sched01/tmp5h8_9bj8/92lofvt80g.sdf

>  <i_m_source_file_index>  (311) 
21

>  <i_lp_mmshare_version>  (311) 
48012

>  <i_f3d_flags>  (311) 
0

>  <s_epik_input>  (311) 
W0NIMl0xW0NIMl1bQ0hdMVtDSDJdTihbQ0gyXVtDSDJdMilbQ0BASF0oW0NIMl0zKVtDSDJdYyhbY0hdW2NIXWMoW09IXSlbY0hdNCljNFtDQF0yM2M1W2NIXVtjSF1bY0hdW2NIXVtjSF01

>  <s_epik_cmdline>  (311) 
J2VwaWtfcHl0aG9uJywgJy1waHQnLCAnMi4wJywgJy1waCcsICc3LjAnLCAnLXRuJywgJzgnLCAnLW1hJywgJzIwMCcsICctaW1hZScsICc8aW5maWxlLm1hZT4nLCAnLW9tYWUnLCAnPG91dGZpbGUubWFlPic=

>  <r_lp_tautomer_probability>  (311) 
1

>  <r_epik_Ionization_Penalty>  (311) 
0.012163

>  <r_epik_Ionization_Penalty_Charging>  (311) 
0.00941387

>  <r_epik_Ionization_Penalty_Neutral>  (311) 
0.00274908

>  <r_epik_State_Penalty>  (311) 
0.00714761

>  <r_epik_Charging_Adjusted_Penalty>  (311) 
0.0165615

>  <i_epik_Tot_Q>  (311) 
1

>  <i_epik_Tot_abs_Q>  (311) 
1

>  <s_lp_Force_Field>  (311) 
OPLS3e

>  <r_lp_Energy>  (311) 
48.4228

>  <b_lp_Chiralities_Consistent>  (311) 
1

>  <s_lp_Variant>  (311) 
67:0-1

>  <s_i_glide_gridfile>  (311) 
pfpi4k_grid

>  <i_i_glide_lignum>  (311) 
21

>  <i_i_glide_rotatable_bonds>  (311) 
4

>  <r_i_docking_score>  (311) 
-2.93435

>  <r_i_glide_ligand_efficiency>  (311) 
-0.122265

>  <r_i_glide_ligand_efficiency_sa>  (311) 
-0.352672

>  <r_i_glide_ligand_efficiency_ln>  (311) 
-0.702325

>  <r_i_glide_gscore>  (311) 
-2.93435

>  <r_i_glide_lipo>  (311) 
-0.277813

>  <r_i_glide_hbond>  (311) 
-0.16

>  <r_i_glide_metal>  (311) 
-0

>  <r_i_glide_rewards>  (311) 
-1.22422

>  <r_i_glide_evdw>  (311) 
-18.2649

>  <r_i_glide_ecoul>  (311) 
-6.03071

>  <r_i_glide_erotb>  (311) 
0.545529

>  <r_i_glide_esite>  (311) 
0

>  <r_i_glide_emodel>  (311) 
-28.9986

>  <r_i_glide_energy>  (311) 
-24.2956

>  <r_i_glide_einternal>  (311) 
1.29537

>  <r_i_glide_intrahb_reward>  (311) 
-0

>  <i_i_glide_confnum>  (311) 
5

>  <i_i_glide_posenum>  (311) 
3

>  <r_i_glide_eff_state_penalty>  (311) 
0

>  <ligand_id>  (311) 
67

>  <original_smiles>  (311) 
Oc1ccc2c(c1)C1(c3ccccc3)CCN(CC3CC3)C(C2)C1

>  <smiles>  (311) 
[H]Oc1c([H])c([H])c2c(c1[H])C1(c3c([H])c([H])c([H])c([H])c3[H])C([H])([H])C([H])([H])[N+]([H])(C([H])([H])C3([H])C([H])([H])C3([H])[H])C([H])(C2([H])[H])C1([H])[H]

$$$$
67:1:0
     RDKit          3D

 49 53  0  0  1  0  0  0  0  0999 V2000
    8.2133   -7.5366    1.3020 O   0  0  0  0  0  0  0  0  0  0  0  0
    7.9290   -6.2162    1.1173 C   0  0  0  0  0  0  0  0  0  0  0  0
    8.9667   -5.2783    1.1355 C   0  0  0  0  0  0  0  0  0  0  0  0
    8.7106   -3.9181    0.8746 C   0  0  0  0  0  0  0  0  0  0  0  0
    7.3898   -3.4860    0.6308 C   0  0  0  0  0  0  0  0  0  0  0  0
    6.3168   -4.4213    0.6689 C   0  0  0  0  0  0  0  0  0  0  0  0
    6.6027   -5.7919    0.8924 C   0  0  0  0  0  0  0  0  0  0  0  0
    4.8730   -3.9725    0.3892 C   0  0  2  0  0  0  0  0  0  0  0  0
    3.8718   -4.7430    1.2716 C   0  0  0  0  0  0  0  0  0  0  0  0
    3.9575   -4.6204    2.6789 C   0  0  0  0  0  0  0  0  0  0  0  0
    3.0602   -5.3051    3.5220 C   0  0  0  0  0  0  0  0  0  0  0  0
    2.0645   -6.1357    2.9735 C   0  0  0  0  0  0  0  0  0  0  0  0
    1.9721   -6.2804    1.5766 C   0  0  0  0  0  0  0  0  0  0  0  0
    2.8666   -5.5880    0.7353 C   0  0  0  0  0  0  0  0  0  0  0  0
    4.6117   -4.1223   -1.1282 C   0  0  0  0  0  0  0  0  0  0  0  0
    5.5933   -3.2834   -1.9758 C   0  0  0  0  0  0  0  0  0  0  0  0
    5.6207   -1.8545   -1.6060 N   0  0  0  0  0  0  0  0  0  0  0  0
    4.5119   -1.0432   -2.1230 C   0  0  0  0  0  0  0  0  0  0  0  0
    4.1485   -1.3143   -3.5686 C   0  0  0  0  0  0  0  0  0  0  0  0
    3.0037   -0.5665   -4.2035 C   0  0  0  0  0  0  0  0  0  0  0  0
    2.8549   -2.0352   -3.8922 C   0  0  0  0  0  0  0  0  0  0  0  0
    5.7508   -1.6467   -0.1498 C   0  0  2  0  0  0  0  0  0  0  0  0
    7.1640   -2.0086    0.3473 C   0  0  0  0  0  0  0  0  0  0  0  0
    4.7032   -2.4580    0.6452 C   0  0  0  0  0  0  0  0  0  0  0  0
    9.1624   -7.7225    1.2981 H   0  0  0  0  0  0  0  0  0  0  0  0
    9.9611   -5.6242    1.3462 H   0  0  0  0  0  0  0  0  0  0  0  0
    9.5173   -3.1970    0.8699 H   0  0  0  0  0  0  0  0  0  0  0  0
    5.8142   -6.5246    0.8815 H   0  0  0  0  0  0  0  0  0  0  0  0
    4.7246   -4.0033    3.1179 H   0  0  0  0  0  0  0  0  0  0  0  0
    3.1455   -5.1957    4.5899 H   0  0  0  0  0  0  0  0  0  0  0  0
    1.3893   -6.6695    3.6187 H   0  0  0  0  0  0  0  0  0  0  0  0
    1.2284   -6.9312    1.1465 H   0  0  0  0  0  0  0  0  0  0  0  0
    2.7725   -5.7349   -0.3215 H   0  0  0  0  0  0  0  0  0  0  0  0
    4.7209   -5.1640   -1.4301 H   0  0  0  0  0  0  0  0  0  0  0  0
    3.5914   -3.8283   -1.3731 H   0  0  0  0  0  0  0  0  0  0  0  0
    6.6025   -3.6892   -1.8809 H   0  0  0  0  0  0  0  0  0  0  0  0
    5.3529   -3.4180   -3.0284 H   0  0  0  0  0  0  0  0  0  0  0  0
    3.6110   -1.1520   -1.5182 H   0  0  0  0  0  0  0  0  0  0  0  0
    4.8095    0.0035   -2.0410 H   0  0  0  0  0  0  0  0  0  0  0  0
    4.9952   -1.4780   -4.2341 H   0  0  0  0  0  0  0  0  0  0  0  0
    2.4750    0.1436   -3.5718 H   0  0  0  0  0  0  0  0  0  0  0  0
    3.0939   -0.2869   -5.2489 H   0  0  0  0  0  0  0  0  0  0  0  0
    2.8707   -2.7391   -4.7192 H   0  0  0  0  0  0  0  0  0  0  0  0
    2.2131   -2.3169   -3.0556 H   0  0  0  0  0  0  0  0  0  0  0  0
    5.6025   -0.5815    0.0491 H   0  0  0  0  0  0  0  0  0  0  0  0
    7.3219   -1.4814    1.2879 H   0  0  0  0  0  0  0  0  0  0  0  0
    7.9330   -1.6329   -0.3283 H   0  0  0  0  0  0  0  0  0  0  0  0
    3.6826   -2.1449    0.4174 H   0  0  0  0  0  0  0  0  0  0  0  0
    4.8466   -2.2402    1.7031 H   0  0  0  0  0  0  0  0  0  0  0  0
  1  2  1  0
  1 25  1  0
  2  7  2  0
  2  3  1  0
  3  4  2  0
  3 26  1  0
  4  5  1  0
  4 27  1  0
  5 23  1  0
  5  6  2  0
  6  7  1  0
  6  8  1  0
  7 28  1  0
  8 24  1  0
  8  9  1  1
  8 15  1  0
  9 14  1  0
  9 10  2  0
 10 11  1  0
 10 29  1  0
 11 12  2  0
 11 30  1  0
 12 13  1  0
 12 31  1  0
 13 14  2  0
 13 32  1  0
 14 33  1  0
 15 16  1  0
 15 34  1  0
 15 35  1  0
 16 17  1  0
 16 36  1  0
 16 37  1  0
 17 18  1  0
 17 22  1  0
 18 19  1  0
 18 38  1  0
 18 39  1  0
 19 21  1  0
 19 20  1  0
 19 40  1  0
 20 21  1  0
 20 41  1  0
 20 42  1  0
 21 43  1  0
 21 44  1  0
 22 23  1  0
 22 24  1  0
 22 45  1  6
 23 46  1  0
 23 47  1  0
 24 48  1  0
 24 49  1  0
M  END
>  <i_m_ct_stereo_status>  (312) 
1

>  <s_m_source_file>  (312) 
/var/tmp/pbs.5102264.sched01/tmp5h8_9bj8/92lofvt80g.sdf

>  <i_m_source_file_index>  (312) 
22

>  <i_lp_mmshare_version>  (312) 
48012

>  <i_f3d_flags>  (312) 
0

>  <s_epik_input>  (312) 
W0NIMl0xW0NIMl1bQ0hdMVtDSDJdTihbQ0gyXVtDSDJdMilbQ0BASF0oW0NIMl0zKVtDSDJdYyhbY0hdW2NIXWMoW09IXSlbY0hdNCljNFtDQF0yM2M1W2NIXVtjSF1bY0hdW2NIXVtjSF01

>  <s_epik_cmdline>  (312) 
J2VwaWtfcHl0aG9uJywgJy1waHQnLCAnMi4wJywgJy1waCcsICc3LjAnLCAnLXRuJywgJzgnLCAnLW1hJywgJzIwMCcsICctaW1hZScsICc8aW5maWxlLm1hZT4nLCAnLW9tYWUnLCAnPG91dGZpbGUubWFlPic=

>  <r_lp_tautomer_probability>  (312) 
1

>  <r_epik_Ionization_Penalty>  (312) 
2.45918

>  <r_epik_Ionization_Penalty_Charging>  (312) 
0

>  <r_epik_Ionization_Penalty_Neutral>  (312) 
2.45918

>  <r_epik_State_Penalty>  (312) 
2.6209

>  <r_epik_Charging_Adjusted_Penalty>  (312) 
2.6209

>  <i_epik_Tot_Q>  (312) 
0

>  <i_epik_Tot_abs_Q>  (312) 
0

>  <s_lp_Force_Field>  (312) 
OPLS3e

>  <r_lp_Energy>  (312) 
53.1731

>  <b_lp_Chiralities_Consistent>  (312) 
1

>  <s_lp_Variant>  (312) 
67:0-2

>  <s_i_glide_gridfile>  (312) 
pfpi4k_grid

>  <i_i_glide_lignum>  (312) 
22

>  <i_i_glide_rotatable_bonds>  (312) 
4

>  <r_i_docking_score>  (312) 
-4.29034

>  <r_i_glide_ligand_efficiency>  (312) 
-0.178764

>  <r_i_glide_ligand_efficiency_sa>  (312) 
-0.515645

>  <r_i_glide_ligand_efficiency_ln>  (312) 
-1.02688

>  <r_i_glide_gscore>  (312) 
-4.29034

>  <r_i_glide_lipo>  (312) 
-1.16169

>  <r_i_glide_hbond>  (312) 
-0.16

>  <r_i_glide_metal>  (312) 
-0

>  <r_i_glide_rewards>  (312) 
-1.23109

>  <r_i_glide_evdw>  (312) 
-26.674

>  <r_i_glide_ecoul>  (312) 
-6.34952

>  <r_i_glide_erotb>  (312) 
0.548565

>  <r_i_glide_esite>  (312) 
0

>  <r_i_glide_emodel>  (312) 
-41.4347

>  <r_i_glide_energy>  (312) 
-33.0235

>  <r_i_glide_einternal>  (312) 
1.6234

>  <r_i_glide_intrahb_reward>  (312) 
-0

>  <i_i_glide_confnum>  (312) 
1

>  <i_i_glide_posenum>  (312) 
37

>  <r_i_glide_eff_state_penalty>  (312) 
0

>  <ligand_id>  (312) 
67

>  <original_smiles>  (312) 
Oc1ccc2c(c1)C1(c3ccccc3)CCN(CC3CC3)C(C2)C1

>  <smiles>  (312) 
[H]Oc1c([H])c([H])c2c(c1[H])C1(c3c([H])c([H])c([H])c([H])c3[H])C([H])([H])C([H])([H])N(C([H])([H])C3([H])C([H])([H])C3([H])[H])C([H])(C2([H])[H])C1([H])[H]

$$$$
67:1:1
     RDKit          3D

 49 53  0  0  1  0  0  0  0  0999 V2000
    5.8345  -10.6656    1.7431 O   0  0  0  0  0  0  0  0  0  0  0  0
    5.9393   -9.3304    2.0089 C   0  0  0  0  0  0  0  0  0  0  0  0
    7.1016   -8.8383    2.6275 C   0  0  0  0  0  0  0  0  0  0  0  0
    7.2500   -7.4620    2.8700 C   0  0  0  0  0  0  0  0  0  0  0  0
    6.2170   -6.5703    2.5130 C   0  0  0  0  0  0  0  0  0  0  0  0
    5.0164   -7.0598    1.9362 C   0  0  0  0  0  0  0  0  0  0  0  0
    4.9053   -8.4439    1.6629 C   0  0  0  0  0  0  0  0  0  0  0  0
    3.8829   -6.0944    1.5295 C   0  0  2  0  0  0  0  0  0  0  0  0
    2.4823   -6.6985    1.7823 C   0  0  0  0  0  0  0  0  0  0  0  0
    1.4136   -6.4868    0.8821 C   0  0  0  0  0  0  0  0  0  0  0  0
    0.1521   -7.0550    1.1097 C   0  0  0  0  0  0  0  0  0  0  0  0
   -0.0866   -7.8233    2.2575 C   0  0  0  0  0  0  0  0  0  0  0  0
    0.9560   -8.0336    3.1801 C   0  0  0  0  0  0  0  0  0  0  0  0
    2.2220   -7.4617    2.9448 C   0  0  0  0  0  0  0  0  0  0  0  0
    4.1289   -5.6899    0.0535 C   0  0  0  0  0  0  0  0  0  0  0  0
    5.4905   -5.0008   -0.1632 C   0  0  0  0  0  0  0  0  0  0  0  0
    5.7105   -3.8484    0.7307 N   0  0  0  0  0  0  0  0  0  0  0  0
    5.0354   -2.6155    0.3081 C   0  0  0  0  0  0  0  0  0  0  0  0
    5.4839   -2.1105   -1.0516 C   0  0  0  0  0  0  0  0  0  0  0  0
    4.6839   -1.0108   -1.7174 C   0  0  0  0  0  0  0  0  0  0  0  0
    4.6618   -2.4037   -2.2894 C   0  0  0  0  0  0  0  0  0  0  0  0
    5.3899   -4.1539    2.1385 C   0  0  2  0  0  0  0  0  0  0  0  0
    6.4365   -5.0885    2.7695 C   0  0  0  0  0  0  0  0  0  0  0  0
    3.9861   -4.7683    2.3065 C   0  0  0  0  0  0  0  0  0  0  0  0
    5.0461  -10.9757    1.2947 H   0  0  0  0  0  0  0  0  0  0  0  0
    7.9013   -9.5116    2.8943 H   0  0  0  0  0  0  0  0  0  0  0  0
    8.1624   -7.0888    3.3163 H   0  0  0  0  0  0  0  0  0  0  0  0
    4.0197   -8.8324    1.1920 H   0  0  0  0  0  0  0  0  0  0  0  0
    1.5383   -5.9259   -0.0293 H   0  0  0  0  0  0  0  0  0  0  0  0
   -0.6188   -6.9125    0.3740 H   0  0  0  0  0  0  0  0  0  0  0  0
   -1.0549   -8.2775    2.4144 H   0  0  0  0  0  0  0  0  0  0  0  0
    0.7821   -8.6477    4.0530 H   0  0  0  0  0  0  0  0  0  0  0  0
    3.0117   -7.6469    3.6581 H   0  0  0  0  0  0  0  0  0  0  0  0
    4.0800   -6.5744   -0.5834 H   0  0  0  0  0  0  0  0  0  0  0  0
    3.3794   -4.9882   -0.3046 H   0  0  0  0  0  0  0  0  0  0  0  0
    6.2946   -5.7276   -0.0170 H   0  0  0  0  0  0  0  0  0  0  0  0
    5.5681   -4.6911   -1.2029 H   0  0  0  0  0  0  0  0  0  0  0  0
    3.9505   -2.7252    0.3212 H   0  0  0  0  0  0  0  0  0  0  0  0
    5.2852   -1.8319    1.0257 H   0  0  0  0  0  0  0  0  0  0  0  0
    6.5665   -2.0500   -1.1785 H   0  0  0  0  0  0  0  0  0  0  0  0
    3.7861   -0.6609   -1.2078 H   0  0  0  0  0  0  0  0  0  0  0  0
    5.2193   -0.2563   -2.2872 H   0  0  0  0  0  0  0  0  0  0  0  0
    5.2031   -2.5774   -3.2154 H   0  0  0  0  0  0  0  0  0  0  0  0
    3.7600   -3.0003   -2.1564 H   0  0  0  0  0  0  0  0  0  0  0  0
    5.4376   -3.2182    2.6925 H   0  0  0  0  0  0  0  0  0  0  0  0
    6.3953   -4.9656    3.8498 H   0  0  0  0  0  0  0  0  0  0  0  0
    7.4436   -4.8070    2.4468 H   0  0  0  0  0  0  0  0  0  0  0  0
    3.2090   -4.0774    1.9793 H   0  0  0  0  0  0  0  0  0  0  0  0
    3.7950   -4.9525    3.3631 H   0  0  0  0  0  0  0  0  0  0  0  0
  1  2  1  0
  1 25  1  0
  2  7  2  0
  2  3  1  0
  3  4  2  0
  3 26  1  0
  4  5  1  0
  4 27  1  0
  5 23  1  0
  5  6  2  0
  6  7  1  0
  6  8  1  0
  7 28  1  0
  8 24  1  0
  8  9  1  6
  8 15  1  0
  9 14  1  0
  9 10  2  0
 10 11  1  0
 10 29  1  0
 11 12  2  0
 11 30  1  0
 12 13  1  0
 12 31  1  0
 13 14  2  0
 13 32  1  0
 14 33  1  0
 15 16  1  0
 15 34  1  0
 15 35  1  0
 16 17  1  0
 16 36  1  0
 16 37  1  0
 17 18  1  0
 17 22  1  0
 18 19  1  0
 18 38  1  0
 18 39  1  0
 19 21  1  0
 19 20  1  0
 19 40  1  0
 20 21  1  0
 20 41  1  0
 20 42  1  0
 21 43  1  0
 21 44  1  0
 22 23  1  0
 22 24  1  0
 22 45  1  1
 23 46  1  0
 23 47  1  0
 24 48  1  0
 24 49  1  0
M  END
>  <i_m_ct_stereo_status>  (313) 
1

>  <s_m_source_file>  (313) 
/var/tmp/pbs.5102264.sched01/tmp5h8_9bj8/92lofvt80g.sdf

>  <i_m_source_file_index>  (313) 
22

>  <i_lp_mmshare_version>  (313) 
48012

>  <i_f3d_flags>  (313) 
0

>  <s_epik_input>  (313) 
W0NIMl0xW0NIMl1bQ0hdMVtDSDJdTihbQ0gyXVtDSDJdMilbQ0BASF0oW0NIMl0zKVtDSDJdYyhbY0hdW2NIXWMoW09IXSlbY0hdNCljNFtDQF0yM2M1W2NIXVtjSF1bY0hdW2NIXVtjSF01

>  <s_epik_cmdline>  (313) 
J2VwaWtfcHl0aG9uJywgJy1waHQnLCAnMi4wJywgJy1waCcsICc3LjAnLCAnLXRuJywgJzgnLCAnLW1hJywgJzIwMCcsICctaW1hZScsICc8aW5maWxlLm1hZT4nLCAnLW9tYWUnLCAnPG91dGZpbGUubWFlPic=

>  <r_lp_tautomer_probability>  (313) 
1

>  <r_epik_Ionization_Penalty>  (313) 
2.45918

>  <r_epik_Ionization_Penalty_Charging>  (313) 
0

>  <r_epik_Ionization_Penalty_Neutral>  (313) 
2.45918

>  <r_epik_State_Penalty>  (313) 
2.6209

>  <r_epik_Charging_Adjusted_Penalty>  (313) 
2.6209

>  <i_epik_Tot_Q>  (313) 
0

>  <i_epik_Tot_abs_Q>  (313) 
0

>  <s_lp_Force_Field>  (313) 
OPLS3e

>  <r_lp_Energy>  (313) 
53.1731

>  <b_lp_Chiralities_Consistent>  (313) 
1

>  <s_lp_Variant>  (313) 
67:0-2

>  <s_i_glide_gridfile>  (313) 
pfpi4k_grid

>  <i_i_glide_lignum>  (313) 
22

>  <i_i_glide_rotatable_bonds>  (313) 
4

>  <r_i_docking_score>  (313) 
-3.01325

>  <r_i_glide_ligand_efficiency>  (313) 
-0.125552

>  <r_i_glide_ligand_efficiency_sa>  (313) 
-0.362155

>  <r_i_glide_ligand_efficiency_ln>  (313) 
-0.721208

>  <r_i_glide_gscore>  (313) 
-3.01325

>  <r_i_glide_lipo>  (313) 
-0.37461

>  <r_i_glide_hbond>  (313) 
-0.16

>  <r_i_glide_metal>  (313) 
-0

>  <r_i_glide_rewards>  (313) 
-1.23109

>  <r_i_glide_evdw>  (313) 
-22.6952

>  <r_i_glide_ecoul>  (313) 
-4.40902

>  <r_i_glide_erotb>  (313) 
0.548565

>  <r_i_glide_esite>  (313) 
0

>  <r_i_glide_emodel>  (313) 
-32.7484

>  <r_i_glide_energy>  (313) 
-27.1042

>  <r_i_glide_einternal>  (313) 
1.48098

>  <r_i_glide_intrahb_reward>  (313) 
-0

>  <i_i_glide_confnum>  (313) 
2

>  <i_i_glide_posenum>  (313) 
17

>  <r_i_glide_eff_state_penalty>  (313) 
0

>  <ligand_id>  (313) 
67

>  <original_smiles>  (313) 
Oc1ccc2c(c1)C1(c3ccccc3)CCN(CC3CC3)C(C2)C1

>  <smiles>  (313) 
[H]Oc1c([H])c([H])c2c(c1[H])C1(c3c([H])c([H])c([H])c([H])c3[H])C([H])([H])C([H])([H])N(C([H])([H])C3([H])C([H])([H])C3([H])[H])C([H])(C2([H])[H])C1([H])[H]

$$$$
67:1:2
     RDKit          3D

 49 53  0  0  1  0  0  0  0  0999 V2000
    6.2875   -9.3688    2.3029 O   0  0  0  0  0  0  0  0  0  0  0  0
    6.2316   -8.0079    2.2174 C   0  0  0  0  0  0  0  0  0  0  0  0
    7.3737   -7.2435    2.5214 C   0  0  0  0  0  0  0  0  0  0  0  0
    7.3275   -5.8411    2.4098 C   0  0  0  0  0  0  0  0  0  0  0  0
    6.1433   -5.1933    1.9989 C   0  0  0  0  0  0  0  0  0  0  0  0
    4.9744   -5.9524    1.7237 C   0  0  0  0  0  0  0  0  0  0  0  0
    5.0423   -7.3654    1.8191 C   0  0  0  0  0  0  0  0  0  0  0  0
    3.6782   -5.2670    1.2503 C   0  0  2  0  0  0  0  0  0  0  0  0
    2.4313   -5.9631    1.8380 C   0  0  0  0  0  0  0  0  0  0  0  0
    2.3225   -6.1050    3.2405 C   0  0  0  0  0  0  0  0  0  0  0  0
    1.2090   -6.7338    3.8264 C   0  0  0  0  0  0  0  0  0  0  0  0
    0.1764   -7.2334    3.0129 C   0  0  0  0  0  0  0  0  0  0  0  0
    0.2638   -7.1017    1.6152 C   0  0  0  0  0  0  0  0  0  0  0  0
    1.3815   -6.4704    1.0332 C   0  0  0  0  0  0  0  0  0  0  0  0
    3.7042   -5.2232   -0.2916 C   0  0  0  0  0  0  0  0  0  0  0  0
    4.9108   -4.4484   -0.8589 C   0  0  0  0  0  0  0  0  0  0  0  0
    5.0501   -3.0934   -0.2983 N   0  0  0  0  0  0  0  0  0  0  0  0
    4.1596   -2.0959   -0.9022 C   0  0  0  0  0  0  0  0  0  0  0  0
    4.3690   -1.9210   -2.3958 C   0  0  0  0  0  0  0  0  0  0  0  0
    3.4308   -1.0116   -3.1573 C   0  0  0  0  0  0  0  0  0  0  0  0
    3.3746   -2.4990   -3.3802 C   0  0  0  0  0  0  0  0  0  0  0  0
    4.9224   -3.0690    1.1694 C   0  0  2  0  0  0  0  0  0  0  0  0
    6.1581   -3.6739    1.8558 C   0  0  0  0  0  0  0  0  0  0  0  0
    3.6506   -3.7839    1.6628 C   0  0  0  0  0  0  0  0  0  0  0  0
    5.4739   -9.7976    2.0795 H   0  0  0  0  0  0  0  0  0  0  0  0
    8.2943   -7.7275    2.8193 H   0  0  0  0  0  0  0  0  0  0  0  0
    8.2141   -5.2632    2.6327 H   0  0  0  0  0  0  0  0  0  0  0  0
    4.1757   -7.9633    1.5805 H   0  0  0  0  0  0  0  0  0  0  0  0
    3.1137   -5.7429    3.8766 H   0  0  0  0  0  0  0  0  0  0  0  0
    1.1563   -6.8460    4.8997 H   0  0  0  0  0  0  0  0  0  0  0  0
   -0.6702   -7.7360    3.4633 H   0  0  0  0  0  0  0  0  0  0  0  0
   -0.5165   -7.5110    0.9878 H   0  0  0  0  0  0  0  0  0  0  0  0
    1.4171   -6.4055   -0.0400 H   0  0  0  0  0  0  0  0  0  0  0  0
    3.7683   -6.2432   -0.6662 H   0  0  0  0  0  0  0  0  0  0  0  0
    2.7946   -4.7683   -0.6845 H   0  0  0  0  0  0  0  0  0  0  0  0
    5.8175   -5.0135   -0.6490 H   0  0  0  0  0  0  0  0  0  0  0  0
    4.8468   -4.4154   -1.9440 H   0  0  0  0  0  0  0  0  0  0  0  0
    3.1105   -2.3160   -0.7028 H   0  0  0  0  0  0  0  0  0  0  0  0
    4.3740   -1.1307   -0.4404 H   0  0  0  0  0  0  0  0  0  0  0  0
    5.4130   -1.8758   -2.7066 H   0  0  0  0  0  0  0  0  0  0  0  0
    2.6155   -0.5561   -2.6006 H   0  0  0  0  0  0  0  0  0  0  0  0
    3.8447   -0.4004   -3.9559 H   0  0  0  0  0  0  0  0  0  0  0  0
    3.7632   -2.8831   -4.3192 H   0  0  0  0  0  0  0  0  0  0  0  0
    2.5295   -3.0474   -2.9675 H   0  0  0  0  0  0  0  0  0  0  0  0
    4.8815   -2.0243    1.4752 H   0  0  0  0  0  0  0  0  0  0  0  0
    6.1889   -3.2738    2.8674 H   0  0  0  0  0  0  0  0  0  0  0  0
    7.0742   -3.3472    1.3606 H   0  0  0  0  0  0  0  0  0  0  0  0
    2.7483   -3.2978    1.2907 H   0  0  0  0  0  0  0  0  0  0  0  0
    3.6036   -3.7023    2.7465 H   0  0  0  0  0  0  0  0  0  0  0  0
  1  2  1  0
  1 25  1  0
  2  7  2  0
  2  3  1  0
  3  4  2  0
  3 26  1  0
  4  5  1  0
  4 27  1  0
  5 23  1  0
  5  6  2  0
  6  7  1  0
  6  8  1  0
  7 28  1  0
  8 24  1  0
  8  9  1  6
  8 15  1  0
  9 14  1  0
  9 10  2  0
 10 11  1  0
 10 29  1  0
 11 12  2  0
 11 30  1  0
 12 13  1  0
 12 31  1  0
 13 14  2  0
 13 32  1  0
 14 33  1  0
 15 16  1  0
 15 34  1  0
 15 35  1  0
 16 17  1  0
 16 36  1  0
 16 37  1  0
 17 18  1  0
 17 22  1  0
 18 19  1  0
 18 38  1  0
 18 39  1  0
 19 21  1  0
 19 20  1  0
 19 40  1  0
 20 21  1  0
 20 41  1  0
 20 42  1  0
 21 43  1  0
 21 44  1  0
 22 23  1  0
 22 24  1  0
 22 45  1  1
 23 46  1  0
 23 47  1  0
 24 48  1  0
 24 49  1  0
M  END
>  <i_m_ct_stereo_status>  (314) 
1

>  <s_m_source_file>  (314) 
/var/tmp/pbs.5102264.sched01/tmp5h8_9bj8/92lofvt80g.sdf

>  <i_m_source_file_index>  (314) 
22

>  <i_lp_mmshare_version>  (314) 
48012

>  <i_f3d_flags>  (314) 
0

>  <s_epik_input>  (314) 
W0NIMl0xW0NIMl1bQ0hdMVtDSDJdTihbQ0gyXVtDSDJdMilbQ0BASF0oW0NIMl0zKVtDSDJdYyhbY0hdW2NIXWMoW09IXSlbY0hdNCljNFtDQF0yM2M1W2NIXVtjSF1bY0hdW2NIXVtjSF01

>  <s_epik_cmdline>  (314) 
J2VwaWtfcHl0aG9uJywgJy1waHQnLCAnMi4wJywgJy1waCcsICc3LjAnLCAnLXRuJywgJzgnLCAnLW1hJywgJzIwMCcsICctaW1hZScsICc8aW5maWxlLm1hZT4nLCAnLW9tYWUnLCAnPG91dGZpbGUubWFlPic=

>  <r_lp_tautomer_probability>  (314) 
1

>  <r_epik_Ionization_Penalty>  (314) 
2.45918

>  <r_epik_Ionization_Penalty_Charging>  (314) 
0

>  <r_epik_Ionization_Penalty_Neutral>  (314) 
2.45918

>  <r_epik_State_Penalty>  (314) 
2.6209

>  <r_epik_Charging_Adjusted_Penalty>  (314) 
2.6209

>  <i_epik_Tot_Q>  (314) 
0

>  <i_epik_Tot_abs_Q>  (314) 
0

>  <s_lp_Force_Field>  (314) 
OPLS3e

>  <r_lp_Energy>  (314) 
53.1731

>  <b_lp_Chiralities_Consistent>  (314) 
1

>  <s_lp_Variant>  (314) 
67:0-2

>  <s_i_glide_gridfile>  (314) 
pfpi4k_grid

>  <i_i_glide_lignum>  (314) 
22

>  <i_i_glide_rotatable_bonds>  (314) 
4

>  <r_i_docking_score>  (314) 
-2.71323

>  <r_i_glide_ligand_efficiency>  (314) 
-0.113051

>  <r_i_glide_ligand_efficiency_sa>  (314) 
-0.326097

>  <r_i_glide_ligand_efficiency_ln>  (314) 
-0.649401

>  <r_i_glide_gscore>  (314) 
-2.71323

>  <r_i_glide_lipo>  (314) 
-0.531324

>  <r_i_glide_hbond>  (314) 
0

>  <r_i_glide_metal>  (314) 
-0

>  <r_i_glide_rewards>  (314) 
-1.23109

>  <r_i_glide_evdw>  (314) 
-23.2035

>  <r_i_glide_ecoul>  (314) 
-2.26138

>  <r_i_glide_erotb>  (314) 
0.548565

>  <r_i_glide_esite>  (314) 
0

>  <r_i_glide_emodel>  (314) 
-31.2848

>  <r_i_glide_energy>  (314) 
-25.4649

>  <r_i_glide_einternal>  (314) 
0.0739392

>  <r_i_glide_intrahb_reward>  (314) 
-0

>  <i_i_glide_confnum>  (314) 
1

>  <i_i_glide_posenum>  (314) 
31

>  <r_i_glide_eff_state_penalty>  (314) 
0

>  <ligand_id>  (314) 
67

>  <original_smiles>  (314) 
Oc1ccc2c(c1)C1(c3ccccc3)CCN(CC3CC3)C(C2)C1

>  <smiles>  (314) 
[H]Oc1c([H])c([H])c2c(c1[H])C1(c3c([H])c([H])c([H])c([H])c3[H])C([H])([H])C([H])([H])N(C([H])([H])C3([H])C([H])([H])C3([H])[H])C([H])(C2([H])[H])C1([H])[H]

$$$$
68:0:0
     RDKit          3D

 33 35  0  0  1  0  0  0  0  0999 V2000
    1.4119   -6.2861    0.9605 N   0  0  0  0  0  0  0  0  0  0  0  0
    2.1672   -5.4266    0.7890 C   0  0  0  0  0  0  0  0  0  0  0  0
    2.9725   -4.2696    0.6373 C   0  0  0  0  0  0  0  0  0  0  0  0
    3.6917   -3.9677   -0.6487 C   0  0  1  0  0  0  0  0  0  0  0  0
    2.7525   -3.2843   -1.6615 C   0  0  0  0  0  0  0  0  0  0  0  0
    3.4115   -1.9341   -1.9820 C   0  0  2  0  0  0  0  0  0  0  0  0
    4.5161   -2.0244   -3.0535 C   0  0  0  0  0  0  0  0  0  0  0  0
    5.5990   -3.0626   -2.6938 C   0  0  0  0  0  0  0  0  0  0  0  0
    5.9923   -3.0550   -1.2027 C   0  0  0  0  0  0  0  0  0  0  0  0
    4.7549   -2.8948   -0.2810 C   0  0  1  0  0  0  0  0  0  0  0  0
    4.0709   -1.5744   -0.6566 C   0  0  0  0  0  0  0  0  0  0  0  0
    4.9915   -3.0563    1.2379 C   0  0  0  0  0  0  0  0  0  0  0  0
    6.0888   -4.0119    1.4720 C   0  0  0  0  0  0  0  0  0  0  0  0
    6.9702   -4.7470    1.6616 N   0  0  0  0  0  0  0  0  0  0  0  0
    5.3705   -1.7904    1.8816 C   0  0  0  0  0  0  0  0  0  0  0  0
    5.6723   -0.7995    2.3909 N   0  0  0  0  0  0  0  0  0  0  0  0
    3.6517   -3.6012    1.8078 C   0  0  0  0  0  0  0  0  0  0  0  0
    2.7029   -2.5634    2.2336 C   0  0  0  0  0  0  0  0  0  0  0  0
    1.9496   -1.7541    2.5671 N   0  0  0  0  0  0  0  0  0  0  0  0
    3.8876   -4.4519    2.9974 C   0  0  0  0  0  0  0  0  0  0  0  0
    4.0876   -5.0850    3.9442 N   0  0  0  0  0  0  0  0  0  0  0  0
    4.1761   -4.8906   -1.0231 H   0  0  0  0  0  0  0  0  0  0  0  0
    2.5625   -3.8669   -2.5534 H   0  0  0  0  0  0  0  0  0  0  0  0
    1.7963   -3.1161   -1.1765 H   0  0  0  0  0  0  0  0  0  0  0  0
    2.6733   -1.1775   -2.2639 H   0  0  0  0  0  0  0  0  0  0  0  0
    4.0696   -2.2571   -4.0207 H   0  0  0  0  0  0  0  0  0  0  0  0
    4.9798   -1.0414   -3.1511 H   0  0  0  0  0  0  0  0  0  0  0  0
    5.2197   -4.0503   -2.9714 H   0  0  0  0  0  0  0  0  0  0  0  0
    6.4896   -2.9213   -3.2997 H   0  0  0  0  0  0  0  0  0  0  0  0
    6.4969   -3.9897   -1.0040 H   0  0  0  0  0  0  0  0  0  0  0  0
    6.6973   -2.2639   -0.9950 H   0  0  0  0  0  0  0  0  0  0  0  0
    4.7625   -0.7409   -0.7286 H   0  0  0  0  0  0  0  0  0  0  0  0
    3.2912   -1.3003    0.0516 H   0  0  0  0  0  0  0  0  0  0  0  0
  1  2  3  0
  2  3  1  0
  3 17  1  0
  3  4  1  0
  4 10  1  0
  4  5  1  0
  4 22  1  6
  5  6  1  0
  5 23  1  0
  5 24  1  0
  6 11  1  0
  6  7  1  0
  6 25  1  6
  7  8  1  0
  7 26  1  0
  7 27  1  0
  8  9  1  0
  8 28  1  0
  8 29  1  0
 10  9  1  6
  9 30  1  0
  9 31  1  0
 10 11  1  0
 10 12  1  0
 11 32  1  0
 11 33  1  0
 12 13  1  0
 12 15  1  0
 12 17  1  0
 13 14  3  0
 15 16  3  0
 17 18  1  0
 17 20  1  0
 18 19  3  0
 20 21  3  0
M  CHG  1   3  -1
M  END
>  <i_m_ct_stereo_status>  (315) 
1

>  <s_m_source_file>  (315) 
/var/tmp/pbs.5102264.sched01/tmp5h8_9bj8/92lofvt80g.sdf

>  <i_m_source_file_index>  (315) 
23

>  <i_lp_mmshare_version>  (315) 
48012

>  <i_f3d_flags>  (315) 
0

>  <s_epik_input>  (315) 
TiNDQzEoQyNOKUMoQyNOKShDI04pW0NASF0oQyNOKVtDQEhdKFtDQEBdMTIzKVtDSDJdW0NAQEhdKFtDSDJdMylbQ0gyXVtDSDJdW0NIMl0y

>  <s_epik_cmdline>  (315) 
J2VwaWtfcHl0aG9uJywgJy1waHQnLCAnMi4wJywgJy1waCcsICc3LjAnLCAnLXRuJywgJzgnLCAnLW1hJywgJzIwMCcsICctaW1hZScsICc8aW5maWxlLm1hZT4nLCAnLW9tYWUnLCAnPG91dGZpbGUubWFlPic=

>  <r_epik_Ionization_Penalty>  (315) 
0.279637

>  <r_epik_Ionization_Penalty_Charging>  (315) 
0.279637

>  <r_epik_Ionization_Penalty_Neutral>  (315) 
0

>  <r_epik_State_Penalty>  (315) 
0.272157

>  <r_epik_Charging_Adjusted_Penalty>  (315) 
0.551793

>  <i_epik_Tot_Q>  (315) 
-1

>  <i_epik_Tot_abs_Q>  (315) 
1

>  <s_lp_Force_Field>  (315) 
OPLS3e

>  <r_lp_Energy>  (315) 
23.0116

>  <b_lp_Chiralities_Consistent>  (315) 
1

>  <s_lp_Variant>  (315) 
68:0-1

>  <s_i_glide_gridfile>  (315) 
pfpi4k_grid

>  <i_i_glide_lignum>  (315) 
23

>  <i_i_glide_rotatable_bonds>  (315) 
5

>  <r_i_docking_score>  (315) 
-3.54047

>  <r_i_glide_ligand_efficiency>  (315) 
-0.168594

>  <r_i_glide_ligand_efficiency_sa>  (315) 
-0.465138

>  <r_i_glide_ligand_efficiency_ln>  (315) 
-0.875375

>  <r_i_glide_gscore>  (315) 
-3.54047

>  <r_i_glide_lipo>  (315) 
-0.491844

>  <r_i_glide_hbond>  (315) 
-0.0834463

>  <r_i_glide_metal>  (315) 
-0

>  <r_i_glide_rewards>  (315) 
-1.76848

>  <r_i_glide_evdw>  (315) 
-22.8248

>  <r_i_glide_ecoul>  (315) 
0.0320569

>  <r_i_glide_erotb>  (315) 
0

>  <r_i_glide_esite>  (315) 
-0.0602681

>  <r_i_glide_emodel>  (315) 
-26.0046

>  <r_i_glide_energy>  (315) 
-22.7928

>  <r_i_glide_einternal>  (315) 
2.28732

>  <r_i_glide_intrahb_reward>  (315) 
-0

>  <i_i_glide_confnum>  (315) 
1

>  <i_i_glide_posenum>  (315) 
15

>  <r_i_glide_eff_state_penalty>  (315) 
0

>  <ligand_id>  (315) 
68

>  <original_smiles>  (315) 
N#CC1C2CC3CCCC2(C3)C(C#N)(C#N)C1(C#N)C#N

>  <smiles>  (315) 
[H]C1([H])C([H])([H])C2([H])C([H])([H])C3([H])[C-](C#N)C(C#N)(C#N)C(C#N)(C#N)C3(C1([H])[H])C2([H])[H]

$$$$
68:1:0
     RDKit          3D

 34 36  0  0  1  0  0  0  0  0999 V2000
    2.2163   -6.0428    1.5885 N   0  0  0  0  0  0  0  0  0  0  0  0
    2.7815   -5.0998    1.2345 C   0  0  0  0  0  0  0  0  0  0  0  0
    3.4970   -3.8945    0.7858 C   0  0  2  0  0  0  0  0  0  0  0  0
    3.7095   -3.8495   -0.7224 C   0  0  1  0  0  0  0  0  0  0  0  0
    2.5012   -3.4157   -1.5735 C   0  0  0  0  0  0  0  0  0  0  0  0
    3.0258   -2.2440   -2.4213 C   0  0  2  0  0  0  0  0  0  0  0  0
    3.7768   -2.6925   -3.6918 C   0  0  0  0  0  0  0  0  0  0  0  0
    4.9620   -3.6306   -3.3794 C   0  0  0  0  0  0  0  0  0  0  0  0
    5.7328   -3.2285   -2.1031 C   0  0  0  0  0  0  0  0  0  0  0  0
    4.8046   -2.7917   -0.9441 C   0  0  1  0  0  0  0  0  0  0  0  0
    4.0068   -1.5786   -1.4604 C   0  0  0  0  0  0  0  0  0  0  0  0
    5.5143   -2.6149    0.4454 C   0  0  0  0  0  0  0  0  0  0  0  0
    6.9823   -2.7078    0.3607 C   0  0  0  0  0  0  0  0  0  0  0  0
    8.1333   -2.7835    0.2906 N   0  0  0  0  0  0  0  0  0  0  0  0
    5.2259   -1.3044    1.0519 C   0  0  0  0  0  0  0  0  0  0  0  0
    5.0032   -0.2801    1.5338 N   0  0  0  0  0  0  0  0  0  0  0  0
    4.9223   -3.7444    1.3316 C   0  0  0  0  0  0  0  0  0  0  0  0
    4.9152   -3.4185    2.7647 C   0  0  0  0  0  0  0  0  0  0  0  0
    4.9080   -3.1603    3.8940 N   0  0  0  0  0  0  0  0  0  0  0  0
    5.6728   -4.9998    1.1508 C   0  0  0  0  0  0  0  0  0  0  0  0
    6.2646   -5.9837    1.0079 N   0  0  0  0  0  0  0  0  0  0  0  0
    2.9009   -3.0372    1.1052 H   0  0  0  0  0  0  0  0  0  0  0  0
    4.0732   -4.8291   -1.0442 H   0  0  0  0  0  0  0  0  0  0  0  0
    2.0670   -4.2152   -2.1724 H   0  0  0  0  0  0  0  0  0  0  0  0
    1.7087   -3.0582   -0.9179 H   0  0  0  0  0  0  0  0  0  0  0  0
    2.2154   -1.5646   -2.6935 H   0  0  0  0  0  0  0  0  0  0  0  0
    3.0817   -3.1822   -4.3778 H   0  0  0  0  0  0  0  0  0  0  0  0
    4.1413   -1.8022   -4.2068 H   0  0  0  0  0  0  0  0  0  0  0  0
    4.5999   -4.6502   -3.2573 H   0  0  0  0  0  0  0  0  0  0  0  0
    5.6340   -3.7053   -4.2295 H   0  0  0  0  0  0  0  0  0  0  0  0
    6.3026   -4.0881   -1.7738 H   0  0  0  0  0  0  0  0  0  0  0  0
    6.4458   -2.4360   -2.3322 H   0  0  0  0  0  0  0  0  0  0  0  0
    4.6318   -0.8231   -1.9390 H   0  0  0  0  0  0  0  0  0  0  0  0
    3.4298   -1.0846   -0.6761 H   0  0  0  0  0  0  0  0  0  0  0  0
  1  2  3  0
  2  3  1  0
  3 17  1  0
  3  4  1  0
  3 22  1  1
  4 10  1  0
  4  5  1  0
  4 23  1  6
  5  6  1  0
  5 24  1  0
  5 25  1  0
  6 11  1  0
  6  7  1  0
  6 26  1  6
  7  8  1  0
  7 27  1  0
  7 28  1  0
  8  9  1  0
  8 29  1  0
  8 30  1  0
 10  9  1  6
  9 31  1  0
  9 32  1  0
 10 11  1  0
 10 12  1  0
 11 33  1  0
 11 34  1  0
 12 13  1  0
 12 15  1  0
 12 17  1  0
 13 14  3  0
 15 16  3  0
 17 18  1  0
 17 20  1  0
 18 19  3  0
 20 21  3  0
M  END
>  <i_m_ct_stereo_status>  (316) 
1

>  <s_m_source_file>  (316) 
/var/tmp/pbs.5102264.sched01/tmplas2qej_/115vanlg5zy.sdf

>  <i_m_source_file_index>  (316) 
1

>  <i_lp_mmshare_version>  (316) 
48012

>  <i_f3d_flags>  (316) 
0

>  <s_epik_input>  (316) 
TiNDQzEoQyNOKUMoQyNOKShDI04pW0NASF0oQyNOKVtDQEhdKFtDQEBdMTIzKVtDSDJdW0NAQEhdKFtDSDJdMylbQ0gyXVtDSDJdW0NIMl0y

>  <s_epik_cmdline>  (316) 
J2VwaWtfcHl0aG9uJywgJy1waHQnLCAnMi4wJywgJy1waCcsICc3LjAnLCAnLXRuJywgJzgnLCAnLW1hJywgJzIwMCcsICctaW1hZScsICc8aW5maWxlLm1hZT4nLCAnLW9tYWUnLCAnPG91dGZpbGUubWFlPic=

>  <r_epik_Ionization_Penalty>  (316) 
0.579189

>  <r_epik_Ionization_Penalty_Charging>  (316) 
0

>  <r_epik_Ionization_Penalty_Neutral>  (316) 
0.579189

>  <r_epik_State_Penalty>  (316) 
0.591802

>  <r_epik_Charging_Adjusted_Penalty>  (316) 
0.591802

>  <i_epik_Tot_Q>  (316) 
0

>  <i_epik_Tot_abs_Q>  (316) 
0

>  <s_lp_Force_Field>  (316) 
OPLS3e

>  <r_lp_Energy>  (316) 
14.2465

>  <b_lp_Chiralities_Consistent>  (316) 
1

>  <s_lp_Variant>  (316) 
68:0-2

>  <s_i_glide_gridfile>  (316) 
pfpi4k_grid

>  <i_i_glide_lignum>  (316) 
1

>  <i_i_glide_rotatable_bonds>  (316) 
5

>  <r_i_docking_score>  (316) 
-4.49221

>  <r_i_glide_ligand_efficiency>  (316) 
-0.213915

>  <r_i_glide_ligand_efficiency_sa>  (316) 
-0.590175

>  <r_i_glide_ligand_efficiency_ln>  (316) 
-1.11069

>  <r_i_glide_gscore>  (316) 
-4.49221

>  <r_i_glide_lipo>  (316) 
-0.717555

>  <r_i_glide_hbond>  (316) 
-0.077021

>  <r_i_glide_metal>  (316) 
-0

>  <r_i_glide_rewards>  (316) 
-1.97804

>  <r_i_glide_evdw>  (316) 
-24.8982

>  <r_i_glide_ecoul>  (316) 
-3.05476

>  <r_i_glide_erotb>  (316) 
0

>  <r_i_glide_esite>  (316) 
-0.0164763

>  <r_i_glide_emodel>  (316) 
-33.3051

>  <r_i_glide_energy>  (316) 
-27.9529

>  <r_i_glide_einternal>  (316) 
3.45689

>  <r_i_glide_intrahb_reward>  (316) 
-0

>  <i_i_glide_confnum>  (316) 
1

>  <i_i_glide_posenum>  (316) 
1

>  <r_i_glide_eff_state_penalty>  (316) 
0

>  <ligand_id>  (316) 
68

>  <original_smiles>  (316) 
N#CC1C2CC3CCCC2(C3)C(C#N)(C#N)C1(C#N)C#N

>  <smiles>  (316) 
[H]C1([H])C([H])([H])C2([H])C([H])([H])C3([H])C([H])(C#N)C(C#N)(C#N)C(C#N)(C#N)C3(C1([H])[H])C2([H])[H]

$$$$
68:1:1
     RDKit          3D

 34 36  0  0  1  0  0  0  0  0999 V2000
    1.5422   -5.9332    0.7678 N   0  0  0  0  0  0  0  0  0  0  0  0
    2.1320   -4.9657    0.5450 C   0  0  0  0  0  0  0  0  0  0  0  0
    2.8454   -3.7169    0.2604 C   0  0  2  0  0  0  0  0  0  0  0  0
    3.3858   -3.6612   -1.1537 C   0  0  1  0  0  0  0  0  0  0  0  0
    2.3948   -3.2536   -2.2683 C   0  0  0  0  0  0  0  0  0  0  0  0
    3.0794   -2.0762   -2.9677 C   0  0  2  0  0  0  0  0  0  0  0  0
    4.1145   -2.5396   -3.9958 C   0  0  0  0  0  0  0  0  0  0  0  0
    5.1884   -3.4768   -3.3961 C   0  0  0  0  0  0  0  0  0  0  0  0
    5.6623   -3.0361   -2.0066 C   0  0  0  0  0  0  0  0  0  0  0  0
    4.4826   -2.5829   -1.1219 C   0  0  1  0  0  0  0  0  0  0  0  0
    3.8110   -1.3875   -1.8261 C   0  0  0  0  0  0  0  0  0  0  0  0
    4.8323   -2.3765    0.3868 C   0  0  0  0  0  0  0  0  0  0  0  0
    6.2801   -2.4420    0.6262 C   0  0  0  0  0  0  0  0  0  0  0  0
    7.4185   -2.5018    0.7989 N   0  0  0  0  0  0  0  0  0  0  0  0
    4.3760   -1.0632    0.8897 C   0  0  0  0  0  0  0  0  0  0  0  0
    4.0198   -0.0424    1.2861 N   0  0  0  0  0  0  0  0  0  0  0  0
    4.0886   -3.5170    1.1223 C   0  0  0  0  0  0  0  0  0  0  0  0
    3.7191   -3.1865    2.5060 C   0  0  0  0  0  0  0  0  0  0  0  0
    3.4263   -2.9238    3.5937 N   0  0  0  0  0  0  0  0  0  0  0  0
    4.8827   -4.7603    1.1364 C   0  0  0  0  0  0  0  0  0  0  0  0
    5.5039   -5.7328    1.1422 N   0  0  0  0  0  0  0  0  0  0  0  0
    2.1568   -2.8792    0.4269 H   0  0  0  0  0  0  0  0  0  0  0  0
    3.8448   -4.6307   -1.3612 H   0  0  0  0  0  0  0  0  0  0  0  0
    2.1736   -4.0550   -2.9649 H   0  0  0  0  0  0  0  0  0  0  0  0
    1.4414   -2.9306   -1.8533 H   0  0  0  0  0  0  0  0  0  0  0  0
    2.3488   -1.4221   -3.4496 H   0  0  0  0  0  0  0  0  0  0  0  0
    3.5801   -3.0636   -4.7826 H   0  0  0  0  0  0  0  0  0  0  0  0
    4.5824   -1.6589   -4.4361 H   0  0  0  0  0  0  0  0  0  0  0  0
    4.7965   -4.4940   -3.3756 H   0  0  0  0  0  0  0  0  0  0  0  0
    6.0853   -3.5296   -3.9941 H   0  0  0  0  0  0  0  0  0  0  0  0
    6.2050   -3.8715   -1.5586 H   0  0  0  0  0  0  0  0  0  0  0  0
    6.3802   -2.2251   -2.1163 H   0  0  0  0  0  0  0  0  0  0  0  0
    4.5132   -0.6221   -2.1651 H   0  0  0  0  0  0  0  0  0  0  0  0
    3.0497   -0.9111   -1.2064 H   0  0  0  0  0  0  0  0  0  0  0  0
  1  2  3  0
  2  3  1  0
  3 17  1  0
  3  4  1  0
  3 22  1  6
  4 10  1  0
  4  5  1  0
  4 23  1  6
  5  6  1  0
  5 24  1  0
  5 25  1  0
  6 11  1  0
  6  7  1  0
  6 26  1  6
  7  8  1  0
  7 27  1  0
  7 28  1  0
  8  9  1  0
  8 29  1  0
  8 30  1  0
 10  9  1  6
  9 31  1  0
  9 32  1  0
 10 11  1  0
 10 12  1  0
 11 33  1  0
 11 34  1  0
 12 13  1  0
 12 15  1  0
 12 17  1  0
 13 14  3  0
 15 16  3  0
 17 18  1  0
 17 20  1  0
 18 19  3  0
 20 21  3  0
M  END
>  <i_m_ct_stereo_status>  (317) 
1

>  <s_m_source_file>  (317) 
/var/tmp/pbs.5102264.sched01/tmplas2qej_/115vanlg5zy.sdf

>  <i_m_source_file_index>  (317) 
1

>  <i_lp_mmshare_version>  (317) 
48012

>  <i_f3d_flags>  (317) 
0

>  <s_epik_input>  (317) 
TiNDQzEoQyNOKUMoQyNOKShDI04pW0NASF0oQyNOKVtDQEhdKFtDQEBdMTIzKVtDSDJdW0NAQEhdKFtDSDJdMylbQ0gyXVtDSDJdW0NIMl0y

>  <s_epik_cmdline>  (317) 
J2VwaWtfcHl0aG9uJywgJy1waHQnLCAnMi4wJywgJy1waCcsICc3LjAnLCAnLXRuJywgJzgnLCAnLW1hJywgJzIwMCcsICctaW1hZScsICc8aW5maWxlLm1hZT4nLCAnLW9tYWUnLCAnPG91dGZpbGUubWFlPic=

>  <r_epik_Ionization_Penalty>  (317) 
0.579189

>  <r_epik_Ionization_Penalty_Charging>  (317) 
0

>  <r_epik_Ionization_Penalty_Neutral>  (317) 
0.579189

>  <r_epik_State_Penalty>  (317) 
0.591802

>  <r_epik_Charging_Adjusted_Penalty>  (317) 
0.591802

>  <i_epik_Tot_Q>  (317) 
0

>  <i_epik_Tot_abs_Q>  (317) 
0

>  <s_lp_Force_Field>  (317) 
OPLS3e

>  <r_lp_Energy>  (317) 
14.2465

>  <b_lp_Chiralities_Consistent>  (317) 
1

>  <s_lp_Variant>  (317) 
68:0-2

>  <s_i_glide_gridfile>  (317) 
pfpi4k_grid

>  <i_i_glide_lignum>  (317) 
1

>  <i_i_glide_rotatable_bonds>  (317) 
5

>  <r_i_docking_score>  (317) 
-4.14185

>  <r_i_glide_ligand_efficiency>  (317) 
-0.197231

>  <r_i_glide_ligand_efficiency_sa>  (317) 
-0.544146

>  <r_i_glide_ligand_efficiency_ln>  (317) 
-1.02406

>  <r_i_glide_gscore>  (317) 
-4.14185

>  <r_i_glide_lipo>  (317) 
-0.500147

>  <r_i_glide_hbond>  (317) 
-0.142636

>  <r_i_glide_metal>  (317) 
-0

>  <r_i_glide_rewards>  (317) 
-1.73751

>  <r_i_glide_evdw>  (317) 
-20.157

>  <r_i_glide_ecoul>  (317) 
-4.6305

>  <r_i_glide_erotb>  (317) 
0

>  <r_i_glide_esite>  (317) 
-0.0591391

>  <r_i_glide_emodel>  (317) 
-29.2273

>  <r_i_glide_energy>  (317) 
-24.7875

>  <r_i_glide_einternal>  (317) 
3.41783

>  <r_i_glide_intrahb_reward>  (317) 
-0

>  <i_i_glide_confnum>  (317) 
2

>  <i_i_glide_posenum>  (317) 
34

>  <r_i_glide_eff_state_penalty>  (317) 
0

>  <ligand_id>  (317) 
68

>  <original_smiles>  (317) 
N#CC1C2CC3CCCC2(C3)C(C#N)(C#N)C1(C#N)C#N

>  <smiles>  (317) 
[H]C1([H])C([H])([H])C2([H])C([H])([H])C3([H])C([H])(C#N)C(C#N)(C#N)C(C#N)(C#N)C3(C1([H])[H])C2([H])[H]

$$$$
68:1:2
     RDKit          3D

 34 36  0  0  1  0  0  0  0  0999 V2000
    2.2290    0.6194    1.4865 N   0  0  0  0  0  0  0  0  0  0  0  0
    3.0461   -0.0198    0.9506 C   0  0  0  0  0  0  0  0  0  0  0  0
    4.0750   -0.8272    0.2884 C   0  0  2  0  0  0  0  0  0  0  0  0
    3.6770   -1.4872   -1.0279 C   0  0  1  0  0  0  0  0  0  0  0  0
    3.7712   -0.6493   -2.3118 C   0  0  0  0  0  0  0  0  0  0  0  0
    4.6106   -1.4185   -3.2764 C   0  0  2  0  0  0  0  0  0  0  0  0
    3.8031   -2.4270   -4.0503 C   0  0  0  0  0  0  0  0  0  0  0  0
    3.0581   -3.3684   -3.1265 C   0  0  0  0  0  0  0  0  0  0  0  0
    3.8955   -3.7992   -1.8745 C   0  0  0  0  0  0  0  0  0  0  0  0
    4.6514   -2.6395   -1.2303 C   0  0  1  0  0  0  0  0  0  0  0  0
    5.5828   -2.0924   -2.3174 C   0  0  0  0  0  0  0  0  0  0  0  0
    5.2960   -2.9169    0.1651 C   0  0  0  0  0  0  0  0  0  0  0  0
    5.2709   -4.3315    0.5519 C   0  0  0  0  0  0  0  0  0  0  0  0
    5.2487   -5.4555    0.8629 N   0  0  0  0  0  0  0  0  0  0  0  0
    6.7025   -2.4926    0.1845 C   0  0  0  0  0  0  0  0  0  0  0  0
    7.8126   -2.1548    0.1959 N   0  0  0  0  0  0  0  0  0  0  0  0
    4.4570   -2.0366    1.1316 C   0  0  0  0  0  0  0  0  0  0  0  0
    5.1800   -1.5476    2.3020 C   0  0  0  0  0  0  0  0  0  0  0  0
    5.7390   -1.1453    3.2154 N   0  0  0  0  0  0  0  0  0  0  0  0
    3.2669   -2.7514    1.6132 C   0  0  0  0  0  0  0  0  0  0  0  0
    2.3310   -3.3216    1.9962 N   0  0  0  0  0  0  0  0  0  0  0  0
    4.9461   -0.1757    0.1487 H   0  0  0  0  0  0  0  0  0  0  0  0
    2.6802   -1.8961   -0.9053 H   0  0  0  0  0  0  0  0  0  0  0  0
    2.7978   -0.3590   -2.7017 H   0  0  0  0  0  0  0  0  0  0  0  0
    4.3646    0.2316   -2.1213 H   0  0  0  0  0  0  0  0  0  0  0  0
    5.0152   -0.7177   -3.9979 H   0  0  0  0  0  0  0  0  0  0  0  0
    3.0893   -1.9346   -4.7089 H   0  0  0  0  0  0  0  0  0  0  0  0
    4.4966   -3.0067   -4.6460 H   0  0  0  0  0  0  0  0  0  0  0  0
    2.1030   -2.9293   -2.8137 H   0  0  0  0  0  0  0  0  0  0  0  0
    2.8043   -4.2206   -3.7598 H   0  0  0  0  0  0  0  0  0  0  0  0
    3.2169   -4.2483   -1.1470 H   0  0  0  0  0  0  0  0  0  0  0  0
    4.6192   -4.5679   -2.1560 H   0  0  0  0  0  0  0  0  0  0  0  0
    6.1974   -2.8531   -2.7993 H   0  0  0  0  0  0  0  0  0  0  0  0
    6.2186   -1.3057   -1.9132 H   0  0  0  0  0  0  0  0  0  0  0  0
  1  2  3  0
  2  3  1  0
  3 17  1  0
  3  4  1  0
  3 22  1  6
  4 10  1  0
  4  5  1  0
  4 23  1  1
  5  6  1  0
  5 24  1  0
  5 25  1  0
  6 11  1  0
  6  7  1  0
  6 26  1  6
  7  8  1  0
  7 27  1  0
  7 28  1  0
  8  9  1  0
  8 29  1  0
  8 30  1  0
 10  9  1  6
  9 31  1  0
  9 32  1  0
 10 11  1  0
 10 12  1  0
 11 33  1  0
 11 34  1  0
 12 13  1  0
 12 15  1  0
 12 17  1  0
 13 14  3  0
 15 16  3  0
 17 18  1  0
 17 20  1  0
 18 19  3  0
 20 21  3  0
M  END
>  <i_m_ct_stereo_status>  (318) 
1

>  <s_m_source_file>  (318) 
/var/tmp/pbs.5102264.sched01/tmplas2qej_/115vanlg5zy.sdf

>  <i_m_source_file_index>  (318) 
1

>  <i_lp_mmshare_version>  (318) 
48012

>  <i_f3d_flags>  (318) 
0

>  <s_epik_input>  (318) 
TiNDQzEoQyNOKUMoQyNOKShDI04pW0NASF0oQyNOKVtDQEhdKFtDQEBdMTIzKVtDSDJdW0NAQEhdKFtDSDJdMylbQ0gyXVtDSDJdW0NIMl0y

>  <s_epik_cmdline>  (318) 
J2VwaWtfcHl0aG9uJywgJy1waHQnLCAnMi4wJywgJy1waCcsICc3LjAnLCAnLXRuJywgJzgnLCAnLW1hJywgJzIwMCcsICctaW1hZScsICc8aW5maWxlLm1hZT4nLCAnLW9tYWUnLCAnPG91dGZpbGUubWFlPic=

>  <r_epik_Ionization_Penalty>  (318) 
0.579189

>  <r_epik_Ionization_Penalty_Charging>  (318) 
0

>  <r_epik_Ionization_Penalty_Neutral>  (318) 
0.579189

>  <r_epik_State_Penalty>  (318) 
0.591802

>  <r_epik_Charging_Adjusted_Penalty>  (318) 
0.591802

>  <i_epik_Tot_Q>  (318) 
0

>  <i_epik_Tot_abs_Q>  (318) 
0

>  <s_lp_Force_Field>  (318) 
OPLS3e

>  <r_lp_Energy>  (318) 
14.2465

>  <b_lp_Chiralities_Consistent>  (318) 
1

>  <s_lp_Variant>  (318) 
68:0-2

>  <s_i_glide_gridfile>  (318) 
pfpi4k_grid

>  <i_i_glide_lignum>  (318) 
1

>  <i_i_glide_rotatable_bonds>  (318) 
5

>  <r_i_docking_score>  (318) 
-2.83266

>  <r_i_glide_ligand_efficiency>  (318) 
-0.134888

>  <r_i_glide_ligand_efficiency_sa>  (318) 
-0.372147

>  <r_i_glide_ligand_efficiency_ln>  (318) 
-0.700369

>  <r_i_glide_gscore>  (318) 
-2.83266

>  <r_i_glide_lipo>  (318) 
-0.139207

>  <r_i_glide_hbond>  (318) 
-0.00458776

>  <r_i_glide_metal>  (318) 
-0

>  <r_i_glide_rewards>  (318) 
-1.82643

>  <r_i_glide_evdw>  (318) 
-13.5357

>  <r_i_glide_ecoul>  (318) 
-1.00043

>  <r_i_glide_erotb>  (318) 
0

>  <r_i_glide_esite>  (318) 
-0.0355861

>  <r_i_glide_emodel>  (318) 
-15.6685

>  <r_i_glide_energy>  (318) 
-14.5361

>  <r_i_glide_einternal>  (318) 
3.41812

>  <r_i_glide_intrahb_reward>  (318) 
-0

>  <i_i_glide_confnum>  (318) 
2

>  <i_i_glide_posenum>  (318) 
2

>  <r_i_glide_eff_state_penalty>  (318) 
0

>  <ligand_id>  (318) 
68

>  <original_smiles>  (318) 
N#CC1C2CC3CCCC2(C3)C(C#N)(C#N)C1(C#N)C#N

>  <smiles>  (318) 
[H]C1([H])C([H])([H])C2([H])C([H])([H])C3([H])C([H])(C#N)C(C#N)(C#N)C(C#N)(C#N)C3(C1([H])[H])C2([H])[H]

$$$$
69:0:0
     RDKit          3D

 17 18  0  0  1  0  0  0  0  0999 V2000
    3.8127   -0.1648   -4.5433 Cl  0  0  0  0  0  0  0  0  0  0  0  0
    3.5266   -1.3039   -3.2805 C   0  0  0  0  0  0  0  0  0  0  0  0
    2.7094   -2.4210   -3.5224 C   0  0  0  0  0  0  0  0  0  0  0  0
    2.4535   -3.3470   -2.4950 C   0  0  0  0  0  0  0  0  0  0  0  0
    3.0302   -3.1850   -1.2184 C   0  0  0  0  0  0  0  0  0  0  0  0
    2.7479   -4.1489   -0.2103 N   0  0  0  0  0  0  0  0  0  0  0  0
    3.3774   -4.2469    0.9664 C   0  0  0  0  0  0  0  0  0  0  0  0
    2.8749   -5.2392    1.6853 N   0  0  0  0  0  0  0  0  0  0  0  0
    1.8994   -5.7820    0.8619 N   0  0  0  0  0  0  0  0  0  0  0  0
    1.8145   -5.1325   -0.2698 N   0  0  0  0  0  0  0  0  0  0  0  0
    3.8622   -2.0589   -0.9789 C   0  0  0  0  0  0  0  0  0  0  0  0
    4.1036   -1.1232   -2.0090 C   0  0  0  0  0  0  0  0  0  0  0  0
    2.2575   -2.5810   -4.4864 H   0  0  0  0  0  0  0  0  0  0  0  0
    1.8126   -4.1948   -2.7089 H   0  0  0  0  0  0  0  0  0  0  0  0
    4.1878   -3.6244    1.3139 H   0  0  0  0  0  0  0  0  0  0  0  0
    4.3025   -1.8814   -0.0077 H   0  0  0  0  0  0  0  0  0  0  0  0
    4.7136   -0.2549   -1.8143 H   0  0  0  0  0  0  0  0  0  0  0  0
  1  2  1  0
  2 12  2  0
  2  3  1  0
  3  4  2  0
  3 13  1  0
  4  5  1  0
  4 14  1  0
  5  6  1  0
  5 11  2  0
  6 10  1  0
  6  7  1  0
  7  8  2  0
  7 15  1  0
  8  9  1  0
  9 10  2  0
 11 12  1  0
 11 16  1  0
 12 17  1  0
M  END
>  <i_m_ct_stereo_status>  (319) 
1

>  <s_m_source_file>  (319) 
/var/tmp/pbs.5102264.sched01/tmplas2qej_/115vanlg5zy.sdf

>  <i_m_source_file_index>  (319) 
2

>  <i_lp_mmshare_version>  (319) 
48012

>  <i_f3d_flags>  (319) 
0

>  <s_epik_input>  (319) 
Q2xjMVtjSF1bY0hdYyhbY0hdW2NIXTEpLW4yW2NIXW5ubjI=

>  <s_epik_cmdline>  (319) 
J2VwaWtfcHl0aG9uJywgJy1waHQnLCAnMi4wJywgJy1waCcsICc3LjAnLCAnLXRuJywgJzgnLCAnLW1hJywgJzIwMCcsICctaW1hZScsICc8aW5maWxlLm1hZT4nLCAnLW9tYWUnLCAnPG91dGZpbGUubWFlPic=

>  <r_lp_tautomer_probability>  (319) 
1

>  <r_epik_Ionization_Penalty>  (319) 
3.95529e-10

>  <r_epik_Ionization_Penalty_Charging>  (319) 
0

>  <r_epik_Ionization_Penalty_Neutral>  (319) 
3.95529e-10

>  <r_epik_State_Penalty>  (319) 
-0

>  <r_epik_Charging_Adjusted_Penalty>  (319) 
0

>  <i_epik_Tot_Q>  (319) 
0

>  <i_epik_Tot_abs_Q>  (319) 
0

>  <s_lp_Force_Field>  (319) 
OPLS3e

>  <r_lp_Energy>  (319) 
14.312

>  <b_lp_Chiralities_Consistent>  (319) 
1

>  <s_lp_Variant>  (319) 
69:0-1

>  <s_i_glide_gridfile>  (319) 
pfpi4k_grid

>  <i_i_glide_lignum>  (319) 
2

>  <i_i_glide_rotatable_bonds>  (319) 
1

>  <r_i_docking_score>  (319) 
-4.12997

>  <r_i_glide_ligand_efficiency>  (319) 
-0.344164

>  <r_i_glide_ligand_efficiency_sa>  (319) 
-0.787939

>  <r_i_glide_ligand_efficiency_ln>  (319) 
-1.1851

>  <r_i_glide_gscore>  (319) 
-4.12997

>  <r_i_glide_lipo>  (319) 
-0.82107

>  <r_i_glide_hbond>  (319) 
0

>  <r_i_glide_metal>  (319) 
-0

>  <r_i_glide_rewards>  (319) 
-2.17777

>  <r_i_glide_evdw>  (319) 
-17.6194

>  <r_i_glide_ecoul>  (319) 
-3.46726

>  <r_i_glide_erotb>  (319) 
0.483486

>  <r_i_glide_esite>  (319) 
-0.213561

>  <r_i_glide_emodel>  (319) 
-27.0276

>  <r_i_glide_energy>  (319) 
-21.0867

>  <r_i_glide_einternal>  (319) 
0.0865874

>  <r_i_glide_intrahb_reward>  (319) 
-0

>  <i_i_glide_confnum>  (319) 
4

>  <i_i_glide_posenum>  (319) 
39

>  <r_i_glide_eff_state_penalty>  (319) 
0

>  <ligand_id>  (319) 
69

>  <original_smiles>  (319) 
Clc1ccc(-n2cnnn2)cc1

>  <smiles>  (319) 
[H]c1c([H])c(-n2nnnc2[H])c([H])c([H])c1Cl

$$$$
69:0:1
     RDKit          3D

 17 18  0  0  1  0  0  0  0  0999 V2000
    3.4144   -0.0117   -4.8936 Cl  0  0  0  0  0  0  0  0  0  0  0  0
    3.4207   -1.0581   -3.5249 C   0  0  0  0  0  0  0  0  0  0  0  0
    2.6280   -2.2214   -3.5033 C   0  0  0  0  0  0  0  0  0  0  0  0
    2.6233   -3.0554   -2.3703 C   0  0  0  0  0  0  0  0  0  0  0  0
    3.4241   -2.7479   -1.2428 C   0  0  0  0  0  0  0  0  0  0  0  0
    3.4425   -3.5763   -0.0828 N   0  0  0  0  0  0  0  0  0  0  0  0
    2.7540   -4.7094    0.0756 C   0  0  0  0  0  0  0  0  0  0  0  0
    2.9779   -5.2439    1.2661 N   0  0  0  0  0  0  0  0  0  0  0  0
    3.8779   -4.3614    1.8463 N   0  0  0  0  0  0  0  0  0  0  0  0
    4.1571   -3.3638    1.0494 N   0  0  0  0  0  0  0  0  0  0  0  0
    4.2227   -1.5821   -1.2779 C   0  0  0  0  0  0  0  0  0  0  0  0
    4.2199   -0.7464   -2.4101 C   0  0  0  0  0  0  0  0  0  0  0  0
    1.9952   -2.4732   -4.3378 H   0  0  0  0  0  0  0  0  0  0  0  0
    1.9880   -3.9243   -2.4018 H   0  0  0  0  0  0  0  0  0  0  0  0
    2.0966   -5.1579   -0.6532 H   0  0  0  0  0  0  0  0  0  0  0  0
    4.8368   -1.3175   -0.4282 H   0  0  0  0  0  0  0  0  0  0  0  0
    4.8264    0.1463   -2.4091 H   0  0  0  0  0  0  0  0  0  0  0  0
  1  2  1  0
  2 12  2  0
  2  3  1  0
  3  4  2  0
  3 13  1  0
  4  5  1  0
  4 14  1  0
  5  6  1  0
  5 11  2  0
  6 10  1  0
  6  7  1  0
  7  8  2  0
  7 15  1  0
  8  9  1  0
  9 10  2  0
 11 12  1  0
 11 16  1  0
 12 17  1  0
M  END
>  <i_m_ct_stereo_status>  (320) 
1

>  <s_m_source_file>  (320) 
/var/tmp/pbs.5102264.sched01/tmplas2qej_/115vanlg5zy.sdf

>  <i_m_source_file_index>  (320) 
2

>  <i_lp_mmshare_version>  (320) 
48012

>  <i_f3d_flags>  (320) 
0

>  <s_epik_input>  (320) 
Q2xjMVtjSF1bY0hdYyhbY0hdW2NIXTEpLW4yW2NIXW5ubjI=

>  <s_epik_cmdline>  (320) 
J2VwaWtfcHl0aG9uJywgJy1waHQnLCAnMi4wJywgJy1waCcsICc3LjAnLCAnLXRuJywgJzgnLCAnLW1hJywgJzIwMCcsICctaW1hZScsICc8aW5maWxlLm1hZT4nLCAnLW9tYWUnLCAnPG91dGZpbGUubWFlPic=

>  <r_lp_tautomer_probability>  (320) 
1

>  <r_epik_Ionization_Penalty>  (320) 
3.95529e-10

>  <r_epik_Ionization_Penalty_Charging>  (320) 
0

>  <r_epik_Ionization_Penalty_Neutral>  (320) 
3.95529e-10

>  <r_epik_State_Penalty>  (320) 
-0

>  <r_epik_Charging_Adjusted_Penalty>  (320) 
0

>  <i_epik_Tot_Q>  (320) 
0

>  <i_epik_Tot_abs_Q>  (320) 
0

>  <s_lp_Force_Field>  (320) 
OPLS3e

>  <r_lp_Energy>  (320) 
14.312

>  <b_lp_Chiralities_Consistent>  (320) 
1

>  <s_lp_Variant>  (320) 
69:0-1

>  <s_i_glide_gridfile>  (320) 
pfpi4k_grid

>  <i_i_glide_lignum>  (320) 
2

>  <i_i_glide_rotatable_bonds>  (320) 
1

>  <r_i_docking_score>  (320) 
-3.85094

>  <r_i_glide_ligand_efficiency>  (320) 
-0.320912

>  <r_i_glide_ligand_efficiency_sa>  (320) 
-0.734705

>  <r_i_glide_ligand_efficiency_ln>  (320) 
-1.10504

>  <r_i_glide_gscore>  (320) 
-3.85094

>  <r_i_glide_lipo>  (320) 
-0.606992

>  <r_i_glide_hbond>  (320) 
0

>  <r_i_glide_metal>  (320) 
-0

>  <r_i_glide_rewards>  (320) 
-2.17986

>  <r_i_glide_evdw>  (320) 
-21.4496

>  <r_i_glide_ecoul>  (320) 
-2.82074

>  <r_i_glide_erotb>  (320) 
0.483486

>  <r_i_glide_esite>  (320) 
-0.0519843

>  <r_i_glide_emodel>  (320) 
-29.8619

>  <r_i_glide_energy>  (320) 
-24.2704

>  <r_i_glide_einternal>  (320) 
0.000424139

>  <r_i_glide_intrahb_reward>  (320) 
-0

>  <i_i_glide_confnum>  (320) 
3

>  <i_i_glide_posenum>  (320) 
12

>  <r_i_glide_eff_state_penalty>  (320) 
0

>  <ligand_id>  (320) 
69

>  <original_smiles>  (320) 
Clc1ccc(-n2cnnn2)cc1

>  <smiles>  (320) 
[H]c1c([H])c(-n2nnnc2[H])c([H])c([H])c1Cl

$$$$
69:0:2
     RDKit          3D

 17 18  0  0  1  0  0  0  0  0999 V2000
    3.4158   -0.0616   -4.9193 Cl  0  0  0  0  0  0  0  0  0  0  0  0
    3.4253   -1.0782   -3.5266 C   0  0  0  0  0  0  0  0  0  0  0  0
    4.2233   -0.7410   -2.4180 C   0  0  0  0  0  0  0  0  0  0  0  0
    4.2344   -1.5501   -1.2667 C   0  0  0  0  0  0  0  0  0  0  0  0
    3.4389   -2.7211   -1.2162 C   0  0  0  0  0  0  0  0  0  0  0  0
    3.4198   -3.5631   -0.0690 N   0  0  0  0  0  0  0  0  0  0  0  0
    4.2261   -3.4443    0.9911 C   0  0  0  0  0  0  0  0  0  0  0  0
    3.9661   -4.3823    1.8906 N   0  0  0  0  0  0  0  0  0  0  0  0
    2.9345   -5.1068    1.3113 N   0  0  0  0  0  0  0  0  0  0  0  0
    2.6097   -4.6300    0.1406 N   0  0  0  0  0  0  0  0  0  0  0  0
    2.6413   -3.0548   -2.3371 C   0  0  0  0  0  0  0  0  0  0  0  0
    2.6373   -2.2452   -3.4883 C   0  0  0  0  0  0  0  0  0  0  0  0
    4.8239    0.1529   -2.4441 H   0  0  0  0  0  0  0  0  0  0  0  0
    4.8490   -1.2402   -0.4340 H   0  0  0  0  0  0  0  0  0  0  0  0
    4.9978   -2.7034    1.1314 H   0  0  0  0  0  0  0  0  0  0  0  0
    2.0184   -3.9345   -2.3194 H   0  0  0  0  0  0  0  0  0  0  0  0
    2.0091   -2.5183   -4.3222 H   0  0  0  0  0  0  0  0  0  0  0  0
  1  2  1  0
  2 12  2  0
  2  3  1  0
  3  4  2  0
  3 13  1  0
  4  5  1  0
  4 14  1  0
  5  6  1  0
  5 11  2  0
  6 10  1  0
  6  7  1  0
  7  8  2  0
  7 15  1  0
  8  9  1  0
  9 10  2  0
 11 12  1  0
 11 16  1  0
 12 17  1  0
M  END
>  <i_m_ct_stereo_status>  (321) 
1

>  <s_m_source_file>  (321) 
/var/tmp/pbs.5102264.sched01/tmplas2qej_/115vanlg5zy.sdf

>  <i_m_source_file_index>  (321) 
2

>  <i_lp_mmshare_version>  (321) 
48012

>  <i_f3d_flags>  (321) 
0

>  <s_epik_input>  (321) 
Q2xjMVtjSF1bY0hdYyhbY0hdW2NIXTEpLW4yW2NIXW5ubjI=

>  <s_epik_cmdline>  (321) 
J2VwaWtfcHl0aG9uJywgJy1waHQnLCAnMi4wJywgJy1waCcsICc3LjAnLCAnLXRuJywgJzgnLCAnLW1hJywgJzIwMCcsICctaW1hZScsICc8aW5maWxlLm1hZT4nLCAnLW9tYWUnLCAnPG91dGZpbGUubWFlPic=

>  <r_lp_tautomer_probability>  (321) 
1

>  <r_epik_Ionization_Penalty>  (321) 
3.95529e-10

>  <r_epik_Ionization_Penalty_Charging>  (321) 
0

>  <r_epik_Ionization_Penalty_Neutral>  (321) 
3.95529e-10

>  <r_epik_State_Penalty>  (321) 
-0

>  <r_epik_Charging_Adjusted_Penalty>  (321) 
0

>  <i_epik_Tot_Q>  (321) 
0

>  <i_epik_Tot_abs_Q>  (321) 
0

>  <s_lp_Force_Field>  (321) 
OPLS3e

>  <r_lp_Energy>  (321) 
14.312

>  <b_lp_Chiralities_Consistent>  (321) 
1

>  <s_lp_Variant>  (321) 
69:0-1

>  <s_i_glide_gridfile>  (321) 
pfpi4k_grid

>  <i_i_glide_lignum>  (321) 
2

>  <i_i_glide_rotatable_bonds>  (321) 
1

>  <r_i_docking_score>  (321) 
-3.72983

>  <r_i_glide_ligand_efficiency>  (321) 
-0.310819

>  <r_i_glide_ligand_efficiency_sa>  (321) 
-0.711599

>  <r_i_glide_ligand_efficiency_ln>  (321) 
-1.07028

>  <r_i_glide_gscore>  (321) 
-3.72983

>  <r_i_glide_lipo>  (321) 
-0.607215

>  <r_i_glide_hbond>  (321) 
0

>  <r_i_glide_metal>  (321) 
-0

>  <r_i_glide_rewards>  (321) 
-2.2024

>  <r_i_glide_evdw>  (321) 
-21.6405

>  <r_i_glide_ecoul>  (321) 
-1.78014

>  <r_i_glide_erotb>  (321) 
0.483486

>  <r_i_glide_esite>  (321) 
-0.054656

>  <r_i_glide_emodel>  (321) 
-28.8336

>  <r_i_glide_energy>  (321) 
-23.4206

>  <r_i_glide_einternal>  (321) 
0.00630295

>  <r_i_glide_intrahb_reward>  (321) 
-0

>  <i_i_glide_confnum>  (321) 
1

>  <i_i_glide_posenum>  (321) 
31

>  <r_i_glide_eff_state_penalty>  (321) 
0

>  <ligand_id>  (321) 
69

>  <original_smiles>  (321) 
Clc1ccc(-n2cnnn2)cc1

>  <smiles>  (321) 
[H]c1c([H])c(-n2nnnc2[H])c([H])c([H])c1Cl

$$$$
70:0:0
     RDKit          3D

 30 33  0  0  1  0  0  0  0  0999 V2000
   -0.7220   -9.3447    3.4863 C   0  0  0  0  0  0  0  0  0  0  0  0
    0.2581   -8.3765    2.8562 C   0  0  0  0  0  0  0  0  0  0  0  0
    1.6137   -8.3827    3.2336 C   0  0  0  0  0  0  0  0  0  0  0  0
    2.4890   -7.4657    2.6198 C   0  0  0  0  0  0  0  0  0  0  0  0
    1.9729   -6.5749    1.6551 C   0  0  0  0  0  0  0  0  0  0  0  0
    2.8429   -5.6053    0.9239 C   0  0  2  0  0  0  0  0  0  0  0  0
    3.6594   -4.7913    1.7789 O   0  0  0  0  0  0  0  0  0  0  0  0
    2.6185   -4.1214    1.0524 C   0  0  1  0  0  0  0  0  0  0  0  0
    3.1205   -3.1805    0.0071 C   0  0  0  0  0  0  0  0  0  0  0  0
    3.9743   -2.0946    0.3453 C   0  0  0  0  0  0  0  0  0  0  0  0
    4.3841   -1.2332   -0.6454 C   0  0  0  0  0  0  0  0  0  0  0  0
    3.9421   -1.4791   -1.9701 C   0  0  0  0  0  0  0  0  0  0  0  0
    4.1602   -0.8974   -3.1528 N   0  0  0  0  0  0  0  0  0  0  0  0
    3.4569   -1.6241   -4.1033 N   0  0  0  0  0  0  0  0  0  0  0  0
    2.8217   -2.6204   -3.4798 C   0  0  0  0  0  0  0  0  0  0  0  0
    3.0912   -2.5858   -2.1482 N   0  0  0  0  0  0  0  0  0  0  0  0
    2.6381   -3.4541   -1.2047 N   0  0  0  0  0  0  0  0  0  0  0  0
    0.6684   -6.5640    1.2877 N   0  0  0  0  0  0  0  0  0  0  0  0
   -0.1574   -7.4575    1.8757 C   0  0  0  0  0  0  0  0  0  0  0  0
   -0.2528  -10.3161    3.6356 H   0  0  0  0  0  0  0  0  0  0  0  0
   -1.6061   -9.4895    2.8650 H   0  0  0  0  0  0  0  0  0  0  0  0
   -1.0503   -8.9822    4.4590 H   0  0  0  0  0  0  0  0  0  0  0  0
    1.9709   -9.0775    3.9785 H   0  0  0  0  0  0  0  0  0  0  0  0
    3.5382   -7.4557    2.8789 H   0  0  0  0  0  0  0  0  0  0  0  0
    3.3634   -6.0281    0.0655 H   0  0  0  0  0  0  0  0  0  0  0  0
    1.8222   -3.7177    1.6743 H   0  0  0  0  0  0  0  0  0  0  0  0
    4.2893   -1.9337    1.3713 H   0  0  0  0  0  0  0  0  0  0  0  0
    5.0206   -0.3783   -0.4391 H   0  0  0  0  0  0  0  0  0  0  0  0
    2.1958   -3.3533   -3.9668 H   0  0  0  0  0  0  0  0  0  0  0  0
   -1.1885   -7.4257    1.5682 H   0  0  0  0  0  0  0  0  0  0  0  0
  1  2  1  0
  1 20  1  0
  1 21  1  0
  1 22  1  0
  2 19  2  0
  2  3  1  0
  3  4  2  0
  3 23  1  0
  4  5  1  0
  4 24  1  0
  5  6  1  0
  5 18  2  0
  6  8  1  0
  6  7  1  0
  6 25  1  6
  7  8  1  0
  8  9  1  0
  8 26  1  1
  9 17  2  0
  9 10  1  0
 10 11  2  0
 10 27  1  0
 11 12  1  0
 11 28  1  0
 12 16  1  0
 12 13  2  0
 13 14  1  0
 14 15  2  0
 15 16  1  0
 15 29  1  0
 16 17  1  0
 18 19  1  0
 19 30  1  0
M  END
>  <i_m_ct_stereo_status>  (322) 
1

>  <s_m_source_file>  (322) 
/var/tmp/pbs.5102264.sched01/tmplas2qej_/115vanlg5zy.sdf

>  <i_m_source_file_index>  (322) 
3

>  <i_lp_mmshare_version>  (322) 
48012

>  <i_f3d_flags>  (322) 
0

>  <s_epik_input>  (322) 
W0NIM11jMVtjSF1bY0hdYyhuW2NIXTEpW0NAQEhdMk9bQ0BIXTJjKFtjSF1bY0hdMylubihjMzQpW2NIXW5uNA==

>  <s_epik_cmdline>  (322) 
J2VwaWtfcHl0aG9uJywgJy1waHQnLCAnMi4wJywgJy1waCcsICc3LjAnLCAnLXRuJywgJzgnLCAnLW1hJywgJzIwMCcsICctaW1hZScsICc8aW5maWxlLm1hZT4nLCAnLW9tYWUnLCAnPG91dGZpbGUubWFlPic=

>  <r_epik_Ionization_Penalty>  (322) 
0.006489

>  <r_epik_Ionization_Penalty_Charging>  (322) 
0

>  <r_epik_Ionization_Penalty_Neutral>  (322) 
0.006489

>  <r_epik_State_Penalty>  (322) 
0.00480222

>  <r_epik_Charging_Adjusted_Penalty>  (322) 
0.00480222

>  <i_epik_Tot_Q>  (322) 
0

>  <i_epik_Tot_abs_Q>  (322) 
0

>  <s_lp_Force_Field>  (322) 
OPLS3e

>  <r_lp_Energy>  (322) 
23.8845

>  <b_lp_Chiralities_Consistent>  (322) 
1

>  <s_lp_Variant>  (322) 
70:0-1

>  <s_i_glide_gridfile>  (322) 
pfpi4k_grid

>  <i_i_glide_lignum>  (322) 
3

>  <i_i_glide_rotatable_bonds>  (322) 
2

>  <r_i_docking_score>  (322) 
-3.96722

>  <r_i_glide_ligand_efficiency>  (322) 
-0.208801

>  <r_i_glide_ligand_efficiency_sa>  (322) 
-0.557165

>  <r_i_glide_ligand_efficiency_ln>  (322) 
-1.00578

>  <r_i_glide_gscore>  (322) 
-3.96722

>  <r_i_glide_lipo>  (322) 
0

>  <r_i_glide_hbond>  (322) 
-0.121691

>  <r_i_glide_metal>  (322) 
-0

>  <r_i_glide_rewards>  (322) 
-1.96619

>  <r_i_glide_evdw>  (322) 
-28.9303

>  <r_i_glide_ecoul>  (322) 
-5.9098

>  <r_i_glide_erotb>  (322) 
0.547693

>  <r_i_glide_esite>  (322) 
-0.094051

>  <r_i_glide_emodel>  (322) 
-42.4142

>  <r_i_glide_energy>  (322) 
-34.8401

>  <r_i_glide_einternal>  (322) 
2.36374

>  <r_i_glide_intrahb_reward>  (322) 
-0

>  <i_i_glide_confnum>  (322) 
4

>  <i_i_glide_posenum>  (322) 
1

>  <r_i_glide_eff_state_penalty>  (322) 
0

>  <ligand_id>  (322) 
70

>  <original_smiles>  (322) 
Cc1ccc(C2OC2c2ccc3nncn3n2)nc1

>  <smiles>  (322) 
[H]c1nc(C2([H])OC2([H])c2nn3c([H])nnc3c([H])c2[H])c([H])c([H])c1C([H])([H])[H]

$$$$
70:0:1
     RDKit          3D

 30 33  0  0  1  0  0  0  0  0999 V2000
   -0.5864   -9.3856    3.4929 C   0  0  0  0  0  0  0  0  0  0  0  0
    0.2773   -8.2587    2.9652 C   0  0  0  0  0  0  0  0  0  0  0  0
    1.5100   -7.9673    3.5760 C   0  0  0  0  0  0  0  0  0  0  0  0
    2.2877   -6.9204    3.0508 C   0  0  0  0  0  0  0  0  0  0  0  0
    1.8080   -6.2008    1.9382 C   0  0  0  0  0  0  0  0  0  0  0  0
    2.6536   -5.1154    1.3517 C   0  0  2  0  0  0  0  0  0  0  0  0
    2.2489   -4.6593    0.0511 O   0  0  0  0  0  0  0  0  0  0  0  0
    3.4980   -5.3672    0.1349 C   0  0  1  0  0  0  0  0  0  0  0  0
    4.7072   -4.5359   -0.1523 C   0  0  0  0  0  0  0  0  0  0  0  0
    4.6602   -3.4991   -1.1227 C   0  0  0  0  0  0  0  0  0  0  0  0
    5.7861   -2.7517   -1.3574 C   0  0  0  0  0  0  0  0  0  0  0  0
    6.9561   -3.0567   -0.6185 C   0  0  0  0  0  0  0  0  0  0  0  0
    8.1926   -2.5571   -0.5768 N   0  0  0  0  0  0  0  0  0  0  0  0
    8.9082   -3.3001    0.3551 N   0  0  0  0  0  0  0  0  0  0  0  0
    8.0886   -4.2195    0.8670 C   0  0  0  0  0  0  0  0  0  0  0  0
    6.8562   -4.1165    0.3007 N   0  0  0  0  0  0  0  0  0  0  0  0
    5.7684   -4.8845    0.5751 N   0  0  0  0  0  0  0  0  0  0  0  0
    0.6082   -6.4562    1.3608 N   0  0  0  0  0  0  0  0  0  0  0  0
   -0.1217   -7.4809    1.8581 C   0  0  0  0  0  0  0  0  0  0  0  0
    0.0244  -10.2331    3.8056 H   0  0  0  0  0  0  0  0  0  0  0  0
   -1.2930   -9.7391    2.7441 H   0  0  0  0  0  0  0  0  0  0  0  0
   -1.1539   -9.0521    4.3591 H   0  0  0  0  0  0  0  0  0  0  0  0
    1.8580   -8.5386    4.4222 H   0  0  0  0  0  0  0  0  0  0  0  0
    3.2466   -6.6830    3.4845 H   0  0  0  0  0  0  0  0  0  0  0  0
    2.9180   -4.3312    2.0577 H   0  0  0  0  0  0  0  0  0  0  0  0
    3.5144   -6.3567   -0.3152 H   0  0  0  0  0  0  0  0  0  0  0  0
    3.7429   -3.2933   -1.6660 H   0  0  0  0  0  0  0  0  0  0  0  0
    5.7904   -1.9454   -2.0814 H   0  0  0  0  0  0  0  0  0  0  0  0
    8.3721   -4.9322    1.6298 H   0  0  0  0  0  0  0  0  0  0  0  0
   -1.0535   -7.6864    1.3594 H   0  0  0  0  0  0  0  0  0  0  0  0
  1  2  1  0
  1 20  1  0
  1 21  1  0
  1 22  1  0
  2 19  2  0
  2  3  1  0
  3  4  2  0
  3 23  1  0
  4  5  1  0
  4 24  1  0
  5  6  1  0
  5 18  2  0
  6  8  1  0
  6  7  1  0
  6 25  1  1
  7  8  1  0
  8  9  1  0
  8 26  1  6
  9 17  2  0
  9 10  1  0
 10 11  2  0
 10 27  1  0
 11 12  1  0
 11 28  1  0
 12 16  1  0
 12 13  2  0
 13 14  1  0
 14 15  2  0
 15 16  1  0
 15 29  1  0
 16 17  1  0
 18 19  1  0
 19 30  1  0
M  END
>  <i_m_ct_stereo_status>  (323) 
1

>  <s_m_source_file>  (323) 
/var/tmp/pbs.5102264.sched01/tmplas2qej_/115vanlg5zy.sdf

>  <i_m_source_file_index>  (323) 
3

>  <i_lp_mmshare_version>  (323) 
48012

>  <i_f3d_flags>  (323) 
0

>  <s_epik_input>  (323) 
W0NIM11jMVtjSF1bY0hdYyhuW2NIXTEpW0NAQEhdMk9bQ0BIXTJjKFtjSF1bY0hdMylubihjMzQpW2NIXW5uNA==

>  <s_epik_cmdline>  (323) 
J2VwaWtfcHl0aG9uJywgJy1waHQnLCAnMi4wJywgJy1waCcsICc3LjAnLCAnLXRuJywgJzgnLCAnLW1hJywgJzIwMCcsICctaW1hZScsICc8aW5maWxlLm1hZT4nLCAnLW9tYWUnLCAnPG91dGZpbGUubWFlPic=

>  <r_epik_Ionization_Penalty>  (323) 
0.006489

>  <r_epik_Ionization_Penalty_Charging>  (323) 
0

>  <r_epik_Ionization_Penalty_Neutral>  (323) 
0.006489

>  <r_epik_State_Penalty>  (323) 
0.00480222

>  <r_epik_Charging_Adjusted_Penalty>  (323) 
0.00480222

>  <i_epik_Tot_Q>  (323) 
0

>  <i_epik_Tot_abs_Q>  (323) 
0

>  <s_lp_Force_Field>  (323) 
OPLS3e

>  <r_lp_Energy>  (323) 
23.8845

>  <b_lp_Chiralities_Consistent>  (323) 
1

>  <s_lp_Variant>  (323) 
70:0-1

>  <s_i_glide_gridfile>  (323) 
pfpi4k_grid

>  <i_i_glide_lignum>  (323) 
3

>  <i_i_glide_rotatable_bonds>  (323) 
2

>  <r_i_docking_score>  (323) 
-3.89306

>  <r_i_glide_ligand_efficiency>  (323) 
-0.204898

>  <r_i_glide_ligand_efficiency_sa>  (323) 
-0.546749

>  <r_i_glide_ligand_efficiency_ln>  (323) 
-0.986973

>  <r_i_glide_gscore>  (323) 
-3.89306

>  <r_i_glide_lipo>  (323) 
-0.0264951

>  <r_i_glide_hbond>  (323) 
-0.163908

>  <r_i_glide_metal>  (323) 
-0

>  <r_i_glide_rewards>  (323) 
-2.15128

>  <r_i_glide_evdw>  (323) 
-24.6872

>  <r_i_glide_ecoul>  (323) 
-5.49688

>  <r_i_glide_erotb>  (323) 
0.547693

>  <r_i_glide_esite>  (323) 
-0.0401669

>  <r_i_glide_emodel>  (323) 
-38.3206

>  <r_i_glide_energy>  (323) 
-30.1841

>  <r_i_glide_einternal>  (323) 
0.94559

>  <r_i_glide_intrahb_reward>  (323) 
-0

>  <i_i_glide_confnum>  (323) 
1

>  <i_i_glide_posenum>  (323) 
19

>  <r_i_glide_eff_state_penalty>  (323) 
0

>  <ligand_id>  (323) 
70

>  <original_smiles>  (323) 
Cc1ccc(C2OC2c2ccc3nncn3n2)nc1

>  <smiles>  (323) 
[H]c1nc(C2([H])OC2([H])c2nn3c([H])nnc3c([H])c2[H])c([H])c([H])c1C([H])([H])[H]

$$$$
70:0:2
     RDKit          3D

 30 33  0  0  1  0  0  0  0  0999 V2000
   -1.3001   -9.2016    2.8664 C   0  0  0  0  0  0  0  0  0  0  0  0
   -0.1586   -8.2481    2.5814 C   0  0  0  0  0  0  0  0  0  0  0  0
    0.9389   -8.1666    3.4573 C   0  0  0  0  0  0  0  0  0  0  0  0
    1.9848   -7.2794    3.1442 C   0  0  0  0  0  0  0  0  0  0  0  0
    1.8970   -6.5036    1.9696 C   0  0  0  0  0  0  0  0  0  0  0  0
    3.0249   -5.5857    1.6009 C   0  0  2  0  0  0  0  0  0  0  0  0
    2.9460   -5.0253    0.2812 O   0  0  0  0  0  0  0  0  0  0  0  0
    4.0194   -5.9538    0.5349 C   0  0  1  0  0  0  0  0  0  0  0  0
    5.4080   -5.3692    0.5368 C   0  0  0  0  0  0  0  0  0  0  0  0
    6.4996   -6.1976    0.9162 C   0  0  0  0  0  0  0  0  0  0  0  0
    7.7745   -5.6838    0.9322 C   0  0  0  0  0  0  0  0  0  0  0  0
    7.9450   -4.3229    0.5730 C   0  0  0  0  0  0  0  0  0  0  0  0
    8.9920   -3.4989    0.4776 N   0  0  0  0  0  0  0  0  0  0  0  0
    8.5034   -2.2623    0.0775 N   0  0  0  0  0  0  0  0  0  0  0  0
    7.1795   -2.3630   -0.0605 C   0  0  0  0  0  0  0  0  0  0  0  0
    6.7740   -3.6253    0.2250 N   0  0  0  0  0  0  0  0  0  0  0  0
    5.4970   -4.0865    0.1798 N   0  0  0  0  0  0  0  0  0  0  0  0
    0.8274   -6.5568    1.1380 N   0  0  0  0  0  0  0  0  0  0  0  0
   -0.1557   -7.4353    1.4319 C   0  0  0  0  0  0  0  0  0  0  0  0
   -0.9218  -10.1369    3.2776 H   0  0  0  0  0  0  0  0  0  0  0  0
   -1.8611   -9.4347    1.9615 H   0  0  0  0  0  0  0  0  0  0  0  0
   -1.9861   -8.7683    3.5928 H   0  0  0  0  0  0  0  0  0  0  0  0
    0.9849   -8.7784    4.3458 H   0  0  0  0  0  0  0  0  0  0  0  0
    2.8480   -7.2079    3.7883 H   0  0  0  0  0  0  0  0  0  0  0  0
    3.3032   -4.8878    2.3872 H   0  0  0  0  0  0  0  0  0  0  0  0
    3.9449   -6.9168    0.0328 H   0  0  0  0  0  0  0  0  0  0  0  0
    6.3384   -7.2349    1.1893 H   0  0  0  0  0  0  0  0  0  0  0  0
    8.6329   -6.2873    1.2134 H   0  0  0  0  0  0  0  0  0  0  0  0
    6.5182   -1.5625   -0.3545 H   0  0  0  0  0  0  0  0  0  0  0  0
   -0.9692   -7.4826    0.7270 H   0  0  0  0  0  0  0  0  0  0  0  0
  1  2  1  0
  1 20  1  0
  1 21  1  0
  1 22  1  0
  2 19  2  0
  2  3  1  0
  3  4  2  0
  3 23  1  0
  4  5  1  0
  4 24  1  0
  5  6  1  0
  5 18  2  0
  6  8  1  0
  6  7  1  0
  6 25  1  1
  7  8  1  0
  8  9  1  0
  8 26  1  6
  9 17  2  0
  9 10  1  0
 10 11  2  0
 10 27  1  0
 11 12  1  0
 11 28  1  0
 12 16  1  0
 12 13  2  0
 13 14  1  0
 14 15  2  0
 15 16  1  0
 15 29  1  0
 16 17  1  0
 18 19  1  0
 19 30  1  0
M  END
>  <i_m_ct_stereo_status>  (324) 
1

>  <s_m_source_file>  (324) 
/var/tmp/pbs.5102264.sched01/tmplas2qej_/115vanlg5zy.sdf

>  <i_m_source_file_index>  (324) 
3

>  <i_lp_mmshare_version>  (324) 
48012

>  <i_f3d_flags>  (324) 
0

>  <s_epik_input>  (324) 
W0NIM11jMVtjSF1bY0hdYyhuW2NIXTEpW0NAQEhdMk9bQ0BIXTJjKFtjSF1bY0hdMylubihjMzQpW2NIXW5uNA==

>  <s_epik_cmdline>  (324) 
J2VwaWtfcHl0aG9uJywgJy1waHQnLCAnMi4wJywgJy1waCcsICc3LjAnLCAnLXRuJywgJzgnLCAnLW1hJywgJzIwMCcsICctaW1hZScsICc8aW5maWxlLm1hZT4nLCAnLW9tYWUnLCAnPG91dGZpbGUubWFlPic=

>  <r_epik_Ionization_Penalty>  (324) 
0.006489

>  <r_epik_Ionization_Penalty_Charging>  (324) 
0

>  <r_epik_Ionization_Penalty_Neutral>  (324) 
0.006489

>  <r_epik_State_Penalty>  (324) 
0.00480222

>  <r_epik_Charging_Adjusted_Penalty>  (324) 
0.00480222

>  <i_epik_Tot_Q>  (324) 
0

>  <i_epik_Tot_abs_Q>  (324) 
0

>  <s_lp_Force_Field>  (324) 
OPLS3e

>  <r_lp_Energy>  (324) 
23.8845

>  <b_lp_Chiralities_Consistent>  (324) 
1

>  <s_lp_Variant>  (324) 
70:0-1

>  <s_i_glide_gridfile>  (324) 
pfpi4k_grid

>  <i_i_glide_lignum>  (324) 
3

>  <i_i_glide_rotatable_bonds>  (324) 
2

>  <r_i_docking_score>  (324) 
-3.65957

>  <r_i_glide_ligand_efficiency>  (324) 
-0.192609

>  <r_i_glide_ligand_efficiency_sa>  (324) 
-0.513958

>  <r_i_glide_ligand_efficiency_ln>  (324) 
-0.927779

>  <r_i_glide_gscore>  (324) 
-3.65957

>  <r_i_glide_lipo>  (324) 
-0.307408

>  <r_i_glide_hbond>  (324) 
-0.112974

>  <r_i_glide_metal>  (324) 
-0

>  <r_i_glide_rewards>  (324) 
-2.08027

>  <r_i_glide_evdw>  (324) 
-25.1325

>  <r_i_glide_ecoul>  (324) 
-2.84474

>  <r_i_glide_erotb>  (324) 
0.547693

>  <r_i_glide_esite>  (324) 
-0.0232674

>  <r_i_glide_emodel>  (324) 
-36.0804

>  <r_i_glide_energy>  (324) 
-27.9773

>  <r_i_glide_einternal>  (324) 
0.048758

>  <r_i_glide_intrahb_reward>  (324) 
-0

>  <i_i_glide_confnum>  (324) 
1

>  <i_i_glide_posenum>  (324) 
11

>  <r_i_glide_eff_state_penalty>  (324) 
0

>  <ligand_id>  (324) 
70

>  <original_smiles>  (324) 
Cc1ccc(C2OC2c2ccc3nncn3n2)nc1

>  <smiles>  (324) 
[H]c1nc(C2([H])OC2([H])c2nn3c([H])nnc3c([H])c2[H])c([H])c([H])c1C([H])([H])[H]

$$$$
71:0:0
     RDKit          3D

 32 33  0  0  1  0  0  0  0  0999 V2000
    6.0103   -1.4388    1.7899 C   0  0  0  0  0  0  0  0  0  0  0  0
    6.6214   -1.5220    0.3884 C   0  0  0  0  0  0  0  0  0  0  0  0
    5.8953   -2.4680   -0.4632 N   0  0  0  0  0  0  0  0  0  0  0  0
    5.8531   -3.8657   -0.3074 C   0  0  0  0  0  0  0  0  0  0  0  0
    6.6095   -4.6257    0.6951 C   0  0  0  0  0  0  0  0  0  0  0  0
    6.1419   -5.6179    1.2593 O   0  0  0  0  0  0  0  0  0  0  0  0
    7.8638   -4.1812    0.8220 O   0  0  0  0  0  0  0  0  0  0  0  0
    8.7924   -4.8604    1.6500 C   0  0  0  0  0  0  0  0  0  0  0  0
    5.0146   -4.4042   -1.2425 C   0  0  0  0  0  0  0  0  0  0  0  0
    4.5902   -3.3452   -2.0883 C   0  0  0  0  0  0  0  0  0  0  0  0
    3.7971   -3.2942   -3.2414 C   0  0  0  0  0  0  0  0  0  0  0  0
    3.5070   -2.0763   -3.8786 C   0  0  0  0  0  0  0  0  0  0  0  0
    4.0414   -0.8629   -3.3759 C   0  0  0  0  0  0  0  0  0  0  0  0
    3.8152    0.3709   -3.9626 O   0  0  0  0  0  0  0  0  0  0  0  0
    3.0190    0.4433   -5.1345 C   0  0  0  0  0  0  0  0  0  0  0  0
    4.8427   -0.9042   -2.2270 C   0  0  0  0  0  0  0  0  0  0  0  0
    5.1315   -2.1310   -1.5847 C   0  0  0  0  0  0  0  0  0  0  0  0
    6.5599   -0.7206    2.3953 H   0  0  0  0  0  0  0  0  0  0  0  0
    6.0258   -2.3938    2.3238 H   0  0  0  0  0  0  0  0  0  0  0  0
    4.9684   -1.1143    1.7305 H   0  0  0  0  0  0  0  0  0  0  0  0
    6.5562   -0.5271   -0.0544 H   0  0  0  0  0  0  0  0  0  0  0  0
    7.6830   -1.7800    0.4184 H   0  0  0  0  0  0  0  0  0  0  0  0
    9.6871   -4.2415    1.7027 H   0  0  0  0  0  0  0  0  0  0  0  0
    9.0553   -5.8251    1.2132 H   0  0  0  0  0  0  0  0  0  0  0  0
    8.4250   -5.0329    2.6668 H   0  0  0  0  0  0  0  0  0  0  0  0
    4.7696   -5.4502   -1.3571 H   0  0  0  0  0  0  0  0  0  0  0  0
    3.3686   -4.1949   -3.6339 H   0  0  0  0  0  0  0  0  0  0  0  0
    2.8338   -2.1525   -4.7298 H   0  0  0  0  0  0  0  0  0  0  0  0
    2.8978    1.4658   -5.5202 H   0  0  0  0  0  0  0  0  0  0  0  0
    2.0314    0.0593   -4.9118 H   0  0  0  0  0  0  0  0  0  0  0  0
    3.4777   -0.1545   -5.9145 H   0  0  0  0  0  0  0  0  0  0  0  0
    5.2274    0.0142   -1.8572 H   0  0  0  0  0  0  0  0  0  0  0  0
  1  2  1  0
  1 18  1  0
  1 19  1  0
  1 20  1  0
  2  3  1  0
  2 21  1  0
  2 22  1  0
  3 17  1  0
  3  4  1  0
  4  5  1  0
  4  9  2  0
  5  6  2  0
  5  7  1  0
  7  8  1  0
  8 23  1  0
  8 24  1  0
  8 25  1  0
  9 10  1  0
  9 26  1  0
 10 17  2  0
 10 11  1  0
 11 12  2  0
 11 27  1  0
 12 13  1  0
 12 28  1  0
 13 14  1  0
 13 16  2  0
 14 15  1  0
 15 29  1  0
 15 30  1  0
 15 31  1  0
 16 17  1  0
 16 32  1  0
M  END
>  <i_m_ct_stereo_status>  (325) 
1

>  <s_m_source_file>  (325) 
/var/tmp/pbs.5102264.sched01/tmplas2qej_/115vanlg5zy.sdf

>  <i_m_source_file_index>  (325) 
4

>  <i_lp_mmshare_version>  (325) 
48012

>  <i_f3d_flags>  (325) 
0

>  <s_epik_input>  (325) 
W0NIM11PQyg9TyljKFtjSF0xKW4oW0NIMl1bQ0gzXSljKGMxMilbY0hdYyhbY0hdW2NIXTIpT1tDSDNd

>  <s_epik_cmdline>  (325) 
J2VwaWtfcHl0aG9uJywgJy1waHQnLCAnMi4wJywgJy1waCcsICc3LjAnLCAnLXRuJywgJzgnLCAnLW1hJywgJzIwMCcsICctaW1hZScsICc8aW5maWxlLm1hZT4nLCAnLW9tYWUnLCAnPG91dGZpbGUubWFlPic=

>  <r_lp_tautomer_probability>  (325) 
1

>  <r_epik_Ionization_Penalty>  (325) 
8.55129e-15

>  <r_epik_Ionization_Penalty_Charging>  (325) 
0

>  <r_epik_Ionization_Penalty_Neutral>  (325) 
8.55129e-15

>  <r_epik_State_Penalty>  (325) 
-0

>  <r_epik_Charging_Adjusted_Penalty>  (325) 
0

>  <i_epik_Tot_Q>  (325) 
0

>  <i_epik_Tot_abs_Q>  (325) 
0

>  <s_epik_Chemistry_Notes>  (325) 
This compound has an ester and may undergo hydrolysis at high or low pH.

>  <s_lp_Force_Field>  (325) 
OPLS3e

>  <r_lp_Energy>  (325) 
25.9722

>  <b_lp_Chiralities_Consistent>  (325) 
1

>  <s_lp_Variant>  (325) 
71:0-1

>  <s_i_glide_gridfile>  (325) 
pfpi4k_grid

>  <i_i_glide_lignum>  (325) 
4

>  <i_i_glide_rotatable_bonds>  (325) 
4

>  <r_i_docking_score>  (325) 
-3.9668

>  <r_i_glide_ligand_efficiency>  (325) 
-0.233341

>  <r_i_glide_ligand_efficiency_sa>  (325) 
-0.599986

>  <r_i_glide_ligand_efficiency_ln>  (325) 
-1.03485

>  <r_i_glide_gscore>  (325) 
-3.9668

>  <r_i_glide_lipo>  (325) 
-0.74876

>  <r_i_glide_hbond>  (325) 
0

>  <r_i_glide_metal>  (325) 
-0

>  <r_i_glide_rewards>  (325) 
-1.97358

>  <r_i_glide_evdw>  (325) 
-25.2309

>  <r_i_glide_ecoul>  (325) 
-1.9098

>  <r_i_glide_erotb>  (325) 
0.315161

>  <r_i_glide_esite>  (325) 
-0.0116086

>  <r_i_glide_emodel>  (325) 
-28.531

>  <r_i_glide_energy>  (325) 
-27.1407

>  <r_i_glide_einternal>  (325) 
9.37384

>  <r_i_glide_intrahb_reward>  (325) 
-0

>  <i_i_glide_confnum>  (325) 
2

>  <i_i_glide_posenum>  (325) 
32

>  <r_i_glide_eff_state_penalty>  (325) 
0

>  <ligand_id>  (325) 
71

>  <original_smiles>  (325) 
CCn1c(C(=O)OC)cc2ccc(OC)cc21

>  <smiles>  (325) 
[H]c1c(OC([H])([H])[H])c([H])c2c(c1[H])c([H])c(C(=O)OC([H])([H])[H])n2C([H])([H])C([H])([H])[H]

$$$$
71:0:1
     RDKit          3D

 32 33  0  0  1  0  0  0  0  0999 V2000
    7.9116   -1.7659   -0.0532 C   0  0  0  0  0  0  0  0  0  0  0  0
    6.4306   -1.3741    0.1636 C   0  0  0  0  0  0  0  0  0  0  0  0
    5.4935   -2.2536   -0.5241 N   0  0  0  0  0  0  0  0  0  0  0  0
    5.1730   -3.5919   -0.1767 C   0  0  0  0  0  0  0  0  0  0  0  0
    5.7284   -4.3536    0.9426 C   0  0  0  0  0  0  0  0  0  0  0  0
    6.4379   -3.8759    1.8093 O   0  0  0  0  0  0  0  0  0  0  0  0
    5.3686   -5.6458    0.9265 O   0  0  0  0  0  0  0  0  0  0  0  0
    5.8698   -6.5213    1.9238 C   0  0  0  0  0  0  0  0  0  0  0  0
    4.2581   -4.0687   -1.0634 C   0  0  0  0  0  0  0  0  0  0  0  0
    3.9598   -3.0413   -1.9800 C   0  0  0  0  0  0  0  0  0  0  0  0
    3.1011   -2.9636   -3.0902 C   0  0  0  0  0  0  0  0  0  0  0  0
    3.0015   -1.8007   -3.8604 C   0  0  0  0  0  0  0  0  0  0  0  0
    3.7649   -0.6502   -3.5423 C   0  0  0  0  0  0  0  0  0  0  0  0
    3.7637    0.5272   -4.2802 O   0  0  0  0  0  0  0  0  0  0  0  0
    2.7199    0.6837   -5.2333 C   0  0  0  0  0  0  0  0  0  0  0  0
    4.6093   -0.7201   -2.4220 C   0  0  0  0  0  0  0  0  0  0  0  0
    4.7185   -1.8911   -1.6512 C   0  0  0  0  0  0  0  0  0  0  0  0
    8.5672   -1.0423    0.4355 H   0  0  0  0  0  0  0  0  0  0  0  0
    8.1565   -1.8367   -1.1132 H   0  0  0  0  0  0  0  0  0  0  0  0
    8.1912   -2.7454    0.3336 H   0  0  0  0  0  0  0  0  0  0  0  0
    6.1575   -1.3390    1.2161 H   0  0  0  0  0  0  0  0  0  0  0  0
    6.2724   -0.3586   -0.1951 H   0  0  0  0  0  0  0  0  0  0  0  0
    5.4174   -7.5102    1.8273 H   0  0  0  0  0  0  0  0  0  0  0  0
    5.6551   -6.1331    2.9198 H   0  0  0  0  0  0  0  0  0  0  0  0
    6.9514   -6.6145    1.8222 H   0  0  0  0  0  0  0  0  0  0  0  0
    3.8318   -5.0553   -1.0639 H   0  0  0  0  0  0  0  0  0  0  0  0
    2.5005   -3.8163   -3.3612 H   0  0  0  0  0  0  0  0  0  0  0  0
    2.2975   -1.8467   -4.6950 H   0  0  0  0  0  0  0  0  0  0  0  0
    2.7387    1.6631   -5.7379 H   0  0  0  0  0  0  0  0  0  0  0  0
    1.7448    0.5888   -4.7454 H   0  0  0  0  0  0  0  0  0  0  0  0
    2.8051   -0.0685   -6.0189 H   0  0  0  0  0  0  0  0  0  0  0  0
    5.2005    0.1375   -2.1732 H   0  0  0  0  0  0  0  0  0  0  0  0
  1  2  1  0
  1 18  1  0
  1 19  1  0
  1 20  1  0
  2  3  1  0
  2 21  1  0
  2 22  1  0
  3 17  1  0
  3  4  1  0
  4  5  1  0
  4  9  2  0
  5  6  2  0
  5  7  1  0
  7  8  1  0
  8 23  1  0
  8 24  1  0
  8 25  1  0
  9 10  1  0
  9 26  1  0
 10 17  2  0
 10 11  1  0
 11 12  2  0
 11 27  1  0
 12 13  1  0
 12 28  1  0
 13 14  1  0
 13 16  2  0
 14 15  1  0
 15 29  1  0
 15 30  1  0
 15 31  1  0
 16 17  1  0
 16 32  1  0
M  END
>  <i_m_ct_stereo_status>  (326) 
1

>  <s_m_source_file>  (326) 
/var/tmp/pbs.5102264.sched01/tmplas2qej_/115vanlg5zy.sdf

>  <i_m_source_file_index>  (326) 
4

>  <i_lp_mmshare_version>  (326) 
48012

>  <i_f3d_flags>  (326) 
0

>  <s_epik_input>  (326) 
W0NIM11PQyg9TyljKFtjSF0xKW4oW0NIMl1bQ0gzXSljKGMxMilbY0hdYyhbY0hdW2NIXTIpT1tDSDNd

>  <s_epik_cmdline>  (326) 
J2VwaWtfcHl0aG9uJywgJy1waHQnLCAnMi4wJywgJy1waCcsICc3LjAnLCAnLXRuJywgJzgnLCAnLW1hJywgJzIwMCcsICctaW1hZScsICc8aW5maWxlLm1hZT4nLCAnLW9tYWUnLCAnPG91dGZpbGUubWFlPic=

>  <r_lp_tautomer_probability>  (326) 
1

>  <r_epik_Ionization_Penalty>  (326) 
8.55129e-15

>  <r_epik_Ionization_Penalty_Charging>  (326) 
0

>  <r_epik_Ionization_Penalty_Neutral>  (326) 
8.55129e-15

>  <r_epik_State_Penalty>  (326) 
-0

>  <r_epik_Charging_Adjusted_Penalty>  (326) 
0

>  <i_epik_Tot_Q>  (326) 
0

>  <i_epik_Tot_abs_Q>  (326) 
0

>  <s_epik_Chemistry_Notes>  (326) 
This compound has an ester and may undergo hydrolysis at high or low pH.

>  <s_lp_Force_Field>  (326) 
OPLS3e

>  <r_lp_Energy>  (326) 
25.9722

>  <b_lp_Chiralities_Consistent>  (326) 
1

>  <s_lp_Variant>  (326) 
71:0-1

>  <s_i_glide_gridfile>  (326) 
pfpi4k_grid

>  <i_i_glide_lignum>  (326) 
4

>  <i_i_glide_rotatable_bonds>  (326) 
4

>  <r_i_docking_score>  (326) 
-3.72686

>  <r_i_glide_ligand_efficiency>  (326) 
-0.219227

>  <r_i_glide_ligand_efficiency_sa>  (326) 
-0.563694

>  <r_i_glide_ligand_efficiency_ln>  (326) 
-0.972255

>  <r_i_glide_gscore>  (326) 
-3.72686

>  <r_i_glide_lipo>  (326) 
-0.578202

>  <r_i_glide_hbond>  (326) 
0

>  <r_i_glide_metal>  (326) 
-0

>  <r_i_glide_rewards>  (326) 
-1.915

>  <r_i_glide_evdw>  (326) 
-23.4398

>  <r_i_glide_ecoul>  (326) 
-2.40156

>  <r_i_glide_erotb>  (326) 
0.315161

>  <r_i_glide_esite>  (326) 
-0.0165933

>  <r_i_glide_emodel>  (326) 
-28.8147

>  <r_i_glide_energy>  (326) 
-25.8414

>  <r_i_glide_einternal>  (326) 
4.95383

>  <r_i_glide_intrahb_reward>  (326) 
-0

>  <i_i_glide_confnum>  (326) 
1

>  <i_i_glide_posenum>  (326) 
40

>  <r_i_glide_eff_state_penalty>  (326) 
0

>  <ligand_id>  (326) 
71

>  <original_smiles>  (326) 
CCn1c(C(=O)OC)cc2ccc(OC)cc21

>  <smiles>  (326) 
[H]c1c(OC([H])([H])[H])c([H])c2c(c1[H])c([H])c(C(=O)OC([H])([H])[H])n2C([H])([H])C([H])([H])[H]

$$$$
71:0:2
     RDKit          3D

 32 33  0  0  1  0  0  0  0  0999 V2000
    8.3476   -1.8558   -0.3136 C   0  0  0  0  0  0  0  0  0  0  0  0
    6.8807   -1.6523    0.1637 C   0  0  0  0  0  0  0  0  0  0  0  0
    5.9105   -2.5234   -0.4883 N   0  0  0  0  0  0  0  0  0  0  0  0
    5.6185   -3.8815   -0.1835 C   0  0  0  0  0  0  0  0  0  0  0  0
    6.3085   -4.6890    0.8370 C   0  0  0  0  0  0  0  0  0  0  0  0
    5.8121   -5.6625    1.3742 O   0  0  0  0  0  0  0  0  0  0  0  0
    7.5602   -4.3219    0.9855 O   0  0  0  0  0  0  0  0  0  0  0  0
    8.5735   -5.0199    1.6743 C   0  0  0  0  0  0  0  0  0  0  0  0
    4.6375   -4.3206   -1.0314 C   0  0  0  0  0  0  0  0  0  0  0  0
    4.2734   -3.2428   -1.8779 C   0  0  0  0  0  0  0  0  0  0  0  0
    3.3428   -3.0764   -2.9311 C   0  0  0  0  0  0  0  0  0  0  0  0
    3.1867   -1.8714   -3.6070 C   0  0  0  0  0  0  0  0  0  0  0  0
    3.9607   -0.7478   -3.2620 C   0  0  0  0  0  0  0  0  0  0  0  0
    3.8433    0.4589   -3.9206 O   0  0  0  0  0  0  0  0  0  0  0  0
    2.9475    0.5101   -5.0309 C   0  0  0  0  0  0  0  0  0  0  0  0
    4.8984   -0.8851   -2.2052 C   0  0  0  0  0  0  0  0  0  0  0  0
    5.0625   -2.1135   -1.5248 C   0  0  0  0  0  0  0  0  0  0  0  0
    9.0104   -1.1534    0.1984 H   0  0  0  0  0  0  0  0  0  0  0  0
    8.4297   -1.8069   -1.3947 H   0  0  0  0  0  0  0  0  0  0  0  0
    8.8173   -2.8112   -0.1450 H   0  0  0  0  0  0  0  0  0  0  0  0
    6.7463   -1.7419    1.2430 H   0  0  0  0  0  0  0  0  0  0  0  0
    6.5893   -0.6180   -0.0437 H   0  0  0  0  0  0  0  0  0  0  0  0
    9.4820   -4.4126    1.5957 H   0  0  0  0  0  0  0  0  0  0  0  0
    8.7805   -5.9705    1.1981 H   0  0  0  0  0  0  0  0  0  0  0  0
    8.3379   -5.1277    2.7223 H   0  0  0  0  0  0  0  0  0  0  0  0
    4.2236   -5.3232   -1.0805 H   0  0  0  0  0  0  0  0  0  0  0  0
    2.7146   -3.8957   -3.2326 H   0  0  0  0  0  0  0  0  0  0  0  0
    2.4416   -1.8617   -4.3806 H   0  0  0  0  0  0  0  0  0  0  0  0
    2.9067    1.5022   -5.4825 H   0  0  0  0  0  0  0  0  0  0  0  0
    1.9307    0.2608   -4.7261 H   0  0  0  0  0  0  0  0  0  0  0  0
    3.2629   -0.1977   -5.7998 H   0  0  0  0  0  0  0  0  0  0  0  0
    5.4877   -0.0291   -1.9307 H   0  0  0  0  0  0  0  0  0  0  0  0
  1  2  1  0
  1 18  1  0
  1 19  1  0
  1 20  1  0
  2  3  1  0
  2 21  1  0
  2 22  1  0
  3 17  1  0
  3  4  1  0
  4  5  1  0
  4  9  2  0
  5  6  2  0
  5  7  1  0
  7  8  1  0
  8 23  1  0
  8 24  1  0
  8 25  1  0
  9 10  1  0
  9 26  1  0
 10 17  2  0
 10 11  1  0
 11 12  2  0
 11 27  1  0
 12 13  1  0
 12 28  1  0
 13 14  1  0
 13 16  2  0
 14 15  1  0
 15 29  1  0
 15 30  1  0
 15 31  1  0
 16 17  1  0
 16 32  1  0
M  END
>  <i_m_ct_stereo_status>  (327) 
1

>  <s_m_source_file>  (327) 
/var/tmp/pbs.5102264.sched01/tmplas2qej_/115vanlg5zy.sdf

>  <i_m_source_file_index>  (327) 
4

>  <i_lp_mmshare_version>  (327) 
48012

>  <i_f3d_flags>  (327) 
0

>  <s_epik_input>  (327) 
W0NIM11PQyg9TyljKFtjSF0xKW4oW0NIMl1bQ0gzXSljKGMxMilbY0hdYyhbY0hdW2NIXTIpT1tDSDNd

>  <s_epik_cmdline>  (327) 
J2VwaWtfcHl0aG9uJywgJy1waHQnLCAnMi4wJywgJy1waCcsICc3LjAnLCAnLXRuJywgJzgnLCAnLW1hJywgJzIwMCcsICctaW1hZScsICc8aW5maWxlLm1hZT4nLCAnLW9tYWUnLCAnPG91dGZpbGUubWFlPic=

>  <r_lp_tautomer_probability>  (327) 
1

>  <r_epik_Ionization_Penalty>  (327) 
8.55129e-15

>  <r_epik_Ionization_Penalty_Charging>  (327) 
0

>  <r_epik_Ionization_Penalty_Neutral>  (327) 
8.55129e-15

>  <r_epik_State_Penalty>  (327) 
-0

>  <r_epik_Charging_Adjusted_Penalty>  (327) 
0

>  <i_epik_Tot_Q>  (327) 
0

>  <i_epik_Tot_abs_Q>  (327) 
0

>  <s_epik_Chemistry_Notes>  (327) 
This compound has an ester and may undergo hydrolysis at high or low pH.

>  <s_lp_Force_Field>  (327) 
OPLS3e

>  <r_lp_Energy>  (327) 
25.9722

>  <b_lp_Chiralities_Consistent>  (327) 
1

>  <s_lp_Variant>  (327) 
71:0-1

>  <s_i_glide_gridfile>  (327) 
pfpi4k_grid

>  <i_i_glide_lignum>  (327) 
4

>  <i_i_glide_rotatable_bonds>  (327) 
4

>  <r_i_docking_score>  (327) 
-3.72225

>  <r_i_glide_ligand_efficiency>  (327) 
-0.218956

>  <r_i_glide_ligand_efficiency_sa>  (327) 
-0.562997

>  <r_i_glide_ligand_efficiency_ln>  (327) 
-0.971052

>  <r_i_glide_gscore>  (327) 
-3.72225

>  <r_i_glide_lipo>  (327) 
-0.518608

>  <r_i_glide_hbond>  (327) 
0

>  <r_i_glide_metal>  (327) 
-0

>  <r_i_glide_rewards>  (327) 
-1.95881

>  <r_i_glide_evdw>  (327) 
-25.3163

>  <r_i_glide_ecoul>  (327) 
-1.89286

>  <r_i_glide_erotb>  (327) 
0.315161

>  <r_i_glide_esite>  (327) 
-0.0102527

>  <r_i_glide_emodel>  (327) 
-26.9118

>  <r_i_glide_energy>  (327) 
-27.2091

>  <r_i_glide_einternal>  (327) 
8.7432

>  <r_i_glide_intrahb_reward>  (327) 
-0

>  <i_i_glide_confnum>  (327) 
5

>  <i_i_glide_posenum>  (327) 
8

>  <r_i_glide_eff_state_penalty>  (327) 
0

>  <ligand_id>  (327) 
71

>  <original_smiles>  (327) 
CCn1c(C(=O)OC)cc2ccc(OC)cc21

>  <smiles>  (327) 
[H]c1c(OC([H])([H])[H])c([H])c2c(c1[H])c([H])c(C(=O)OC([H])([H])[H])n2C([H])([H])C([H])([H])[H]

$$$$
72:0:0
     RDKit          3D

 35 37  0  0  1  0  0  0  0  0999 V2000
    0.1621   -6.4711    7.5873 C   0  0  0  0  0  0  0  0  0  0  0  0
   -0.7979   -5.0105    7.1169 S   0  0  0  0  0  0  0  0  0  0  0  0
    0.2983   -3.8946    6.3004 C   0  0  0  0  0  0  0  0  0  0  0  0
    1.5910   -4.2798    6.1554 N   0  0  0  0  0  0  0  0  0  0  0  0
    2.4605   -3.4516    5.5415 C   0  0  0  0  0  0  0  0  0  0  0  0
    2.0974   -2.1824    5.0374 C   0  0  0  0  0  0  0  0  0  0  0  0
    0.7614   -1.7767    5.1896 C   0  0  0  0  0  0  0  0  0  0  0  0
   -0.1767   -2.6343    5.8291 C   0  0  0  0  0  0  0  0  0  0  0  0
   -1.4381   -2.0548    5.8763 N   0  0  0  0  0  0  0  0  0  0  0  0
   -1.2143   -0.8911    5.2646 C   0  0  0  0  0  0  0  0  0  0  0  0
    0.0445   -0.6336    4.8506 N   0  0  0  0  0  0  0  0  0  0  0  0
    0.5713    0.5627    4.1387 C   0  0  2  0  0  0  0  0  0  0  0  0
   -0.1512    1.6748    4.5695 O   0  0  0  0  0  0  0  0  0  0  0  0
   -0.6124    2.4392    3.4563 C   0  0  1  0  0  0  0  0  0  0  0  0
   -0.5264    3.9619    3.7569 C   0  0  0  0  0  0  0  0  0  0  0  0
   -1.3916    4.6934    2.9025 O   0  0  0  0  0  0  0  0  0  0  0  0
    0.1615    1.8681    2.2418 C   0  0  1  0  0  0  0  0  0  0  0  0
    1.4124    2.5307    2.0758 O   0  0  0  0  0  0  0  0  0  0  0  0
    0.3360    0.4106    2.6412 C   0  0  1  0  0  0  0  0  0  0  0  0
    1.3869   -0.2310    1.9496 O   0  0  0  0  0  0  0  0  0  0  0  0
   -0.4926   -7.1874    8.0811 H   0  0  0  0  0  0  0  0  0  0  0  0
    0.9598   -6.1982    8.2774 H   0  0  0  0  0  0  0  0  0  0  0  0
    0.5954   -6.9494    6.7090 H   0  0  0  0  0  0  0  0  0  0  0  0
    3.4833   -3.8017    5.4499 H   0  0  0  0  0  0  0  0  0  0  0  0
    2.8222   -1.5476    4.5473 H   0  0  0  0  0  0  0  0  0  0  0  0
   -2.0167   -0.1845    5.1079 H   0  0  0  0  0  0  0  0  0  0  0  0
    1.6112    0.6726    4.4404 H   0  0  0  0  0  0  0  0  0  0  0  0
   -1.6617    2.1477    3.3509 H   0  0  0  0  0  0  0  0  0  0  0  0
   -0.7843    4.1555    4.7986 H   0  0  0  0  0  0  0  0  0  0  0  0
    0.4818    4.3518    3.6280 H   0  0  0  0  0  0  0  0  0  0  0  0
   -1.0454    4.5836    2.0246 H   0  0  0  0  0  0  0  0  0  0  0  0
   -0.4173    1.9501    1.3130 H   0  0  0  0  0  0  0  0  0  0  0  0
    1.1940    3.3676    1.6678 H   0  0  0  0  0  0  0  0  0  0  0  0
   -0.6026   -0.1164    2.4899 H   0  0  0  0  0  0  0  0  0  0  0  0
    1.1788   -0.2555    1.0190 H   0  0  0  0  0  0  0  0  0  0  0  0
  1  2  1  0
  1 21  1  0
  1 22  1  0
  1 23  1  0
  2  3  1  0
  3  8  2  0
  3  4  1  0
  4  5  2  0
  5  6  1  0
  5 24  1  0
  6  7  2  0
  6 25  1  0
  7 11  1  0
  7  8  1  0
  8  9  1  0
  9 10  2  0
 10 11  1  0
 10 26  1  0
 11 12  1  0
 12 19  1  0
 12 13  1  0
 12 27  1  6
 13 14  1  0
 14 15  1  0
 14 17  1  0
 14 28  1  6
 15 16  1  0
 15 29  1  0
 15 30  1  0
 16 31  1  0
 17 18  1  0
 17 19  1  0
 17 32  1  6
 18 33  1  0
 19 20  1  0
 19 34  1  1
 20 35  1  0
M  END
>  <i_m_ct_stereo_status>  (328) 
1

>  <s_m_source_file>  (328) 
/var/tmp/pbs.5102264.sched01/tmplas2qej_/115vanlg5zy.sdf

>  <i_m_source_file_index>  (328) 
5

>  <i_lp_mmshare_version>  (328) 
48012

>  <i_f3d_flags>  (328) 
0

>  <s_epik_input>  (328) 
W2NIXTFbY0hdbmMoU1tDSDNdKWMoYzEyKW5bY0hdbjJbQ0BASF0zT1tDQEBIXShbQ0gyXVtPSF0pW0NAQEhdKFtPSF0pW0NASF0zW09IXQ==

>  <s_epik_cmdline>  (328) 
J2VwaWtfcHl0aG9uJywgJy1waHQnLCAnMi4wJywgJy1waCcsICc3LjAnLCAnLXRuJywgJzgnLCAnLW1hJywgJzIwMCcsICctaW1hZScsICc8aW5maWxlLm1hZT4nLCAnLW9tYWUnLCAnPG91dGZpbGUubWFlPic=

>  <r_lp_tautomer_probability>  (328) 
1

>  <r_epik_Ionization_Penalty>  (328) 
0.00295691

>  <r_epik_Ionization_Penalty_Charging>  (328) 
0.0029535

>  <r_epik_Ionization_Penalty_Neutral>  (328) 
3.4137e-06

>  <r_epik_State_Penalty>  (328) 
0.00199875

>  <r_epik_Charging_Adjusted_Penalty>  (328) 
0.00495225

>  <i_epik_Tot_Q>  (328) 
0

>  <i_epik_Tot_abs_Q>  (328) 
0

>  <s_epik_Chemistry_Notes>  (328) 
This compound contains an acetal/aminal-like group ( X-CH(R)-Y where X, Y are N, S, or O) that may be acid/base labile, releasing an aldehyde.

>  <s_lp_Force_Field>  (328) 
OPLS3e

>  <r_lp_Energy>  (328) 
12.5645

>  <b_lp_Chiralities_Consistent>  (328) 
1

>  <s_lp_Variant>  (328) 
72:0-1

>  <s_i_glide_gridfile>  (328) 
pfpi4k_grid

>  <i_i_glide_lignum>  (328) 
5

>  <i_i_glide_rotatable_bonds>  (328) 
6

>  <r_i_docking_score>  (328) 
-4.15307

>  <r_i_glide_ligand_efficiency>  (328) 
-0.207653

>  <r_i_glide_ligand_efficiency_sa>  (328) 
-0.563658

>  <r_i_glide_ligand_efficiency_ln>  (328) 
-1.03938

>  <r_i_glide_gscore>  (328) 
-4.15307

>  <r_i_glide_lipo>  (328) 
-0.0530307

>  <r_i_glide_hbond>  (328) 
-0.235343

>  <r_i_glide_metal>  (328) 
-0

>  <r_i_glide_rewards>  (328) 
-1.38183

>  <r_i_glide_evdw>  (328) 
-15.1741

>  <r_i_glide_ecoul>  (328) 
-13.83

>  <r_i_glide_erotb>  (328) 
0.414766

>  <r_i_glide_esite>  (328) 
-0.064416

>  <r_i_glide_emodel>  (328) 
-37.8445

>  <r_i_glide_energy>  (328) 
-29.0041

>  <r_i_glide_einternal>  (328) 
2.23448

>  <r_i_glide_intrahb_reward>  (328) 
-0

>  <i_i_glide_confnum>  (328) 
1

>  <i_i_glide_posenum>  (328) 
32

>  <r_i_glide_eff_state_penalty>  (328) 
0

>  <ligand_id>  (328) 
72

>  <original_smiles>  (328) 
CSc1nccc2c1ncn2C1OC(CO)C(O)C1O

>  <smiles>  (328) 
[H]OC([H])([H])C1([H])OC([H])(n2c([H])nc3c(SC([H])([H])[H])nc([H])c([H])c32)C([H])(O[H])C1([H])O[H]

$$$$
72:0:1
     RDKit          3D

 35 37  0  0  1  0  0  0  0  0999 V2000
    0.6199   -9.3405    3.9342 C   0  0  0  0  0  0  0  0  0  0  0  0
    0.2824   -8.1014    2.6565 S   0  0  0  0  0  0  0  0  0  0  0  0
    1.6942   -7.0477    2.5637 C   0  0  0  0  0  0  0  0  0  0  0  0
    2.5648   -7.0699    3.6051 N   0  0  0  0  0  0  0  0  0  0  0  0
    3.6376   -6.2502    3.5964 C   0  0  0  0  0  0  0  0  0  0  0  0
    3.9077   -5.3494    2.5468 C   0  0  0  0  0  0  0  0  0  0  0  0
    3.0121   -5.3260    1.4664 C   0  0  0  0  0  0  0  0  0  0  0  0
    1.8755   -6.1785    1.4604 C   0  0  0  0  0  0  0  0  0  0  0  0
    1.1098   -5.9835    0.3228 N   0  0  0  0  0  0  0  0  0  0  0  0
    1.8134   -5.0519   -0.3200 C   0  0  0  0  0  0  0  0  0  0  0  0
    2.9355   -4.6087    0.2799 N   0  0  0  0  0  0  0  0  0  0  0  0
    3.8960   -3.5769   -0.1752 C   0  0  2  0  0  0  0  0  0  0  0  0
    3.3427   -2.8887   -1.2614 O   0  0  0  0  0  0  0  0  0  0  0  0
    4.2511   -2.8446   -2.3573 C   0  0  1  0  0  0  0  0  0  0  0  0
    4.1803   -1.4573   -3.0294 C   0  0  0  0  0  0  0  0  0  0  0  0
    3.6183   -1.5345   -4.3213 O   0  0  0  0  0  0  0  0  0  0  0  0
    5.6054   -3.2428   -1.7505 C   0  0  1  0  0  0  0  0  0  0  0  0
    6.2295   -2.1153   -1.1456 O   0  0  0  0  0  0  0  0  0  0  0  0
    5.1758   -4.2337   -0.6794 C   0  0  1  0  0  0  0  0  0  0  0  0
    6.1727   -4.3583    0.3116 O   0  0  0  0  0  0  0  0  0  0  0  0
   -0.2128  -10.0412    3.9872 H   0  0  0  0  0  0  0  0  0  0  0  0
    0.7324   -8.8593    4.9059 H   0  0  0  0  0  0  0  0  0  0  0  0
    1.5278   -9.9007    3.7057 H   0  0  0  0  0  0  0  0  0  0  0  0
    4.3027   -6.3105    4.4416 H   0  0  0  0  0  0  0  0  0  0  0  0
    4.7774   -4.7161    2.5760 H   0  0  0  0  0  0  0  0  0  0  0  0
    1.4978   -4.6708   -1.2927 H   0  0  0  0  0  0  0  0  0  0  0  0
    4.0102   -2.8813    0.6534 H   0  0  0  0  0  0  0  0  0  0  0  0
    3.9501   -3.6376   -3.0469 H   0  0  0  0  0  0  0  0  0  0  0  0
    3.6185   -0.7415   -2.4253 H   0  0  0  0  0  0  0  0  0  0  0  0
    5.1650   -1.0302   -3.1498 H   0  0  0  0  0  0  0  0  0  0  0  0
    2.6972   -1.7478   -4.2501 H   0  0  0  0  0  0  0  0  0  0  0  0
    6.2699   -3.6916   -2.4972 H   0  0  0  0  0  0  0  0  0  0  0  0
    5.5883   -1.7062   -0.5810 H   0  0  0  0  0  0  0  0  0  0  0  0
    4.9337   -5.1972   -1.1328 H   0  0  0  0  0  0  0  0  0  0  0  0
    6.3273   -3.4989    0.6746 H   0  0  0  0  0  0  0  0  0  0  0  0
  1  2  1  0
  1 21  1  0
  1 22  1  0
  1 23  1  0
  2  3  1  0
  3  8  2  0
  3  4  1  0
  4  5  2  0
  5  6  1  0
  5 24  1  0
  6  7  2  0
  6 25  1  0
  7 11  1  0
  7  8  1  0
  8  9  1  0
  9 10  2  0
 10 11  1  0
 10 26  1  0
 11 12  1  0
 12 19  1  0
 12 13  1  0
 12 27  1  1
 13 14  1  0
 14 15  1  0
 14 17  1  0
 14 28  1  6
 15 16  1  0
 15 29  1  0
 15 30  1  0
 16 31  1  0
 17 18  1  0
 17 19  1  0
 17 32  1  6
 18 33  1  0
 19 20  1  0
 19 34  1  6
 20 35  1  0
M  END
>  <i_m_ct_stereo_status>  (329) 
1

>  <s_m_source_file>  (329) 
/var/tmp/pbs.5102264.sched01/tmplas2qej_/115vanlg5zy.sdf

>  <i_m_source_file_index>  (329) 
5

>  <i_lp_mmshare_version>  (329) 
48012

>  <i_f3d_flags>  (329) 
0

>  <s_epik_input>  (329) 
W2NIXTFbY0hdbmMoU1tDSDNdKWMoYzEyKW5bY0hdbjJbQ0BASF0zT1tDQEBIXShbQ0gyXVtPSF0pW0NAQEhdKFtPSF0pW0NASF0zW09IXQ==

>  <s_epik_cmdline>  (329) 
J2VwaWtfcHl0aG9uJywgJy1waHQnLCAnMi4wJywgJy1waCcsICc3LjAnLCAnLXRuJywgJzgnLCAnLW1hJywgJzIwMCcsICctaW1hZScsICc8aW5maWxlLm1hZT4nLCAnLW9tYWUnLCAnPG91dGZpbGUubWFlPic=

>  <r_lp_tautomer_probability>  (329) 
1

>  <r_epik_Ionization_Penalty>  (329) 
0.00295691

>  <r_epik_Ionization_Penalty_Charging>  (329) 
0.0029535

>  <r_epik_Ionization_Penalty_Neutral>  (329) 
3.4137e-06

>  <r_epik_State_Penalty>  (329) 
0.00199875

>  <r_epik_Charging_Adjusted_Penalty>  (329) 
0.00495225

>  <i_epik_Tot_Q>  (329) 
0

>  <i_epik_Tot_abs_Q>  (329) 
0

>  <s_epik_Chemistry_Notes>  (329) 
This compound contains an acetal/aminal-like group ( X-CH(R)-Y where X, Y are N, S, or O) that may be acid/base labile, releasing an aldehyde.

>  <s_lp_Force_Field>  (329) 
OPLS3e

>  <r_lp_Energy>  (329) 
12.5645

>  <b_lp_Chiralities_Consistent>  (329) 
1

>  <s_lp_Variant>  (329) 
72:0-1

>  <s_i_glide_gridfile>  (329) 
pfpi4k_grid

>  <i_i_glide_lignum>  (329) 
5

>  <i_i_glide_rotatable_bonds>  (329) 
6

>  <r_i_docking_score>  (329) 
-4.08357

>  <r_i_glide_ligand_efficiency>  (329) 
-0.204178

>  <r_i_glide_ligand_efficiency_sa>  (329) 
-0.554225

>  <r_i_glide_ligand_efficiency_ln>  (329) 
-1.02198

>  <r_i_glide_gscore>  (329) 
-4.08357

>  <r_i_glide_lipo>  (329) 
-0.207014

>  <r_i_glide_hbond>  (329) 
-0.225529

>  <r_i_glide_metal>  (329) 
-0

>  <r_i_glide_rewards>  (329) 
-1.40138

>  <r_i_glide_evdw>  (329) 
-19.7635

>  <r_i_glide_ecoul>  (329) 
-10.3339

>  <r_i_glide_erotb>  (329) 
0.414766

>  <r_i_glide_esite>  (329) 
-0.126142

>  <r_i_glide_emodel>  (329) 
-38.5397

>  <r_i_glide_energy>  (329) 
-30.0974

>  <r_i_glide_einternal>  (329) 
2.84297

>  <r_i_glide_intrahb_reward>  (329) 
-0

>  <i_i_glide_confnum>  (329) 
2

>  <i_i_glide_posenum>  (329) 
37

>  <r_i_glide_eff_state_penalty>  (329) 
0

>  <ligand_id>  (329) 
72

>  <original_smiles>  (329) 
CSc1nccc2c1ncn2C1OC(CO)C(O)C1O

>  <smiles>  (329) 
[H]OC([H])([H])C1([H])OC([H])(n2c([H])nc3c(SC([H])([H])[H])nc([H])c([H])c32)C([H])(O[H])C1([H])O[H]

$$$$
72:0:2
     RDKit          3D

 35 37  0  0  1  0  0  0  0  0999 V2000
    0.6828   -4.6322    5.3448 C   0  0  0  0  0  0  0  0  0  0  0  0
    0.8635   -2.8980    5.8457 S   0  0  0  0  0  0  0  0  0  0  0  0
    1.1369   -1.9563    4.3756 C   0  0  0  0  0  0  0  0  0  0  0  0
    0.4651   -0.7846    4.3019 N   0  0  0  0  0  0  0  0  0  0  0  0
    0.6110   -0.0077    3.2076 C   0  0  0  0  0  0  0  0  0  0  0  0
    1.4166   -0.3597    2.1063 C   0  0  0  0  0  0  0  0  0  0  0  0
    2.1158   -1.5772    2.1754 C   0  0  0  0  0  0  0  0  0  0  0  0
    1.9943   -2.4003    3.3339 C   0  0  0  0  0  0  0  0  0  0  0  0
    2.7704   -3.5416    3.2092 N   0  0  0  0  0  0  0  0  0  0  0  0
    3.2969   -3.3913    1.9958 C   0  0  0  0  0  0  0  0  0  0  0  0
    2.9760   -2.2659    1.3317 N   0  0  0  0  0  0  0  0  0  0  0  0
    3.4555   -1.8338   -0.0051 C   0  0  2  0  0  0  0  0  0  0  0  0
    2.9960   -2.7568   -0.9492 O   0  0  0  0  0  0  0  0  0  0  0  0
    4.0535   -3.1718   -1.8095 C   0  0  1  0  0  0  0  0  0  0  0  0
    3.5793   -3.2720   -3.2737 C   0  0  0  0  0  0  0  0  0  0  0  0
    4.5902   -3.8736   -4.0542 O   0  0  0  0  0  0  0  0  0  0  0  0
    5.1967   -2.1821   -1.5221 C   0  0  1  0  0  0  0  0  0  0  0  0
    5.0241   -1.0056   -2.2956 O   0  0  0  0  0  0  0  0  0  0  0  0
    4.9800   -1.8628   -0.0527 C   0  0  1  0  0  0  0  0  0  0  0  0
    5.5770   -0.6402    0.3099 O   0  0  0  0  0  0  0  0  0  0  0  0
    0.5499   -5.2615    6.2240 H   0  0  0  0  0  0  0  0  0  0  0  0
    1.5531   -5.0126    4.8116 H   0  0  0  0  0  0  0  0  0  0  0  0
   -0.1879   -4.7274    4.6974 H   0  0  0  0  0  0  0  0  0  0  0  0
    0.0451    0.9083    3.1994 H   0  0  0  0  0  0  0  0  0  0  0  0
    1.4697    0.2795    1.2393 H   0  0  0  0  0  0  0  0  0  0  0  0
    3.9688   -4.1329    1.5737 H   0  0  0  0  0  0  0  0  0  0  0  0
    3.0165   -0.8590   -0.2125 H   0  0  0  0  0  0  0  0  0  0  0  0
    4.3453   -4.1598   -1.4466 H   0  0  0  0  0  0  0  0  0  0  0  0
    2.6680   -3.8638   -3.3535 H   0  0  0  0  0  0  0  0  0  0  0  0
    3.3237   -2.3025   -3.6917 H   0  0  0  0  0  0  0  0  0  0  0  0
    4.7513   -4.7391   -3.6975 H   0  0  0  0  0  0  0  0  0  0  0  0
    6.1842   -2.6296   -1.7027 H   0  0  0  0  0  0  0  0  0  0  0  0
    4.1183   -0.7298   -2.2177 H   0  0  0  0  0  0  0  0  0  0  0  0
    5.3892   -2.6772    0.5458 H   0  0  0  0  0  0  0  0  0  0  0  0
    5.1812    0.0493   -0.2047 H   0  0  0  0  0  0  0  0  0  0  0  0
  1  2  1  0
  1 21  1  0
  1 22  1  0
  1 23  1  0
  2  3  1  0
  3  8  2  0
  3  4  1  0
  4  5  2  0
  5  6  1  0
  5 24  1  0
  6  7  2  0
  6 25  1  0
  7 11  1  0
  7  8  1  0
  8  9  1  0
  9 10  2  0
 10 11  1  0
 10 26  1  0
 11 12  1  0
 12 19  1  0
 12 13  1  0
 12 27  1  6
 13 14  1  0
 14 15  1  0
 14 17  1  0
 14 28  1  1
 15 16  1  0
 15 29  1  0
 15 30  1  0
 16 31  1  0
 17 18  1  0
 17 19  1  0
 17 32  1  1
 18 33  1  0
 19 20  1  0
 19 34  1  1
 20 35  1  0
M  END
>  <i_m_ct_stereo_status>  (330) 
1

>  <s_m_source_file>  (330) 
/var/tmp/pbs.5102264.sched01/tmplas2qej_/115vanlg5zy.sdf

>  <i_m_source_file_index>  (330) 
5

>  <i_lp_mmshare_version>  (330) 
48012

>  <i_f3d_flags>  (330) 
0

>  <s_epik_input>  (330) 
W2NIXTFbY0hdbmMoU1tDSDNdKWMoYzEyKW5bY0hdbjJbQ0BASF0zT1tDQEBIXShbQ0gyXVtPSF0pW0NAQEhdKFtPSF0pW0NASF0zW09IXQ==

>  <s_epik_cmdline>  (330) 
J2VwaWtfcHl0aG9uJywgJy1waHQnLCAnMi4wJywgJy1waCcsICc3LjAnLCAnLXRuJywgJzgnLCAnLW1hJywgJzIwMCcsICctaW1hZScsICc8aW5maWxlLm1hZT4nLCAnLW9tYWUnLCAnPG91dGZpbGUubWFlPic=

>  <r_lp_tautomer_probability>  (330) 
1

>  <r_epik_Ionization_Penalty>  (330) 
0.00295691

>  <r_epik_Ionization_Penalty_Charging>  (330) 
0.0029535

>  <r_epik_Ionization_Penalty_Neutral>  (330) 
3.4137e-06

>  <r_epik_State_Penalty>  (330) 
0.00199875

>  <r_epik_Charging_Adjusted_Penalty>  (330) 
0.00495225

>  <i_epik_Tot_Q>  (330) 
0

>  <i_epik_Tot_abs_Q>  (330) 
0

>  <s_epik_Chemistry_Notes>  (330) 
This compound contains an acetal/aminal-like group ( X-CH(R)-Y where X, Y are N, S, or O) that may be acid/base labile, releasing an aldehyde.

>  <s_lp_Force_Field>  (330) 
OPLS3e

>  <r_lp_Energy>  (330) 
12.5645

>  <b_lp_Chiralities_Consistent>  (330) 
1

>  <s_lp_Variant>  (330) 
72:0-1

>  <s_i_glide_gridfile>  (330) 
pfpi4k_grid

>  <i_i_glide_lignum>  (330) 
5

>  <i_i_glide_rotatable_bonds>  (330) 
6

>  <r_i_docking_score>  (330) 
-3.37973

>  <r_i_glide_ligand_efficiency>  (330) 
-0.168987

>  <r_i_glide_ligand_efficiency_sa>  (330) 
-0.458701

>  <r_i_glide_ligand_efficiency_ln>  (330) 
-0.845836

>  <r_i_glide_gscore>  (330) 
-3.37973

>  <r_i_glide_lipo>  (330) 
-0.110747

>  <r_i_glide_hbond>  (330) 
0

>  <r_i_glide_metal>  (330) 
-0

>  <r_i_glide_rewards>  (330) 
-1.3837

>  <r_i_glide_evdw>  (330) 
-22.3618

>  <r_i_glide_ecoul>  (330) 
-7.25224

>  <r_i_glide_erotb>  (330) 
0.414766

>  <r_i_glide_esite>  (330) 
-0.0941295

>  <r_i_glide_emodel>  (330) 
-36.6162

>  <r_i_glide_energy>  (330) 
-29.614

>  <r_i_glide_einternal>  (330) 
2.02151

>  <r_i_glide_intrahb_reward>  (330) 
-0

>  <i_i_glide_confnum>  (330) 
1

>  <i_i_glide_posenum>  (330) 
2

>  <r_i_glide_eff_state_penalty>  (330) 
0

>  <ligand_id>  (330) 
72

>  <original_smiles>  (330) 
CSc1nccc2c1ncn2C1OC(CO)C(O)C1O

>  <smiles>  (330) 
[H]OC([H])([H])C1([H])OC([H])(n2c([H])nc3c(SC([H])([H])[H])nc([H])c([H])c32)C([H])(O[H])C1([H])O[H]

$$$$
73:0:0
     RDKit          3D

 26 28  0  0  1  0  0  0  0  0999 V2000
   -1.7100   -8.4797    2.4733 C   0  0  0  0  0  0  0  0  0  0  0  0
   -0.4314   -7.9877    2.3394 C   0  0  0  0  0  0  0  0  0  0  0  0
   -0.2895   -6.6569    2.0181 N   0  0  0  0  0  0  0  0  0  0  0  0
    0.9328   -6.0805    2.0322 C   0  0  0  0  0  0  0  0  0  0  0  0
    1.6630   -5.8700    0.9143 N   0  0  0  0  0  0  0  0  0  0  0  0
    3.0243   -5.6089    1.1682 C   0  0  0  0  0  0  0  0  0  0  0  0
    4.0341   -5.5423    0.0620 C   0  0  0  0  0  0  0  0  0  0  0  0
    3.2637   -5.4019    2.5093 C   0  0  0  0  0  0  0  0  0  0  0  0
    1.8311   -5.6064    3.4811 S   0  0  0  0  0  0  0  0  0  0  0  0
    0.6972   -8.9460    2.6390 C   0  0  0  0  0  0  0  0  0  0  0  0
    0.6150  -10.0043    3.5921 C   0  0  0  0  0  0  0  0  0  0  0  0
    1.7741  -10.7792    3.8712 C   0  0  0  0  0  0  0  0  0  0  0  0
    2.9634  -10.3903    3.2112 C   0  0  0  0  0  0  0  0  0  0  0  0
    4.1790  -10.9154    3.3899 N   0  0  0  0  0  0  0  0  0  0  0  0
    4.9663  -10.1171    2.5314 O   0  0  0  0  0  0  0  0  0  0  0  0
    4.2047   -9.1302    1.8605 N   0  0  0  0  0  0  0  0  0  0  0  0
    2.9697   -9.3646    2.2899 C   0  0  0  0  0  0  0  0  0  0  0  0
    1.8461   -8.7532    1.9691 N   0  0  0  0  0  0  0  0  0  0  0  0
   -2.5762   -7.8466    2.2709 H   0  0  0  0  0  0  0  0  0  0  0  0
   -1.8988   -9.5080    2.7795 H   0  0  0  0  0  0  0  0  0  0  0  0
    5.0153   -5.1908    0.4035 H   0  0  0  0  0  0  0  0  0  0  0  0
    3.7179   -4.8407   -0.7004 H   0  0  0  0  0  0  0  0  0  0  0  0
    4.2237   -6.4947   -0.4345 H   0  0  0  0  0  0  0  0  0  0  0  0
    4.2161   -5.1362    2.9468 H   0  0  0  0  0  0  0  0  0  0  0  0
   -0.3060  -10.2340    4.1077 H   0  0  0  0  0  0  0  0  0  0  0  0
    1.7739  -11.6125    4.5472 H   0  0  0  0  0  0  0  0  0  0  0  0
  1  2  2  0
  1 19  1  0
  1 20  1  0
  2  3  1  0
  2 10  1  0
  3  4  1  0
  4  9  1  0
  4  5  2  0
  5  6  1  0
  6  7  1  0
  6  8  2  0
  7 21  1  0
  7 22  1  0
  7 23  1  0
  8  9  1  0
  8 24  1  0
 10 18  2  0
 10 11  1  0
 11 12  2  0
 11 25  1  0
 12 13  1  0
 12 26  1  0
 13 17  1  0
 13 14  2  0
 14 15  1  0
 15 16  1  0
 16 17  2  0
 17 18  1  0
M  CHG  1   3  -1
M  END
>  <i_m_ct_stereo_status>  (331) 
1

>  <s_m_source_file>  (331) 
/var/tmp/pbs.5102264.sched01/tmplas2qej_/115vanlg5zy.sdf

>  <i_m_source_file_index>  (331) 
6

>  <i_lp_mmshare_version>  (331) 
48012

>  <i_f3d_flags>  (331) 
0

>  <s_epik_input>  (331) 
bjFvbmMoYzEyKW5jKFtjSF1bY0hdMilDKD1bQ0gyXSkvTj1jMy9bbkhdYyhbQ0gzXSlbY0hdczM=

>  <s_epik_cmdline>  (331) 
J2VwaWtfcHl0aG9uJywgJy1waHQnLCAnMi4wJywgJy1waCcsICc3LjAnLCAnLXRuJywgJzgnLCAnLW1hJywgJzIwMCcsICctaW1hZScsICc8aW5maWxlLm1hZT4nLCAnLW9tYWUnLCAnPG91dGZpbGUubWFlPic=

>  <r_lp_tautomer_probability>  (331) 
1

>  <r_epik_Ionization_Penalty>  (331) 
0.00018083

>  <r_epik_Ionization_Penalty_Charging>  (331) 
0

>  <r_epik_Ionization_Penalty_Neutral>  (331) 
0.00018083

>  <r_epik_State_Penalty>  (331) 
-0

>  <r_epik_Charging_Adjusted_Penalty>  (331) 
0

>  <i_epik_Tot_Q>  (331) 
-1

>  <i_epik_Tot_abs_Q>  (331) 
1

>  <s_epik_Chemistry_Notes>  (331) 
This compound has an imine and may undergo hydrolysis.

>  <s_lp_Force_Field>  (331) 
OPLS3e

>  <r_lp_Energy>  (331) 
33.7784

>  <b_lp_Chiralities_Consistent>  (331) 
1

>  <s_lp_Variant>  (331) 
73:0-1

>  <s_i_glide_gridfile>  (331) 
pfpi4k_grid

>  <i_i_glide_lignum>  (331) 
6

>  <i_i_glide_rotatable_bonds>  (331) 
3

>  <r_i_docking_score>  (331) 
-3.41867

>  <r_i_glide_ligand_efficiency>  (331) 
-0.189926

>  <r_i_glide_ligand_efficiency_sa>  (331) 
-0.497747

>  <r_i_glide_ligand_efficiency_ln>  (331) 
-0.87875

>  <r_i_glide_gscore>  (331) 
-3.41867

>  <r_i_glide_lipo>  (331) 
-0.174982

>  <r_i_glide_hbond>  (331) 
-0.328578

>  <r_i_glide_metal>  (331) 
-0

>  <r_i_glide_rewards>  (331) 
-1.64809

>  <r_i_glide_evdw>  (331) 
-21.9914

>  <r_i_glide_ecoul>  (331) 
-5.38798

>  <r_i_glide_erotb>  (331) 
0.79428

>  <r_i_glide_esite>  (331) 
-0.153527

>  <r_i_glide_emodel>  (331) 
-33.965

>  <r_i_glide_energy>  (331) 
-27.3794

>  <r_i_glide_einternal>  (331) 
2.96914

>  <r_i_glide_intrahb_reward>  (331) 
-0

>  <i_i_glide_confnum>  (331) 
3

>  <i_i_glide_posenum>  (331) 
35

>  <r_i_glide_eff_state_penalty>  (331) 
0

>  <ligand_id>  (331) 
73

>  <original_smiles>  (331) 
C=C(N=c1[nH]c(C)cs1)c1ccc2nonc2n1

>  <smiles>  (331) 
[H]C([H])=C([N-]c1nc(C([H])([H])[H])c([H])s1)c1nc2nonc2c([H])c1[H]

$$$$
73:0:1
     RDKit          3D

 26 28  0  0  1  0  0  0  0  0999 V2000
    7.8603   -2.6944   -0.7580 C   0  0  0  0  0  0  0  0  0  0  0  0
    6.4806   -2.6412   -0.6494 C   0  0  0  0  0  0  0  0  0  0  0  0
    5.8647   -1.5567   -1.2117 N   0  0  0  0  0  0  0  0  0  0  0  0
    4.9332   -1.6429   -2.1769 C   0  0  0  0  0  0  0  0  0  0  0  0
    4.3447   -2.7666   -2.6416 N   0  0  0  0  0  0  0  0  0  0  0  0
    3.2464   -2.5378   -3.4653 C   0  0  0  0  0  0  0  0  0  0  0  0
    2.4035   -3.6964   -3.9069 C   0  0  0  0  0  0  0  0  0  0  0  0
    3.0799   -1.2345   -3.8324 C   0  0  0  0  0  0  0  0  0  0  0  0
    4.2235   -0.2523   -2.9811 S   0  0  0  0  0  0  0  0  0  0  0  0
    5.7803   -3.7609    0.0692 C   0  0  0  0  0  0  0  0  0  0  0  0
    6.4762   -4.8121    0.7639 C   0  0  0  0  0  0  0  0  0  0  0  0
    5.7493   -5.9112    1.3151 C   0  0  0  0  0  0  0  0  0  0  0  0
    4.3467   -5.9102    1.0960 C   0  0  0  0  0  0  0  0  0  0  0  0
    3.4903   -6.8597    1.4793 N   0  0  0  0  0  0  0  0  0  0  0  0
    2.2664   -6.3493    0.9889 O   0  0  0  0  0  0  0  0  0  0  0  0
    2.4308   -5.1105    0.3334 N   0  0  0  0  0  0  0  0  0  0  0  0
    3.7392   -4.8607    0.4480 C   0  0  0  0  0  0  0  0  0  0  0  0
    4.4320   -3.7871    0.0209 N   0  0  0  0  0  0  0  0  0  0  0  0
    8.3623   -1.8882   -1.2489 H   0  0  0  0  0  0  0  0  0  0  0  0
    8.4958   -3.5017   -0.4091 H   0  0  0  0  0  0  0  0  0  0  0  0
    1.6881   -3.4565   -4.6923 H   0  0  0  0  0  0  0  0  0  0  0  0
    1.8228   -4.1640   -3.1121 H   0  0  0  0  0  0  0  0  0  0  0  0
    3.0422   -4.4962   -4.2729 H   0  0  0  0  0  0  0  0  0  0  0  0
    2.3556   -0.8229   -4.5246 H   0  0  0  0  0  0  0  0  0  0  0  0
    7.5521   -4.8154    0.9039 H   0  0  0  0  0  0  0  0  0  0  0  0
    6.2237   -6.7161    1.9027 H   0  0  0  0  0  0  0  0  0  0  0  0
  1  2  2  0
  1 19  1  0
  1 20  1  0
  2  3  1  0
  2 10  1  0
  3  4  1  0
  4  9  1  0
  4  5  2  0
  5  6  1  0
  6  7  1  0
  6  8  2  0
  7 21  1  0
  7 22  1  0
  7 23  1  0
  8  9  1  0
  8 24  1  0
 10 18  2  0
 10 11  1  0
 11 12  2  0
 11 25  1  0
 12 13  1  0
 12 26  1  0
 13 17  1  0
 13 14  2  0
 14 15  1  0
 15 16  1  0
 16 17  2  0
 17 18  1  0
M  CHG  1   3  -1
M  END
>  <i_m_ct_stereo_status>  (332) 
1

>  <s_m_source_file>  (332) 
/var/tmp/pbs.5102264.sched01/tmplas2qej_/115vanlg5zy.sdf

>  <i_m_source_file_index>  (332) 
6

>  <i_lp_mmshare_version>  (332) 
48012

>  <i_f3d_flags>  (332) 
0

>  <s_epik_input>  (332) 
bjFvbmMoYzEyKW5jKFtjSF1bY0hdMilDKD1bQ0gyXSkvTj1jMy9bbkhdYyhbQ0gzXSlbY0hdczM=

>  <s_epik_cmdline>  (332) 
J2VwaWtfcHl0aG9uJywgJy1waHQnLCAnMi4wJywgJy1waCcsICc3LjAnLCAnLXRuJywgJzgnLCAnLW1hJywgJzIwMCcsICctaW1hZScsICc8aW5maWxlLm1hZT4nLCAnLW9tYWUnLCAnPG91dGZpbGUubWFlPic=

>  <r_lp_tautomer_probability>  (332) 
1

>  <r_epik_Ionization_Penalty>  (332) 
0.00018083

>  <r_epik_Ionization_Penalty_Charging>  (332) 
0

>  <r_epik_Ionization_Penalty_Neutral>  (332) 
0.00018083

>  <r_epik_State_Penalty>  (332) 
-0

>  <r_epik_Charging_Adjusted_Penalty>  (332) 
0

>  <i_epik_Tot_Q>  (332) 
-1

>  <i_epik_Tot_abs_Q>  (332) 
1

>  <s_epik_Chemistry_Notes>  (332) 
This compound has an imine and may undergo hydrolysis.

>  <s_lp_Force_Field>  (332) 
OPLS3e

>  <r_lp_Energy>  (332) 
33.7784

>  <b_lp_Chiralities_Consistent>  (332) 
1

>  <s_lp_Variant>  (332) 
73:0-1

>  <s_i_glide_gridfile>  (332) 
pfpi4k_grid

>  <i_i_glide_lignum>  (332) 
6

>  <i_i_glide_rotatable_bonds>  (332) 
3

>  <r_i_docking_score>  (332) 
-3.3838

>  <r_i_glide_ligand_efficiency>  (332) 
-0.187989

>  <r_i_glide_ligand_efficiency_sa>  (332) 
-0.492671

>  <r_i_glide_ligand_efficiency_ln>  (332) 
-0.86979

>  <r_i_glide_gscore>  (332) 
-3.3838

>  <r_i_glide_lipo>  (332) 
-0.910137

>  <r_i_glide_hbond>  (332) 
-0.0928193

>  <r_i_glide_metal>  (332) 
-0

>  <r_i_glide_rewards>  (332) 
-1.64809

>  <r_i_glide_evdw>  (332) 
-24.5239

>  <r_i_glide_ecoul>  (332) 
-1.49284

>  <r_i_glide_erotb>  (332) 
0.79428

>  <r_i_glide_esite>  (332) 
-0.0769162

>  <r_i_glide_emodel>  (332) 
-33.1865

>  <r_i_glide_energy>  (332) 
-26.0168

>  <r_i_glide_einternal>  (332) 
1.99427

>  <r_i_glide_intrahb_reward>  (332) 
-0

>  <i_i_glide_confnum>  (332) 
3

>  <i_i_glide_posenum>  (332) 
16

>  <r_i_glide_eff_state_penalty>  (332) 
0

>  <ligand_id>  (332) 
73

>  <original_smiles>  (332) 
C=C(N=c1[nH]c(C)cs1)c1ccc2nonc2n1

>  <smiles>  (332) 
[H]C([H])=C([N-]c1nc(C([H])([H])[H])c([H])s1)c1nc2nonc2c([H])c1[H]

$$$$
73:0:2
     RDKit          3D

 26 28  0  0  1  0  0  0  0  0999 V2000
    2.9311   -4.8562    2.3479 C   0  0  0  0  0  0  0  0  0  0  0  0
    2.4512   -5.0504    1.0687 C   0  0  0  0  0  0  0  0  0  0  0  0
    1.3924   -5.8642    0.7794 N   0  0  0  0  0  0  0  0  0  0  0  0
    0.9970   -6.8389    1.5896 C   0  0  0  0  0  0  0  0  0  0  0  0
   -0.2095   -6.8022    2.1809 N   0  0  0  0  0  0  0  0  0  0  0  0
   -0.4805   -7.9436    2.9395 C   0  0  0  0  0  0  0  0  0  0  0  0
   -1.7585   -8.0773    3.7029 C   0  0  0  0  0  0  0  0  0  0  0  0
    0.5406   -8.8622    2.8935 C   0  0  0  0  0  0  0  0  0  0  0  0
    1.8699   -8.3307    1.9057 S   0  0  0  0  0  0  0  0  0  0  0  0
    3.1129   -4.3497   -0.0508 C   0  0  0  0  0  0  0  0  0  0  0  0
    4.5281   -4.2498   -0.1290 C   0  0  0  0  0  0  0  0  0  0  0  0
    5.0869   -3.5980   -1.2485 C   0  0  0  0  0  0  0  0  0  0  0  0
    4.2083   -3.0794   -2.2081 C   0  0  0  0  0  0  0  0  0  0  0  0
    4.5825   -2.4645   -3.3253 N   0  0  0  0  0  0  0  0  0  0  0  0
    3.3294   -2.1856   -3.9066 O   0  0  0  0  0  0  0  0  0  0  0  0
    2.2467   -2.6578   -3.1265 N   0  0  0  0  0  0  0  0  0  0  0  0
    2.8367   -3.1977   -2.0609 C   0  0  0  0  0  0  0  0  0  0  0  0
    2.2942   -3.8086   -0.9919 N   0  0  0  0  0  0  0  0  0  0  0  0
    2.4575   -5.3261    3.2016 H   0  0  0  0  0  0  0  0  0  0  0  0
    3.7869   -4.2173    2.5344 H   0  0  0  0  0  0  0  0  0  0  0  0
   -1.7987   -9.0221    4.2452 H   0  0  0  0  0  0  0  0  0  0  0  0
   -2.6175   -8.0518    3.0399 H   0  0  0  0  0  0  0  0  0  0  0  0
   -1.8714   -7.2798    4.4344 H   0  0  0  0  0  0  0  0  0  0  0  0
    0.5969   -9.8214    3.3821 H   0  0  0  0  0  0  0  0  0  0  0  0
    5.1639   -4.6771    0.6371 H   0  0  0  0  0  0  0  0  0  0  0  0
    6.1561   -3.5021   -1.3860 H   0  0  0  0  0  0  0  0  0  0  0  0
  1  2  2  0
  1 19  1  0
  1 20  1  0
  2  3  1  0
  2 10  1  0
  3  4  1  0
  4  9  1  0
  4  5  2  0
  5  6  1  0
  6  7  1  0
  6  8  2  0
  7 21  1  0
  7 22  1  0
  7 23  1  0
  8  9  1  0
  8 24  1  0
 10 18  2  0
 10 11  1  0
 11 12  2  0
 11 25  1  0
 12 13  1  0
 12 26  1  0
 13 17  1  0
 13 14  2  0
 14 15  1  0
 15 16  1  0
 16 17  2  0
 17 18  1  0
M  CHG  1   3  -1
M  END
>  <i_m_ct_stereo_status>  (333) 
1

>  <s_m_source_file>  (333) 
/var/tmp/pbs.5102264.sched01/tmplas2qej_/115vanlg5zy.sdf

>  <i_m_source_file_index>  (333) 
6

>  <i_lp_mmshare_version>  (333) 
48012

>  <i_f3d_flags>  (333) 
0

>  <s_epik_input>  (333) 
bjFvbmMoYzEyKW5jKFtjSF1bY0hdMilDKD1bQ0gyXSkvTj1jMy9bbkhdYyhbQ0gzXSlbY0hdczM=

>  <s_epik_cmdline>  (333) 
J2VwaWtfcHl0aG9uJywgJy1waHQnLCAnMi4wJywgJy1waCcsICc3LjAnLCAnLXRuJywgJzgnLCAnLW1hJywgJzIwMCcsICctaW1hZScsICc8aW5maWxlLm1hZT4nLCAnLW9tYWUnLCAnPG91dGZpbGUubWFlPic=

>  <r_lp_tautomer_probability>  (333) 
1

>  <r_epik_Ionization_Penalty>  (333) 
0.00018083

>  <r_epik_Ionization_Penalty_Charging>  (333) 
0

>  <r_epik_Ionization_Penalty_Neutral>  (333) 
0.00018083

>  <r_epik_State_Penalty>  (333) 
-0

>  <r_epik_Charging_Adjusted_Penalty>  (333) 
0

>  <i_epik_Tot_Q>  (333) 
-1

>  <i_epik_Tot_abs_Q>  (333) 
1

>  <s_epik_Chemistry_Notes>  (333) 
This compound has an imine and may undergo hydrolysis.

>  <s_lp_Force_Field>  (333) 
OPLS3e

>  <r_lp_Energy>  (333) 
33.7784

>  <b_lp_Chiralities_Consistent>  (333) 
1

>  <s_lp_Variant>  (333) 
73:0-1

>  <s_i_glide_gridfile>  (333) 
pfpi4k_grid

>  <i_i_glide_lignum>  (333) 
6

>  <i_i_glide_rotatable_bonds>  (333) 
3

>  <r_i_docking_score>  (333) 
-3.34854

>  <r_i_glide_ligand_efficiency>  (333) 
-0.18603

>  <r_i_glide_ligand_efficiency_sa>  (333) 
-0.487536

>  <r_i_glide_ligand_efficiency_ln>  (333) 
-0.860724

>  <r_i_glide_gscore>  (333) 
-3.34854

>  <r_i_glide_lipo>  (333) 
-0.0503866

>  <r_i_glide_hbond>  (333) 
-0.347184

>  <r_i_glide_metal>  (333) 
-0

>  <r_i_glide_rewards>  (333) 
-1.68476

>  <r_i_glide_evdw>  (333) 
-26.6425

>  <r_i_glide_ecoul>  (333) 
-4.85572

>  <r_i_glide_erotb>  (333) 
0.79428

>  <r_i_glide_esite>  (333) 
0

>  <r_i_glide_emodel>  (333) 
-39.4056

>  <r_i_glide_energy>  (333) 
-31.4983

>  <r_i_glide_einternal>  (333) 
1.67364

>  <r_i_glide_intrahb_reward>  (333) 
-0

>  <i_i_glide_confnum>  (333) 
3

>  <i_i_glide_posenum>  (333) 
27

>  <r_i_glide_eff_state_penalty>  (333) 
0

>  <ligand_id>  (333) 
73

>  <original_smiles>  (333) 
C=C(N=c1[nH]c(C)cs1)c1ccc2nonc2n1

>  <smiles>  (333) 
[H]C([H])=C([N-]c1nc(C([H])([H])[H])c([H])s1)c1nc2nonc2c([H])c1[H]

$$$$
74:0:0
     RDKit          3D

 33 36  0  0  1  0  0  0  0  0999 V2000
    3.7403   -0.3888   -4.7271 C   0  0  0  0  0  0  0  0  0  0  0  0
    3.3183   -0.9814   -3.3813 C   0  0  0  0  0  0  0  0  0  0  0  0
    4.4163   -0.7929   -2.3265 C   0  0  0  0  0  0  0  0  0  0  0  0
    4.0267   -1.4183   -0.9792 C   0  0  0  0  0  0  0  0  0  0  0  0
    3.6934   -2.8237   -1.1861 N   0  0  0  0  0  0  0  0  0  0  0  0
    4.3334   -3.8507   -0.4512 C   0  0  0  0  0  0  0  0  0  0  0  0
    3.5314   -4.8026    0.0785 N   0  0  0  0  0  0  0  0  0  0  0  0
    4.1285   -5.7707    0.7569 N   0  0  0  0  0  0  0  0  0  0  0  0
    3.6327   -6.8537    1.3899 N   0  0  0  0  0  0  0  0  0  0  0  0
    4.6770   -7.4409    1.8929 N   0  0  0  0  0  0  0  0  0  0  0  0
    5.8975   -6.7876    1.6271 N   0  0  0  0  0  0  0  0  0  0  0  0
    5.4387   -5.8034    0.9452 C   0  0  0  0  0  0  0  0  0  0  0  0
    6.4015   -4.8400    0.4537 C   0  0  0  0  0  0  0  0  0  0  0  0
    7.8302   -4.7213    0.5415 C   0  0  0  0  0  0  0  0  0  0  0  0
    8.2498   -3.5994   -0.1562 C   0  0  0  0  0  0  0  0  0  0  0  0
    6.9409   -2.7332   -0.9572 S   0  0  0  0  0  0  0  0  0  0  0  0
    5.7614   -3.8629   -0.2818 C   0  0  0  0  0  0  0  0  0  0  0  0
    2.6187   -3.0943   -2.1389 C   0  0  0  0  0  0  0  0  0  0  0  0
    2.9607   -2.4789   -3.5039 C   0  0  0  0  0  0  0  0  0  0  0  0
    4.6117   -0.9184   -5.1090 H   0  0  0  0  0  0  0  0  0  0  0  0
    3.9871    0.6703   -4.6459 H   0  0  0  0  0  0  0  0  0  0  0  0
    2.9556   -0.4929   -5.4740 H   0  0  0  0  0  0  0  0  0  0  0  0
    2.4435   -0.4331   -3.0312 H   0  0  0  0  0  0  0  0  0  0  0  0
    5.3392   -1.2273   -2.7030 H   0  0  0  0  0  0  0  0  0  0  0  0
    4.6119    0.2635   -2.2055 H   0  0  0  0  0  0  0  0  0  0  0  0
    4.8139   -1.2857   -0.2382 H   0  0  0  0  0  0  0  0  0  0  0  0
    3.1574   -0.9149   -0.5584 H   0  0  0  0  0  0  0  0  0  0  0  0
    8.4581   -5.4276    1.0644 H   0  0  0  0  0  0  0  0  0  0  0  0
    9.2494   -3.2084   -0.2926 H   0  0  0  0  0  0  0  0  0  0  0  0
    2.4230   -4.1580   -2.2354 H   0  0  0  0  0  0  0  0  0  0  0  0
    1.6985   -2.6641   -1.7635 H   0  0  0  0  0  0  0  0  0  0  0  0
    2.1183   -2.6022   -4.1839 H   0  0  0  0  0  0  0  0  0  0  0  0
    3.7974   -3.0193   -3.9439 H   0  0  0  0  0  0  0  0  0  0  0  0
  1  2  1  0
  1 20  1  0
  1 21  1  0
  1 22  1  0
  2 19  1  0
  2  3  1  0
  2 23  1  0
  3  4  1  0
  3 24  1  0
  3 25  1  0
  4  5  1  0
  4 26  1  0
  4 27  1  0
  5  6  1  0
  5 18  1  0
  6 17  1  0
  6  7  2  0
  7  8  1  0
  8 12  1  0
  8  9  1  0
  9 10  2  0
 10 11  1  0
 11 12  2  0
 12 13  1  0
 13 17  2  0
 13 14  1  0
 14 15  2  0
 14 28  1  0
 15 16  1  0
 15 29  1  0
 16 17  1  0
 18 19  1  0
 18 30  1  0
 18 31  1  0
 19 32  1  0
 19 33  1  0
M  END
>  <i_m_ct_stereo_status>  (334) 
1

>  <s_m_source_file>  (334) 
/var/tmp/pbs.5102264.sched01/tmplas2qej_/115vanlg5zy.sdf

>  <i_m_source_file_index>  (334) 
7

>  <i_lp_mmshare_version>  (334) 
48012

>  <i_f3d_flags>  (334) 
0

>  <s_epik_input>  (334) 
W0NIM11bQ0hdMVtDSDJdW0NIMl1OKFtDSDJdW0NIMl0xKWMobjIpYyhzW2NIXVtjSF0zKWMzYyhuMjQpbm5uNA==

>  <s_epik_cmdline>  (334) 
J2VwaWtfcHl0aG9uJywgJy1waHQnLCAnMi4wJywgJy1waCcsICc3LjAnLCAnLXRuJywgJzgnLCAnLW1hJywgJzIwMCcsICctaW1hZScsICc8aW5maWxlLm1hZT4nLCAnLW9tYWUnLCAnPG91dGZpbGUubWFlPic=

>  <r_lp_tautomer_probability>  (334) 
1

>  <r_epik_Ionization_Penalty>  (334) 
1.2709e-06

>  <r_epik_Ionization_Penalty_Charging>  (334) 
0

>  <r_epik_Ionization_Penalty_Neutral>  (334) 
1.2709e-06

>  <r_epik_State_Penalty>  (334) 
-0

>  <r_epik_Charging_Adjusted_Penalty>  (334) 
0

>  <i_epik_Tot_Q>  (334) 
0

>  <i_epik_Tot_abs_Q>  (334) 
0

>  <s_lp_Force_Field>  (334) 
OPLS3e

>  <r_lp_Energy>  (334) 
30.035

>  <b_lp_Chiralities_Consistent>  (334) 
1

>  <s_lp_Variant>  (334) 
74:0-1

>  <s_i_glide_gridfile>  (334) 
pfpi4k_grid

>  <i_i_glide_lignum>  (334) 
7

>  <i_i_glide_rotatable_bonds>  (334) 
1

>  <r_i_docking_score>  (334) 
-4.38105

>  <r_i_glide_ligand_efficiency>  (334) 
-0.230581

>  <r_i_glide_ligand_efficiency_sa>  (334) 
-0.615284

>  <r_i_glide_ligand_efficiency_ln>  (334) 
-1.11069

>  <r_i_glide_gscore>  (334) 
-4.38105

>  <r_i_glide_lipo>  (334) 
-1.16292

>  <r_i_glide_hbond>  (334) 
0

>  <r_i_glide_metal>  (334) 
-0

>  <r_i_glide_rewards>  (334) 
-1.75721

>  <r_i_glide_evdw>  (334) 
-29.9365

>  <r_i_glide_ecoul>  (334) 
-1.22662

>  <r_i_glide_erotb>  (334) 
0.238559

>  <r_i_glide_esite>  (334) 
-0.0186602

>  <r_i_glide_emodel>  (334) 
-38.7907

>  <r_i_glide_energy>  (334) 
-31.1631

>  <r_i_glide_einternal>  (334) 
0.70764

>  <r_i_glide_intrahb_reward>  (334) 
-0

>  <i_i_glide_confnum>  (334) 
2

>  <i_i_glide_posenum>  (334) 
8

>  <r_i_glide_eff_state_penalty>  (334) 
0

>  <ligand_id>  (334) 
74

>  <original_smiles>  (334) 
CC1CCN(c2nn3nnnc3c3ccsc23)CC1

>  <smiles>  (334) 
[H]c1sc2c(N3C([H])([H])C([H])([H])C([H])(C([H])([H])[H])C([H])([H])C3([H])[H])nn3nnnc3c2c1[H]

$$$$
74:0:1
     RDKit          3D

 33 36  0  0  1  0  0  0  0  0999 V2000
    3.2058   -1.2318   -3.5652 C   0  0  0  0  0  0  0  0  0  0  0  0
    3.0475   -2.7601   -3.4760 C   0  0  0  0  0  0  0  0  0  0  0  0
    2.4390   -3.1923   -2.1284 C   0  0  0  0  0  0  0  0  0  0  0  0
    3.4072   -2.9720   -0.9606 C   0  0  0  0  0  0  0  0  0  0  0  0
    4.7070   -3.5735   -1.2471 N   0  0  0  0  0  0  0  0  0  0  0  0
    5.2844   -4.4844   -0.3357 C   0  0  0  0  0  0  0  0  0  0  0  0
    4.4981   -5.4954    0.0852 N   0  0  0  0  0  0  0  0  0  0  0  0
    5.0295   -6.3590    0.9361 N   0  0  0  0  0  0  0  0  0  0  0  0
    4.5333   -7.4583    1.5288 N   0  0  0  0  0  0  0  0  0  0  0  0
    5.5043   -7.8897    2.2735 N   0  0  0  0  0  0  0  0  0  0  0  0
    6.6779   -7.1104    2.2110 N   0  0  0  0  0  0  0  0  0  0  0  0
    6.2710   -6.2314    1.3765 C   0  0  0  0  0  0  0  0  0  0  0  0
    7.2108   -5.1972    1.0085 C   0  0  0  0  0  0  0  0  0  0  0  0
    8.5679   -4.8999    1.3712 C   0  0  0  0  0  0  0  0  0  0  0  0
    8.9773   -3.7492    0.7204 C   0  0  0  0  0  0  0  0  0  0  0  0
    7.7470   -3.0280   -0.3307 S   0  0  0  0  0  0  0  0  0  0  0  0
    6.6380   -4.3170    0.1175 C   0  0  0  0  0  0  0  0  0  0  0  0
    5.3626   -3.2608   -2.5163 C   0  0  0  0  0  0  0  0  0  0  0  0
    4.3914   -3.4827   -3.6862 C   0  0  0  0  0  0  0  0  0  0  0  0
    3.8702   -0.8472   -2.7961 H   0  0  0  0  0  0  0  0  0  0  0  0
    2.2500   -0.7442   -3.4108 H   0  0  0  0  0  0  0  0  0  0  0  0
    3.5965   -0.9233   -4.5315 H   0  0  0  0  0  0  0  0  0  0  0  0
    2.3642   -3.0709   -4.2714 H   0  0  0  0  0  0  0  0  0  0  0  0
    1.5099   -2.6578   -1.9577 H   0  0  0  0  0  0  0  0  0  0  0  0
    2.1488   -4.2482   -2.1652 H   0  0  0  0  0  0  0  0  0  0  0  0
    3.5716   -1.9070   -0.8169 H   0  0  0  0  0  0  0  0  0  0  0  0
    2.9913   -3.3439   -0.0270 H   0  0  0  0  0  0  0  0  0  0  0  0
    9.1349   -5.4832    2.0807 H   0  0  0  0  0  0  0  0  0  0  0  0
    9.9172   -3.2267    0.8158 H   0  0  0  0  0  0  0  0  0  0  0  0
    5.6705   -2.2172   -2.4767 H   0  0  0  0  0  0  0  0  0  0  0  0
    6.2669   -3.8519   -2.6710 H   0  0  0  0  0  0  0  0  0  0  0  0
    4.2248   -4.5507   -3.8260 H   0  0  0  0  0  0  0  0  0  0  0  0
    4.8271   -3.1471   -4.6134 H   0  0  0  0  0  0  0  0  0  0  0  0
  1  2  1  0
  1 20  1  0
  1 21  1  0
  1 22  1  0
  2 19  1  0
  2  3  1  0
  2 23  1  0
  3  4  1  0
  3 24  1  0
  3 25  1  0
  4  5  1  0
  4 26  1  0
  4 27  1  0
  5  6  1  0
  5 18  1  0
  6 17  1  0
  6  7  2  0
  7  8  1  0
  8 12  1  0
  8  9  1  0
  9 10  2  0
 10 11  1  0
 11 12  2  0
 12 13  1  0
 13 17  2  0
 13 14  1  0
 14 15  2  0
 14 28  1  0
 15 16  1  0
 15 29  1  0
 16 17  1  0
 18 19  1  0
 18 30  1  0
 18 31  1  0
 19 32  1  0
 19 33  1  0
M  END
>  <i_m_ct_stereo_status>  (335) 
1

>  <s_m_source_file>  (335) 
/var/tmp/pbs.5102264.sched01/tmplas2qej_/115vanlg5zy.sdf

>  <i_m_source_file_index>  (335) 
7

>  <i_lp_mmshare_version>  (335) 
48012

>  <i_f3d_flags>  (335) 
0

>  <s_epik_input>  (335) 
W0NIM11bQ0hdMVtDSDJdW0NIMl1OKFtDSDJdW0NIMl0xKWMobjIpYyhzW2NIXVtjSF0zKWMzYyhuMjQpbm5uNA==

>  <s_epik_cmdline>  (335) 
J2VwaWtfcHl0aG9uJywgJy1waHQnLCAnMi4wJywgJy1waCcsICc3LjAnLCAnLXRuJywgJzgnLCAnLW1hJywgJzIwMCcsICctaW1hZScsICc8aW5maWxlLm1hZT4nLCAnLW9tYWUnLCAnPG91dGZpbGUubWFlPic=

>  <r_lp_tautomer_probability>  (335) 
1

>  <r_epik_Ionization_Penalty>  (335) 
1.2709e-06

>  <r_epik_Ionization_Penalty_Charging>  (335) 
0

>  <r_epik_Ionization_Penalty_Neutral>  (335) 
1.2709e-06

>  <r_epik_State_Penalty>  (335) 
-0

>  <r_epik_Charging_Adjusted_Penalty>  (335) 
0

>  <i_epik_Tot_Q>  (335) 
0

>  <i_epik_Tot_abs_Q>  (335) 
0

>  <s_lp_Force_Field>  (335) 
OPLS3e

>  <r_lp_Energy>  (335) 
30.035

>  <b_lp_Chiralities_Consistent>  (335) 
1

>  <s_lp_Variant>  (335) 
74:0-1

>  <s_i_glide_gridfile>  (335) 
pfpi4k_grid

>  <i_i_glide_lignum>  (335) 
7

>  <i_i_glide_rotatable_bonds>  (335) 
1

>  <r_i_docking_score>  (335) 
-4.15813

>  <r_i_glide_ligand_efficiency>  (335) 
-0.218849

>  <r_i_glide_ligand_efficiency_sa>  (335) 
-0.583977

>  <r_i_glide_ligand_efficiency_ln>  (335) 
-1.05418

>  <r_i_glide_gscore>  (335) 
-4.15813

>  <r_i_glide_lipo>  (335) 
-1.27096

>  <r_i_glide_hbond>  (335) 
0

>  <r_i_glide_metal>  (335) 
-0

>  <r_i_glide_rewards>  (335) 
-1.83945

>  <r_i_glide_evdw>  (335) 
-27.582

>  <r_i_glide_ecoul>  (335) 
0.618823

>  <r_i_glide_erotb>  (335) 
0.238559

>  <r_i_glide_esite>  (335) 
0

>  <r_i_glide_emodel>  (335) 
-34.4869

>  <r_i_glide_energy>  (335) 
-26.9632

>  <r_i_glide_einternal>  (335) 
0.324832

>  <r_i_glide_intrahb_reward>  (335) 
-0

>  <i_i_glide_confnum>  (335) 
5

>  <i_i_glide_posenum>  (335) 
24

>  <r_i_glide_eff_state_penalty>  (335) 
0

>  <ligand_id>  (335) 
74

>  <original_smiles>  (335) 
CC1CCN(c2nn3nnnc3c3ccsc23)CC1

>  <smiles>  (335) 
[H]c1sc2c(N3C([H])([H])C([H])([H])C([H])(C([H])([H])[H])C([H])([H])C3([H])[H])nn3nnnc3c2c1[H]

$$$$
74:0:2
     RDKit          3D

 33 36  0  0  1  0  0  0  0  0999 V2000
    4.2006   -1.0819   -3.4226 C   0  0  0  0  0  0  0  0  0  0  0  0
    3.7503   -2.5470   -3.5236 C   0  0  0  0  0  0  0  0  0  0  0  0
    2.6081   -2.8575   -2.5437 C   0  0  0  0  0  0  0  0  0  0  0  0
    3.0703   -2.8224   -1.0813 C   0  0  0  0  0  0  0  0  0  0  0  0
    4.2358   -3.6888   -0.8918 N   0  0  0  0  0  0  0  0  0  0  0  0
    4.2480   -4.6955    0.1020 C   0  0  0  0  0  0  0  0  0  0  0  0
    3.0424   -5.2973    0.3370 N   0  0  0  0  0  0  0  0  0  0  0  0
    3.0356   -6.2435    1.2575 N   0  0  0  0  0  0  0  0  0  0  0  0
    2.0069   -7.0081    1.6974 N   0  0  0  0  0  0  0  0  0  0  0  0
    2.5848   -7.7615    2.6385 N   0  0  0  0  0  0  0  0  0  0  0  0
    3.9382   -7.5105    2.8213 N   0  0  0  0  0  0  0  0  0  0  0  0
    4.1130   -6.5880    1.9380 C   0  0  0  0  0  0  0  0  0  0  0  0
    5.4304   -6.0257    1.8022 C   0  0  0  0  0  0  0  0  0  0  0  0
    6.6763   -6.2612    2.4484 C   0  0  0  0  0  0  0  0  0  0  0  0
    7.6500   -5.4143    1.9288 C   0  0  0  0  0  0  0  0  0  0  0  0
    7.0261   -4.2810    0.7345 S   0  0  0  0  0  0  0  0  0  0  0  0
    5.4275   -5.0283    0.8306 C   0  0  0  0  0  0  0  0  0  0  0  0
    5.3579   -3.4901   -1.8150 C   0  0  0  0  0  0  0  0  0  0  0  0
    4.9064   -3.5238   -3.2731 C   0  0  0  0  0  0  0  0  0  0  0  0
    4.5946   -0.8433   -2.4348 H   0  0  0  0  0  0  0  0  0  0  0  0
    3.3802   -0.3937   -3.6175 H   0  0  0  0  0  0  0  0  0  0  0  0
    4.9966   -0.8847   -4.1396 H   0  0  0  0  0  0  0  0  0  0  0  0
    3.3822   -2.7147   -4.5384 H   0  0  0  0  0  0  0  0  0  0  0  0
    1.8159   -2.1341   -2.6936 H   0  0  0  0  0  0  0  0  0  0  0  0
    2.1756   -3.8332   -2.7697 H   0  0  0  0  0  0  0  0  0  0  0  0
    3.3686   -1.8163   -0.8053 H   0  0  0  0  0  0  0  0  0  0  0  0
    2.2492   -3.0703   -0.4108 H   0  0  0  0  0  0  0  0  0  0  0  0
    6.8290   -6.9877    3.2369 H   0  0  0  0  0  0  0  0  0  0  0  0
    8.6923   -5.3449    2.2029 H   0  0  0  0  0  0  0  0  0  0  0  0
    5.8394   -2.5491   -1.5652 H   0  0  0  0  0  0  0  0  0  0  0  0
    6.1085   -4.2638   -1.7323 H   0  0  0  0  0  0  0  0  0  0  0  0
    4.6025   -4.5412   -3.5268 H   0  0  0  0  0  0  0  0  0  0  0  0
    5.7576   -3.3110   -3.9130 H   0  0  0  0  0  0  0  0  0  0  0  0
  1  2  1  0
  1 20  1  0
  1 21  1  0
  1 22  1  0
  2 19  1  0
  2  3  1  0
  2 23  1  0
  3  4  1  0
  3 24  1  0
  3 25  1  0
  4  5  1  0
  4 26  1  0
  4 27  1  0
  5  6  1  0
  5 18  1  0
  6 17  1  0
  6  7  2  0
  7  8  1  0
  8 12  1  0
  8  9  1  0
  9 10  2  0
 10 11  1  0
 11 12  2  0
 12 13  1  0
 13 17  2  0
 13 14  1  0
 14 15  2  0
 14 28  1  0
 15 16  1  0
 15 29  1  0
 16 17  1  0
 18 19  1  0
 18 30  1  0
 18 31  1  0
 19 32  1  0
 19 33  1  0
M  END
>  <i_m_ct_stereo_status>  (336) 
1

>  <s_m_source_file>  (336) 
/var/tmp/pbs.5102264.sched01/tmplas2qej_/115vanlg5zy.sdf

>  <i_m_source_file_index>  (336) 
7

>  <i_lp_mmshare_version>  (336) 
48012

>  <i_f3d_flags>  (336) 
0

>  <s_epik_input>  (336) 
W0NIM11bQ0hdMVtDSDJdW0NIMl1OKFtDSDJdW0NIMl0xKWMobjIpYyhzW2NIXVtjSF0zKWMzYyhuMjQpbm5uNA==

>  <s_epik_cmdline>  (336) 
J2VwaWtfcHl0aG9uJywgJy1waHQnLCAnMi4wJywgJy1waCcsICc3LjAnLCAnLXRuJywgJzgnLCAnLW1hJywgJzIwMCcsICctaW1hZScsICc8aW5maWxlLm1hZT4nLCAnLW9tYWUnLCAnPG91dGZpbGUubWFlPic=

>  <r_lp_tautomer_probability>  (336) 
1

>  <r_epik_Ionization_Penalty>  (336) 
1.2709e-06

>  <r_epik_Ionization_Penalty_Charging>  (336) 
0

>  <r_epik_Ionization_Penalty_Neutral>  (336) 
1.2709e-06

>  <r_epik_State_Penalty>  (336) 
-0

>  <r_epik_Charging_Adjusted_Penalty>  (336) 
0

>  <i_epik_Tot_Q>  (336) 
0

>  <i_epik_Tot_abs_Q>  (336) 
0

>  <s_lp_Force_Field>  (336) 
OPLS3e

>  <r_lp_Energy>  (336) 
30.035

>  <b_lp_Chiralities_Consistent>  (336) 
1

>  <s_lp_Variant>  (336) 
74:0-1

>  <s_i_glide_gridfile>  (336) 
pfpi4k_grid

>  <i_i_glide_lignum>  (336) 
7

>  <i_i_glide_rotatable_bonds>  (336) 
1

>  <r_i_docking_score>  (336) 
-3.78039

>  <r_i_glide_ligand_efficiency>  (336) 
-0.198968

>  <r_i_glide_ligand_efficiency_sa>  (336) 
-0.530927

>  <r_i_glide_ligand_efficiency_ln>  (336) 
-0.958411

>  <r_i_glide_gscore>  (336) 
-3.78039

>  <r_i_glide_lipo>  (336) 
-0.982994

>  <r_i_glide_hbond>  (336) 
0

>  <r_i_glide_metal>  (336) 
-0

>  <r_i_glide_rewards>  (336) 
-1.61494

>  <r_i_glide_evdw>  (336) 
-26.6846

>  <r_i_glide_ecoul>  (336) 
-0.338237

>  <r_i_glide_erotb>  (336) 
0.238559

>  <r_i_glide_esite>  (336) 
-0.0360538

>  <r_i_glide_emodel>  (336) 
-33.5271

>  <r_i_glide_energy>  (336) 
-27.0228

>  <r_i_glide_einternal>  (336) 
0.701519

>  <r_i_glide_intrahb_reward>  (336) 
-0

>  <i_i_glide_confnum>  (336) 
5

>  <i_i_glide_posenum>  (336) 
22

>  <r_i_glide_eff_state_penalty>  (336) 
0

>  <ligand_id>  (336) 
74

>  <original_smiles>  (336) 
CC1CCN(c2nn3nnnc3c3ccsc23)CC1

>  <smiles>  (336) 
[H]c1sc2c(N3C([H])([H])C([H])([H])C([H])(C([H])([H])[H])C([H])([H])C3([H])[H])nn3nnnc3c2c1[H]

$$$$
75:0:0
     RDKit          3D

 41 45  0  0  1  0  0  0  0  0999 V2000
   -1.6328   -6.6698    4.7107 C   0  0  0  0  0  0  0  0  0  0  0  0
   -0.5197   -7.5806    4.8305 N   0  0  0  0  0  0  0  0  0  0  0  0
    0.7031   -6.8481    5.2196 C   0  0  0  0  0  0  0  0  0  0  0  0
    2.0071   -7.6764    5.0989 C   0  0  0  0  0  0  0  0  0  0  0  0
    2.0260   -8.5893    3.8392 C   0  0  1  0  0  0  0  0  0  0  0  0
    3.3379   -9.3741    3.7044 C   0  0  0  0  0  0  0  0  0  0  0  0
    3.3987  -10.7498    4.3637 C   0  0  0  0  0  0  0  0  0  0  0  0
    2.7548  -11.8295    3.4901 C   0  0  0  0  0  0  0  0  0  0  0  0
    1.2239  -11.7483    3.3882 C   0  0  0  0  0  0  0  0  0  0  0  0
    0.7418  -10.4817    2.9511 O   0  0  0  0  0  0  0  0  0  0  0  0
    0.7542   -9.4746    3.9585 C   0  0  2  0  0  0  0  0  0  0  0  0
   -0.3235   -8.4173    3.6217 C   0  0  2  0  0  0  0  0  0  0  0  0
    0.3664   -7.6798    2.5130 C   0  0  0  0  0  0  0  0  0  0  0  0
   -0.0276   -6.9135    1.4995 N   0  0  0  0  0  0  0  0  0  0  0  0
    1.1813   -6.5167    0.9324 N   0  0  0  0  0  0  0  0  0  0  0  0
    2.1841   -7.0448    1.6681 C   0  0  0  0  0  0  0  0  0  0  0  0
    3.6021   -6.7749    1.3879 C   0  0  0  0  0  0  0  0  0  0  0  0
    4.8039   -7.2817    1.8355 C   0  0  0  0  0  0  0  0  0  0  0  0
    5.8443   -6.6075    1.2147 N   0  0  0  0  0  0  0  0  0  0  0  0
    5.2448   -5.7406    0.4095 C   0  0  0  0  0  0  0  0  0  0  0  0
    3.8833   -5.7848    0.4702 O   0  0  0  0  0  0  0  0  0  0  0  0
    1.6684   -7.8062    2.6674 N   0  0  0  0  0  0  0  0  0  0  0  0
   -1.8124   -6.1508    5.6542 H   0  0  0  0  0  0  0  0  0  0  0  0
   -2.5340   -7.2216    4.4438 H   0  0  0  0  0  0  0  0  0  0  0  0
   -1.4365   -5.9335    3.9356 H   0  0  0  0  0  0  0  0  0  0  0  0
    0.7942   -5.9530    4.5994 H   0  0  0  0  0  0  0  0  0  0  0  0
    0.5870   -6.4918    6.2463 H   0  0  0  0  0  0  0  0  0  0  0  0
    2.8446   -6.9815    5.0784 H   0  0  0  0  0  0  0  0  0  0  0  0
    2.1307   -8.2836    5.9949 H   0  0  0  0  0  0  0  0  0  0  0  0
    3.5778   -9.5070    2.6531 H   0  0  0  0  0  0  0  0  0  0  0  0
    4.1316   -8.7795    4.1497 H   0  0  0  0  0  0  0  0  0  0  0  0
    4.4566  -11.0073    4.4570 H   0  0  0  0  0  0  0  0  0  0  0  0
    2.9946  -10.7441    5.3787 H   0  0  0  0  0  0  0  0  0  0  0  0
    3.1923  -11.8056    2.4856 H   0  0  0  0  0  0  0  0  0  0  0  0
    3.0349  -12.7924    3.9094 H   0  0  0  0  0  0  0  0  0  0  0  0
    0.8875  -12.4783    2.6527 H   0  0  0  0  0  0  0  0  0  0  0  0
    0.7573  -12.0331    4.3301 H   0  0  0  0  0  0  0  0  0  0  0  0
    0.5958   -9.8995    4.9533 H   0  0  0  0  0  0  0  0  0  0  0  0
   -1.2574   -8.8843    3.2738 H   0  0  0  0  0  0  0  0  0  0  0  0
    5.0633   -8.0593    2.5433 H   0  0  0  0  0  0  0  0  0  0  0  0
    5.7789   -5.0717   -0.2472 H   0  0  0  0  0  0  0  0  0  0  0  0
  1  2  1  0
  1 23  1  0
  1 24  1  0
  1 25  1  0
  2 12  1  0
  2  3  1  0
  3  4  1  0
  3 26  1  0
  3 27  1  0
  5  4  1  1
  4 28  1  0
  4 29  1  0
  5 11  1  0
  5 22  1  0
  5  6  1  0
  6  7  1  0
  6 30  1  0
  6 31  1  0
  7  8  1  0
  7 32  1  0
  7 33  1  0
  8  9  1  0
  8 34  1  0
  8 35  1  0
  9 10  1  0
  9 36  1  0
  9 37  1  0
 10 11  1  0
 11 12  1  0
 11 38  1  1
 12 13  1  0
 12 39  1  6
 13 22  1  0
 13 14  2  0
 14 15  1  0
 15 16  2  0
 16 17  1  0
 16 22  1  0
 17 21  1  0
 17 18  2  0
 18 19  1  0
 18 40  1  0
 19 20  2  0
 20 21  1  0
 20 41  1  0
M  END
>  <i_m_ct_stereo_status>  (337) 
1

>  <s_m_source_file>  (337) 
/var/tmp/pbs.5102264.sched01/tmplas2qej_/115vanlg5zy.sdf

>  <i_m_source_file_index>  (337) 
8

>  <i_lp_mmshare_version>  (337) 
48012

>  <i_f3d_flags>  (337) 
0

>  <s_epik_input>  (337) 
W0NIMl0xW0NIMl1bQ0gyXVtDSDJdT1tDQEBIXShbQ0BdMTIzKVtDQEBIXShOKFtDSDNdKVtDSDJdW0NIMl0yKWM0bjNjKG5uNCktYzVbY0hdbltjSF1vNQ==

>  <s_epik_cmdline>  (337) 
J2VwaWtfcHl0aG9uJywgJy1waHQnLCAnMi4wJywgJy1waCcsICc3LjAnLCAnLXRuJywgJzgnLCAnLW1hJywgJzIwMCcsICctaW1hZScsICc8aW5maWxlLm1hZT4nLCAnLW9tYWUnLCAnPG91dGZpbGUubWFlPic=

>  <r_lp_tautomer_probability>  (337) 
1

>  <r_epik_Ionization_Penalty>  (337) 
0.0642992

>  <r_epik_Ionization_Penalty_Charging>  (337) 
0

>  <r_epik_Ionization_Penalty_Neutral>  (337) 
0.0642992

>  <r_epik_State_Penalty>  (337) 
0.0557243

>  <r_epik_Charging_Adjusted_Penalty>  (337) 
0.0557243

>  <i_epik_Tot_Q>  (337) 
0

>  <i_epik_Tot_abs_Q>  (337) 
0

>  <s_lp_Force_Field>  (337) 
OPLS3e

>  <r_lp_Energy>  (337) 
32.8414

>  <b_lp_Chiralities_Consistent>  (337) 
1

>  <s_lp_Variant>  (337) 
75:0-1

>  <s_i_glide_gridfile>  (337) 
pfpi4k_grid

>  <i_i_glide_lignum>  (337) 
8

>  <i_i_glide_rotatable_bonds>  (337) 
1

>  <r_i_docking_score>  (337) 
-3.31638

>  <r_i_glide_ligand_efficiency>  (337) 
-0.150744

>  <r_i_glide_ligand_efficiency_sa>  (337) 
-0.422392

>  <r_i_glide_ligand_efficiency_ln>  (337) 
-0.810644

>  <r_i_glide_gscore>  (337) 
-3.31638

>  <r_i_glide_lipo>  (337) 
-0.307757

>  <r_i_glide_hbond>  (337) 
0

>  <r_i_glide_metal>  (337) 
-0

>  <r_i_glide_rewards>  (337) 
-1.35448

>  <r_i_glide_evdw>  (337) 
-21.6265

>  <r_i_glide_ecoul>  (337) 
-3.46597

>  <r_i_glide_erotb>  (337) 
0.202576

>  <r_i_glide_esite>  (337) 
-0.255502

>  <r_i_glide_emodel>  (337) 
-30.1326

>  <r_i_glide_energy>  (337) 
-25.0924

>  <r_i_glide_einternal>  (337) 
0.294015

>  <r_i_glide_intrahb_reward>  (337) 
-0

>  <i_i_glide_confnum>  (337) 
2

>  <i_i_glide_posenum>  (337) 
5

>  <r_i_glide_eff_state_penalty>  (337) 
0

>  <ligand_id>  (337) 
75

>  <original_smiles>  (337) 
CN1CCC23CCCCOC2C1c1nnc(-c2cnco2)n13

>  <smiles>  (337) 
[H]c1nc([H])c(-c2nnc3n2C24C([H])([H])C([H])([H])N(C([H])([H])[H])C3([H])C2([H])OC([H])([H])C([H])([H])C([H])([H])C4([H])[H])o1

$$$$
75:0:1
     RDKit          3D

 41 45  0  0  1  0  0  0  0  0999 V2000
   -1.7857   -7.0112    4.3393 C   0  0  0  0  0  0  0  0  0  0  0  0
   -0.4445   -7.5561    4.4739 N   0  0  0  0  0  0  0  0  0  0  0  0
    0.5366   -6.5118    4.8376 C   0  0  0  0  0  0  0  0  0  0  0  0
    2.0230   -6.9623    4.7448 C   0  0  0  0  0  0  0  0  0  0  0  0
    2.2975   -7.8863    3.5201 C   0  0  1  0  0  0  0  0  0  0  0  0
    3.7698   -8.3037    3.3890 C   0  0  0  0  0  0  0  0  0  0  0  0
    4.2017   -9.5790    4.1244 C   0  0  0  0  0  0  0  0  0  0  0  0
    3.8719  -10.8264    3.2927 C   0  0  0  0  0  0  0  0  0  0  0  0
    2.3776  -11.1624    3.1984 C   0  0  0  0  0  0  0  0  0  0  0  0
    1.5795  -10.0863    2.7190 O   0  0  0  0  0  0  0  0  0  0  0  0
    1.3107   -9.0720    3.6853 C   0  0  2  0  0  0  0  0  0  0  0  0
   -0.0122   -8.3583    3.3070 C   0  0  2  0  0  0  0  0  0  0  0  0
    0.4602   -7.5076    2.1769 C   0  0  0  0  0  0  0  0  0  0  0  0
   -0.1160   -6.9159    1.1358 N   0  0  0  0  0  0  0  0  0  0  0  0
    0.9597   -6.2573    0.5348 N   0  0  0  0  0  0  0  0  0  0  0  0
    2.0615   -6.4638    1.2861 C   0  0  0  0  0  0  0  0  0  0  0  0
    3.3488   -5.8259    0.9811 C   0  0  0  0  0  0  0  0  0  0  0  0
    4.6652   -6.0997    1.2682 C   0  0  0  0  0  0  0  0  0  0  0  0
    5.4604   -5.1142    0.7035 N   0  0  0  0  0  0  0  0  0  0  0  0
    4.6084   -4.2977    0.0956 C   0  0  0  0  0  0  0  0  0  0  0  0
    3.3037   -4.6605    0.2428 O   0  0  0  0  0  0  0  0  0  0  0  0
    1.7498   -7.2789    2.3218 N   0  0  0  0  0  0  0  0  0  0  0  0
   -2.0794   -6.5097    5.2628 H   0  0  0  0  0  0  0  0  0  0  0  0
   -2.5074   -7.7955    4.1183 H   0  0  0  0  0  0  0  0  0  0  0  0
   -1.8276   -6.2865    3.5302 H   0  0  0  0  0  0  0  0  0  0  0  0
    0.3925   -5.6449    4.1853 H   0  0  0  0  0  0  0  0  0  0  0  0
    0.3282   -6.1623    5.8536 H   0  0  0  0  0  0  0  0  0  0  0  0
    2.6451   -6.0685    4.6944 H   0  0  0  0  0  0  0  0  0  0  0  0
    2.3014   -7.4790    5.6662 H   0  0  0  0  0  0  0  0  0  0  0  0
    3.9872   -8.4556    2.3394 H   0  0  0  0  0  0  0  0  0  0  0  0
    4.3896   -7.4776    3.7374 H   0  0  0  0  0  0  0  0  0  0  0  0
    5.2884   -9.5315    4.2196 H   0  0  0  0  0  0  0  0  0  0  0  0
    3.8020   -9.6308    5.1398 H   0  0  0  0  0  0  0  0  0  0  0  0
    4.2819  -10.7229    2.2875 H   0  0  0  0  0  0  0  0  0  0  0  0
    4.3855  -11.6816    3.7303 H   0  0  0  0  0  0  0  0  0  0  0  0
    2.2681  -11.9879    2.5010 H   0  0  0  0  0  0  0  0  0  0  0  0
    1.9966  -11.5235    4.1496 H   0  0  0  0  0  0  0  0  0  0  0  0
    1.2624   -9.4866    4.6936 H   0  0  0  0  0  0  0  0  0  0  0  0
   -0.7815   -9.0671    2.9776 H   0  0  0  0  0  0  0  0  0  0  0  0
    5.1421   -6.8953    1.8125 H   0  0  0  0  0  0  0  0  0  0  0  0
    4.9185   -3.4243   -0.4510 H   0  0  0  0  0  0  0  0  0  0  0  0
  1  2  1  0
  1 23  1  0
  1 24  1  0
  1 25  1  0
  2 12  1  0
  2  3  1  0
  3  4  1  0
  3 26  1  0
  3 27  1  0
  5  4  1  1
  4 28  1  0
  4 29  1  0
  5 11  1  0
  5 22  1  0
  5  6  1  0
  6  7  1  0
  6 30  1  0
  6 31  1  0
  7  8  1  0
  7 32  1  0
  7 33  1  0
  8  9  1  0
  8 34  1  0
  8 35  1  0
  9 10  1  0
  9 36  1  0
  9 37  1  0
 10 11  1  0
 11 12  1  0
 11 38  1  1
 12 13  1  0
 12 39  1  6
 13 22  1  0
 13 14  2  0
 14 15  1  0
 15 16  2  0
 16 17  1  0
 16 22  1  0
 17 21  1  0
 17 18  2  0
 18 19  1  0
 18 40  1  0
 19 20  2  0
 20 21  1  0
 20 41  1  0
M  END
>  <i_m_ct_stereo_status>  (338) 
1

>  <s_m_source_file>  (338) 
/var/tmp/pbs.5102264.sched01/tmplas2qej_/115vanlg5zy.sdf

>  <i_m_source_file_index>  (338) 
8

>  <i_lp_mmshare_version>  (338) 
48012

>  <i_f3d_flags>  (338) 
0

>  <s_epik_input>  (338) 
W0NIMl0xW0NIMl1bQ0gyXVtDSDJdT1tDQEBIXShbQ0BdMTIzKVtDQEBIXShOKFtDSDNdKVtDSDJdW0NIMl0yKWM0bjNjKG5uNCktYzVbY0hdbltjSF1vNQ==

>  <s_epik_cmdline>  (338) 
J2VwaWtfcHl0aG9uJywgJy1waHQnLCAnMi4wJywgJy1waCcsICc3LjAnLCAnLXRuJywgJzgnLCAnLW1hJywgJzIwMCcsICctaW1hZScsICc8aW5maWxlLm1hZT4nLCAnLW9tYWUnLCAnPG91dGZpbGUubWFlPic=

>  <r_lp_tautomer_probability>  (338) 
1

>  <r_epik_Ionization_Penalty>  (338) 
0.0642992

>  <r_epik_Ionization_Penalty_Charging>  (338) 
0

>  <r_epik_Ionization_Penalty_Neutral>  (338) 
0.0642992

>  <r_epik_State_Penalty>  (338) 
0.0557243

>  <r_epik_Charging_Adjusted_Penalty>  (338) 
0.0557243

>  <i_epik_Tot_Q>  (338) 
0

>  <i_epik_Tot_abs_Q>  (338) 
0

>  <s_lp_Force_Field>  (338) 
OPLS3e

>  <r_lp_Energy>  (338) 
32.8414

>  <b_lp_Chiralities_Consistent>  (338) 
1

>  <s_lp_Variant>  (338) 
75:0-1

>  <s_i_glide_gridfile>  (338) 
pfpi4k_grid

>  <i_i_glide_lignum>  (338) 
8

>  <i_i_glide_rotatable_bonds>  (338) 
1

>  <r_i_docking_score>  (338) 
-3.25505

>  <r_i_glide_ligand_efficiency>  (338) 
-0.147957

>  <r_i_glide_ligand_efficiency_sa>  (338) 
-0.414581

>  <r_i_glide_ligand_efficiency_ln>  (338) 
-0.795654

>  <r_i_glide_gscore>  (338) 
-3.25505

>  <r_i_glide_lipo>  (338) 
-0.134719

>  <r_i_glide_hbond>  (338) 
0

>  <r_i_glide_metal>  (338) 
-0

>  <r_i_glide_rewards>  (338) 
-1.35448

>  <r_i_glide_evdw>  (338) 
-21.285

>  <r_i_glide_ecoul>  (338) 
-4.01698

>  <r_i_glide_erotb>  (338) 
0.202576

>  <r_i_glide_esite>  (338) 
-0.301636

>  <r_i_glide_emodel>  (338) 
-30.1731

>  <r_i_glide_energy>  (338) 
-25.302

>  <r_i_glide_einternal>  (338) 
0.496848

>  <r_i_glide_intrahb_reward>  (338) 
-0

>  <i_i_glide_confnum>  (338) 
3

>  <i_i_glide_posenum>  (338) 
33

>  <r_i_glide_eff_state_penalty>  (338) 
0

>  <ligand_id>  (338) 
75

>  <original_smiles>  (338) 
CN1CCC23CCCCOC2C1c1nnc(-c2cnco2)n13

>  <smiles>  (338) 
[H]c1nc([H])c(-c2nnc3n2C24C([H])([H])C([H])([H])N(C([H])([H])[H])C3([H])C2([H])OC([H])([H])C([H])([H])C([H])([H])C4([H])[H])o1

$$$$
75:0:2
     RDKit          3D

 41 45  0  0  1  0  0  0  0  0999 V2000
   -1.9494   -7.4813    3.6493 C   0  0  0  0  0  0  0  0  0  0  0  0
   -0.6075   -7.9007    4.0190 N   0  0  0  0  0  0  0  0  0  0  0  0
    0.1402   -6.8265    4.7069 C   0  0  0  0  0  0  0  0  0  0  0  0
    1.6624   -7.1076    4.8918 C   0  0  0  0  0  0  0  0  0  0  0  0
    2.3048   -7.8114    3.6624 C   0  0  1  0  0  0  0  0  0  0  0  0
    3.8205   -8.0366    3.8313 C   0  0  0  0  0  0  0  0  0  0  0  0
    4.2462   -9.3721    4.4441 C   0  0  0  0  0  0  0  0  0  0  0  0
    4.2553  -10.5236    3.4321 C   0  0  0  0  0  0  0  0  0  0  0  0
    2.8611  -10.9854    2.9948 C   0  0  0  0  0  0  0  0  0  0  0  0
    2.0473   -9.9389    2.4754 O   0  0  0  0  0  0  0  0  0  0  0  0
    1.4588   -9.1013    3.4681 C   0  0  2  0  0  0  0  0  0  0  0  0
    0.1557   -8.4830    2.8898 C   0  0  2  0  0  0  0  0  0  0  0  0
    0.7377   -7.4306    1.9984 C   0  0  0  0  0  0  0  0  0  0  0  0
    0.3236   -6.7601    0.9247 N   0  0  0  0  0  0  0  0  0  0  0  0
    1.3925   -5.9152    0.6555 N   0  0  0  0  0  0  0  0  0  0  0  0
    2.3214   -6.1043    1.6151 C   0  0  0  0  0  0  0  0  0  0  0  0
    3.5470   -5.3096    1.6808 C   0  0  0  0  0  0  0  0  0  0  0  0
    4.4929   -5.0981    2.6599 C   0  0  0  0  0  0  0  0  0  0  0  0
    5.4661   -4.2542    2.1549 N   0  0  0  0  0  0  0  0  0  0  0  0
    5.0556   -3.9657    0.9249 C   0  0  0  0  0  0  0  0  0  0  0  0
    3.8954   -4.5812    0.5675 O   0  0  0  0  0  0  0  0  0  0  0  0
    1.9287   -7.0972    2.4503 N   0  0  0  0  0  0  0  0  0  0  0  0
   -2.4780   -7.1114    4.5239 H   0  0  0  0  0  0  0  0  0  0  0  0
   -2.5217   -8.3198    3.2480 H   0  0  0  0  0  0  0  0  0  0  0  0
   -1.9329   -6.6766    2.9149 H   0  0  0  0  0  0  0  0  0  0  0  0
    0.0235   -5.8982    4.1419 H   0  0  0  0  0  0  0  0  0  0  0  0
   -0.3088   -6.6463    5.6880 H   0  0  0  0  0  0  0  0  0  0  0  0
    2.1618   -6.1571    5.0872 H   0  0  0  0  0  0  0  0  0  0  0  0
    1.8114   -7.7222    5.7812 H   0  0  0  0  0  0  0  0  0  0  0  0
    4.3329   -7.9181    2.8784 H   0  0  0  0  0  0  0  0  0  0  0  0
    4.2102   -7.2731    4.4985 H   0  0  0  0  0  0  0  0  0  0  0  0
    5.2716   -9.2435    4.7939 H   0  0  0  0  0  0  0  0  0  0  0  0
    3.6497   -9.6087    5.3261 H   0  0  0  0  0  0  0  0  0  0  0  0
    4.8406  -10.2356    2.5569 H   0  0  0  0  0  0  0  0  0  0  0  0
    4.7757  -11.3734    3.8812 H   0  0  0  0  0  0  0  0  0  0  0  0
    3.0084  -11.7105    2.1995 H   0  0  0  0  0  0  0  0  0  0  0  0
    2.3463  -11.5098    3.7979 H   0  0  0  0  0  0  0  0  0  0  0  0
    1.2602   -9.6523    4.3925 H   0  0  0  0  0  0  0  0  0  0  0  0
   -0.4272   -9.2103    2.3116 H   0  0  0  0  0  0  0  0  0  0  0  0
    4.5674   -5.4641    3.6798 H   0  0  0  0  0  0  0  0  0  0  0  0
    5.5777   -3.3009    0.2551 H   0  0  0  0  0  0  0  0  0  0  0  0
  1  2  1  0
  1 23  1  0
  1 24  1  0
  1 25  1  0
  2 12  1  0
  2  3  1  0
  3  4  1  0
  3 26  1  0
  3 27  1  0
  5  4  1  1
  4 28  1  0
  4 29  1  0
  5 11  1  0
  5 22  1  0
  5  6  1  0
  6  7  1  0
  6 30  1  0
  6 31  1  0
  7  8  1  0
  7 32  1  0
  7 33  1  0
  8  9  1  0
  8 34  1  0
  8 35  1  0
  9 10  1  0
  9 36  1  0
  9 37  1  0
 10 11  1  0
 11 12  1  0
 11 38  1  1
 12 13  1  0
 12 39  1  6
 13 22  1  0
 13 14  2  0
 14 15  1  0
 15 16  2  0
 16 17  1  0
 16 22  1  0
 17 21  1  0
 17 18  2  0
 18 19  1  0
 18 40  1  0
 19 20  2  0
 20 21  1  0
 20 41  1  0
M  END
>  <i_m_ct_stereo_status>  (339) 
1

>  <s_m_source_file>  (339) 
/var/tmp/pbs.5102264.sched01/tmplas2qej_/115vanlg5zy.sdf

>  <i_m_source_file_index>  (339) 
8

>  <i_lp_mmshare_version>  (339) 
48012

>  <i_f3d_flags>  (339) 
0

>  <s_epik_input>  (339) 
W0NIMl0xW0NIMl1bQ0gyXVtDSDJdT1tDQEBIXShbQ0BdMTIzKVtDQEBIXShOKFtDSDNdKVtDSDJdW0NIMl0yKWM0bjNjKG5uNCktYzVbY0hdbltjSF1vNQ==

>  <s_epik_cmdline>  (339) 
J2VwaWtfcHl0aG9uJywgJy1waHQnLCAnMi4wJywgJy1waCcsICc3LjAnLCAnLXRuJywgJzgnLCAnLW1hJywgJzIwMCcsICctaW1hZScsICc8aW5maWxlLm1hZT4nLCAnLW9tYWUnLCAnPG91dGZpbGUubWFlPic=

>  <r_lp_tautomer_probability>  (339) 
1

>  <r_epik_Ionization_Penalty>  (339) 
0.0642992

>  <r_epik_Ionization_Penalty_Charging>  (339) 
0

>  <r_epik_Ionization_Penalty_Neutral>  (339) 
0.0642992

>  <r_epik_State_Penalty>  (339) 
0.0557243

>  <r_epik_Charging_Adjusted_Penalty>  (339) 
0.0557243

>  <i_epik_Tot_Q>  (339) 
0

>  <i_epik_Tot_abs_Q>  (339) 
0

>  <s_lp_Force_Field>  (339) 
OPLS3e

>  <r_lp_Energy>  (339) 
32.8414

>  <b_lp_Chiralities_Consistent>  (339) 
1

>  <s_lp_Variant>  (339) 
75:0-1

>  <s_i_glide_gridfile>  (339) 
pfpi4k_grid

>  <i_i_glide_lignum>  (339) 
8

>  <i_i_glide_rotatable_bonds>  (339) 
1

>  <r_i_docking_score>  (339) 
-2.9887

>  <r_i_glide_ligand_efficiency>  (339) 
-0.13585

>  <r_i_glide_ligand_efficiency_sa>  (339) 
-0.380656

>  <r_i_glide_ligand_efficiency_ln>  (339) 
-0.730546

>  <r_i_glide_gscore>  (339) 
-2.9887

>  <r_i_glide_lipo>  (339) 
-0.0489093

>  <r_i_glide_hbond>  (339) 
0

>  <r_i_glide_metal>  (339) 
-0

>  <r_i_glide_rewards>  (339) 
-1.35448

>  <r_i_glide_evdw>  (339) 
-19.6509

>  <r_i_glide_ecoul>  (339) 
-3.47146

>  <r_i_glide_erotb>  (339) 
0.202576

>  <r_i_glide_esite>  (339) 
-0.284621

>  <r_i_glide_emodel>  (339) 
-27.8138

>  <r_i_glide_energy>  (339) 
-23.1224

>  <r_i_glide_einternal>  (339) 
0.0229023

>  <r_i_glide_intrahb_reward>  (339) 
-0

>  <i_i_glide_confnum>  (339) 
2

>  <i_i_glide_posenum>  (339) 
19

>  <r_i_glide_eff_state_penalty>  (339) 
0

>  <ligand_id>  (339) 
75

>  <original_smiles>  (339) 
CN1CCC23CCCCOC2C1c1nnc(-c2cnco2)n13

>  <smiles>  (339) 
[H]c1nc([H])c(-c2nnc3n2C24C([H])([H])C([H])([H])N(C([H])([H])[H])C3([H])C2([H])OC([H])([H])C([H])([H])C([H])([H])C4([H])[H])o1

$$$$
75:1:0
     RDKit          3D

 42 46  0  0  1  0  0  0  0  0999 V2000
    2.2718   -2.4632   -2.8558 C   0  0  0  0  0  0  0  0  0  0  0  0
    3.1415   -3.4589   -2.1883 N   0  0  1  0  0  0  0  0  0  0  0  0
    4.5769   -3.3022   -2.5667 C   0  0  0  0  0  0  0  0  0  0  0  0
    5.3644   -2.3805   -1.5939 C   0  0  0  0  0  0  0  0  0  0  0  0
    4.9871   -2.6095   -0.1154 C   0  0  1  0  0  0  0  0  0  0  0  0
    5.8632   -1.8299    0.8817 C   0  0  0  0  0  0  0  0  0  0  0  0
    5.3340   -0.4427    1.2464 C   0  0  0  0  0  0  0  0  0  0  0  0
    4.2802   -0.4873    2.3577 C   0  0  0  0  0  0  0  0  0  0  0  0
    2.9198   -1.0498    1.9341 C   0  0  0  0  0  0  0  0  0  0  0  0
    3.0258   -2.3303    1.3331 O   0  0  0  0  0  0  0  0  0  0  0  0
    3.4651   -2.2925   -0.0207 C   0  0  2  0  0  0  0  0  0  0  0  0
    2.8943   -3.5479   -0.7106 C   0  0  2  0  0  0  0  0  0  0  0  0
    3.8185   -4.5927   -0.2203 C   0  0  0  0  0  0  0  0  0  0  0  0
    3.7027   -5.8720    0.0948 N   0  0  0  0  0  0  0  0  0  0  0  0
    4.9776   -6.1865    0.5564 N   0  0  0  0  0  0  0  0  0  0  0  0
    5.7073   -5.0686    0.5305 C   0  0  0  0  0  0  0  0  0  0  0  0
    7.0974   -5.0109    0.9617 C   0  0  0  0  0  0  0  0  0  0  0  0
    8.1340   -4.1946    0.6264 C   0  0  0  0  0  0  0  0  0  0  0  0
    9.2474   -4.6240    1.3194 N   0  0  0  0  0  0  0  0  0  0  0  0
    8.8449   -5.6383    2.0765 C   0  0  0  0  0  0  0  0  0  0  0  0
    7.5252   -5.9287    1.9040 O   0  0  0  0  0  0  0  0  0  0  0  0
    4.9617   -4.0265    0.1076 N   0  0  0  0  0  0  0  0  0  0  0  0
    2.5641   -1.4329   -2.6225 H   0  0  0  0  0  0  0  0  0  0  0  0
    1.2522   -2.6631   -2.5278 H   0  0  0  0  0  0  0  0  0  0  0  0
    2.2989   -2.5516   -3.9425 H   0  0  0  0  0  0  0  0  0  0  0  0
    5.0159   -4.3031   -2.6231 H   0  0  0  0  0  0  0  0  0  0  0  0
    4.6315   -2.9176   -3.5781 H   0  0  0  0  0  0  0  0  0  0  0  0
    6.4161   -2.5988   -1.7672 H   0  0  0  0  0  0  0  0  0  0  0  0
    5.1828   -1.3373   -1.8506 H   0  0  0  0  0  0  0  0  0  0  0  0
    6.0237   -2.4029    1.7990 H   0  0  0  0  0  0  0  0  0  0  0  0
    6.8437   -1.6824    0.4398 H   0  0  0  0  0  0  0  0  0  0  0  0
    6.1853    0.1074    1.6314 H   0  0  0  0  0  0  0  0  0  0  0  0
    4.9888    0.1169    0.3741 H   0  0  0  0  0  0  0  0  0  0  0  0
    4.6711   -1.0465    3.2099 H   0  0  0  0  0  0  0  0  0  0  0  0
    4.1270    0.5279    2.7166 H   0  0  0  0  0  0  0  0  0  0  0  0
    2.3071   -1.1538    2.8283 H   0  0  0  0  0  0  0  0  0  0  0  0
    2.3854   -0.3575    1.2828 H   0  0  0  0  0  0  0  0  0  0  0  0
    3.1542   -1.3659   -0.5146 H   0  0  0  0  0  0  0  0  0  0  0  0
    1.8783   -3.8181   -0.4369 H   0  0  0  0  0  0  0  0  0  0  0  0
    8.2023   -3.3538   -0.0574 H   0  0  0  0  0  0  0  0  0  0  0  0
    9.5090   -6.1482    2.7720 H   0  0  0  0  0  0  0  0  0  0  0  0
    2.8731   -4.3753   -2.5477 H   0  0  0  0  0  0  0  0  0  0  0  0
  1  2  1  0
  1 23  1  0
  1 24  1  0
  1 25  1  0
  2 12  1  0
  2  3  1  0
  2 42  1  6
  3  4  1  0
  3 26  1  0
  3 27  1  0
  5  4  1  6
  4 28  1  0
  4 29  1  0
  5 11  1  0
  5 22  1  0
  5  6  1  0
  6  7  1  0
  6 30  1  0
  6 31  1  0
  7  8  1  0
  7 32  1  0
  7 33  1  0
  8  9  1  0
  8 34  1  0
  8 35  1  0
  9 10  1  0
  9 36  1  0
  9 37  1  0
 10 11  1  0
 11 12  1  0
 11 38  1  6
 12 13  1  0
 12 39  1  6
 13 22  1  0
 13 14  2  0
 14 15  1  0
 15 16  2  0
 16 17  1  0
 16 22  1  0
 17 21  1  0
 17 18  2  0
 18 19  1  0
 18 40  1  0
 19 20  2  0
 20 21  1  0
 20 41  1  0
M  CHG  1   2   1
M  END
>  <i_m_ct_stereo_status>  (340) 
1

>  <s_m_source_file>  (340) 
/var/tmp/pbs.5102264.sched01/tmplas2qej_/115vanlg5zy.sdf

>  <i_m_source_file_index>  (340) 
9

>  <i_lp_mmshare_version>  (340) 
48012

>  <i_f3d_flags>  (340) 
0

>  <s_epik_input>  (340) 
W0NIMl0xW0NIMl1bQ0gyXVtDSDJdT1tDQEBIXShbQ0BdMTIzKVtDQEBIXShOKFtDSDNdKVtDSDJdW0NIMl0yKWM0bjNjKG5uNCktYzVbY0hdbltjSF1vNQ==

>  <s_epik_cmdline>  (340) 
J2VwaWtfcHl0aG9uJywgJy1waHQnLCAnMi4wJywgJy1waCcsICc3LjAnLCAnLXRuJywgJzgnLCAnLW1hJywgJzIwMCcsICctaW1hZScsICc8aW5maWxlLm1hZT4nLCAnLW9tYWUnLCAnPG91dGZpbGUubWFlPic=

>  <r_lp_tautomer_probability>  (340) 
1

>  <r_epik_Ionization_Penalty>  (340) 
1.35023

>  <r_epik_Ionization_Penalty_Charging>  (340) 
1.35023

>  <r_epik_Ionization_Penalty_Neutral>  (340) 
2.94141e-07

>  <r_epik_State_Penalty>  (340) 
1.42823

>  <r_epik_Charging_Adjusted_Penalty>  (340) 
2.77845

>  <i_epik_Tot_Q>  (340) 
1

>  <i_epik_Tot_abs_Q>  (340) 
1

>  <s_lp_Force_Field>  (340) 
OPLS3e

>  <r_lp_Energy>  (340) 
37.9753

>  <b_lp_Chiralities_Consistent>  (340) 
1

>  <s_lp_Variant>  (340) 
75:0-2

>  <s_i_glide_gridfile>  (340) 
pfpi4k_grid

>  <i_i_glide_lignum>  (340) 
9

>  <i_i_glide_rotatable_bonds>  (340) 
1

>  <r_i_docking_score>  (340) 
-4.20622

>  <r_i_glide_ligand_efficiency>  (340) 
-0.191192

>  <r_i_glide_ligand_efficiency_sa>  (340) 
-0.535727

>  <r_i_glide_ligand_efficiency_ln>  (340) 
-1.02815

>  <r_i_glide_gscore>  (340) 
-4.20622

>  <r_i_glide_lipo>  (340) 
-0.628556

>  <r_i_glide_hbond>  (340) 
0

>  <r_i_glide_metal>  (340) 
-0

>  <r_i_glide_rewards>  (340) 
-1.55059

>  <r_i_glide_evdw>  (340) 
-20.6131

>  <r_i_glide_ecoul>  (340) 
-7.70577

>  <r_i_glide_erotb>  (340) 
0.201395

>  <r_i_glide_esite>  (340) 
-0.0419403

>  <r_i_glide_emodel>  (340) 
-36.6197

>  <r_i_glide_energy>  (340) 
-28.3189

>  <r_i_glide_einternal>  (340) 
0.127685

>  <r_i_glide_intrahb_reward>  (340) 
-0

>  <i_i_glide_confnum>  (340) 
4

>  <i_i_glide_posenum>  (340) 
4

>  <r_i_glide_eff_state_penalty>  (340) 
0

>  <ligand_id>  (340) 
75

>  <original_smiles>  (340) 
CN1CCC23CCCCOC2C1c1nnc(-c2cnco2)n13

>  <smiles>  (340) 
[H]c1nc([H])c(-c2nnc3n2C24C([H])([H])C([H])([H])C([H])([H])C([H])([H])OC2([H])C3([H])[N+]([H])(C([H])([H])[H])C([H])([H])C4([H])[H])o1

$$$$
75:1:1
     RDKit          3D

 42 46  0  0  1  0  0  0  0  0999 V2000
    3.0470   -2.9333   -2.7416 C   0  0  0  0  0  0  0  0  0  0  0  0
    3.0397   -2.3160   -1.3853 N   0  0  1  0  0  0  0  0  0  0  0  0
    2.6037   -3.2867   -0.3416 C   0  0  0  0  0  0  0  0  0  0  0  0
    3.7722   -4.0675    0.3235 C   0  0  0  0  0  0  0  0  0  0  0  0
    5.0316   -3.1868    0.5820 C   0  0  1  0  0  0  0  0  0  0  0  0
    6.1507   -3.9136    1.3520 C   0  0  0  0  0  0  0  0  0  0  0  0
    7.1897   -4.6315    0.5011 C   0  0  0  0  0  0  0  0  0  0  0  0
    8.2783   -3.6919   -0.0242 C   0  0  0  0  0  0  0  0  0  0  0  0
    7.8212   -2.7190   -1.1187 C   0  0  0  0  0  0  0  0  0  0  0  0
    6.6875   -1.9362   -0.7561 O   0  0  0  0  0  0  0  0  0  0  0  0
    5.4465   -2.6439   -0.8167 C   0  0  2  0  0  0  0  0  0  0  0  0
    4.3213   -1.6036   -1.0599 C   0  0  2  0  0  0  0  0  0  0  0  0
    4.1637   -1.0620    0.3324 C   0  0  0  0  0  0  0  0  0  0  0  0
    3.7751    0.0865    0.8628 N   0  0  0  0  0  0  0  0  0  0  0  0
    3.9177   -0.1127    2.2249 N   0  0  0  0  0  0  0  0  0  0  0  0
    4.3686   -1.3652    2.3970 C   0  0  0  0  0  0  0  0  0  0  0  0
    4.6036   -1.9329    3.7225 C   0  0  0  0  0  0  0  0  0  0  0  0
    4.7620   -3.2167    4.1911 C   0  0  0  0  0  0  0  0  0  0  0  0
    4.9673   -3.1728    5.5640 N   0  0  0  0  0  0  0  0  0  0  0  0
    4.8799   -1.8838    5.8744 C   0  0  0  0  0  0  0  0  0  0  0  0
    4.6701   -1.0719    4.7979 O   0  0  0  0  0  0  0  0  0  0  0  0
    4.5991   -1.9580    1.1913 N   0  0  0  0  0  0  0  0  0  0  0  0
    3.6824   -3.8242   -2.7764 H   0  0  0  0  0  0  0  0  0  0  0  0
    3.4026   -2.2355   -3.5050 H   0  0  0  0  0  0  0  0  0  0  0  0
    2.0415   -3.2568   -3.0256 H   0  0  0  0  0  0  0  0  0  0  0  0
    2.0595   -2.7261    0.4203 H   0  0  0  0  0  0  0  0  0  0  0  0
    1.8839   -3.9907   -0.7564 H   0  0  0  0  0  0  0  0  0  0  0  0
    3.4100   -4.4787    1.2696 H   0  0  0  0  0  0  0  0  0  0  0  0
    4.0599   -4.9197   -0.3014 H   0  0  0  0  0  0  0  0  0  0  0  0
    6.6468   -3.2290    2.0402 H   0  0  0  0  0  0  0  0  0  0  0  0
    5.7039   -4.7086    1.9352 H   0  0  0  0  0  0  0  0  0  0  0  0
    7.6755   -5.3669    1.1431 H   0  0  0  0  0  0  0  0  0  0  0  0
    6.6959   -5.1956   -0.2881 H   0  0  0  0  0  0  0  0  0  0  0  0
    8.7156   -3.1397    0.8089 H   0  0  0  0  0  0  0  0  0  0  0  0
    9.0803   -4.3037   -0.4368 H   0  0  0  0  0  0  0  0  0  0  0  0
    8.6454   -2.0335   -1.3070 H   0  0  0  0  0  0  0  0  0  0  0  0
    7.6401   -3.2402   -2.0587 H   0  0  0  0  0  0  0  0  0  0  0  0
    5.4845   -3.4127   -1.5942 H   0  0  0  0  0  0  0  0  0  0  0  0
    4.5795   -0.8091   -1.7618 H   0  0  0  0  0  0  0  0  0  0  0  0
    4.7320   -4.1713    3.6910 H   0  0  0  0  0  0  0  0  0  0  0  0
    4.9665   -1.5250    6.8904 H   0  0  0  0  0  0  0  0  0  0  0  0
    2.3012   -1.6112   -1.3865 H   0  0  0  0  0  0  0  0  0  0  0  0
  1  2  1  0
  1 23  1  0
  1 24  1  0
  1 25  1  0
  2 12  1  0
  2  3  1  0
  2 42  1  6
  3  4  1  0
  3 26  1  0
  3 27  1  0
  5  4  1  6
  4 28  1  0
  4 29  1  0
  5 11  1  0
  5 22  1  0
  5  6  1  0
  6  7  1  0
  6 30  1  0
  6 31  1  0
  7  8  1  0
  7 32  1  0
  7 33  1  0
  8  9  1  0
  8 34  1  0
  8 35  1  0
  9 10  1  0
  9 36  1  0
  9 37  1  0
 10 11  1  0
 11 12  1  0
 11 38  1  6
 12 13  1  0
 12 39  1  6
 13 22  1  0
 13 14  2  0
 14 15  1  0
 15 16  2  0
 16 17  1  0
 16 22  1  0
 17 21  1  0
 17 18  2  0
 18 19  1  0
 18 40  1  0
 19 20  2  0
 20 21  1  0
 20 41  1  0
M  CHG  1   2   1
M  END
>  <i_m_ct_stereo_status>  (341) 
1

>  <s_m_source_file>  (341) 
/var/tmp/pbs.5102264.sched01/tmplas2qej_/115vanlg5zy.sdf

>  <i_m_source_file_index>  (341) 
9

>  <i_lp_mmshare_version>  (341) 
48012

>  <i_f3d_flags>  (341) 
0

>  <s_epik_input>  (341) 
W0NIMl0xW0NIMl1bQ0gyXVtDSDJdT1tDQEBIXShbQ0BdMTIzKVtDQEBIXShOKFtDSDNdKVtDSDJdW0NIMl0yKWM0bjNjKG5uNCktYzVbY0hdbltjSF1vNQ==

>  <s_epik_cmdline>  (341) 
J2VwaWtfcHl0aG9uJywgJy1waHQnLCAnMi4wJywgJy1waCcsICc3LjAnLCAnLXRuJywgJzgnLCAnLW1hJywgJzIwMCcsICctaW1hZScsICc8aW5maWxlLm1hZT4nLCAnLW9tYWUnLCAnPG91dGZpbGUubWFlPic=

>  <r_lp_tautomer_probability>  (341) 
1

>  <r_epik_Ionization_Penalty>  (341) 
1.35023

>  <r_epik_Ionization_Penalty_Charging>  (341) 
1.35023

>  <r_epik_Ionization_Penalty_Neutral>  (341) 
2.94141e-07

>  <r_epik_State_Penalty>  (341) 
1.42823

>  <r_epik_Charging_Adjusted_Penalty>  (341) 
2.77845

>  <i_epik_Tot_Q>  (341) 
1

>  <i_epik_Tot_abs_Q>  (341) 
1

>  <s_lp_Force_Field>  (341) 
OPLS3e

>  <r_lp_Energy>  (341) 
37.9753

>  <b_lp_Chiralities_Consistent>  (341) 
1

>  <s_lp_Variant>  (341) 
75:0-2

>  <s_i_glide_gridfile>  (341) 
pfpi4k_grid

>  <i_i_glide_lignum>  (341) 
9

>  <i_i_glide_rotatable_bonds>  (341) 
1

>  <r_i_docking_score>  (341) 
-4.0292

>  <r_i_glide_ligand_efficiency>  (341) 
-0.183145

>  <r_i_glide_ligand_efficiency_sa>  (341) 
-0.513181

>  <r_i_glide_ligand_efficiency_ln>  (341) 
-0.984884

>  <r_i_glide_gscore>  (341) 
-4.0292

>  <r_i_glide_lipo>  (341) 
-0.477299

>  <r_i_glide_hbond>  (341) 
-0.36

>  <r_i_glide_metal>  (341) 
-0

>  <r_i_glide_rewards>  (341) 
-1.41037

>  <r_i_glide_evdw>  (341) 
-20.3742

>  <r_i_glide_ecoul>  (341) 
-5.88612

>  <r_i_glide_erotb>  (341) 
0.201395

>  <r_i_glide_esite>  (341) 
-0.0813003

>  <r_i_glide_emodel>  (341) 
-34.1339

>  <r_i_glide_energy>  (341) 
-26.2604

>  <r_i_glide_einternal>  (341) 
0.0204395

>  <r_i_glide_intrahb_reward>  (341) 
-0

>  <i_i_glide_confnum>  (341) 
2

>  <i_i_glide_posenum>  (341) 
5

>  <r_i_glide_eff_state_penalty>  (341) 
0

>  <ligand_id>  (341) 
75

>  <original_smiles>  (341) 
CN1CCC23CCCCOC2C1c1nnc(-c2cnco2)n13

>  <smiles>  (341) 
[H]c1nc([H])c(-c2nnc3n2C24C([H])([H])C([H])([H])C([H])([H])C([H])([H])OC2([H])C3([H])[N+]([H])(C([H])([H])[H])C([H])([H])C4([H])[H])o1

$$$$
75:1:2
     RDKit          3D

 42 46  0  0  1  0  0  0  0  0999 V2000
    2.8427   -2.2684   -2.8397 C   0  0  0  0  0  0  0  0  0  0  0  0
    3.3009   -3.4506   -2.0541 N   0  0  1  0  0  0  0  0  0  0  0  0
    4.7214   -3.8153   -2.3681 C   0  0  0  0  0  0  0  0  0  0  0  0
    5.7494   -3.1364   -1.4161 C   0  0  0  0  0  0  0  0  0  0  0  0
    5.2696   -3.0901    0.0606 C   0  0  1  0  0  0  0  0  0  0  0  0
    6.3281   -2.5139    1.0080 C   0  0  0  0  0  0  0  0  0  0  0  0
    6.2945   -1.0154    1.2671 C   0  0  0  0  0  0  0  0  0  0  0  0
    5.2662   -0.6223    2.3322 C   0  0  0  0  0  0  0  0  0  0  0  0
    3.8065   -0.7505    1.8779 C   0  0  0  0  0  0  0  0  0  0  0  0
    3.4824   -2.0472    1.3850 O   0  0  0  0  0  0  0  0  0  0  0  0
    3.9321   -2.2961    0.0537 C   0  0  2  0  0  0  0  0  0  0  0  0
    2.9944   -3.3424   -0.5804 C   0  0  2  0  0  0  0  0  0  0  0  0
    3.5101   -4.5852    0.0848 C   0  0  0  0  0  0  0  0  0  0  0  0
    2.9915   -5.7581    0.4331 N   0  0  0  0  0  0  0  0  0  0  0  0
    4.0821   -6.4242    1.0029 N   0  0  0  0  0  0  0  0  0  0  0  0
    5.1488   -5.5902    0.9678 C   0  0  0  0  0  0  0  0  0  0  0  0
    6.4776   -5.9758    1.4781 C   0  0  0  0  0  0  0  0  0  0  0  0
    7.6645   -5.3025    1.6807 C   0  0  0  0  0  0  0  0  0  0  0  0
    8.5993   -6.1799    2.2076 N   0  0  0  0  0  0  0  0  0  0  0  0
    7.9657   -7.3422    2.2807 C   0  0  0  0  0  0  0  0  0  0  0  0
    6.6725   -7.2817    1.8489 O   0  0  0  0  0  0  0  0  0  0  0  0
    4.7775   -4.4023    0.4338 N   0  0  0  0  0  0  0  0  0  0  0  0
    3.4884   -1.3975   -2.6587 H   0  0  0  0  0  0  0  0  0  0  0  0
    1.8097   -2.0081   -2.5842 H   0  0  0  0  0  0  0  0  0  0  0  0
    2.8787   -2.4911   -3.9120 H   0  0  0  0  0  0  0  0  0  0  0  0
    4.8401   -4.8992   -2.2976 H   0  0  0  0  0  0  0  0  0  0  0  0
    4.9579   -3.5686   -3.4064 H   0  0  0  0  0  0  0  0  0  0  0  0
    6.6889   -3.6919   -1.4865 H   0  0  0  0  0  0  0  0  0  0  0  0
    5.9578   -2.1181   -1.7582 H   0  0  0  0  0  0  0  0  0  0  0  0
    6.2836   -3.0137    1.9745 H   0  0  0  0  0  0  0  0  0  0  0  0
    7.3009   -2.7026    0.5633 H   0  0  0  0  0  0  0  0  0  0  0  0
    7.2770   -0.7622    1.6631 H   0  0  0  0  0  0  0  0  0  0  0  0
    6.1831   -0.4489    0.3418 H   0  0  0  0  0  0  0  0  0  0  0  0
    5.4282   -1.2090    3.2383 H   0  0  0  0  0  0  0  0  0  0  0  0
    5.4492    0.4098    2.6242 H   0  0  0  0  0  0  0  0  0  0  0  0
    3.1708   -0.5670    2.7427 H   0  0  0  0  0  0  0  0  0  0  0  0
    3.5516    0.0158    1.1459 H   0  0  0  0  0  0  0  0  0  0  0  0
    3.9713   -1.3701   -0.5199 H   0  0  0  0  0  0  0  0  0  0  0  0
    1.9347   -3.1960   -0.3733 H   0  0  0  0  0  0  0  0  0  0  0  0
    7.9868   -4.2818    1.5305 H   0  0  0  0  0  0  0  0  0  0  0  0
    8.4435   -8.2352    2.6491 H   0  0  0  0  0  0  0  0  0  0  0  0
    2.7557   -4.2402   -2.3896 H   0  0  0  0  0  0  0  0  0  0  0  0
  1  2  1  0
  1 23  1  0
  1 24  1  0
  1 25  1  0
  2 12  1  0
  2  3  1  0
  2 42  1  6
  3  4  1  0
  3 26  1  0
  3 27  1  0
  5  4  1  6
  4 28  1  0
  4 29  1  0
  5 11  1  0
  5 22  1  0
  5  6  1  0
  6  7  1  0
  6 30  1  0
  6 31  1  0
  7  8  1  0
  7 32  1  0
  7 33  1  0
  8  9  1  0
  8 34  1  0
  8 35  1  0
  9 10  1  0
  9 36  1  0
  9 37  1  0
 10 11  1  0
 11 12  1  0
 11 38  1  6
 12 13  1  0
 12 39  1  6
 13 22  1  0
 13 14  2  0
 14 15  1  0
 15 16  2  0
 16 17  1  0
 16 22  1  0
 17 21  1  0
 17 18  2  0
 18 19  1  0
 18 40  1  0
 19 20  2  0
 20 21  1  0
 20 41  1  0
M  CHG  1   2   1
M  END
>  <i_m_ct_stereo_status>  (342) 
1

>  <s_m_source_file>  (342) 
/var/tmp/pbs.5102264.sched01/tmplas2qej_/115vanlg5zy.sdf

>  <i_m_source_file_index>  (342) 
9

>  <i_lp_mmshare_version>  (342) 
48012

>  <i_f3d_flags>  (342) 
0

>  <s_epik_input>  (342) 
W0NIMl0xW0NIMl1bQ0gyXVtDSDJdT1tDQEBIXShbQ0BdMTIzKVtDQEBIXShOKFtDSDNdKVtDSDJdW0NIMl0yKWM0bjNjKG5uNCktYzVbY0hdbltjSF1vNQ==

>  <s_epik_cmdline>  (342) 
J2VwaWtfcHl0aG9uJywgJy1waHQnLCAnMi4wJywgJy1waCcsICc3LjAnLCAnLXRuJywgJzgnLCAnLW1hJywgJzIwMCcsICctaW1hZScsICc8aW5maWxlLm1hZT4nLCAnLW9tYWUnLCAnPG91dGZpbGUubWFlPic=

>  <r_lp_tautomer_probability>  (342) 
1

>  <r_epik_Ionization_Penalty>  (342) 
1.35023

>  <r_epik_Ionization_Penalty_Charging>  (342) 
1.35023

>  <r_epik_Ionization_Penalty_Neutral>  (342) 
2.94141e-07

>  <r_epik_State_Penalty>  (342) 
1.42823

>  <r_epik_Charging_Adjusted_Penalty>  (342) 
2.77845

>  <i_epik_Tot_Q>  (342) 
1

>  <i_epik_Tot_abs_Q>  (342) 
1

>  <s_lp_Force_Field>  (342) 
OPLS3e

>  <r_lp_Energy>  (342) 
37.9753

>  <b_lp_Chiralities_Consistent>  (342) 
1

>  <s_lp_Variant>  (342) 
75:0-2

>  <s_i_glide_gridfile>  (342) 
pfpi4k_grid

>  <i_i_glide_lignum>  (342) 
9

>  <i_i_glide_rotatable_bonds>  (342) 
1

>  <r_i_docking_score>  (342) 
-3.74162

>  <r_i_glide_ligand_efficiency>  (342) 
-0.170074

>  <r_i_glide_ligand_efficiency_sa>  (342) 
-0.476554

>  <r_i_glide_ligand_efficiency_ln>  (342) 
-0.91459

>  <r_i_glide_gscore>  (342) 
-3.74162

>  <r_i_glide_lipo>  (342) 
-0.635775

>  <r_i_glide_hbond>  (342) 
0

>  <r_i_glide_metal>  (342) 
-0

>  <r_i_glide_rewards>  (342) 
-1.51802

>  <r_i_glide_evdw>  (342) 
-21.3051

>  <r_i_glide_ecoul>  (342) 
-4.50153

>  <r_i_glide_erotb>  (342) 
0.201395

>  <r_i_glide_esite>  (342) 
-0.0487404

>  <r_i_glide_emodel>  (342) 
-32.5832

>  <r_i_glide_energy>  (342) 
-25.8066

>  <r_i_glide_einternal>  (342) 
0.219383

>  <r_i_glide_intrahb_reward>  (342) 
-0

>  <i_i_glide_confnum>  (342) 
2

>  <i_i_glide_posenum>  (342) 
11

>  <r_i_glide_eff_state_penalty>  (342) 
0

>  <ligand_id>  (342) 
75

>  <original_smiles>  (342) 
CN1CCC23CCCCOC2C1c1nnc(-c2cnco2)n13

>  <smiles>  (342) 
[H]c1nc([H])c(-c2nnc3n2C24C([H])([H])C([H])([H])C([H])([H])C([H])([H])OC2([H])C3([H])[N+]([H])(C([H])([H])[H])C([H])([H])C4([H])[H])o1

$$$$
76:0:0
     RDKit          3D

 47 51  0  0  1  0  0  0  0  0999 V2000
    2.2168   -3.0580   -0.1988 O   0  0  0  0  0  0  0  0  0  0  0  0
    3.5884   -2.9095    0.1432 C   0  0  2  0  0  0  0  0  0  0  0  0
    4.4527   -3.3889   -1.0349 C   0  0  0  0  0  0  0  0  0  0  0  0
    4.2352   -2.6031   -2.2309 N   0  0  0  0  0  0  0  0  0  0  0  0
    3.8696   -2.9867   -3.4557 C   0  0  0  0  0  0  0  0  0  0  0  0
    3.8084   -1.9895   -4.3153 N   0  0  0  0  0  0  0  0  0  0  0  0
    4.1368   -0.9481   -3.5059 C   0  0  0  0  0  0  0  0  0  0  0  0
    4.4661   -1.2665   -2.2531 N   0  0  0  0  0  0  0  0  0  0  0  0
    3.9163   -3.6635    1.4483 C   0  0  0  0  0  0  0  0  0  0  0  0
    3.5554   -5.0717    1.4128 N   0  0  0  0  0  0  0  0  0  0  0  0
    4.3715   -6.1714    1.2329 C   0  0  0  0  0  0  0  0  0  0  0  0
    3.4930   -7.2150    1.2400 C   0  0  0  0  0  0  0  0  0  0  0  0
    3.7523   -8.6820    1.0547 C   0  0  0  0  0  0  0  0  0  0  0  0
    3.8487   -9.3501    2.3380 N   0  0  0  0  0  0  0  0  0  0  0  0
    5.0243   -9.5581    3.0736 C   0  0  0  0  0  0  0  0  0  0  0  0
    6.3625   -9.2013    2.7955 C   0  0  0  0  0  0  0  0  0  0  0  0
    7.3922   -9.5211    3.7069 C   0  0  0  0  0  0  0  0  0  0  0  0
    7.0861  -10.2043    4.9009 C   0  0  0  0  0  0  0  0  0  0  0  0
    5.7525  -10.5623    5.1730 C   0  0  0  0  0  0  0  0  0  0  0  0
    4.7096  -10.2481    4.2758 C   0  0  0  0  0  0  0  0  0  0  0  0
    3.2949  -10.4571    4.2780 C   0  0  0  0  0  0  0  0  0  0  0  0
    2.3789  -11.0545    5.1683 C   0  0  0  0  0  0  0  0  0  0  0  0
    1.0035  -11.0799    4.8760 C   0  0  0  0  0  0  0  0  0  0  0  0
    0.5547  -10.5374    3.7262 N   0  0  0  0  0  0  0  0  0  0  0  0
    1.3952   -9.9583    2.8358 C   0  0  0  0  0  0  0  0  0  0  0  0
    2.7864   -9.8920    3.0778 C   0  0  0  0  0  0  0  0  0  0  0  0
    2.1998   -6.7185    1.4328 N   0  0  0  0  0  0  0  0  0  0  0  0
    2.2564   -5.4347    1.5607 N   0  0  0  0  0  0  0  0  0  0  0  0
    1.8750   -2.2051   -0.4730 H   0  0  0  0  0  0  0  0  0  0  0  0
    3.7788   -1.8484    0.3211 H   0  0  0  0  0  0  0  0  0  0  0  0
    5.5134   -3.3310   -0.7942 H   0  0  0  0  0  0  0  0  0  0  0  0
    4.2298   -4.4346   -1.2587 H   0  0  0  0  0  0  0  0  0  0  0  0
    3.6678   -4.0186   -3.7213 H   0  0  0  0  0  0  0  0  0  0  0  0
    4.2002    0.0688   -3.8670 H   0  0  0  0  0  0  0  0  0  0  0  0
    4.9839   -3.5891    1.6513 H   0  0  0  0  0  0  0  0  0  0  0  0
    3.4182   -3.1912    2.2958 H   0  0  0  0  0  0  0  0  0  0  0  0
    5.4420   -6.1191    1.1070 H   0  0  0  0  0  0  0  0  0  0  0  0
    2.9523   -9.1557    0.4822 H   0  0  0  0  0  0  0  0  0  0  0  0
    4.6671   -8.8489    0.4834 H   0  0  0  0  0  0  0  0  0  0  0  0
    6.5906   -8.6753    1.8800 H   0  0  0  0  0  0  0  0  0  0  0  0
    8.4113   -9.2344    3.4851 H   0  0  0  0  0  0  0  0  0  0  0  0
    7.8603  -10.4550    5.6118 H   0  0  0  0  0  0  0  0  0  0  0  0
    5.5014  -11.0811    6.0849 H   0  0  0  0  0  0  0  0  0  0  0  0
    2.7409  -11.4912    6.0829 H   0  0  0  0  0  0  0  0  0  0  0  0
    0.2601  -11.5167    5.5375 H   0  0  0  0  0  0  0  0  0  0  0  0
    0.9389   -9.5512    1.9448 H   0  0  0  0  0  0  0  0  0  0  0  0
   -0.4542  -10.5657    3.5408 H   0  0  0  0  0  0  0  0  0  0  0  0
  1  2  1  0
  1 29  1  0
  2  3  1  0
  2  9  1  0
  2 30  1  1
  3  4  1  0
  3 31  1  0
  3 32  1  0
  4  8  1  0
  4  5  1  0
  5  6  2  0
  5 33  1  0
  6  7  1  0
  7  8  2  0
  7 34  1  0
  9 10  1  0
  9 35  1  0
  9 36  1  0
 10 28  1  0
 10 11  1  0
 11 12  2  0
 11 37  1  0
 12 13  1  0
 12 27  1  0
 13 14  1  0
 13 38  1  0
 13 39  1  0
 14 26  1  0
 14 15  1  0
 15 20  1  0
 15 16  2  0
 16 17  1  0
 16 40  1  0
 17 18  2  0
 17 41  1  0
 18 19  1  0
 18 42  1  0
 19 20  2  0
 19 43  1  0
 20 21  1  0
 21 26  2  0
 21 22  1  0
 22 23  2  0
 22 44  1  0
 23 24  1  0
 23 45  1  0
 24 25  2  0
 24 47  1  0
 25 26  1  0
 25 46  1  0
 27 28  2  0
M  CHG  1  24   1
M  END
>  <i_m_ct_stereo_status>  (343) 
1

>  <s_m_source_file>  (343) 
/var/tmp/pbs.5102264.sched01/tmplas2qej_/115vanlg5zy.sdf

>  <i_m_source_file_index>  (343) 
10

>  <i_lp_mmshare_version>  (343) 
48012

>  <i_f3d_flags>  (343) 
0

>  <s_epik_input>  (343) 
bjFbY0hdbltjSF1uMVtDSDJdW0NAQEhdKFtPSF0pW0NIMl1uMltjSF1jKG5uMilbQ0gyXW4zYyhbY0hdbltjSF1bY0hdNCljNGMoYzM1KVtjSF1bY0hdW2NIXVtjSF01

>  <s_epik_cmdline>  (343) 
J2VwaWtfcHl0aG9uJywgJy1waHQnLCAnMi4wJywgJy1waCcsICc3LjAnLCAnLXRuJywgJzgnLCAnLW1hJywgJzIwMCcsICctaW1hZScsICc8aW5maWxlLm1hZT4nLCAnLW9tYWUnLCAnPG91dGZpbGUubWFlPic=

>  <r_lp_tautomer_probability>  (343) 
1

>  <r_epik_Ionization_Penalty>  (343) 
0.132502

>  <r_epik_Ionization_Penalty_Charging>  (343) 
0.132468

>  <r_epik_Ionization_Penalty_Neutral>  (343) 
3.43159e-05

>  <r_epik_State_Penalty>  (343) 
0.121848

>  <r_epik_Charging_Adjusted_Penalty>  (343) 
0.254317

>  <i_epik_Tot_Q>  (343) 
1

>  <i_epik_Tot_abs_Q>  (343) 
1

>  <s_lp_Force_Field>  (343) 
OPLS3e

>  <r_lp_Energy>  (343) 
26.3126

>  <b_lp_Chiralities_Consistent>  (343) 
1

>  <s_lp_Variant>  (343) 
76:0-1

>  <s_i_glide_gridfile>  (343) 
pfpi4k_grid

>  <i_i_glide_lignum>  (343) 
10

>  <i_i_glide_rotatable_bonds>  (343) 
7

>  <r_i_docking_score>  (343) 
-5.0617

>  <r_i_glide_ligand_efficiency>  (343) 
-0.180775

>  <r_i_glide_ligand_efficiency_sa>  (343) 
-0.548939

>  <r_i_glide_ligand_efficiency_ln>  (343) 
-1.16839

>  <r_i_glide_gscore>  (343) 
-5.0617

>  <r_i_glide_lipo>  (343) 
-0.314334

>  <r_i_glide_hbond>  (343) 
-0.494443

>  <r_i_glide_metal>  (343) 
-0

>  <r_i_glide_rewards>  (343) 
-1.41716

>  <r_i_glide_evdw>  (343) 
-29.698

>  <r_i_glide_ecoul>  (343) 
-11.5352

>  <r_i_glide_erotb>  (343) 
0.48047

>  <r_i_glide_esite>  (343) 
-0.101047

>  <r_i_glide_emodel>  (343) 
-58.251

>  <r_i_glide_energy>  (343) 
-41.2332

>  <r_i_glide_einternal>  (343) 
1.78435

>  <r_i_glide_intrahb_reward>  (343) 
-0

>  <i_i_glide_confnum>  (343) 
4

>  <i_i_glide_posenum>  (343) 
9

>  <r_i_glide_eff_state_penalty>  (343) 
0

>  <ligand_id>  (343) 
76

>  <original_smiles>  (343) 
OC(Cn1cncn1)Cn1cc(Cn2c3ccccc3c3ccncc32)nn1

>  <smiles>  (343) 
[H]OC([H])(C([H])([H])n1nc([H])nc1[H])C([H])([H])n1nnc(C([H])([H])n2c3c([H])c([H])c([H])c([H])c3c3c([H])c([H])[n+]([H])c([H])c32)c1[H]

$$$$
76:0:1
     RDKit          3D

 47 51  0  0  1  0  0  0  0  0999 V2000
    4.6768   -4.1536   -2.1045 O   0  0  0  0  0  0  0  0  0  0  0  0
    3.8346   -3.0258   -2.2417 C   0  0  2  0  0  0  0  0  0  0  0  0
    4.6855   -1.7364   -2.1289 C   0  0  0  0  0  0  0  0  0  0  0  0
    5.0511   -1.3452   -0.7664 N   0  0  0  0  0  0  0  0  0  0  0  0
    4.3450   -0.7627    0.2147 C   0  0  0  0  0  0  0  0  0  0  0  0
    5.0241   -0.6191    1.3450 N   0  0  0  0  0  0  0  0  0  0  0  0
    6.2400   -1.0929    0.9437 C   0  0  0  0  0  0  0  0  0  0  0  0
    6.3146   -1.5374   -0.3120 N   0  0  0  0  0  0  0  0  0  0  0  0
    2.6199   -3.0667   -1.2687 C   0  0  0  0  0  0  0  0  0  0  0  0
    2.7054   -4.1321   -0.2787 N   0  0  0  0  0  0  0  0  0  0  0  0
    3.6050   -4.2890    0.7606 C   0  0  0  0  0  0  0  0  0  0  0  0
    3.2313   -5.4659    1.3432 C   0  0  0  0  0  0  0  0  0  0  0  0
    3.8652   -6.2329    2.4668 C   0  0  0  0  0  0  0  0  0  0  0  0
    2.8857   -7.0392    3.1832 N   0  0  0  0  0  0  0  0  0  0  0  0
    1.9023   -6.5500    4.0549 C   0  0  0  0  0  0  0  0  0  0  0  0
    1.6102   -5.2311    4.4659 C   0  0  0  0  0  0  0  0  0  0  0  0
    0.5562   -4.9916    5.3712 C   0  0  0  0  0  0  0  0  0  0  0  0
   -0.2029   -6.0692    5.8658 C   0  0  0  0  0  0  0  0  0  0  0  0
    0.0866   -7.3800    5.4481 C   0  0  0  0  0  0  0  0  0  0  0  0
    1.1316   -7.6402    4.5428 C   0  0  0  0  0  0  0  0  0  0  0  0
    1.6507   -8.8282    3.9455 C   0  0  0  0  0  0  0  0  0  0  0  0
    1.3278  -10.2033    4.0193 C   0  0  0  0  0  0  0  0  0  0  0  0
    2.0655  -11.1434    3.2751 C   0  0  0  0  0  0  0  0  0  0  0  0
    3.0739  -10.7195    2.4781 N   0  0  0  0  0  0  0  0  0  0  0  0
    3.4179   -9.4179    2.3750 C   0  0  0  0  0  0  0  0  0  0  0  0
    2.7263   -8.4319    3.1073 C   0  0  0  0  0  0  0  0  0  0  0  0
    2.1005   -5.9370    0.6679 N   0  0  0  0  0  0  0  0  0  0  0  0
    1.8168   -5.1435   -0.3036 N   0  0  0  0  0  0  0  0  0  0  0  0
    4.1237   -4.9293   -2.1574 H   0  0  0  0  0  0  0  0  0  0  0  0
    3.4363   -3.1043   -3.2526 H   0  0  0  0  0  0  0  0  0  0  0  0
    5.5908   -1.8757   -2.7171 H   0  0  0  0  0  0  0  0  0  0  0  0
    4.1520   -0.9076   -2.5907 H   0  0  0  0  0  0  0  0  0  0  0  0
    3.3014   -0.4745    0.1244 H   0  0  0  0  0  0  0  0  0  0  0  0
    7.0938   -1.0824    1.6017 H   0  0  0  0  0  0  0  0  0  0  0  0
    2.5367   -2.1557   -0.7148 H   0  0  0  0  0  0  0  0  0  0  0  0
    1.6723   -3.1676   -1.8201 H   0  0  0  0  0  0  0  0  0  0  0  0
    4.4284   -3.6127    0.9700 H   0  0  0  0  0  0  0  0  0  0  0  0
    4.6633   -6.8735    2.0890 H   0  0  0  0  0  0  0  0  0  0  0  0
    4.3388   -5.5508    3.1679 H   0  0  0  0  0  0  0  0  0  0  0  0
    2.1955   -4.4055    4.0855 H   0  0  0  0  0  0  0  0  0  0  0  0
    0.3303   -3.9844    5.6834 H   0  0  0  0  0  0  0  0  0  0  0  0
   -1.0096   -5.8908    6.5599 H   0  0  0  0  0  0  0  0  0  0  0  0
   -0.4933   -8.2139    5.8112 H   0  0  0  0  0  0  0  0  0  0  0  0
    0.5041  -10.5180    4.6413 H   0  0  0  0  0  0  0  0  0  0  0  0
    1.8511  -12.2054    3.2621 H   0  0  0  0  0  0  0  0  0  0  0  0
    4.2295   -9.2011    1.6953 H   0  0  0  0  0  0  0  0  0  0  0  0
    3.5695  -11.3963    1.8770 H   0  0  0  0  0  0  0  0  0  0  0  0
  1  2  1  0
  1 29  1  0
  2  3  1  0
  2  9  1  0
  2 30  1  6
  3  4  1  0
  3 31  1  0
  3 32  1  0
  4  8  1  0
  4  5  1  0
  5  6  2  0
  5 33  1  0
  6  7  1  0
  7  8  2  0
  7 34  1  0
  9 10  1  0
  9 35  1  0
  9 36  1  0
 10 28  1  0
 10 11  1  0
 11 12  2  0
 11 37  1  0
 12 13  1  0
 12 27  1  0
 13 14  1  0
 13 38  1  0
 13 39  1  0
 14 26  1  0
 14 15  1  0
 15 20  1  0
 15 16  2  0
 16 17  1  0
 16 40  1  0
 17 18  2  0
 17 41  1  0
 18 19  1  0
 18 42  1  0
 19 20  2  0
 19 43  1  0
 20 21  1  0
 21 26  2  0
 21 22  1  0
 22 23  2  0
 22 44  1  0
 23 24  1  0
 23 45  1  0
 24 25  2  0
 24 47  1  0
 25 26  1  0
 25 46  1  0
 27 28  2  0
M  CHG  1  24   1
M  END
>  <i_m_ct_stereo_status>  (344) 
1

>  <s_m_source_file>  (344) 
/var/tmp/pbs.5102264.sched01/tmplas2qej_/115vanlg5zy.sdf

>  <i_m_source_file_index>  (344) 
10

>  <i_lp_mmshare_version>  (344) 
48012

>  <i_f3d_flags>  (344) 
0

>  <s_epik_input>  (344) 
bjFbY0hdbltjSF1uMVtDSDJdW0NAQEhdKFtPSF0pW0NIMl1uMltjSF1jKG5uMilbQ0gyXW4zYyhbY0hdbltjSF1bY0hdNCljNGMoYzM1KVtjSF1bY0hdW2NIXVtjSF01

>  <s_epik_cmdline>  (344) 
J2VwaWtfcHl0aG9uJywgJy1waHQnLCAnMi4wJywgJy1waCcsICc3LjAnLCAnLXRuJywgJzgnLCAnLW1hJywgJzIwMCcsICctaW1hZScsICc8aW5maWxlLm1hZT4nLCAnLW9tYWUnLCAnPG91dGZpbGUubWFlPic=

>  <r_lp_tautomer_probability>  (344) 
1

>  <r_epik_Ionization_Penalty>  (344) 
0.132502

>  <r_epik_Ionization_Penalty_Charging>  (344) 
0.132468

>  <r_epik_Ionization_Penalty_Neutral>  (344) 
3.43159e-05

>  <r_epik_State_Penalty>  (344) 
0.121848

>  <r_epik_Charging_Adjusted_Penalty>  (344) 
0.254317

>  <i_epik_Tot_Q>  (344) 
1

>  <i_epik_Tot_abs_Q>  (344) 
1

>  <s_lp_Force_Field>  (344) 
OPLS3e

>  <r_lp_Energy>  (344) 
26.3126

>  <b_lp_Chiralities_Consistent>  (344) 
1

>  <s_lp_Variant>  (344) 
76:0-1

>  <s_i_glide_gridfile>  (344) 
pfpi4k_grid

>  <i_i_glide_lignum>  (344) 
10

>  <i_i_glide_rotatable_bonds>  (344) 
7

>  <r_i_docking_score>  (344) 
-4.73555

>  <r_i_glide_ligand_efficiency>  (344) 
-0.169127

>  <r_i_glide_ligand_efficiency_sa>  (344) 
-0.513568

>  <r_i_glide_ligand_efficiency_ln>  (344) 
-1.0931

>  <r_i_glide_gscore>  (344) 
-4.73555

>  <r_i_glide_lipo>  (344) 
-0.111273

>  <r_i_glide_hbond>  (344) 
-0.588444

>  <r_i_glide_metal>  (344) 
-0

>  <r_i_glide_rewards>  (344) 
-1.0494

>  <r_i_glide_evdw>  (344) 
-25.4242

>  <r_i_glide_ecoul>  (344) 
-14.0494

>  <r_i_glide_erotb>  (344) 
0.686385

>  <r_i_glide_esite>  (344) 
-0.294199

>  <r_i_glide_emodel>  (344) 
-51.7219

>  <r_i_glide_energy>  (344) 
-39.4736

>  <r_i_glide_einternal>  (344) 
8.43861

>  <r_i_glide_intrahb_reward>  (344) 
-0

>  <i_i_glide_confnum>  (344) 
3

>  <i_i_glide_posenum>  (344) 
15

>  <r_i_glide_eff_state_penalty>  (344) 
0

>  <ligand_id>  (344) 
76

>  <original_smiles>  (344) 
OC(Cn1cncn1)Cn1cc(Cn2c3ccccc3c3ccncc32)nn1

>  <smiles>  (344) 
[H]OC([H])(C([H])([H])n1nc([H])nc1[H])C([H])([H])n1nnc(C([H])([H])n2c3c([H])c([H])c([H])c([H])c3c3c([H])c([H])[n+]([H])c([H])c32)c1[H]

$$$$
76:0:2
     RDKit          3D

 47 51  0  0  1  0  0  0  0  0999 V2000
    4.5183   -4.2428   -1.3317 O   0  0  0  0  0  0  0  0  0  0  0  0
    4.0862   -3.3233   -0.3402 C   0  0  2  0  0  0  0  0  0  0  0  0
    4.8508   -1.9868   -0.4989 C   0  0  0  0  0  0  0  0  0  0  0  0
    6.2966   -2.1356   -0.4704 N   0  0  0  0  0  0  0  0  0  0  0  0
    7.1934   -1.8229    0.4698 C   0  0  0  0  0  0  0  0  0  0  0  0
    8.4392   -2.1290    0.1273 N   0  0  0  0  0  0  0  0  0  0  0  0
    8.2190   -2.6702   -1.1028 C   0  0  0  0  0  0  0  0  0  0  0  0
    6.9674   -2.6297   -1.5367 N   0  0  0  0  0  0  0  0  0  0  0  0
    4.2458   -3.9449    1.0714 C   0  0  0  0  0  0  0  0  0  0  0  0
    3.7948   -5.3256    1.1432 N   0  0  0  0  0  0  0  0  0  0  0  0
    4.5470   -6.4762    1.0101 C   0  0  0  0  0  0  0  0  0  0  0  0
    3.6213   -7.4738    1.1247 C   0  0  0  0  0  0  0  0  0  0  0  0
    3.7981   -8.9600    1.0191 C   0  0  0  0  0  0  0  0  0  0  0  0
    3.8792   -9.5598    2.3348 N   0  0  0  0  0  0  0  0  0  0  0  0
    5.0499   -9.7649    3.0798 C   0  0  0  0  0  0  0  0  0  0  0  0
    6.3958   -9.4659    2.7801 C   0  0  0  0  0  0  0  0  0  0  0  0
    7.4151   -9.7656    3.7103 C   0  0  0  0  0  0  0  0  0  0  0  0
    7.0899  -10.3706    4.9397 C   0  0  0  0  0  0  0  0  0  0  0  0
    5.7486  -10.6721    5.2340 C   0  0  0  0  0  0  0  0  0  0  0  0
    4.7156  -10.3739    4.3203 C   0  0  0  0  0  0  0  0  0  0  0  0
    3.2985  -10.5378    4.3320 C   0  0  0  0  0  0  0  0  0  0  0  0
    2.3681  -11.0558    5.2545 C   0  0  0  0  0  0  0  0  0  0  0  0
    0.9935  -11.0598    4.9544 C   0  0  0  0  0  0  0  0  0  0  0  0
    0.5600  -10.5678    3.7781 N   0  0  0  0  0  0  0  0  0  0  0  0
    1.4127  -10.0627    2.8571 C   0  0  0  0  0  0  0  0  0  0  0  0
    2.8051  -10.0270    3.1015 C   0  0  0  0  0  0  0  0  0  0  0  0
    2.3662   -6.8901    1.3157 N   0  0  0  0  0  0  0  0  0  0  0  0
    2.4835   -5.5996    1.3244 N   0  0  0  0  0  0  0  0  0  0  0  0
    3.8404   -4.8900   -1.4965 H   0  0  0  0  0  0  0  0  0  0  0  0
    3.0253   -3.1356   -0.5144 H   0  0  0  0  0  0  0  0  0  0  0  0
    4.5793   -1.5162   -1.4419 H   0  0  0  0  0  0  0  0  0  0  0  0
    4.5582   -1.2912    0.2861 H   0  0  0  0  0  0  0  0  0  0  0  0
    6.9306   -1.3484    1.4066 H   0  0  0  0  0  0  0  0  0  0  0  0
    9.0050   -3.0582   -1.7288 H   0  0  0  0  0  0  0  0  0  0  0  0
    5.2894   -3.9337    1.3857 H   0  0  0  0  0  0  0  0  0  0  0  0
    3.6969   -3.3506    1.8095 H   0  0  0  0  0  0  0  0  0  0  0  0
    5.6080   -6.4825    0.8302 H   0  0  0  0  0  0  0  0  0  0  0  0
    2.9700   -9.4256    0.4824 H   0  0  0  0  0  0  0  0  0  0  0  0
    4.6966   -9.2155    0.4593 H   0  0  0  0  0  0  0  0  0  0  0  0
    6.6440   -8.9998    1.8366 H   0  0  0  0  0  0  0  0  0  0  0  0
    8.4427   -9.5239    3.4761 H   0  0  0  0  0  0  0  0  0  0  0  0
    7.8580  -10.6022    5.6625 H   0  0  0  0  0  0  0  0  0  0  0  0
    5.4852  -11.1303    6.1741 H   0  0  0  0  0  0  0  0  0  0  0  0
    2.7165  -11.4541    6.1929 H   0  0  0  0  0  0  0  0  0  0  0  0
    0.2407  -11.4434    5.6343 H   0  0  0  0  0  0  0  0  0  0  0  0
    0.9631   -9.6971    1.9439 H   0  0  0  0  0  0  0  0  0  0  0  0
   -0.4491  -10.5821    3.5962 H   0  0  0  0  0  0  0  0  0  0  0  0
  1  2  1  0
  1 29  1  0
  2  3  1  0
  2  9  1  0
  2 30  1  6
  3  4  1  0
  3 31  1  0
  3 32  1  0
  4  8  1  0
  4  5  1  0
  5  6  2  0
  5 33  1  0
  6  7  1  0
  7  8  2  0
  7 34  1  0
  9 10  1  0
  9 35  1  0
  9 36  1  0
 10 28  1  0
 10 11  1  0
 11 12  2  0
 11 37  1  0
 12 13  1  0
 12 27  1  0
 13 14  1  0
 13 38  1  0
 13 39  1  0
 14 26  1  0
 14 15  1  0
 15 20  1  0
 15 16  2  0
 16 17  1  0
 16 40  1  0
 17 18  2  0
 17 41  1  0
 18 19  1  0
 18 42  1  0
 19 20  2  0
 19 43  1  0
 20 21  1  0
 21 26  2  0
 21 22  1  0
 22 23  2  0
 22 44  1  0
 23 24  1  0
 23 45  1  0
 24 25  2  0
 24 47  1  0
 25 26  1  0
 25 46  1  0
 27 28  2  0
M  CHG  1  24   1
M  END
>  <i_m_ct_stereo_status>  (345) 
1

>  <s_m_source_file>  (345) 
/var/tmp/pbs.5102264.sched01/tmplas2qej_/115vanlg5zy.sdf

>  <i_m_source_file_index>  (345) 
10

>  <i_lp_mmshare_version>  (345) 
48012

>  <i_f3d_flags>  (345) 
0

>  <s_epik_input>  (345) 
bjFbY0hdbltjSF1uMVtDSDJdW0NAQEhdKFtPSF0pW0NIMl1uMltjSF1jKG5uMilbQ0gyXW4zYyhbY0hdbltjSF1bY0hdNCljNGMoYzM1KVtjSF1bY0hdW2NIXVtjSF01

>  <s_epik_cmdline>  (345) 
J2VwaWtfcHl0aG9uJywgJy1waHQnLCAnMi4wJywgJy1waCcsICc3LjAnLCAnLXRuJywgJzgnLCAnLW1hJywgJzIwMCcsICctaW1hZScsICc8aW5maWxlLm1hZT4nLCAnLW9tYWUnLCAnPG91dGZpbGUubWFlPic=

>  <r_lp_tautomer_probability>  (345) 
1

>  <r_epik_Ionization_Penalty>  (345) 
0.132502

>  <r_epik_Ionization_Penalty_Charging>  (345) 
0.132468

>  <r_epik_Ionization_Penalty_Neutral>  (345) 
3.43159e-05

>  <r_epik_State_Penalty>  (345) 
0.121848

>  <r_epik_Charging_Adjusted_Penalty>  (345) 
0.254317

>  <i_epik_Tot_Q>  (345) 
1

>  <i_epik_Tot_abs_Q>  (345) 
1

>  <s_lp_Force_Field>  (345) 
OPLS3e

>  <r_lp_Energy>  (345) 
26.3126

>  <b_lp_Chiralities_Consistent>  (345) 
1

>  <s_lp_Variant>  (345) 
76:0-1

>  <s_i_glide_gridfile>  (345) 
pfpi4k_grid

>  <i_i_glide_lignum>  (345) 
10

>  <i_i_glide_rotatable_bonds>  (345) 
7

>  <r_i_docking_score>  (345) 
-4.10159

>  <r_i_glide_ligand_efficiency>  (345) 
-0.146485

>  <r_i_glide_ligand_efficiency_sa>  (345) 
-0.444815

>  <r_i_glide_ligand_efficiency_ln>  (345) 
-0.946767

>  <r_i_glide_gscore>  (345) 
-4.10159

>  <r_i_glide_lipo>  (345) 
-0.366201

>  <r_i_glide_hbond>  (345) 
-0.447762

>  <r_i_glide_metal>  (345) 
-0

>  <r_i_glide_rewards>  (345) 
-0.86869

>  <r_i_glide_evdw>  (345) 
-28.2148

>  <r_i_glide_ecoul>  (345) 
-9.84122

>  <r_i_glide_erotb>  (345) 
0.686385

>  <r_i_glide_esite>  (345) 
-0.218398

>  <r_i_glide_emodel>  (345) 
-51.6108

>  <r_i_glide_energy>  (345) 
-38.056

>  <r_i_glide_einternal>  (345) 
1.97268

>  <r_i_glide_intrahb_reward>  (345) 
-0

>  <i_i_glide_confnum>  (345) 
3

>  <i_i_glide_posenum>  (345) 
14

>  <r_i_glide_eff_state_penalty>  (345) 
0

>  <ligand_id>  (345) 
76

>  <original_smiles>  (345) 
OC(Cn1cncn1)Cn1cc(Cn2c3ccccc3c3ccncc32)nn1

>  <smiles>  (345) 
[H]OC([H])(C([H])([H])n1nc([H])nc1[H])C([H])([H])n1nnc(C([H])([H])n2c3c([H])c([H])c([H])c([H])c3c3c([H])c([H])[n+]([H])c([H])c32)c1[H]

$$$$
76:1:0
     RDKit          3D

 46 50  0  0  1  0  0  0  0  0999 V2000
    4.3734   -2.2621    0.2048 O   0  0  0  0  0  0  0  0  0  0  0  0
    5.1426   -3.3328   -0.3045 C   0  0  2  0  0  0  0  0  0  0  0  0
    4.4143   -4.0261   -1.4830 C   0  0  0  0  0  0  0  0  0  0  0  0
    4.0824   -3.1212   -2.5478 N   0  0  0  0  0  0  0  0  0  0  0  0
    4.8556   -2.5960   -3.4820 C   0  0  0  0  0  0  0  0  0  0  0  0
    4.2174   -1.7929   -4.3216 N   0  0  0  0  0  0  0  0  0  0  0  0
    2.9479   -1.9044   -3.8123 C   0  0  0  0  0  0  0  0  0  0  0  0
    2.8138   -2.6897   -2.7481 N   0  0  0  0  0  0  0  0  0  0  0  0
    5.5128   -4.2838    0.8647 C   0  0  0  0  0  0  0  0  0  0  0  0
    4.5772   -5.3712    1.0841 N   0  0  0  0  0  0  0  0  0  0  0  0
    4.8207   -6.7291    1.1619 C   0  0  0  0  0  0  0  0  0  0  0  0
    3.5791   -7.2800    1.2704 C   0  0  0  0  0  0  0  0  0  0  0  0
    3.1626   -8.7197    1.4052 C   0  0  0  0  0  0  0  0  0  0  0  0
    2.5224   -8.9550    2.6908 N   0  0  0  0  0  0  0  0  0  0  0  0
    3.1004   -9.6036    3.7935 C   0  0  0  0  0  0  0  0  0  0  0  0
    4.3751  -10.1901    3.9569 C   0  0  0  0  0  0  0  0  0  0  0  0
    4.7317  -10.8008    5.1774 C   0  0  0  0  0  0  0  0  0  0  0  0
    3.8083  -10.8249    6.2412 C   0  0  0  0  0  0  0  0  0  0  0  0
    2.5445  -10.2351    6.0723 C   0  0  0  0  0  0  0  0  0  0  0  0
    2.1658   -9.6196    4.8628 C   0  0  0  0  0  0  0  0  0  0  0  0
    0.9849   -8.9552    4.4020 C   0  0  0  0  0  0  0  0  0  0  0  0
   -0.2680   -8.6375    4.9589 C   0  0  0  0  0  0  0  0  0  0  0  0
   -1.2137   -7.9339    4.1948 C   0  0  0  0  0  0  0  0  0  0  0  0
   -0.9848   -7.5300    2.9259 N   0  0  0  0  0  0  0  0  0  0  0  0
    0.2043   -7.8602    2.3657 C   0  0  0  0  0  0  0  0  0  0  0  0
    1.2241   -8.5538    3.0637 C   0  0  0  0  0  0  0  0  0  0  0  0
    2.6444   -6.2415    1.2648 N   0  0  0  0  0  0  0  0  0  0  0  0
    3.2576   -5.1052    1.2304 N   0  0  0  0  0  0  0  0  0  0  0  0
    3.5258   -2.5906    0.4633 H   0  0  0  0  0  0  0  0  0  0  0  0
    6.0644   -2.8747   -0.6639 H   0  0  0  0  0  0  0  0  0  0  0  0
    5.0268   -4.8412   -1.8853 H   0  0  0  0  0  0  0  0  0  0  0  0
    3.4706   -4.4583   -1.1632 H   0  0  0  0  0  0  0  0  0  0  0  0
    5.9157   -2.8084   -3.5248 H   0  0  0  0  0  0  0  0  0  0  0  0
    2.1110   -1.3992   -4.2595 H   0  0  0  0  0  0  0  0  0  0  0  0
    6.4792   -4.7344    0.6395 H   0  0  0  0  0  0  0  0  0  0  0  0
    5.6360   -3.7351    1.8024 H   0  0  0  0  0  0  0  0  0  0  0  0
    5.8100   -7.1684    1.1313 H   0  0  0  0  0  0  0  0  0  0  0  0
    2.4724   -9.0443    0.6265 H   0  0  0  0  0  0  0  0  0  0  0  0
    4.0305   -9.3719    1.2994 H   0  0  0  0  0  0  0  0  0  0  0  0
    5.0799  -10.1755    3.1389 H   0  0  0  0  0  0  0  0  0  0  0  0
    5.7062  -11.2533    5.2909 H   0  0  0  0  0  0  0  0  0  0  0  0
    4.0481  -11.3037    7.1806 H   0  0  0  0  0  0  0  0  0  0  0  0
    1.8277  -10.2551    6.8771 H   0  0  0  0  0  0  0  0  0  0  0  0
   -0.4899   -8.9463    5.9665 H   0  0  0  0  0  0  0  0  0  0  0  0
   -2.1792   -7.6860    4.6131 H   0  0  0  0  0  0  0  0  0  0  0  0
    0.3497   -7.5411    1.3430 H   0  0  0  0  0  0  0  0  0  0  0  0
  1  2  1  0
  1 29  1  0
  2  3  1  0
  2  9  1  0
  2 30  1  6
  3  4  1  0
  3 31  1  0
  3 32  1  0
  4  8  1  0
  4  5  1  0
  5  6  2  0
  5 33  1  0
  6  7  1  0
  7  8  2  0
  7 34  1  0
  9 10  1  0
  9 35  1  0
  9 36  1  0
 10 28  1  0
 10 11  1  0
 11 12  2  0
 11 37  1  0
 12 13  1  0
 12 27  1  0
 13 14  1  0
 13 38  1  0
 13 39  1  0
 14 26  1  0
 14 15  1  0
 15 20  1  0
 15 16  2  0
 16 17  1  0
 16 40  1  0
 17 18  2  0
 17 41  1  0
 18 19  1  0
 18 42  1  0
 19 20  2  0
 19 43  1  0
 20 21  1  0
 21 26  2  0
 21 22  1  0
 22 23  2  0
 22 44  1  0
 23 24  1  0
 23 45  1  0
 24 25  2  0
 25 26  1  0
 25 46  1  0
 27 28  2  0
M  END
>  <i_m_ct_stereo_status>  (346) 
1

>  <s_m_source_file>  (346) 
/var/tmp/pbs.5102264.sched01/tmplas2qej_/115vanlg5zy.sdf

>  <i_m_source_file_index>  (346) 
11

>  <i_lp_mmshare_version>  (346) 
48012

>  <i_f3d_flags>  (346) 
0

>  <s_epik_input>  (346) 
bjFbY0hdbltjSF1uMVtDSDJdW0NAQEhdKFtPSF0pW0NIMl1uMltjSF1jKG5uMilbQ0gyXW4zYyhbY0hdbltjSF1bY0hdNCljNGMoYzM1KVtjSF1bY0hdW2NIXVtjSF01

>  <s_epik_cmdline>  (346) 
J2VwaWtfcHl0aG9uJywgJy1waHQnLCAnMi4wJywgJy1waCcsICc3LjAnLCAnLXRuJywgJzgnLCAnLW1hJywgJzIwMCcsICctaW1hZScsICc8aW5maWxlLm1hZT4nLCAnLW9tYWUnLCAnPG91dGZpbGUubWFlPic=

>  <r_lp_tautomer_probability>  (346) 
1

>  <r_epik_Ionization_Penalty>  (346) 
0.952569

>  <r_epik_Ionization_Penalty_Charging>  (346) 
0

>  <r_epik_Ionization_Penalty_Neutral>  (346) 
0.952569

>  <r_epik_State_Penalty>  (346) 
0.996926

>  <r_epik_Charging_Adjusted_Penalty>  (346) 
0.996926

>  <i_epik_Tot_Q>  (346) 
0

>  <i_epik_Tot_abs_Q>  (346) 
0

>  <s_lp_Force_Field>  (346) 
OPLS3e

>  <r_lp_Energy>  (346) 
22.1758

>  <b_lp_Chiralities_Consistent>  (346) 
1

>  <s_lp_Variant>  (346) 
76:0-2

>  <s_i_glide_gridfile>  (346) 
pfpi4k_grid

>  <i_i_glide_lignum>  (346) 
11

>  <i_i_glide_rotatable_bonds>  (346) 
7

>  <r_i_docking_score>  (346) 
-3.39107

>  <r_i_glide_ligand_efficiency>  (346) 
-0.121109

>  <r_i_glide_ligand_efficiency_sa>  (346) 
-0.36776

>  <r_i_glide_ligand_efficiency_ln>  (346) 
-0.782758

>  <r_i_glide_gscore>  (346) 
-3.39107

>  <r_i_glide_lipo>  (346) 
-0.27713

>  <r_i_glide_hbond>  (346) 
-0.32

>  <r_i_glide_metal>  (346) 
-0

>  <r_i_glide_rewards>  (346) 
-1.2233

>  <r_i_glide_evdw>  (346) 
-31.2184

>  <r_i_glide_ecoul>  (346) 
-4.41753

>  <r_i_glide_erotb>  (346) 
0.689695

>  <r_i_glide_esite>  (346) 
-0.036783

>  <r_i_glide_emodel>  (346) 
-41.9262

>  <r_i_glide_energy>  (346) 
-35.636

>  <r_i_glide_einternal>  (346) 
3.15075

>  <r_i_glide_intrahb_reward>  (346) 
-0

>  <i_i_glide_confnum>  (346) 
4

>  <i_i_glide_posenum>  (346) 
1

>  <r_i_glide_eff_state_penalty>  (346) 
0

>  <ligand_id>  (346) 
76

>  <original_smiles>  (346) 
OC(Cn1cncn1)Cn1cc(Cn2c3ccccc3c3ccncc32)nn1

>  <smiles>  (346) 
[H]OC([H])(C([H])([H])n1nc([H])nc1[H])C([H])([H])n1nnc(C([H])([H])n2c3c([H])nc([H])c([H])c3c3c([H])c([H])c([H])c([H])c32)c1[H]

$$$$
76:1:1
     RDKit          3D

 46 50  0  0  1  0  0  0  0  0999 V2000
    4.2176   -3.8200   -1.5756 O   0  0  0  0  0  0  0  0  0  0  0  0
    3.9608   -2.8323   -0.5898 C   0  0  2  0  0  0  0  0  0  0  0  0
    4.8971   -1.6290   -0.8418 C   0  0  0  0  0  0  0  0  0  0  0  0
    6.3025   -1.9567   -0.6580 N   0  0  0  0  0  0  0  0  0  0  0  0
    7.1293   -1.7410    0.3682 C   0  0  0  0  0  0  0  0  0  0  0  0
    8.3603   -2.1907    0.1548 N   0  0  0  0  0  0  0  0  0  0  0  0
    8.2095   -2.7299   -1.0873 C   0  0  0  0  0  0  0  0  0  0  0  0
    7.0085   -2.5802   -1.6330 N   0  0  0  0  0  0  0  0  0  0  0  0
    4.1122   -3.4146    0.8458 C   0  0  0  0  0  0  0  0  0  0  0  0
    3.5844   -4.7537    0.9650 N   0  0  0  0  0  0  0  0  0  0  0  0
    4.2365   -5.9200    1.3206 C   0  0  0  0  0  0  0  0  0  0  0  0
    3.2519   -6.8584    1.2363 C   0  0  0  0  0  0  0  0  0  0  0  0
    3.3013   -8.3452    1.4968 C   0  0  0  0  0  0  0  0  0  0  0  0
    2.6479   -8.7047    2.7528 N   0  0  0  0  0  0  0  0  0  0  0  0
    3.2638   -9.3414    3.8474 C   0  0  0  0  0  0  0  0  0  0  0  0
    4.5953   -9.7841    4.0449 C   0  0  0  0  0  0  0  0  0  0  0  0
    4.9761  -10.3901    5.2600 C   0  0  0  0  0  0  0  0  0  0  0  0
    4.0301  -10.5671    6.2872 C   0  0  0  0  0  0  0  0  0  0  0  0
    2.7083  -10.1294    6.0897 C   0  0  0  0  0  0  0  0  0  0  0  0
    2.3109   -9.5172    4.8861 C   0  0  0  0  0  0  0  0  0  0  0  0
    1.0760   -8.9721    4.4130 C   0  0  0  0  0  0  0  0  0  0  0  0
   -0.2110   -8.8253    4.9531 C   0  0  0  0  0  0  0  0  0  0  0  0
   -1.2213   -8.2302    4.1784 C   0  0  0  0  0  0  0  0  0  0  0  0
   -1.0322   -7.7849    2.9252 N   0  0  0  0  0  0  0  0  0  0  0  0
    0.1848   -7.9737    2.3773 C   0  0  0  0  0  0  0  0  0  0  0  0
    1.2930   -8.5148    3.0879 C   0  0  0  0  0  0  0  0  0  0  0  0
    2.0893   -6.2305    0.8066 N   0  0  0  0  0  0  0  0  0  0  0  0
    2.2884   -4.9543    0.6820 N   0  0  0  0  0  0  0  0  0  0  0  0
    3.5365   -4.4849   -1.5608 H   0  0  0  0  0  0  0  0  0  0  0  0
    2.9293   -2.5033   -0.7353 H   0  0  0  0  0  0  0  0  0  0  0  0
    4.7540   -1.2472   -1.8512 H   0  0  0  0  0  0  0  0  0  0  0  0
    4.6456   -0.8183   -0.1624 H   0  0  0  0  0  0  0  0  0  0  0  0
    6.8311   -1.2326    1.2727 H   0  0  0  0  0  0  0  0  0  0  0  0
    9.0138   -3.2092   -1.6335 H   0  0  0  0  0  0  0  0  0  0  0  0
    5.1531   -3.4742    1.1498 H   0  0  0  0  0  0  0  0  0  0  0  0
    3.6026   -2.7663    1.5670 H   0  0  0  0  0  0  0  0  0  0  0  0
    5.2908   -5.9784    1.5748 H   0  0  0  0  0  0  0  0  0  0  0  0
    2.8290   -8.9284    0.7090 H   0  0  0  0  0  0  0  0  0  0  0  0
    4.3345   -8.6829    1.5125 H   0  0  0  0  0  0  0  0  0  0  0  0
    5.3295   -9.6576    3.2672 H   0  0  0  0  0  0  0  0  0  0  0  0
    5.9983  -10.7215    5.4059 H   0  0  0  0  0  0  0  0  0  0  0  0
    4.2979  -11.0360    7.2256 H   0  0  0  0  0  0  0  0  0  0  0  0
    1.9719  -10.2575    6.8674 H   0  0  0  0  0  0  0  0  0  0  0  0
   -0.4340   -9.2103    5.9354 H   0  0  0  0  0  0  0  0  0  0  0  0
   -2.2137   -8.1238    4.5704 H   0  0  0  0  0  0  0  0  0  0  0  0
    0.2341   -7.6806    1.3442 H   0  0  0  0  0  0  0  0  0  0  0  0
  1  2  1  0
  1 29  1  0
  2  3  1  0
  2  9  1  0
  2 30  1  1
  3  4  1  0
  3 31  1  0
  3 32  1  0
  4  8  1  0
  4  5  1  0
  5  6  2  0
  5 33  1  0
  6  7  1  0
  7  8  2  0
  7 34  1  0
  9 10  1  0
  9 35  1  0
  9 36  1  0
 10 28  1  0
 10 11  1  0
 11 12  2  0
 11 37  1  0
 12 13  1  0
 12 27  1  0
 13 14  1  0
 13 38  1  0
 13 39  1  0
 14 26  1  0
 14 15  1  0
 15 20  1  0
 15 16  2  0
 16 17  1  0
 16 40  1  0
 17 18  2  0
 17 41  1  0
 18 19  1  0
 18 42  1  0
 19 20  2  0
 19 43  1  0
 20 21  1  0
 21 26  2  0
 21 22  1  0
 22 23  2  0
 22 44  1  0
 23 24  1  0
 23 45  1  0
 24 25  2  0
 25 26  1  0
 25 46  1  0
 27 28  2  0
M  END
>  <i_m_ct_stereo_status>  (347) 
1

>  <s_m_source_file>  (347) 
/var/tmp/pbs.5102264.sched01/tmplas2qej_/115vanlg5zy.sdf

>  <i_m_source_file_index>  (347) 
11

>  <i_lp_mmshare_version>  (347) 
48012

>  <i_f3d_flags>  (347) 
0

>  <s_epik_input>  (347) 
bjFbY0hdbltjSF1uMVtDSDJdW0NAQEhdKFtPSF0pW0NIMl1uMltjSF1jKG5uMilbQ0gyXW4zYyhbY0hdbltjSF1bY0hdNCljNGMoYzM1KVtjSF1bY0hdW2NIXVtjSF01

>  <s_epik_cmdline>  (347) 
J2VwaWtfcHl0aG9uJywgJy1waHQnLCAnMi4wJywgJy1waCcsICc3LjAnLCAnLXRuJywgJzgnLCAnLW1hJywgJzIwMCcsICctaW1hZScsICc8aW5maWxlLm1hZT4nLCAnLW9tYWUnLCAnPG91dGZpbGUubWFlPic=

>  <r_lp_tautomer_probability>  (347) 
1

>  <r_epik_Ionization_Penalty>  (347) 
0.952569

>  <r_epik_Ionization_Penalty_Charging>  (347) 
0

>  <r_epik_Ionization_Penalty_Neutral>  (347) 
0.952569

>  <r_epik_State_Penalty>  (347) 
0.996926

>  <r_epik_Charging_Adjusted_Penalty>  (347) 
0.996926

>  <i_epik_Tot_Q>  (347) 
0

>  <i_epik_Tot_abs_Q>  (347) 
0

>  <s_lp_Force_Field>  (347) 
OPLS3e

>  <r_lp_Energy>  (347) 
22.1758

>  <b_lp_Chiralities_Consistent>  (347) 
1

>  <s_lp_Variant>  (347) 
76:0-2

>  <s_i_glide_gridfile>  (347) 
pfpi4k_grid

>  <i_i_glide_lignum>  (347) 
11

>  <i_i_glide_rotatable_bonds>  (347) 
7

>  <r_i_docking_score>  (347) 
-3.33821

>  <r_i_glide_ligand_efficiency>  (347) 
-0.119222

>  <r_i_glide_ligand_efficiency_sa>  (347) 
-0.362027

>  <r_i_glide_ligand_efficiency_ln>  (347) 
-0.770556

>  <r_i_glide_gscore>  (347) 
-3.33821

>  <r_i_glide_lipo>  (347) 
-0.125335

>  <r_i_glide_hbond>  (347) 
-0.383612

>  <r_i_glide_metal>  (347) 
-0

>  <r_i_glide_rewards>  (347) 
-0.856369

>  <r_i_glide_evdw>  (347) 
-29.7448

>  <r_i_glide_ecoul>  (347) 
-6.3058

>  <r_i_glide_erotb>  (347) 
0.689695

>  <r_i_glide_esite>  (347) 
-0.229475

>  <r_i_glide_emodel>  (347) 
-41.8706

>  <r_i_glide_energy>  (347) 
-36.0506

>  <r_i_glide_einternal>  (347) 
3.76904

>  <r_i_glide_intrahb_reward>  (347) 
-0

>  <i_i_glide_confnum>  (347) 
3

>  <i_i_glide_posenum>  (347) 
31

>  <r_i_glide_eff_state_penalty>  (347) 
0

>  <ligand_id>  (347) 
76

>  <original_smiles>  (347) 
OC(Cn1cncn1)Cn1cc(Cn2c3ccccc3c3ccncc32)nn1

>  <smiles>  (347) 
[H]OC([H])(C([H])([H])n1nc([H])nc1[H])C([H])([H])n1nnc(C([H])([H])n2c3c([H])nc([H])c([H])c3c3c([H])c([H])c([H])c([H])c32)c1[H]

$$$$
76:1:2
     RDKit          3D

 46 50  0  0  1  0  0  0  0  0999 V2000
    0.1279    2.9072    3.1042 O   0  0  0  0  0  0  0  0  0  0  0  0
   -0.7093    1.7979    2.8209 C   0  0  2  0  0  0  0  0  0  0  0  0
   -1.0139    0.9833    4.1047 C   0  0  0  0  0  0  0  0  0  0  0  0
   -1.6429    1.7502    5.1537 N   0  0  0  0  0  0  0  0  0  0  0  0
   -2.1452    2.9843    5.1539 C   0  0  0  0  0  0  0  0  0  0  0  0
   -2.6234    3.3656    6.3283 N   0  0  0  0  0  0  0  0  0  0  0  0
   -2.3610    2.2417    7.0581 C   0  0  0  0  0  0  0  0  0  0  0  0
   -1.7954    1.2290    6.4004 N   0  0  0  0  0  0  0  0  0  0  0  0
   -0.0587    0.9702    1.6996 C   0  0  0  0  0  0  0  0  0  0  0  0
    1.0961    0.2047    2.1437 N   0  0  0  0  0  0  0  0  0  0  0  0
    1.1250   -0.9937    2.8301 C   0  0  0  0  0  0  0  0  0  0  0  0
    2.4538   -1.2222    3.0218 C   0  0  0  0  0  0  0  0  0  0  0  0
    3.1388   -2.3522    3.7329 C   0  0  0  0  0  0  0  0  0  0  0  0
    2.2579   -3.5053    3.8749 N   0  0  0  0  0  0  0  0  0  0  0  0
    1.4256   -3.7884    4.9679 C   0  0  0  0  0  0  0  0  0  0  0  0
    1.2215   -3.0913    6.1809 C   0  0  0  0  0  0  0  0  0  0  0  0
    0.3176   -3.5818    7.1444 C   0  0  0  0  0  0  0  0  0  0  0  0
   -0.3944   -4.7737    6.8999 C   0  0  0  0  0  0  0  0  0  0  0  0
   -0.1888   -5.4674    5.6925 C   0  0  0  0  0  0  0  0  0  0  0  0
    0.7090   -4.9927    4.7159 C   0  0  0  0  0  0  0  0  0  0  0  0
    1.1071   -5.4493    3.4202 C   0  0  0  0  0  0  0  0  0  0  0  0
    0.7625   -6.5369    2.5934 C   0  0  0  0  0  0  0  0  0  0  0  0
    1.3705   -6.6660    1.3345 C   0  0  0  0  0  0  0  0  0  0  0  0
    2.2603   -5.7731    0.8587 N   0  0  0  0  0  0  0  0  0  0  0  0
    2.6125   -4.7263    1.6403 C   0  0  0  0  0  0  0  0  0  0  0  0
    2.0579   -4.5188    2.9224 C   0  0  0  0  0  0  0  0  0  0  0  0
    3.1690   -0.1778    2.4392 N   0  0  0  0  0  0  0  0  0  0  0  0
    2.3425    0.6714    1.9113 N   0  0  0  0  0  0  0  0  0  0  0  0
    0.2127    3.4364    2.3075 H   0  0  0  0  0  0  0  0  0  0  0  0
   -1.6459    2.1939    2.4223 H   0  0  0  0  0  0  0  0  0  0  0  0
   -1.6633    0.1390    3.8642 H   0  0  0  0  0  0  0  0  0  0  0  0
   -0.0923    0.5825    4.5275 H   0  0  0  0  0  0  0  0  0  0  0  0
   -2.1522    3.6196    4.2786 H   0  0  0  0  0  0  0  0  0  0  0  0
   -2.6180    2.1753    8.1058 H   0  0  0  0  0  0  0  0  0  0  0  0
   -0.7890    0.2675    1.3042 H   0  0  0  0  0  0  0  0  0  0  0  0
    0.2246    1.6191    0.8673 H   0  0  0  0  0  0  0  0  0  0  0  0
    0.2497   -1.5471    3.1359 H   0  0  0  0  0  0  0  0  0  0  0  0
    4.0352   -2.6540    3.1924 H   0  0  0  0  0  0  0  0  0  0  0  0
    3.4709   -2.0370    4.7218 H   0  0  0  0  0  0  0  0  0  0  0  0
    1.7686   -2.1804    6.3692 H   0  0  0  0  0  0  0  0  0  0  0  0
    0.1808   -3.0460    8.0740 H   0  0  0  0  0  0  0  0  0  0  0  0
   -1.0910   -5.1641    7.6277 H   0  0  0  0  0  0  0  0  0  0  0  0
   -0.7292   -6.3782    5.4897 H   0  0  0  0  0  0  0  0  0  0  0  0
    0.0474   -7.2683    2.9414 H   0  0  0  0  0  0  0  0  0  0  0  0
    1.1134   -7.4990    0.6924 H   0  0  0  0  0  0  0  0  0  0  0  0
    3.3321   -4.0292    1.2279 H   0  0  0  0  0  0  0  0  0  0  0  0
  1  2  1  0
  1 29  1  0
  2  3  1  0
  2  9  1  0
  2 30  1  6
  3  4  1  0
  3 31  1  0
  3 32  1  0
  4  8  1  0
  4  5  1  0
  5  6  2  0
  5 33  1  0
  6  7  1  0
  7  8  2  0
  7 34  1  0
  9 10  1  0
  9 35  1  0
  9 36  1  0
 10 28  1  0
 10 11  1  0
 11 12  2  0
 11 37  1  0
 12 13  1  0
 12 27  1  0
 13 14  1  0
 13 38  1  0
 13 39  1  0
 14 26  1  0
 14 15  1  0
 15 20  1  0
 15 16  2  0
 16 17  1  0
 16 40  1  0
 17 18  2  0
 17 41  1  0
 18 19  1  0
 18 42  1  0
 19 20  2  0
 19 43  1  0
 20 21  1  0
 21 26  2  0
 21 22  1  0
 22 23  2  0
 22 44  1  0
 23 24  1  0
 23 45  1  0
 24 25  2  0
 25 26  1  0
 25 46  1  0
 27 28  2  0
M  END
>  <i_m_ct_stereo_status>  (348) 
1

>  <s_m_source_file>  (348) 
/var/tmp/pbs.5102264.sched01/tmplas2qej_/115vanlg5zy.sdf

>  <i_m_source_file_index>  (348) 
11

>  <i_lp_mmshare_version>  (348) 
48012

>  <i_f3d_flags>  (348) 
0

>  <s_epik_input>  (348) 
bjFbY0hdbltjSF1uMVtDSDJdW0NAQEhdKFtPSF0pW0NIMl1uMltjSF1jKG5uMilbQ0gyXW4zYyhbY0hdbltjSF1bY0hdNCljNGMoYzM1KVtjSF1bY0hdW2NIXVtjSF01

>  <s_epik_cmdline>  (348) 
J2VwaWtfcHl0aG9uJywgJy1waHQnLCAnMi4wJywgJy1waCcsICc3LjAnLCAnLXRuJywgJzgnLCAnLW1hJywgJzIwMCcsICctaW1hZScsICc8aW5maWxlLm1hZT4nLCAnLW9tYWUnLCAnPG91dGZpbGUubWFlPic=

>  <r_lp_tautomer_probability>  (348) 
1

>  <r_epik_Ionization_Penalty>  (348) 
0.952569

>  <r_epik_Ionization_Penalty_Charging>  (348) 
0

>  <r_epik_Ionization_Penalty_Neutral>  (348) 
0.952569

>  <r_epik_State_Penalty>  (348) 
0.996926

>  <r_epik_Charging_Adjusted_Penalty>  (348) 
0.996926

>  <i_epik_Tot_Q>  (348) 
0

>  <i_epik_Tot_abs_Q>  (348) 
0

>  <s_lp_Force_Field>  (348) 
OPLS3e

>  <r_lp_Energy>  (348) 
22.1758

>  <b_lp_Chiralities_Consistent>  (348) 
1

>  <s_lp_Variant>  (348) 
76:0-2

>  <s_i_glide_gridfile>  (348) 
pfpi4k_grid

>  <i_i_glide_lignum>  (348) 
11

>  <i_i_glide_rotatable_bonds>  (348) 
7

>  <r_i_docking_score>  (348) 
-2.94614

>  <r_i_glide_ligand_efficiency>  (348) 
-0.105219

>  <r_i_glide_ligand_efficiency_sa>  (348) 
-0.319508

>  <r_i_glide_ligand_efficiency_ln>  (348) 
-0.680056

>  <r_i_glide_gscore>  (348) 
-2.94614

>  <r_i_glide_lipo>  (348) 
-0.00637098

>  <r_i_glide_hbond>  (348) 
-0.16

>  <r_i_glide_metal>  (348) 
-0

>  <r_i_glide_rewards>  (348) 
-0.887979

>  <r_i_glide_evdw>  (348) 
-29.0389

>  <r_i_glide_ecoul>  (348) 
-6.86143

>  <r_i_glide_erotb>  (348) 
0.689695

>  <r_i_glide_esite>  (348) 
-0.100327

>  <r_i_glide_emodel>  (348) 
-41.5798

>  <r_i_glide_energy>  (348) 
-35.9003

>  <r_i_glide_einternal>  (348) 
2.99768

>  <r_i_glide_intrahb_reward>  (348) 
-0

>  <i_i_glide_confnum>  (348) 
4

>  <i_i_glide_posenum>  (348) 
2

>  <r_i_glide_eff_state_penalty>  (348) 
0

>  <ligand_id>  (348) 
76

>  <original_smiles>  (348) 
OC(Cn1cncn1)Cn1cc(Cn2c3ccccc3c3ccncc32)nn1

>  <smiles>  (348) 
[H]OC([H])(C([H])([H])n1nc([H])nc1[H])C([H])([H])n1nnc(C([H])([H])n2c3c([H])nc([H])c([H])c3c3c([H])c([H])c([H])c([H])c32)c1[H]

$$$$
77:0:0
     RDKit          3D

 69 72  0  0  1  0  0  0  0  0999 V2000
    2.7772   -9.3221    8.9444 C   0  0  0  0  0  0  0  0  0  0  0  0
    2.2178   -8.0997    8.4502 O   0  0  0  0  0  0  0  0  0  0  0  0
    1.9511   -7.8663    7.0523 C   0  0  1  0  0  0  0  0  0  0  0  0
    1.5325   -9.2051    6.3299 C   0  0  1  0  0  0  0  0  0  0  0  0
    0.3982   -9.8580    6.9017 O   0  0  0  0  0  0  0  0  0  0  0  0
    1.2991   -8.8852    4.8269 C   0  0  1  0  0  0  0  0  0  0  0  0
    0.0871   -9.5211    4.1075 C   0  0  0  0  0  0  0  0  0  0  0  0
    1.5254   -7.3902    4.5451 C   0  0  0  0  0  0  0  0  0  0  0  0
    2.7848   -6.9978    4.8074 C   0  0  0  0  0  0  0  0  0  0  0  0
    3.5090   -6.1512    3.7165 C   0  0  1  0  0  0  0  0  0  0  0  0
    5.0338   -5.9927    3.9117 C   0  0  0  0  0  0  0  0  0  0  0  0
    3.3342   -6.8953    2.3444 C   0  0  0  0  0  0  0  0  0  0  0  0
    3.8653   -6.1680    1.2375 O   0  0  0  0  0  0  0  0  0  0  0  0
    3.0511   -5.4643    0.4334 C   0  0  0  0  0  0  0  0  0  0  0  0
    3.8289   -4.5248   -0.4849 C   0  0  0  0  0  0  0  0  0  0  0  0
    1.8270   -5.4930    0.4189 O   0  0  0  0  0  0  0  0  0  0  0  0
    2.8776   -4.7247    3.6410 C   0  0  0  0  0  0  0  0  0  0  0  0
    1.3337   -4.6824    3.6052 C   0  0  0  0  0  0  0  0  0  0  0  0
    0.7090   -5.0073    4.9653 C   0  0  0  0  0  0  0  0  0  0  0  0
    0.5318   -6.5194    5.3309 C   0  0  1  0  0  0  0  0  0  0  0  0
   -0.7905   -6.7734    4.8789 O   0  0  0  0  0  0  0  0  0  0  0  0
    0.6908   -6.8992    6.8749 C   0  0  2  0  0  0  0  0  0  0  0  0
    0.4390   -5.8010    7.9836 C   0  0  1  0  0  0  0  0  0  0  0  0
   -0.8899   -5.0254    7.8114 C   0  0  0  0  0  0  0  0  0  0  0  0
    0.2208   -6.4893    9.2021 O   0  0  0  0  0  0  0  0  0  0  0  0
    1.5884   -4.8060    8.2773 C   0  0  0  0  0  0  0  0  0  0  0  0
    3.0186   -5.3708    8.3335 C   0  0  0  0  0  0  0  0  0  0  0  0
    3.6389   -5.8184    6.9872 C   0  0  1  0  0  0  0  0  0  0  0  0
    5.0332   -5.7444    7.2296 O   0  0  0  0  0  0  0  0  0  0  0  0
    3.2184   -7.1899    6.3068 C   0  0  1  0  0  0  0  0  0  0  0  0
    4.4283   -8.1737    6.2949 C   0  0  0  0  0  0  0  0  0  0  0  0
    3.0728   -9.1373    9.9809 H   0  0  0  0  0  0  0  0  0  0  0  0
    3.6678   -9.6755    8.4227 H   0  0  0  0  0  0  0  0  0  0  0  0
    2.0413  -10.1317    8.9783 H   0  0  0  0  0  0  0  0  0  0  0  0
    2.3197   -9.9474    6.4123 H   0  0  0  0  0  0  0  0  0  0  0  0
    0.6282  -10.7666    7.0806 H   0  0  0  0  0  0  0  0  0  0  0  0
    2.1403   -9.3503    4.3122 H   0  0  0  0  0  0  0  0  0  0  0  0
    0.0493   -9.2084    3.0637 H   0  0  0  0  0  0  0  0  0  0  0  0
   -0.8691   -9.2705    4.5635 H   0  0  0  0  0  0  0  0  0  0  0  0
    0.1591  -10.6097    4.1139 H   0  0  0  0  0  0  0  0  0  0  0  0
    5.4851   -5.4379    3.0906 H   0  0  0  0  0  0  0  0  0  0  0  0
    5.5499   -6.9477    3.9163 H   0  0  0  0  0  0  0  0  0  0  0  0
    5.2899   -5.4358    4.8071 H   0  0  0  0  0  0  0  0  0  0  0  0
    3.8698   -7.8455    2.3910 H   0  0  0  0  0  0  0  0  0  0  0  0
    2.2949   -7.1656    2.1534 H   0  0  0  0  0  0  0  0  0  0  0  0
    4.5194   -5.0784   -1.1260 H   0  0  0  0  0  0  0  0  0  0  0  0
    4.3989   -3.8019    0.1031 H   0  0  0  0  0  0  0  0  0  0  0  0
    3.1368   -3.9693   -1.1265 H   0  0  0  0  0  0  0  0  0  0  0  0
    3.2351   -4.0967    4.4579 H   0  0  0  0  0  0  0  0  0  0  0  0
    3.2551   -4.1816    2.7730 H   0  0  0  0  0  0  0  0  0  0  0  0
    1.0517   -3.6649    3.3445 H   0  0  0  0  0  0  0  0  0  0  0  0
    0.9085   -5.3139    2.8284 H   0  0  0  0  0  0  0  0  0  0  0  0
    1.3381   -4.5152    5.6832 H   0  0  0  0  0  0  0  0  0  0  0  0
   -0.2488   -4.4961    5.0107 H   0  0  0  0  0  0  0  0  0  0  0  0
   -0.9340   -7.7098    4.9365 H   0  0  0  0  0  0  0  0  0  0  0  0
   -0.1737   -7.5310    7.0585 H   0  0  0  0  0  0  0  0  0  0  0  0
   -0.8204   -4.2516    7.0558 H   0  0  0  0  0  0  0  0  0  0  0  0
   -1.1784   -4.5240    8.7334 H   0  0  0  0  0  0  0  0  0  0  0  0
   -1.7069   -5.6825    7.5352 H   0  0  0  0  0  0  0  0  0  0  0  0
    0.9942   -7.0209    9.3627 H   0  0  0  0  0  0  0  0  0  0  0  0
    1.5665   -3.9503    7.6073 H   0  0  0  0  0  0  0  0  0  0  0  0
    1.3804   -4.3403    9.2435 H   0  0  0  0  0  0  0  0  0  0  0  0
    3.6099   -4.5262    8.6865 H   0  0  0  0  0  0  0  0  0  0  0  0
    3.1345   -6.0993    9.1325 H   0  0  0  0  0  0  0  0  0  0  0  0
    3.4358   -5.0070    6.3063 H   0  0  0  0  0  0  0  0  0  0  0  0
    5.2644   -6.4184    7.8492 H   0  0  0  0  0  0  0  0  0  0  0  0
    4.8120   -8.3870    7.2900 H   0  0  0  0  0  0  0  0  0  0  0  0
    5.2864   -7.7902    5.7500 H   0  0  0  0  0  0  0  0  0  0  0  0
    4.2022   -9.1162    5.7991 H   0  0  0  0  0  0  0  0  0  0  0  0
  1  2  1  0
  1 32  1  0
  1 33  1  0
  1 34  1  0
  3  2  1  1
  3 22  1  0
  3 30  1  0
  3  4  1  0
  4  5  1  0
  4  6  1  0
  4 35  1  6
  5 36  1  0
  6  7  1  0
  6  8  1  0
  6 37  1  6
  7 38  1  0
  7 39  1  0
  7 40  1  0
  8 20  1  0
  8  9  2  0
  9 30  1  0
  9 10  1  0
 10 11  1  1
 10 12  1  0
 10 17  1  0
 11 41  1  0
 11 42  1  0
 11 43  1  0
 12 13  1  0
 12 44  1  0
 12 45  1  0
 13 14  1  0
 14 15  1  0
 14 16  2  0
 15 46  1  0
 15 47  1  0
 15 48  1  0
 17 18  1  0
 17 49  1  0
 17 50  1  0
 18 19  1  0
 18 51  1  0
 18 52  1  0
 19 20  1  0
 19 53  1  0
 19 54  1  0
 20 21  1  6
 20 22  1  0
 21 55  1  0
 22 23  1  0
 22 56  1  1
 23 24  1  0
 23 25  1  1
 23 26  1  0
 24 57  1  0
 24 58  1  0
 24 59  1  0
 25 60  1  0
 26 27  1  0
 26 61  1  0
 26 62  1  0
 27 28  1  0
 27 63  1  0
 27 64  1  0
 28 29  1  0
 28 30  1  0
 28 65  1  6
 29 66  1  0
 30 31  1  6
 31 67  1  0
 31 68  1  0
 31 69  1  0
M  END
>  <i_m_ct_stereo_status>  (349) 
1

>  <s_m_source_file>  (349) 
/var/tmp/pbs.5102264.sched01/tmplas2qej_/115vanlg5zy.sdf

>  <i_m_source_file_index>  (349) 
12

>  <i_lp_mmshare_version>  (349) 
48012

>  <i_f3d_flags>  (349) 
0

>  <s_epik_input>  (349) 
W0NIM11PW0NAXTEyW0NAQEhdM1tDQF00KFtPSF0pQyhbQ0BIXShbQ0gzXSlbQ0BASF0xW09IXSk9QyhbQ0BdKFtDSDNdKShbQ0gyXVtDSDJdW0NIMl00KVtDSDJdT0MoPU8pW0NIM10pW0NAQF0yKFtDSDNdKVtDQEhdKFtPSF0pW0NIMl1bQ0gyXVtDQF0zKFtDSDNdKVtPSF0=

>  <s_epik_cmdline>  (349) 
J2VwaWtfcHl0aG9uJywgJy1waHQnLCAnMi4wJywgJy1waCcsICc3LjAnLCAnLXRuJywgJzgnLCAnLW1hJywgJzIwMCcsICctaW1hZScsICc8aW5maWxlLm1hZT4nLCAnLW9tYWUnLCAnPG91dGZpbGUubWFlPic=

>  <r_lp_tautomer_probability>  (349) 
1

>  <r_epik_Ionization_Penalty>  (349) 
4.66968e-07

>  <r_epik_Ionization_Penalty_Charging>  (349) 
0

>  <r_epik_Ionization_Penalty_Neutral>  (349) 
4.66968e-07

>  <r_epik_State_Penalty>  (349) 
-0

>  <r_epik_Charging_Adjusted_Penalty>  (349) 
0

>  <i_epik_Tot_Q>  (349) 
0

>  <i_epik_Tot_abs_Q>  (349) 
0

>  <s_epik_Chemistry_Notes>  (349) 
This compound has an ester and may undergo hydrolysis at high or low pH.

>  <s_lp_Force_Field>  (349) 
OPLS3e

>  <r_lp_Energy>  (349) 
136.344

>  <b_lp_Chiralities_Consistent>  (349) 
1

>  <s_lp_Variant>  (349) 
77:0-1

>  <s_i_glide_gridfile>  (349) 
pfpi4k_grid

>  <i_i_glide_lignum>  (349) 
12

>  <i_i_glide_rotatable_bonds>  (349) 
8

>  <r_i_docking_score>  (349) 
-3.14326

>  <r_i_glide_ligand_efficiency>  (349) 
-0.101396

>  <r_i_glide_ligand_efficiency_sa>  (349) 
-0.318522

>  <r_i_glide_ligand_efficiency_ln>  (349) 
-0.708902

>  <r_i_glide_gscore>  (349) 
-3.14326

>  <r_i_glide_lipo>  (349) 
-0.0582913

>  <r_i_glide_hbond>  (349) 
-0.0900642

>  <r_i_glide_metal>  (349) 
-0

>  <r_i_glide_rewards>  (349) 
-0.918948

>  <r_i_glide_evdw>  (349) 
-17.0094

>  <r_i_glide_ecoul>  (349) 
-9.36844

>  <r_i_glide_erotb>  (349) 
0.207464

>  <r_i_glide_esite>  (349) 
-0.0276893

>  <r_i_glide_emodel>  (349) 
-35.7498

>  <r_i_glide_energy>  (349) 
-26.3778

>  <r_i_glide_einternal>  (349) 
3.15178

>  <r_i_glide_intrahb_reward>  (349) 
-0.5

>  <i_i_glide_confnum>  (349) 
3

>  <i_i_glide_posenum>  (349) 
34

>  <r_i_glide_eff_state_penalty>  (349) 
0

>  <ligand_id>  (349) 
77

>  <original_smiles>  (349) 
COC12C(O)C(C)C3=C4C(C)(COC(C)=O)CCCC3(O)C1C(C)(O)CCC(O)C42C

>  <smiles>  (349) 
[H]OC1([H])C([H])(C([H])([H])[H])C2=C3C(C([H])([H])[H])(C([H])([H])OC(=O)C([H])([H])[H])C([H])([H])C([H])([H])C([H])([H])C2(O[H])C2([H])C(O[H])(C([H])([H])[H])C([H])([H])C([H])([H])C([H])(O[H])C3(C([H])([H])[H])C12OC([H])([H])[H]

$$$$
77:0:1
     RDKit          3D

 69 72  0  0  1  0  0  0  0  0999 V2000
    5.4126   -2.9371    5.3908 C   0  0  0  0  0  0  0  0  0  0  0  0
    4.6817   -2.2627    4.3686 O   0  0  0  0  0  0  0  0  0  0  0  0
    3.7845   -1.1663    4.6368 C   0  0  1  0  0  0  0  0  0  0  0  0
    4.4077   -0.1905    5.7023 C   0  0  1  0  0  0  0  0  0  0  0  0
    5.6646    0.3392    5.3135 O   0  0  0  0  0  0  0  0  0  0  0  0
    3.3993    0.9572    5.9771 C   0  0  1  0  0  0  0  0  0  0  0  0
    3.9429    2.4037    6.1021 C   0  0  0  0  0  0  0  0  0  0  0  0
    2.1473    0.7772    5.1006 C   0  0  0  0  0  0  0  0  0  0  0  0
    1.4884   -0.3666    5.3654 C   0  0  0  0  0  0  0  0  0  0  0  0
   -0.0459   -0.2661    5.5950 C   0  0  1  0  0  0  0  0  0  0  0  0
   -0.7255   -1.5220    6.1821 C   0  0  0  0  0  0  0  0  0  0  0  0
   -0.2878    0.8700    6.6344 C   0  0  0  0  0  0  0  0  0  0  0  0
   -1.6766    1.0942    6.8934 O   0  0  0  0  0  0  0  0  0  0  0  0
   -2.1815    2.3202    7.1630 C   0  0  0  0  0  0  0  0  0  0  0  0
   -1.1582    3.4533    7.2218 C   0  0  0  0  0  0  0  0  0  0  0  0
   -3.3751    2.5448    7.3498 O   0  0  0  0  0  0  0  0  0  0  0  0
   -0.7846    0.1258    4.2781 C   0  0  0  0  0  0  0  0  0  0  0  0
   -0.1294    1.2311    3.4151 C   0  0  0  0  0  0  0  0  0  0  0  0
    1.1813    0.7836    2.7419 C   0  0  0  0  0  0  0  0  0  0  0  0
    2.4868    0.8657    3.6067 C   0  0  1  0  0  0  0  0  0  0  0  0
    2.9484    2.1756    3.3023 O   0  0  0  0  0  0  0  0  0  0  0  0
    3.6022   -0.2524    3.3324 C   0  0  2  0  0  0  0  0  0  0  0  0
    3.6616   -0.9739    1.9283 C   0  0  1  0  0  0  0  0  0  0  0  0
    3.6496    0.0007    0.7334 C   0  0  0  0  0  0  0  0  0  0  0  0
    4.9448   -1.5607    1.8100 O   0  0  0  0  0  0  0  0  0  0  0  0
    2.6644   -2.1280    1.6698 C   0  0  0  0  0  0  0  0  0  0  0  0
    2.4230   -3.1262    2.8143 C   0  0  0  0  0  0  0  0  0  0  0  0
    1.6317   -2.6020    4.0379 C   0  0  1  0  0  0  0  0  0  0  0  0
    1.0905   -3.7781    4.6192 O   0  0  0  0  0  0  0  0  0  0  0  0
    2.3244   -1.6680    5.1148 C   0  0  1  0  0  0  0  0  0  0  0  0
    2.4321   -2.3919    6.4912 C   0  0  0  0  0  0  0  0  0  0  0  0
    5.8130   -3.8489    4.9403 H   0  0  0  0  0  0  0  0  0  0  0  0
    4.8383   -3.2146    6.2659 H   0  0  0  0  0  0  0  0  0  0  0  0
    6.2877   -2.3608    5.6997 H   0  0  0  0  0  0  0  0  0  0  0  0
    4.6098   -0.7129    6.6318 H   0  0  0  0  0  0  0  0  0  0  0  0
    6.2742   -0.3806    5.1957 H   0  0  0  0  0  0  0  0  0  0  0  0
    3.0262    0.7655    6.9803 H   0  0  0  0  0  0  0  0  0  0  0  0
    3.1276    3.1037    6.2857 H   0  0  0  0  0  0  0  0  0  0  0  0
    4.4746    2.7436    5.2116 H   0  0  0  0  0  0  0  0  0  0  0  0
    4.6375    2.4944    6.9418 H   0  0  0  0  0  0  0  0  0  0  0  0
   -1.7891   -1.3539    6.3304 H   0  0  0  0  0  0  0  0  0  0  0  0
   -0.3283   -1.7651    7.1637 H   0  0  0  0  0  0  0  0  0  0  0  0
   -0.6697   -2.3863    5.5284 H   0  0  0  0  0  0  0  0  0  0  0  0
    0.1990    0.6125    7.5814 H   0  0  0  0  0  0  0  0  0  0  0  0
    0.1708    1.7825    6.2491 H   0  0  0  0  0  0  0  0  0  0  0  0
   -0.6657    3.5669    6.2523 H   0  0  0  0  0  0  0  0  0  0  0  0
   -0.4053    3.2347    7.9803 H   0  0  0  0  0  0  0  0  0  0  0  0
   -1.6357    4.3969    7.4888 H   0  0  0  0  0  0  0  0  0  0  0  0
   -0.9215   -0.7644    3.6688 H   0  0  0  0  0  0  0  0  0  0  0  0
   -1.8077    0.4467    4.4908 H   0  0  0  0  0  0  0  0  0  0  0  0
   -0.8293    1.4680    2.6147 H   0  0  0  0  0  0  0  0  0  0  0  0
    0.0026    2.1654    3.9637 H   0  0  0  0  0  0  0  0  0  0  0  0
    1.0002   -0.2222    2.4025 H   0  0  0  0  0  0  0  0  0  0  0  0
    1.2973    1.3768    1.8367 H   0  0  0  0  0  0  0  0  0  0  0  0
    3.6189    2.1213    2.6339 H   0  0  0  0  0  0  0  0  0  0  0  0
    4.5112    0.3426    3.2457 H   0  0  0  0  0  0  0  0  0  0  0  0
    2.6399    0.3362    0.5261 H   0  0  0  0  0  0  0  0  0  0  0  0
    3.9983   -0.4833   -0.1813 H   0  0  0  0  0  0  0  0  0  0  0  0
    4.2793    0.8735    0.8996 H   0  0  0  0  0  0  0  0  0  0  0  0
    5.0394   -2.1870    2.5218 H   0  0  0  0  0  0  0  0  0  0  0  0
    1.7081   -1.7661    1.3030 H   0  0  0  0  0  0  0  0  0  0  0  0
    3.0268   -2.6952    0.8108 H   0  0  0  0  0  0  0  0  0  0  0  0
    1.8148   -3.9066    2.3576 H   0  0  0  0  0  0  0  0  0  0  0  0
    3.3345   -3.6557    3.0873 H   0  0  0  0  0  0  0  0  0  0  0  0
    0.7739   -2.0894    3.6203 H   0  0  0  0  0  0  0  0  0  0  0  0
    1.8140   -4.3035    4.9509 H   0  0  0  0  0  0  0  0  0  0  0  0
    3.0243   -3.3002    6.4342 H   0  0  0  0  0  0  0  0  0  0  0  0
    1.4638   -2.6940    6.8906 H   0  0  0  0  0  0  0  0  0  0  0  0
    2.8360   -1.7535    7.2771 H   0  0  0  0  0  0  0  0  0  0  0  0
  1  2  1  0
  1 32  1  0
  1 33  1  0
  1 34  1  0
  3  2  1  6
  3 22  1  0
  3 30  1  0
  3  4  1  0
  4  5  1  0
  4  6  1  0
  4 35  1  1
  5 36  1  0
  6  7  1  0
  6  8  1  0
  6 37  1  1
  7 38  1  0
  7 39  1  0
  7 40  1  0
  8 20  1  0
  8  9  2  0
  9 30  1  0
  9 10  1  0
 10 11  1  1
 10 12  1  0
 10 17  1  0
 11 41  1  0
 11 42  1  0
 11 43  1  0
 12 13  1  0
 12 44  1  0
 12 45  1  0
 13 14  1  0
 14 15  1  0
 14 16  2  0
 15 46  1  0
 15 47  1  0
 15 48  1  0
 17 18  1  0
 17 49  1  0
 17 50  1  0
 18 19  1  0
 18 51  1  0
 18 52  1  0
 19 20  1  0
 19 53  1  0
 19 54  1  0
 20 21  1  1
 20 22  1  0
 21 55  1  0
 22 23  1  0
 22 56  1  6
 23 24  1  0
 23 25  1  1
 23 26  1  0
 24 57  1  0
 24 58  1  0
 24 59  1  0
 25 60  1  0
 26 27  1  0
 26 61  1  0
 26 62  1  0
 27 28  1  0
 27 63  1  0
 27 64  1  0
 28 29  1  0
 28 30  1  0
 28 65  1  6
 29 66  1  0
 30 31  1  1
 31 67  1  0
 31 68  1  0
 31 69  1  0
M  END
>  <i_m_ct_stereo_status>  (350) 
1

>  <s_m_source_file>  (350) 
/var/tmp/pbs.5102264.sched01/tmplas2qej_/115vanlg5zy.sdf

>  <i_m_source_file_index>  (350) 
12

>  <i_lp_mmshare_version>  (350) 
48012

>  <i_f3d_flags>  (350) 
0

>  <s_epik_input>  (350) 
W0NIM11PW0NAXTEyW0NAQEhdM1tDQF00KFtPSF0pQyhbQ0BIXShbQ0gzXSlbQ0BASF0xW09IXSk9QyhbQ0BdKFtDSDNdKShbQ0gyXVtDSDJdW0NIMl00KVtDSDJdT0MoPU8pW0NIM10pW0NAQF0yKFtDSDNdKVtDQEhdKFtPSF0pW0NIMl1bQ0gyXVtDQF0zKFtDSDNdKVtPSF0=

>  <s_epik_cmdline>  (350) 
J2VwaWtfcHl0aG9uJywgJy1waHQnLCAnMi4wJywgJy1waCcsICc3LjAnLCAnLXRuJywgJzgnLCAnLW1hJywgJzIwMCcsICctaW1hZScsICc8aW5maWxlLm1hZT4nLCAnLW9tYWUnLCAnPG91dGZpbGUubWFlPic=

>  <r_lp_tautomer_probability>  (350) 
1

>  <r_epik_Ionization_Penalty>  (350) 
4.66968e-07

>  <r_epik_Ionization_Penalty_Charging>  (350) 
0

>  <r_epik_Ionization_Penalty_Neutral>  (350) 
4.66968e-07

>  <r_epik_State_Penalty>  (350) 
-0

>  <r_epik_Charging_Adjusted_Penalty>  (350) 
0

>  <i_epik_Tot_Q>  (350) 
0

>  <i_epik_Tot_abs_Q>  (350) 
0

>  <s_epik_Chemistry_Notes>  (350) 
This compound has an ester and may undergo hydrolysis at high or low pH.

>  <s_lp_Force_Field>  (350) 
OPLS3e

>  <r_lp_Energy>  (350) 
136.344

>  <b_lp_Chiralities_Consistent>  (350) 
1

>  <s_lp_Variant>  (350) 
77:0-1

>  <s_i_glide_gridfile>  (350) 
pfpi4k_grid

>  <i_i_glide_lignum>  (350) 
12

>  <i_i_glide_rotatable_bonds>  (350) 
8

>  <r_i_docking_score>  (350) 
-2.7574

>  <r_i_glide_ligand_efficiency>  (350) 
-0.0889484

>  <r_i_glide_ligand_efficiency_sa>  (350) 
-0.279421

>  <r_i_glide_ligand_efficiency_ln>  (350) 
-0.621878

>  <r_i_glide_gscore>  (350) 
-2.7574

>  <r_i_glide_lipo>  (350) 
-0.0623386

>  <r_i_glide_hbond>  (350) 
-0.417143

>  <r_i_glide_metal>  (350) 
-0

>  <r_i_glide_rewards>  (350) 
-0.940077

>  <r_i_glide_evdw>  (350) 
-20.7832

>  <r_i_glide_ecoul>  (350) 
-3.3743

>  <r_i_glide_erotb>  (350) 
0.207464

>  <r_i_glide_esite>  (350) 
0

>  <r_i_glide_emodel>  (350) 
-29.6792

>  <r_i_glide_energy>  (350) 
-24.1575

>  <r_i_glide_einternal>  (350) 
8.07626

>  <r_i_glide_intrahb_reward>  (350) 
-0.5

>  <i_i_glide_confnum>  (350) 
3

>  <i_i_glide_posenum>  (350) 
25

>  <r_i_glide_eff_state_penalty>  (350) 
0

>  <ligand_id>  (350) 
77

>  <original_smiles>  (350) 
COC12C(O)C(C)C3=C4C(C)(COC(C)=O)CCCC3(O)C1C(C)(O)CCC(O)C42C

>  <smiles>  (350) 
[H]OC1([H])C([H])(C([H])([H])[H])C2=C3C(C([H])([H])[H])(C([H])([H])OC(=O)C([H])([H])[H])C([H])([H])C([H])([H])C([H])([H])C2(O[H])C2([H])C(O[H])(C([H])([H])[H])C([H])([H])C([H])([H])C([H])(O[H])C3(C([H])([H])[H])C12OC([H])([H])[H]

$$$$
77:0:2
     RDKit          3D

 69 72  0  0  1  0  0  0  0  0999 V2000
    2.1024   -9.5339    8.6751 C   0  0  0  0  0  0  0  0  0  0  0  0
    1.7332   -8.2527    8.1577 O   0  0  0  0  0  0  0  0  0  0  0  0
    1.5951   -7.9938    6.7458 C   0  0  1  0  0  0  0  0  0  0  0  0
    1.0763   -9.2750    5.9832 C   0  0  1  0  0  0  0  0  0  0  0  0
   -0.1908   -9.7146    6.4711 O   0  0  0  0  0  0  0  0  0  0  0  0
    0.9789   -8.9476    4.4672 C   0  0  1  0  0  0  0  0  0  0  0  0
   -0.2495   -9.4550    3.6765 C   0  0  0  0  0  0  0  0  0  0  0  0
    1.3759   -7.4877    4.2118 C   0  0  0  0  0  0  0  0  0  0  0  0
    2.6604   -7.2347    4.5665 C   0  0  0  0  0  0  0  0  0  0  0  0
    3.5376   -6.4676    3.5319 C   0  0  1  0  0  0  0  0  0  0  0  0
    5.0562   -6.4854    3.8311 C   0  0  0  0  0  0  0  0  0  0  0  0
    3.3725   -7.1642    2.1342 C   0  0  0  0  0  0  0  0  0  0  0  0
    4.0985   -6.5380    1.0896 O   0  0  0  0  0  0  0  0  0  0  0  0
    3.5948   -5.5524    0.3648 C   0  0  0  0  0  0  0  0  0  0  0  0
    4.5782   -4.8571   -0.5201 C   0  0  0  0  0  0  0  0  0  0  0  0
    2.3666   -5.1895    0.3973 O   0  0  0  0  0  0  0  0  0  0  0  0
    3.0832   -4.9712    3.4321 C   0  0  0  0  0  0  0  0  0  0  0  0
    1.5479   -4.7737    3.2963 C   0  0  0  0  0  0  0  0  0  0  0  0
    0.7852   -5.0279    4.6025 C   0  0  0  0  0  0  0  0  0  0  0  0
    0.4344   -6.5102    4.9403 C   0  0  1  0  0  0  0  0  0  0  0  0
   -0.8853   -6.6505    4.4214 O   0  0  0  0  0  0  0  0  0  0  0  0
    0.4655   -6.8873    6.4884 C   0  0  2  0  0  0  0  0  0  0  0  0
    0.2536   -5.7690    7.5843 C   0  0  1  0  0  0  0  0  0  0  0  0
   -0.9779   -4.8717    7.3263 C   0  0  0  0  0  0  0  0  0  0  0  0
   -0.0987   -6.4256    8.7924 O   0  0  0  0  0  0  0  0  0  0  0  0
    1.4787   -4.9056    7.9580 C   0  0  0  0  0  0  0  0  0  0  0  0
    2.8322   -5.6231    8.1078 C   0  0  0  0  0  0  0  0  0  0  0  0
    3.4870   -6.1492    6.8063 C   0  0  1  0  0  0  0  0  0  0  0  0
    4.8663   -6.2259    7.1303 O   0  0  0  0  0  0  0  0  0  0  0  0
    2.9695   -7.4730    6.0921 C   0  0  1  0  0  0  0  0  0  0  0  0
    4.0510   -8.5937    6.1655 C   0  0  0  0  0  0  0  0  0  0  0  0
    2.3750   -9.3919    9.7251 H   0  0  0  0  0  0  0  0  0  0  0  0
    2.9585   -9.9986    8.1820 H   0  0  0  0  0  0  0  0  0  0  0  0
    1.2617  -10.2343    8.6621 H   0  0  0  0  0  0  0  0  0  0  0  0
    1.7408  -10.1251    6.1234 H   0  0  0  0  0  0  0  0  0  0  0  0
   -0.5204  -10.3930    5.8998 H   0  0  0  0  0  0  0  0  0  0  0  0
    1.7951   -9.5071    4.0147 H   0  0  0  0  0  0  0  0  0  0  0  0
   -0.1861   -9.1415    2.6350 H   0  0  0  0  0  0  0  0  0  0  0  0
   -1.2029   -9.1032    4.0702 H   0  0  0  0  0  0  0  0  0  0  0  0
   -0.2883  -10.5435    3.6805 H   0  0  0  0  0  0  0  0  0  0  0  0
    5.6136   -5.9855    3.0399 H   0  0  0  0  0  0  0  0  0  0  0  0
    5.4596   -7.4929    3.8759 H   0  0  0  0  0  0  0  0  0  0  0  0
    5.3169   -5.9505    4.7384 H   0  0  0  0  0  0  0  0  0  0  0  0
    3.7422   -8.1795    2.2193 H   0  0  0  0  0  0  0  0  0  0  0  0
    2.3217   -7.2707    1.8438 H   0  0  0  0  0  0  0  0  0  0  0  0
    5.0066   -5.5297   -1.2886 H   0  0  0  0  0  0  0  0  0  0  0  0
    5.4043   -4.4614    0.0866 H   0  0  0  0  0  0  0  0  0  0  0  0
    4.1196   -4.0104   -1.0420 H   0  0  0  0  0  0  0  0  0  0  0  0
    3.4227   -4.4069    4.3192 H   0  0  0  0  0  0  0  0  0  0  0  0
    3.5720   -4.5069    2.5695 H   0  0  0  0  0  0  0  0  0  0  0  0
    1.3905   -3.7375    3.0193 H   0  0  0  0  0  0  0  0  0  0  0  0
    1.1119   -5.3663    2.4961 H   0  0  0  0  0  0  0  0  0  0  0  0
    1.4115   -4.6041    5.3648 H   0  0  0  0  0  0  0  0  0  0  0  0
   -0.1171   -4.4223    4.5815 H   0  0  0  0  0  0  0  0  0  0  0  0
   -1.1381   -7.5520    4.5294 H   0  0  0  0  0  0  0  0  0  0  0  0
   -0.4794   -7.4011    6.6035 H   0  0  0  0  0  0  0  0  0  0  0  0
   -0.7796   -4.1116    6.5824 H   0  0  0  0  0  0  0  0  0  0  0  0
   -1.2734   -4.3375    8.2276 H   0  0  0  0  0  0  0  0  0  0  0  0
   -1.8358   -5.4506    6.9935 H   0  0  0  0  0  0  0  0  0  0  0  0
    0.6084   -7.0224    9.0031 H   0  0  0  0  0  0  0  0  0  0  0  0
    1.5937   -4.0566    7.2913 H   0  0  0  0  0  0  0  0  0  0  0  0
    1.2614   -4.4167    8.9086 H   0  0  0  0  0  0  0  0  0  0  0  0
    3.4909   -4.8471    8.4978 H   0  0  0  0  0  0  0  0  0  0  0  0
    2.8185   -6.3566    8.9100 H   0  0  0  0  0  0  0  0  0  0  0  0
    3.4171   -5.3266    6.1194 H   0  0  0  0  0  0  0  0  0  0  0  0
    4.9836   -6.8975    7.7775 H   0  0  0  0  0  0  0  0  0  0  0  0
    4.2916   -8.8676    7.1931 H   0  0  0  0  0  0  0  0  0  0  0  0
    4.9951   -8.3000    5.7151 H   0  0  0  0  0  0  0  0  0  0  0  0
    3.7522   -9.4916    5.6235 H   0  0  0  0  0  0  0  0  0  0  0  0
  1  2  1  0
  1 32  1  0
  1 33  1  0
  1 34  1  0
  3  2  1  1
  3 22  1  0
  3 30  1  0
  3  4  1  0
  4  5  1  0
  4  6  1  0
  4 35  1  6
  5 36  1  0
  6  7  1  0
  6  8  1  0
  6 37  1  6
  7 38  1  0
  7 39  1  0
  7 40  1  0
  8 20  1  0
  8  9  2  0
  9 30  1  0
  9 10  1  0
 10 11  1  1
 10 12  1  0
 10 17  1  0
 11 41  1  0
 11 42  1  0
 11 43  1  0
 12 13  1  0
 12 44  1  0
 12 45  1  0
 13 14  1  0
 14 15  1  0
 14 16  2  0
 15 46  1  0
 15 47  1  0
 15 48  1  0
 17 18  1  0
 17 49  1  0
 17 50  1  0
 18 19  1  0
 18 51  1  0
 18 52  1  0
 19 20  1  0
 19 53  1  0
 19 54  1  0
 20 21  1  6
 20 22  1  0
 21 55  1  0
 22 23  1  0
 22 56  1  6
 23 24  1  0
 23 25  1  1
 23 26  1  0
 24 57  1  0
 24 58  1  0
 24 59  1  0
 25 60  1  0
 26 27  1  0
 26 61  1  0
 26 62  1  0
 27 28  1  0
 27 63  1  0
 27 64  1  0
 28 29  1  0
 28 30  1  0
 28 65  1  6
 29 66  1  0
 30 31  1  6
 31 67  1  0
 31 68  1  0
 31 69  1  0
M  END
>  <i_m_ct_stereo_status>  (351) 
1

>  <s_m_source_file>  (351) 
/var/tmp/pbs.5102264.sched01/tmplas2qej_/115vanlg5zy.sdf

>  <i_m_source_file_index>  (351) 
12

>  <i_lp_mmshare_version>  (351) 
48012

>  <i_f3d_flags>  (351) 
0

>  <s_epik_input>  (351) 
W0NIM11PW0NAXTEyW0NAQEhdM1tDQF00KFtPSF0pQyhbQ0BIXShbQ0gzXSlbQ0BASF0xW09IXSk9QyhbQ0BdKFtDSDNdKShbQ0gyXVtDSDJdW0NIMl00KVtDSDJdT0MoPU8pW0NIM10pW0NAQF0yKFtDSDNdKVtDQEhdKFtPSF0pW0NIMl1bQ0gyXVtDQF0zKFtDSDNdKVtPSF0=

>  <s_epik_cmdline>  (351) 
J2VwaWtfcHl0aG9uJywgJy1waHQnLCAnMi4wJywgJy1waCcsICc3LjAnLCAnLXRuJywgJzgnLCAnLW1hJywgJzIwMCcsICctaW1hZScsICc8aW5maWxlLm1hZT4nLCAnLW9tYWUnLCAnPG91dGZpbGUubWFlPic=

>  <r_lp_tautomer_probability>  (351) 
1

>  <r_epik_Ionization_Penalty>  (351) 
4.66968e-07

>  <r_epik_Ionization_Penalty_Charging>  (351) 
0

>  <r_epik_Ionization_Penalty_Neutral>  (351) 
4.66968e-07

>  <r_epik_State_Penalty>  (351) 
-0

>  <r_epik_Charging_Adjusted_Penalty>  (351) 
0

>  <i_epik_Tot_Q>  (351) 
0

>  <i_epik_Tot_abs_Q>  (351) 
0

>  <s_epik_Chemistry_Notes>  (351) 
This compound has an ester and may undergo hydrolysis at high or low pH.

>  <s_lp_Force_Field>  (351) 
OPLS3e

>  <r_lp_Energy>  (351) 
136.344

>  <b_lp_Chiralities_Consistent>  (351) 
1

>  <s_lp_Variant>  (351) 
77:0-1

>  <s_i_glide_gridfile>  (351) 
pfpi4k_grid

>  <i_i_glide_lignum>  (351) 
12

>  <i_i_glide_rotatable_bonds>  (351) 
8

>  <r_i_docking_score>  (351) 
-2.73701

>  <r_i_glide_ligand_efficiency>  (351) 
-0.0882905

>  <r_i_glide_ligand_efficiency_sa>  (351) 
-0.277354

>  <r_i_glide_ligand_efficiency_ln>  (351) 
-0.617279

>  <r_i_glide_gscore>  (351) 
-2.73701

>  <r_i_glide_lipo>  (351) 
-0.0548544

>  <r_i_glide_hbond>  (351) 
0

>  <r_i_glide_metal>  (351) 
-0

>  <r_i_glide_rewards>  (351) 
-0.918948

>  <r_i_glide_evdw>  (351) 
-17.5728

>  <r_i_glide_ecoul>  (351) 
-7.24843

>  <r_i_glide_erotb>  (351) 
0.207464

>  <r_i_glide_esite>  (351) 
-0.00476252

>  <r_i_glide_emodel>  (351) 
-33.1223

>  <r_i_glide_energy>  (351) 
-24.8212

>  <r_i_glide_einternal>  (351) 
1.69837

>  <r_i_glide_intrahb_reward>  (351) 
-0.5

>  <i_i_glide_confnum>  (351) 
3

>  <i_i_glide_posenum>  (351) 
8

>  <r_i_glide_eff_state_penalty>  (351) 
0

>  <ligand_id>  (351) 
77

>  <original_smiles>  (351) 
COC12C(O)C(C)C3=C4C(C)(COC(C)=O)CCCC3(O)C1C(C)(O)CCC(O)C42C

>  <smiles>  (351) 
[H]OC1([H])C([H])(C([H])([H])[H])C2=C3C(C([H])([H])[H])(C([H])([H])OC(=O)C([H])([H])[H])C([H])([H])C([H])([H])C([H])([H])C2(O[H])C2([H])C(O[H])(C([H])([H])[H])C([H])([H])C([H])([H])C([H])(O[H])C3(C([H])([H])[H])C12OC([H])([H])[H]

$$$$
78:0:0
     RDKit          3D

 50 54  0  0  1  0  0  0  0  0999 V2000
    3.1433   -3.6615   -0.7110 C   0  0  0  0  0  0  0  0  0  0  0  0
    4.1962   -4.4842   -0.5619 C   0  0  0  0  0  0  0  0  0  0  0  0
    4.3678   -5.4956    0.5074 C   0  0  0  0  0  0  0  0  0  0  0  0
    3.1947   -6.1463    0.9302 C   0  0  0  0  0  0  0  0  0  0  0  0
    3.1894   -7.1642    1.8996 C   0  0  0  0  0  0  0  0  0  0  0  0
    4.4202   -7.5752    2.4516 C   0  0  0  0  0  0  0  0  0  0  0  0
    5.6197   -6.8772    2.1104 C   0  0  0  0  0  0  0  0  0  0  0  0
    6.8363   -7.2124    2.7526 C   0  0  0  0  0  0  0  0  0  0  0  0
    8.0300   -6.5510    2.4336 C   0  0  0  0  0  0  0  0  0  0  0  0
    8.0305   -5.5285    1.4807 C   0  0  0  0  0  0  0  0  0  0  0  0
    6.8343   -5.1352    0.8321 C   0  0  0  0  0  0  0  0  0  0  0  0
    6.8405   -4.0837   -0.0644 O   0  0  0  0  0  0  0  0  0  0  0  0
    8.0646   -3.4635   -0.4408 C   0  0  0  0  0  0  0  0  0  0  0  0
    5.6119   -5.8225    1.1350 C   0  0  0  0  0  0  0  0  0  0  0  0
    4.3895   -8.7767    3.4106 C   0  0  0  0  0  0  0  0  0  0  0  0
    3.2277   -9.7746    3.1241 C   0  0  2  0  0  0  0  0  0  0  0  0
    1.8727   -9.0452    2.9933 C   0  0  0  0  0  0  0  0  0  0  0  0
    0.6649   -9.6269    3.4733 C   0  0  0  0  0  0  0  0  0  0  0  0
   -0.5435   -8.9408    3.2848 C   0  0  0  0  0  0  0  0  0  0  0  0
   -0.5436   -7.6952    2.6445 C   0  0  0  0  0  0  0  0  0  0  0  0
    0.6687   -7.1370    2.2009 C   0  0  0  0  0  0  0  0  0  0  0  0
    1.9228   -7.7885    2.3434 C   0  0  0  0  0  0  0  0  0  0  0  0
    0.7787  -10.9247    4.2447 C   0  0  0  0  0  0  0  0  0  0  0  0
    1.9991  -11.7566    3.9011 C   0  0  0  0  0  0  0  0  0  0  0  0
    3.2155  -10.9386    4.0665 N   0  0  1  0  0  0  0  0  0  0  0  0
    4.4184  -11.8064    3.9977 C   0  0  0  0  0  0  0  0  0  0  0  0
    2.3151   -3.6521   -0.0188 H   0  0  0  0  0  0  0  0  0  0  0  0
    3.0956   -2.9711   -1.5440 H   0  0  0  0  0  0  0  0  0  0  0  0
    4.9600   -4.4351   -1.3237 H   0  0  0  0  0  0  0  0  0  0  0  0
    2.2672   -5.8786    0.4537 H   0  0  0  0  0  0  0  0  0  0  0  0
    6.8924   -7.9676    3.5181 H   0  0  0  0  0  0  0  0  0  0  0  0
    8.9504   -6.8249    2.9292 H   0  0  0  0  0  0  0  0  0  0  0  0
    8.9721   -5.0427    1.2805 H   0  0  0  0  0  0  0  0  0  0  0  0
    7.8552   -2.6901   -1.1805 H   0  0  0  0  0  0  0  0  0  0  0  0
    8.7614   -4.1665   -0.9015 H   0  0  0  0  0  0  0  0  0  0  0  0
    8.5407   -2.9792    0.4123 H   0  0  0  0  0  0  0  0  0  0  0  0
    5.3312   -9.3155    3.3446 H   0  0  0  0  0  0  0  0  0  0  0  0
    4.3029   -8.3916    4.4274 H   0  0  0  0  0  0  0  0  0  0  0  0
    3.4168  -10.1965    2.1357 H   0  0  0  0  0  0  0  0  0  0  0  0
   -1.4662   -9.3650    3.6610 H   0  0  0  0  0  0  0  0  0  0  0  0
   -1.4703   -7.1631    2.5124 H   0  0  0  0  0  0  0  0  0  0  0  0
    0.6317   -6.1595    1.7520 H   0  0  0  0  0  0  0  0  0  0  0  0
    0.7513  -10.7030    5.3144 H   0  0  0  0  0  0  0  0  0  0  0  0
   -0.1139  -11.5097    4.0394 H   0  0  0  0  0  0  0  0  0  0  0  0
    2.0240  -12.6190    4.5704 H   0  0  0  0  0  0  0  0  0  0  0  0
    1.9398  -12.1401    2.8799 H   0  0  0  0  0  0  0  0  0  0  0  0
    4.5446  -12.2175    2.9947 H   0  0  0  0  0  0  0  0  0  0  0  0
    4.3242  -12.6457    4.6885 H   0  0  0  0  0  0  0  0  0  0  0  0
    5.3264  -11.2775    4.2782 H   0  0  0  0  0  0  0  0  0  0  0  0
    3.1677  -10.5650    5.0075 H   0  0  0  0  0  0  0  0  0  0  0  0
  1  2  2  0
  1 27  1  0
  1 28  1  0
  2  3  1  0
  2 29  1  0
  3 14  2  0
  3  4  1  0
  4  5  2  0
  4 30  1  0
  5 22  1  0
  5  6  1  0
  6  7  2  0
  6 15  1  0
  7 14  1  0
  7  8  1  0
  8  9  2  0
  8 31  1  0
  9 10  1  0
  9 32  1  0
 10 11  2  0
 10 33  1  0
 11 12  1  0
 11 14  1  0
 12 13  1  0
 13 34  1  0
 13 35  1  0
 13 36  1  0
 15 16  1  0
 15 37  1  0
 15 38  1  0
 16 25  1  0
 16 17  1  0
 16 39  1  6
 17 22  2  0
 17 18  1  0
 18 19  2  0
 18 23  1  0
 19 20  1  0
 19 40  1  0
 20 21  2  0
 20 41  1  0
 21 22  1  0
 21 42  1  0
 23 24  1  0
 23 43  1  0
 23 44  1  0
 24 25  1  0
 24 45  1  0
 24 46  1  0
 25 26  1  0
 25 50  1  1
 26 47  1  0
 26 48  1  0
 26 49  1  0
M  CHG  1  25   1
M  END
>  <i_m_ct_stereo_status>  (352) 
1

>  <s_m_source_file>  (352) 
/var/tmp/pbs.5102264.sched01/tmplas2qej_/115vanlg5zy.sdf

>  <i_m_source_file_index>  (352) 
13

>  <i_lp_mmshare_version>  (352) 
48012

>  <i_f3d_flags>  (352) 
0

>  <s_epik_input>  (352) 
W2NIXTFbY0hdW2NIXWMoT1tDSDNdKWMoYyhbY0hdMilbQ0hdPVtDSDJdKWMxYyhjMjMpW0NIMl1bQ0BASF00YzVjKFtjSF1bY0hdW2NIXWMzNSlbQ0gyXVtDSDJdTjRbQ0gzXQ==

>  <s_epik_cmdline>  (352) 
J2VwaWtfcHl0aG9uJywgJy1waHQnLCAnMi4wJywgJy1waCcsICc3LjAnLCAnLXRuJywgJzgnLCAnLW1hJywgJzIwMCcsICctaW1hZScsICc8aW5maWxlLm1hZT4nLCAnLW9tYWUnLCAnPG91dGZpbGUubWFlPic=

>  <r_epik_Ionization_Penalty>  (352) 
0.0661607

>  <r_epik_Ionization_Penalty_Charging>  (352) 
0.0661607

>  <r_epik_Ionization_Penalty_Neutral>  (352) 
0

>  <r_epik_State_Penalty>  (352) 
0.057745

>  <r_epik_Charging_Adjusted_Penalty>  (352) 
0.123906

>  <i_epik_Tot_Q>  (352) 
1

>  <i_epik_Tot_abs_Q>  (352) 
1

>  <s_lp_Force_Field>  (352) 
OPLS3e

>  <r_lp_Energy>  (352) 
66.0529

>  <b_lp_Chiralities_Consistent>  (352) 
1

>  <s_lp_Variant>  (352) 
78:0-1

>  <s_i_glide_gridfile>  (352) 
pfpi4k_grid

>  <i_i_glide_lignum>  (352) 
13

>  <i_i_glide_rotatable_bonds>  (352) 
2

>  <r_i_docking_score>  (352) 
-3.33082

>  <r_i_glide_ligand_efficiency>  (352) 
-0.128108

>  <r_i_glide_ligand_efficiency_sa>  (352) 
-0.37952

>  <r_i_glide_ligand_efficiency_ln>  (352) 
-0.782231

>  <r_i_glide_gscore>  (352) 
-3.33082

>  <r_i_glide_lipo>  (352) 
-0.633338

>  <r_i_glide_hbond>  (352) 
0

>  <r_i_glide_metal>  (352) 
-0

>  <r_i_glide_rewards>  (352) 
-1.07418

>  <r_i_glide_evdw>  (352) 
-28.1172

>  <r_i_glide_ecoul>  (352) 
-2.40662

>  <r_i_glide_erotb>  (352) 
0.161695

>  <r_i_glide_esite>  (352) 
-0.0181389

>  <r_i_glide_emodel>  (352) 
-38.9721

>  <r_i_glide_energy>  (352) 
-30.5238

>  <r_i_glide_einternal>  (352) 
0.0358888

>  <r_i_glide_intrahb_reward>  (352) 
-0

>  <i_i_glide_confnum>  (352) 
6

>  <i_i_glide_posenum>  (352) 
1

>  <r_i_glide_eff_state_penalty>  (352) 
0

>  <ligand_id>  (352) 
78

>  <original_smiles>  (352) 
C=Cc1cc2c(c3cccc(OC)c13)CC1c3c(cccc3-2)CCN1C

>  <smiles>  (352) 
[H]C([H])=C([H])c1c([H])c2c(c3c([H])c([H])c([H])c(OC([H])([H])[H])c13)C([H])([H])C1([H])c3c-2c([H])c([H])c([H])c3C([H])([H])C([H])([H])[N+]1([H])C([H])([H])[H]

$$$$
78:0:1
     RDKit          3D

 50 54  0  0  1  0  0  0  0  0999 V2000
    1.5703   -1.2390    3.7562 C   0  0  0  0  0  0  0  0  0  0  0  0
    1.7901   -2.0551    2.7112 C   0  0  0  0  0  0  0  0  0  0  0  0
    2.2091   -3.4762    2.7853 C   0  0  0  0  0  0  0  0  0  0  0  0
    1.7154   -4.2041    3.8832 C   0  0  0  0  0  0  0  0  0  0  0  0
    1.9721   -5.5722    4.0733 C   0  0  0  0  0  0  0  0  0  0  0  0
    2.7316   -6.2582    3.1045 C   0  0  0  0  0  0  0  0  0  0  0  0
    3.3205   -5.5331    2.0243 C   0  0  0  0  0  0  0  0  0  0  0  0
    4.1801   -6.1997    1.1198 C   0  0  0  0  0  0  0  0  0  0  0  0
    4.7685   -5.5156    0.0496 C   0  0  0  0  0  0  0  0  0  0  0  0
    4.5231   -4.1527   -0.1367 C   0  0  0  0  0  0  0  0  0  0  0  0
    3.6916   -3.4361    0.7571 C   0  0  0  0  0  0  0  0  0  0  0  0
    3.5009   -2.0789    0.5951 O   0  0  0  0  0  0  0  0  0  0  0  0
    4.1093   -1.3880   -0.4874 C   0  0  0  0  0  0  0  0  0  0  0  0
    3.0707   -4.1294    1.8487 C   0  0  0  0  0  0  0  0  0  0  0  0
    2.8847   -7.7783    3.2807 C   0  0  0  0  0  0  0  0  0  0  0  0
    1.6914   -8.4427    4.0279 C   0  0  2  0  0  0  0  0  0  0  0  0
    1.3477   -7.6893    5.3327 C   0  0  0  0  0  0  0  0  0  0  0  0
    0.9146   -8.3808    6.4983 C   0  0  0  0  0  0  0  0  0  0  0  0
    0.5817   -7.6464    7.6451 C   0  0  0  0  0  0  0  0  0  0  0  0
    0.6785   -6.2500    7.6267 C   0  0  0  0  0  0  0  0  0  0  0  0
    1.1245   -5.5945    6.4661 C   0  0  0  0  0  0  0  0  0  0  0  0
    1.4680   -6.2801    5.2700 C   0  0  0  0  0  0  0  0  0  0  0  0
    0.9292   -9.8911    6.4501 C   0  0  0  0  0  0  0  0  0  0  0  0
    0.8041  -10.4853    5.0598 C   0  0  0  0  0  0  0  0  0  0  0  0
    1.8519   -9.9229    4.1861 N   0  0  1  0  0  0  0  0  0  0  0  0
    1.9095  -10.6833    2.9114 C   0  0  0  0  0  0  0  0  0  0  0  0
    1.7106   -1.5590    4.7784 H   0  0  0  0  0  0  0  0  0  0  0  0
    1.2451   -0.2190    3.5943 H   0  0  0  0  0  0  0  0  0  0  0  0
    1.5937   -1.6390    1.7331 H   0  0  0  0  0  0  0  0  0  0  0  0
    1.0787   -3.6973    4.5876 H   0  0  0  0  0  0  0  0  0  0  0  0
    4.4312   -7.2423    1.2223 H   0  0  0  0  0  0  0  0  0  0  0  0
    5.4123   -6.0407   -0.6386 H   0  0  0  0  0  0  0  0  0  0  0  0
    5.0011   -3.6744   -0.9779 H   0  0  0  0  0  0  0  0  0  0  0  0
    3.8176   -0.3398   -0.4354 H   0  0  0  0  0  0  0  0  0  0  0  0
    3.7857   -1.7699   -1.4577 H   0  0  0  0  0  0  0  0  0  0  0  0
    5.1972   -1.4234   -0.4192 H   0  0  0  0  0  0  0  0  0  0  0  0
    2.9848   -8.2475    2.3046 H   0  0  0  0  0  0  0  0  0  0  0  0
    3.8097   -7.9609    3.8294 H   0  0  0  0  0  0  0  0  0  0  0  0
    0.8162   -8.3081    3.3908 H   0  0  0  0  0  0  0  0  0  0  0  0
    0.2682   -8.1611    8.5428 H   0  0  0  0  0  0  0  0  0  0  0  0
    0.4348   -5.6785    8.5066 H   0  0  0  0  0  0  0  0  0  0  0  0
    1.2261   -4.5219    6.5176 H   0  0  0  0  0  0  0  0  0  0  0  0
    1.8436  -10.2447    6.9321 H   0  0  0  0  0  0  0  0  0  0  0  0
    0.1033  -10.2564    7.0596 H   0  0  0  0  0  0  0  0  0  0  0  0
    0.9033  -11.5695    5.1402 H   0  0  0  0  0  0  0  0  0  0  0  0
   -0.1844  -10.2830    4.6394 H   0  0  0  0  0  0  0  0  0  0  0  0
    0.9998  -10.5303    2.3278 H   0  0  0  0  0  0  0  0  0  0  0  0
    1.9971  -11.7541    3.1051 H   0  0  0  0  0  0  0  0  0  0  0  0
    2.7676  -10.4115    2.2997 H   0  0  0  0  0  0  0  0  0  0  0  0
    2.7288  -10.0787    4.6673 H   0  0  0  0  0  0  0  0  0  0  0  0
  1  2  2  0
  1 27  1  0
  1 28  1  0
  2  3  1  0
  2 29  1  0
  3 14  2  0
  3  4  1  0
  4  5  2  0
  4 30  1  0
  5 22  1  0
  5  6  1  0
  6  7  2  0
  6 15  1  0
  7 14  1  0
  7  8  1  0
  8  9  2  0
  8 31  1  0
  9 10  1  0
  9 32  1  0
 10 11  2  0
 10 33  1  0
 11 12  1  0
 11 14  1  0
 12 13  1  0
 13 34  1  0
 13 35  1  0
 13 36  1  0
 15 16  1  0
 15 37  1  0
 15 38  1  0
 16 25  1  0
 16 17  1  0
 16 39  1  6
 17 22  2  0
 17 18  1  0
 18 19  2  0
 18 23  1  0
 19 20  1  0
 19 40  1  0
 20 21  2  0
 20 41  1  0
 21 22  1  0
 21 42  1  0
 23 24  1  0
 23 43  1  0
 23 44  1  0
 24 25  1  0
 24 45  1  0
 24 46  1  0
 25 26  1  0
 25 50  1  1
 26 47  1  0
 26 48  1  0
 26 49  1  0
M  CHG  1  25   1
M  END
>  <i_m_ct_stereo_status>  (353) 
1

>  <s_m_source_file>  (353) 
/var/tmp/pbs.5102264.sched01/tmplas2qej_/115vanlg5zy.sdf

>  <i_m_source_file_index>  (353) 
13

>  <i_lp_mmshare_version>  (353) 
48012

>  <i_f3d_flags>  (353) 
0

>  <s_epik_input>  (353) 
W2NIXTFbY0hdW2NIXWMoT1tDSDNdKWMoYyhbY0hdMilbQ0hdPVtDSDJdKWMxYyhjMjMpW0NIMl1bQ0BASF00YzVjKFtjSF1bY0hdW2NIXWMzNSlbQ0gyXVtDSDJdTjRbQ0gzXQ==

>  <s_epik_cmdline>  (353) 
J2VwaWtfcHl0aG9uJywgJy1waHQnLCAnMi4wJywgJy1waCcsICc3LjAnLCAnLXRuJywgJzgnLCAnLW1hJywgJzIwMCcsICctaW1hZScsICc8aW5maWxlLm1hZT4nLCAnLW9tYWUnLCAnPG91dGZpbGUubWFlPic=

>  <r_epik_Ionization_Penalty>  (353) 
0.0661607

>  <r_epik_Ionization_Penalty_Charging>  (353) 
0.0661607

>  <r_epik_Ionization_Penalty_Neutral>  (353) 
0

>  <r_epik_State_Penalty>  (353) 
0.057745

>  <r_epik_Charging_Adjusted_Penalty>  (353) 
0.123906

>  <i_epik_Tot_Q>  (353) 
1

>  <i_epik_Tot_abs_Q>  (353) 
1

>  <s_lp_Force_Field>  (353) 
OPLS3e

>  <r_lp_Energy>  (353) 
66.0529

>  <b_lp_Chiralities_Consistent>  (353) 
1

>  <s_lp_Variant>  (353) 
78:0-1

>  <s_i_glide_gridfile>  (353) 
pfpi4k_grid

>  <i_i_glide_lignum>  (353) 
13

>  <i_i_glide_rotatable_bonds>  (353) 
2

>  <r_i_docking_score>  (353) 
-2.66135

>  <r_i_glide_ligand_efficiency>  (353) 
-0.10236

>  <r_i_glide_ligand_efficiency_sa>  (353) 
-0.30324

>  <r_i_glide_ligand_efficiency_ln>  (353) 
-0.62501

>  <r_i_glide_gscore>  (353) 
-2.66135

>  <r_i_glide_lipo>  (353) 
-0.200139

>  <r_i_glide_hbond>  (353) 
0

>  <r_i_glide_metal>  (353) 
-0

>  <r_i_glide_rewards>  (353) 
-1.07418

>  <r_i_glide_evdw>  (353) 
-20.4568

>  <r_i_glide_ecoul>  (353) 
-3.40738

>  <r_i_glide_erotb>  (353) 
0.161695

>  <r_i_glide_esite>  (353) 
-0.0147804

>  <r_i_glide_emodel>  (353) 
-30.5848

>  <r_i_glide_energy>  (353) 
-23.8642

>  <r_i_glide_einternal>  (353) 
0.00248408

>  <r_i_glide_intrahb_reward>  (353) 
-0

>  <i_i_glide_confnum>  (353) 
6

>  <i_i_glide_posenum>  (353) 
34

>  <r_i_glide_eff_state_penalty>  (353) 
0

>  <ligand_id>  (353) 
78

>  <original_smiles>  (353) 
C=Cc1cc2c(c3cccc(OC)c13)CC1c3c(cccc3-2)CCN1C

>  <smiles>  (353) 
[H]C([H])=C([H])c1c([H])c2c(c3c([H])c([H])c([H])c(OC([H])([H])[H])c13)C([H])([H])C1([H])c3c-2c([H])c([H])c([H])c3C([H])([H])C([H])([H])[N+]1([H])C([H])([H])[H]

$$$$
78:0:2
     RDKit          3D

 50 54  0  0  1  0  0  0  0  0999 V2000
    0.7480   -0.8829    6.2531 C   0  0  0  0  0  0  0  0  0  0  0  0
    0.7735   -1.3027    4.9759 C   0  0  0  0  0  0  0  0  0  0  0  0
    1.2312   -2.6304    4.5002 C   0  0  0  0  0  0  0  0  0  0  0  0
    0.9727   -3.7123    5.3612 C   0  0  0  0  0  0  0  0  0  0  0  0
    1.3007   -5.0404    5.0413 C   0  0  0  0  0  0  0  0  0  0  0  0
    1.8884   -5.3080    3.7879 C   0  0  0  0  0  0  0  0  0  0  0  0
    2.2479   -4.2256    2.9281 C   0  0  0  0  0  0  0  0  0  0  0  0
    2.9449   -4.4877    1.7236 C   0  0  0  0  0  0  0  0  0  0  0  0
    3.3057   -3.4485    0.8556 C   0  0  0  0  0  0  0  0  0  0  0  0
    2.9947   -2.1244    1.1828 C   0  0  0  0  0  0  0  0  0  0  0  0
    2.3185   -1.8089    2.3871 C   0  0  0  0  0  0  0  0  0  0  0  0
    2.0609   -0.4930    2.7188 O   0  0  0  0  0  0  0  0  0  0  0  0
    2.3603    0.5547    1.8041 C   0  0  0  0  0  0  0  0  0  0  0  0
    1.9282   -2.8682    3.2727 C   0  0  0  0  0  0  0  0  0  0  0  0
    2.1136   -6.7842    3.4226 C   0  0  0  0  0  0  0  0  0  0  0  0
    1.0981   -7.7552    4.0937 C   0  0  2  0  0  0  0  0  0  0  0  0
    0.9779   -7.4968    5.6115 C   0  0  0  0  0  0  0  0  0  0  0  0
    0.7831   -8.5634    6.5338 C   0  0  0  0  0  0  0  0  0  0  0  0
    0.6410   -8.2684    7.8976 C   0  0  0  0  0  0  0  0  0  0  0  0
    0.7012   -6.9376    8.3289 C   0  0  0  0  0  0  0  0  0  0  0  0
    0.9097   -5.9066    7.3964 C   0  0  0  0  0  0  0  0  0  0  0  0
    1.0458   -6.1372    6.0012 C   0  0  0  0  0  0  0  0  0  0  0  0
    0.8343   -9.9729    5.9839 C   0  0  0  0  0  0  0  0  0  0  0  0
    0.4734  -10.0894    4.5161 C   0  0  0  0  0  0  0  0  0  0  0  0
    1.3284   -9.1867    3.7233 N   0  0  1  0  0  0  0  0  0  0  0  0
    1.1667   -9.4866    2.2797 C   0  0  0  0  0  0  0  0  0  0  0  0
    1.0986   -1.4981    7.0692 H   0  0  0  0  0  0  0  0  0  0  0  0
    0.3756    0.1035    6.4983 H   0  0  0  0  0  0  0  0  0  0  0  0
    0.3807   -0.6183    4.2383 H   0  0  0  0  0  0  0  0  0  0  0  0
    0.4692   -3.5153    6.2918 H   0  0  0  0  0  0  0  0  0  0  0  0
    3.2413   -5.4818    1.4334 H   0  0  0  0  0  0  0  0  0  0  0  0
    3.8308   -3.6685   -0.0633 H   0  0  0  0  0  0  0  0  0  0  0  0
    3.2903   -1.3581    0.4820 H   0  0  0  0  0  0  0  0  0  0  0  0
    2.0620    1.5066    2.2447 H   0  0  0  0  0  0  0  0  0  0  0  0
    1.8055    0.4476    0.8726 H   0  0  0  0  0  0  0  0  0  0  0  0
    3.4286    0.6160    1.5925 H   0  0  0  0  0  0  0  0  0  0  0  0
    2.0450   -6.9042    2.3439 H   0  0  0  0  0  0  0  0  0  0  0  0
    3.1283   -7.0532    3.7187 H   0  0  0  0  0  0  0  0  0  0  0  0
    0.1163   -7.4998    3.6921 H   0  0  0  0  0  0  0  0  0  0  0  0
    0.5194   -9.0709    8.6123 H   0  0  0  0  0  0  0  0  0  0  0  0
    0.6175   -6.7031    9.3769 H   0  0  0  0  0  0  0  0  0  0  0  0
    0.9932   -4.9038    7.7849 H   0  0  0  0  0  0  0  0  0  0  0  0
    1.8306  -10.3827    6.1678 H   0  0  0  0  0  0  0  0  0  0  0  0
    0.1400  -10.5820    6.5615 H   0  0  0  0  0  0  0  0  0  0  0  0
    0.6068  -11.1285    4.2109 H   0  0  0  0  0  0  0  0  0  0  0  0
   -0.5781   -9.8430    4.3519 H   0  0  0  0  0  0  0  0  0  0  0  0
    0.1584   -9.2305    1.9502 H   0  0  0  0  0  0  0  0  0  0  0  0
    1.3118  -10.5504    2.0894 H   0  0  0  0  0  0  0  0  0  0  0  0
    1.8869   -8.9606    1.6561 H   0  0  0  0  0  0  0  0  0  0  0  0
    2.2831   -9.4119    3.9728 H   0  0  0  0  0  0  0  0  0  0  0  0
  1  2  2  0
  1 27  1  0
  1 28  1  0
  2  3  1  0
  2 29  1  0
  3 14  2  0
  3  4  1  0
  4  5  2  0
  4 30  1  0
  5 22  1  0
  5  6  1  0
  6  7  2  0
  6 15  1  0
  7 14  1  0
  7  8  1  0
  8  9  2  0
  8 31  1  0
  9 10  1  0
  9 32  1  0
 10 11  2  0
 10 33  1  0
 11 12  1  0
 11 14  1  0
 12 13  1  0
 13 34  1  0
 13 35  1  0
 13 36  1  0
 15 16  1  0
 15 37  1  0
 15 38  1  0
 16 25  1  0
 16 17  1  0
 16 39  1  6
 17 22  2  0
 17 18  1  0
 18 19  2  0
 18 23  1  0
 19 20  1  0
 19 40  1  0
 20 21  2  0
 20 41  1  0
 21 22  1  0
 21 42  1  0
 23 24  1  0
 23 43  1  0
 23 44  1  0
 24 25  1  0
 24 45  1  0
 24 46  1  0
 25 26  1  0
 25 50  1  1
 26 47  1  0
 26 48  1  0
 26 49  1  0
M  CHG  1  25   1
M  END
>  <i_m_ct_stereo_status>  (354) 
1

>  <s_m_source_file>  (354) 
/var/tmp/pbs.5102264.sched01/tmplas2qej_/115vanlg5zy.sdf

>  <i_m_source_file_index>  (354) 
13

>  <i_lp_mmshare_version>  (354) 
48012

>  <i_f3d_flags>  (354) 
0

>  <s_epik_input>  (354) 
W2NIXTFbY0hdW2NIXWMoT1tDSDNdKWMoYyhbY0hdMilbQ0hdPVtDSDJdKWMxYyhjMjMpW0NIMl1bQ0BASF00YzVjKFtjSF1bY0hdW2NIXWMzNSlbQ0gyXVtDSDJdTjRbQ0gzXQ==

>  <s_epik_cmdline>  (354) 
J2VwaWtfcHl0aG9uJywgJy1waHQnLCAnMi4wJywgJy1waCcsICc3LjAnLCAnLXRuJywgJzgnLCAnLW1hJywgJzIwMCcsICctaW1hZScsICc8aW5maWxlLm1hZT4nLCAnLW9tYWUnLCAnPG91dGZpbGUubWFlPic=

>  <r_epik_Ionization_Penalty>  (354) 
0.0661607

>  <r_epik_Ionization_Penalty_Charging>  (354) 
0.0661607

>  <r_epik_Ionization_Penalty_Neutral>  (354) 
0

>  <r_epik_State_Penalty>  (354) 
0.057745

>  <r_epik_Charging_Adjusted_Penalty>  (354) 
0.123906

>  <i_epik_Tot_Q>  (354) 
1

>  <i_epik_Tot_abs_Q>  (354) 
1

>  <s_lp_Force_Field>  (354) 
OPLS3e

>  <r_lp_Energy>  (354) 
66.0529

>  <b_lp_Chiralities_Consistent>  (354) 
1

>  <s_lp_Variant>  (354) 
78:0-1

>  <s_i_glide_gridfile>  (354) 
pfpi4k_grid

>  <i_i_glide_lignum>  (354) 
13

>  <i_i_glide_rotatable_bonds>  (354) 
2

>  <r_i_docking_score>  (354) 
-2.53951

>  <r_i_glide_ligand_efficiency>  (354) 
-0.0976733

>  <r_i_glide_ligand_efficiency_sa>  (354) 
-0.289357

>  <r_i_glide_ligand_efficiency_ln>  (354) 
-0.596395

>  <r_i_glide_gscore>  (354) 
-2.53951

>  <r_i_glide_lipo>  (354) 
-0.106774

>  <r_i_glide_hbond>  (354) 
0

>  <r_i_glide_metal>  (354) 
-0

>  <r_i_glide_rewards>  (354) 
-1.07418

>  <r_i_glide_evdw>  (354) 
-19.6374

>  <r_i_glide_ecoul>  (354) 
-3.48841

>  <r_i_glide_erotb>  (354) 
0.161695

>  <r_i_glide_esite>  (354) 
-0.0151132

>  <r_i_glide_emodel>  (354) 
-29.5286

>  <r_i_glide_energy>  (354) 
-23.1258

>  <r_i_glide_einternal>  (354) 
0.0287945

>  <r_i_glide_intrahb_reward>  (354) 
-0

>  <i_i_glide_confnum>  (354) 
5

>  <i_i_glide_posenum>  (354) 
14

>  <r_i_glide_eff_state_penalty>  (354) 
0

>  <ligand_id>  (354) 
78

>  <original_smiles>  (354) 
C=Cc1cc2c(c3cccc(OC)c13)CC1c3c(cccc3-2)CCN1C

>  <smiles>  (354) 
[H]C([H])=C([H])c1c([H])c2c(c3c([H])c([H])c([H])c(OC([H])([H])[H])c13)C([H])([H])C1([H])c3c-2c([H])c([H])c([H])c3C([H])([H])C([H])([H])[N+]1([H])C([H])([H])[H]

$$$$
78:1:0
     RDKit          3D

 49 53  0  0  1  0  0  0  0  0999 V2000
    4.1250   -8.8934    0.8324 C   0  0  0  0  0  0  0  0  0  0  0  0
    2.9234   -8.4719    1.2780 C   0  0  0  0  0  0  0  0  0  0  0  0
    2.6339   -7.1653    1.9144 C   0  0  0  0  0  0  0  0  0  0  0  0
    3.4363   -6.0889    1.4927 C   0  0  0  0  0  0  0  0  0  0  0  0
    3.2732   -4.7786    1.9675 C   0  0  0  0  0  0  0  0  0  0  0  0
    2.2304   -4.5187    2.8771 C   0  0  0  0  0  0  0  0  0  0  0  0
    1.4556   -5.5987    3.3957 C   0  0  0  0  0  0  0  0  0  0  0  0
    0.4962   -5.3550    4.4078 C   0  0  0  0  0  0  0  0  0  0  0  0
   -0.2985   -6.3897    4.9224 C   0  0  0  0  0  0  0  0  0  0  0  0
   -0.1283   -7.6998    4.4571 C   0  0  0  0  0  0  0  0  0  0  0  0
    0.8464   -7.9985    3.4753 C   0  0  0  0  0  0  0  0  0  0  0  0
    1.0526   -9.3039    3.0748 O   0  0  0  0  0  0  0  0  0  0  0  0
    0.2140  -10.3468    3.5556 C   0  0  0  0  0  0  0  0  0  0  0  0
    1.6431   -6.9405    2.9237 C   0  0  0  0  0  0  0  0  0  0  0  0
    1.9898   -3.0510    3.2599 C   0  0  0  0  0  0  0  0  0  0  0  0
    2.3994   -2.0357    2.1477 C   0  0  2  0  0  0  0  0  0  0  0  0
    3.8268   -2.3251    1.6357 C   0  0  0  0  0  0  0  0  0  0  0  0
    4.6862   -1.2619    1.2562 C   0  0  0  0  0  0  0  0  0  0  0  0
    5.9613   -1.5614    0.7466 C   0  0  0  0  0  0  0  0  0  0  0  0
    6.3553   -2.9038    0.6197 C   0  0  0  0  0  0  0  0  0  0  0  0
    5.4789   -3.9340    1.0126 C   0  0  0  0  0  0  0  0  0  0  0  0
    4.1773   -3.6909    1.5265 C   0  0  0  0  0  0  0  0  0  0  0  0
    4.1733    0.1385    1.5057 C   0  0  0  0  0  0  0  0  0  0  0  0
    2.6597    0.2759    1.5719 C   0  0  0  0  0  0  0  0  0  0  0  0
    2.1638   -0.6446    2.5858 N   0  0  0  0  0  0  0  0  0  0  0  0
    0.7440   -0.3373    2.7442 C   0  0  0  0  0  0  0  0  0  0  0  0
    5.0253   -8.3024    0.9244 H   0  0  0  0  0  0  0  0  0  0  0  0
    4.2126   -9.8540    0.3549 H   0  0  0  0  0  0  0  0  0  0  0  0
    2.1028   -9.1473    1.0882 H   0  0  0  0  0  0  0  0  0  0  0  0
    4.1887   -6.2637    0.7425 H   0  0  0  0  0  0  0  0  0  0  0  0
    0.3375   -4.3722    4.8201 H   0  0  0  0  0  0  0  0  0  0  0  0
   -1.0341   -6.1765    5.6874 H   0  0  0  0  0  0  0  0  0  0  0  0
   -0.7473   -8.4698    4.8953 H   0  0  0  0  0  0  0  0  0  0  0  0
    0.5284  -11.2847    3.0976 H   0  0  0  0  0  0  0  0  0  0  0  0
   -0.8262  -10.1815    3.2797 H   0  0  0  0  0  0  0  0  0  0  0  0
    0.2980  -10.4692    4.6364 H   0  0  0  0  0  0  0  0  0  0  0  0
    0.9401   -2.8995    3.4939 H   0  0  0  0  0  0  0  0  0  0  0  0
    2.5611   -2.8420    4.1643 H   0  0  0  0  0  0  0  0  0  0  0  0
    1.7560   -2.2197    1.2844 H   0  0  0  0  0  0  0  0  0  0  0  0
    6.6453   -0.7703    0.4770 H   0  0  0  0  0  0  0  0  0  0  0  0
    7.3312   -3.1591    0.2373 H   0  0  0  0  0  0  0  0  0  0  0  0
    5.8335   -4.9488    0.9301 H   0  0  0  0  0  0  0  0  0  0  0  0
    4.6089    0.4976    2.4394 H   0  0  0  0  0  0  0  0  0  0  0  0
    4.5467    0.7680    0.7014 H   0  0  0  0  0  0  0  0  0  0  0  0
    2.4217    1.3063    1.8411 H   0  0  0  0  0  0  0  0  0  0  0  0
    2.2105    0.0860    0.5986 H   0  0  0  0  0  0  0  0  0  0  0  0
    0.6023    0.7187    2.9782 H   0  0  0  0  0  0  0  0  0  0  0  0
    0.2851   -0.8983    3.5568 H   0  0  0  0  0  0  0  0  0  0  0  0
    0.2042   -0.5369    1.8187 H   0  0  0  0  0  0  0  0  0  0  0  0
  1  2  2  0
  1 27  1  0
  1 28  1  0
  2  3  1  0
  2 29  1  0
  3 14  2  0
  3  4  1  0
  4  5  2  0
  4 30  1  0
  5 22  1  0
  5  6  1  0
  6  7  2  0
  6 15  1  0
  7 14  1  0
  7  8  1  0
  8  9  2  0
  8 31  1  0
  9 10  1  0
  9 32  1  0
 10 11  2  0
 10 33  1  0
 11 12  1  0
 11 14  1  0
 12 13  1  0
 13 34  1  0
 13 35  1  0
 13 36  1  0
 15 16  1  0
 15 37  1  0
 15 38  1  0
 16 25  1  0
 16 17  1  0
 16 39  1  6
 17 22  2  0
 17 18  1  0
 18 19  2  0
 18 23  1  0
 19 20  1  0
 19 40  1  0
 20 21  2  0
 20 41  1  0
 21 22  1  0
 21 42  1  0
 23 24  1  0
 23 43  1  0
 23 44  1  0
 24 25  1  0
 24 45  1  0
 24 46  1  0
 25 26  1  0
 26 47  1  0
 26 48  1  0
 26 49  1  0
M  END
>  <i_m_ct_stereo_status>  (355) 
1

>  <s_m_source_file>  (355) 
/var/tmp/pbs.5102264.sched01/tmplas2qej_/115vanlg5zy.sdf

>  <i_m_source_file_index>  (355) 
14

>  <i_lp_mmshare_version>  (355) 
48012

>  <i_f3d_flags>  (355) 
0

>  <s_epik_input>  (355) 
W2NIXTFbY0hdW2NIXWMoT1tDSDNdKWMoYyhbY0hdMilbQ0hdPVtDSDJdKWMxYyhjMjMpW0NIMl1bQ0BASF00YzVjKFtjSF1bY0hdW2NIXWMzNSlbQ0gyXVtDSDJdTjRbQ0gzXQ==

>  <s_epik_cmdline>  (355) 
J2VwaWtfcHl0aG9uJywgJy1waHQnLCAnMi4wJywgJy1waCcsICc3LjAnLCAnLXRuJywgJzgnLCAnLW1hJywgJzIwMCcsICctaW1hZScsICc8aW5maWxlLm1hZT4nLCAnLW9tYWUnLCAnPG91dGZpbGUubWFlPic=

>  <r_epik_Ionization_Penalty>  (355) 
1.33164

>  <r_epik_Ionization_Penalty_Charging>  (355) 
0

>  <r_epik_Ionization_Penalty_Neutral>  (355) 
1.33164

>  <r_epik_State_Penalty>  (355) 
1.40812

>  <r_epik_Charging_Adjusted_Penalty>  (355) 
1.40812

>  <i_epik_Tot_Q>  (355) 
0

>  <i_epik_Tot_abs_Q>  (355) 
0

>  <s_lp_Force_Field>  (355) 
OPLS3e

>  <r_lp_Energy>  (355) 
61.3877

>  <b_lp_Chiralities_Consistent>  (355) 
1

>  <s_lp_Variant>  (355) 
78:0-2

>  <s_i_glide_gridfile>  (355) 
pfpi4k_grid

>  <i_i_glide_lignum>  (355) 
14

>  <i_i_glide_rotatable_bonds>  (355) 
2

>  <r_i_docking_score>  (355) 
-2.90319

>  <r_i_glide_ligand_efficiency>  (355) 
-0.111661

>  <r_i_glide_ligand_efficiency_sa>  (355) 
-0.330795

>  <r_i_glide_ligand_efficiency_ln>  (355) 
-0.681803

>  <r_i_glide_gscore>  (355) 
-2.90319

>  <r_i_glide_lipo>  (355) 
-0.401315

>  <r_i_glide_hbond>  (355) 
0

>  <r_i_glide_metal>  (355) 
-0

>  <r_i_glide_rewards>  (355) 
-1.08105

>  <r_i_glide_evdw>  (355) 
-26.1512

>  <r_i_glide_ecoul>  (355) 
-1.83866

>  <r_i_glide_erotb>  (355) 
0.162543

>  <r_i_glide_esite>  (355) 
0

>  <r_i_glide_emodel>  (355) 
-32.9444

>  <r_i_glide_energy>  (355) 
-27.9899

>  <r_i_glide_einternal>  (355) 
0.0518661

>  <r_i_glide_intrahb_reward>  (355) 
-0

>  <i_i_glide_confnum>  (355) 
1

>  <i_i_glide_posenum>  (355) 
9

>  <r_i_glide_eff_state_penalty>  (355) 
0

>  <ligand_id>  (355) 
78

>  <original_smiles>  (355) 
C=Cc1cc2c(c3cccc(OC)c13)CC1c3c(cccc3-2)CCN1C

>  <smiles>  (355) 
[H]C([H])=C([H])c1c([H])c2c(c3c([H])c([H])c([H])c(OC([H])([H])[H])c13)C([H])([H])C1([H])c3c-2c([H])c([H])c([H])c3C([H])([H])C([H])([H])N1C([H])([H])[H]

$$$$
78:1:1
     RDKit          3D

 49 53  0  0  1  0  0  0  0  0999 V2000
    4.4606   -1.2095    1.6553 C   0  0  0  0  0  0  0  0  0  0  0  0
    4.9848   -2.3071    1.0803 C   0  0  0  0  0  0  0  0  0  0  0  0
    4.8800   -3.6974    1.5899 C   0  0  0  0  0  0  0  0  0  0  0  0
    3.6893   -4.0107    2.2687 C   0  0  0  0  0  0  0  0  0  0  0  0
    3.4084   -5.2894    2.7740 C   0  0  0  0  0  0  0  0  0  0  0  0
    4.3449   -6.3194    2.5633 C   0  0  0  0  0  0  0  0  0  0  0  0
    5.6026   -6.0187    1.9621 C   0  0  0  0  0  0  0  0  0  0  0  0
    6.5914   -7.0277    1.8644 C   0  0  0  0  0  0  0  0  0  0  0  0
    7.8356   -6.7653    1.2773 C   0  0  0  0  0  0  0  0  0  0  0  0
    8.1238   -5.4865    0.7890 C   0  0  0  0  0  0  0  0  0  0  0  0
    7.1780   -4.4379    0.8838 C   0  0  0  0  0  0  0  0  0  0  0  0
    7.4942   -3.1678    0.4394 O   0  0  0  0  0  0  0  0  0  0  0  0
    8.7664   -2.9028   -0.1366 C   0  0  0  0  0  0  0  0  0  0  0  0
    5.8937   -4.7012    1.4692 C   0  0  0  0  0  0  0  0  0  0  0  0
    3.9408   -7.7333    3.0069 C   0  0  0  0  0  0  0  0  0  0  0  0
    2.4023   -7.9869    2.9591 C   0  0  2  0  0  0  0  0  0  0  0  0
    1.6358   -6.8623    3.6854 C   0  0  0  0  0  0  0  0  0  0  0  0
    0.4596   -7.1516    4.4282 C   0  0  0  0  0  0  0  0  0  0  0  0
   -0.2315   -6.0925    5.0399 C   0  0  0  0  0  0  0  0  0  0  0  0
    0.2473   -4.7787    4.9017 C   0  0  0  0  0  0  0  0  0  0  0  0
    1.4154   -4.5307    4.1595 C   0  0  0  0  0  0  0  0  0  0  0  0
    2.1546   -5.5577    3.5167 C   0  0  0  0  0  0  0  0  0  0  0  0
    0.0859   -8.6121    4.5682 C   0  0  0  0  0  0  0  0  0  0  0  0
    0.6272   -9.5261    3.4750 C   0  0  0  0  0  0  0  0  0  0  0  0
    2.0735   -9.3544    3.4055 N   0  0  0  0  0  0  0  0  0  0  0  0
    2.5718  -10.3832    2.4907 C   0  0  0  0  0  0  0  0  0  0  0  0
    3.9155   -1.2463    2.5880 H   0  0  0  0  0  0  0  0  0  0  0  0
    4.5743   -0.2392    1.1849 H   0  0  0  0  0  0  0  0  0  0  0  0
    5.4852   -2.1534    0.1364 H   0  0  0  0  0  0  0  0  0  0  0  0
    2.9377   -3.2464    2.3679 H   0  0  0  0  0  0  0  0  0  0  0  0
    6.4412   -8.0226    2.2486 H   0  0  0  0  0  0  0  0  0  0  0  0
    8.5810   -7.5482    1.2067 H   0  0  0  0  0  0  0  0  0  0  0  0
    9.0947   -5.3365    0.3463 H   0  0  0  0  0  0  0  0  0  0  0  0
    8.8054   -1.8550   -0.4290 H   0  0  0  0  0  0  0  0  0  0  0  0
    8.9401   -3.4958   -1.0364 H   0  0  0  0  0  0  0  0  0  0  0  0
    9.5713   -3.0669    0.5809 H   0  0  0  0  0  0  0  0  0  0  0  0
    4.4294   -8.4700    2.3750 H   0  0  0  0  0  0  0  0  0  0  0  0
    4.3033   -7.8854    4.0235 H   0  0  0  0  0  0  0  0  0  0  0  0
    2.0971   -7.9052    1.9137 H   0  0  0  0  0  0  0  0  0  0  0  0
   -1.1213   -6.2781    5.6254 H   0  0  0  0  0  0  0  0  0  0  0  0
   -0.2710   -3.9535    5.3621 H   0  0  0  0  0  0  0  0  0  0  0  0
    1.7609   -3.5113    4.1032 H   0  0  0  0  0  0  0  0  0  0  0  0
    0.4333   -8.9600    5.5429 H   0  0  0  0  0  0  0  0  0  0  0  0
   -1.0000   -8.6825    4.5776 H   0  0  0  0  0  0  0  0  0  0  0  0
    0.3748  -10.5554    3.7370 H   0  0  0  0  0  0  0  0  0  0  0  0
    0.1554   -9.3100    2.5165 H   0  0  0  0  0  0  0  0  0  0  0  0
    2.2348  -11.3692    2.8141 H   0  0  0  0  0  0  0  0  0  0  0  0
    3.6590  -10.4283    2.4646 H   0  0  0  0  0  0  0  0  0  0  0  0
    2.2095  -10.2295    1.4724 H   0  0  0  0  0  0  0  0  0  0  0  0
  1  2  2  0
  1 27  1  0
  1 28  1  0
  2  3  1  0
  2 29  1  0
  3 14  2  0
  3  4  1  0
  4  5  2  0
  4 30  1  0
  5 22  1  0
  5  6  1  0
  6  7  2  0
  6 15  1  0
  7 14  1  0
  7  8  1  0
  8  9  2  0
  8 31  1  0
  9 10  1  0
  9 32  1  0
 10 11  2  0
 10 33  1  0
 11 12  1  0
 11 14  1  0
 12 13  1  0
 13 34  1  0
 13 35  1  0
 13 36  1  0
 15 16  1  0
 15 37  1  0
 15 38  1  0
 16 25  1  0
 16 17  1  0
 16 39  1  6
 17 22  2  0
 17 18  1  0
 18 19  2  0
 18 23  1  0
 19 20  1  0
 19 40  1  0
 20 21  2  0
 20 41  1  0
 21 22  1  0
 21 42  1  0
 23 24  1  0
 23 43  1  0
 23 44  1  0
 24 25  1  0
 24 45  1  0
 24 46  1  0
 25 26  1  0
 26 47  1  0
 26 48  1  0
 26 49  1  0
M  END
>  <i_m_ct_stereo_status>  (356) 
1

>  <s_m_source_file>  (356) 
/var/tmp/pbs.5102264.sched01/tmplas2qej_/115vanlg5zy.sdf

>  <i_m_source_file_index>  (356) 
14

>  <i_lp_mmshare_version>  (356) 
48012

>  <i_f3d_flags>  (356) 
0

>  <s_epik_input>  (356) 
W2NIXTFbY0hdW2NIXWMoT1tDSDNdKWMoYyhbY0hdMilbQ0hdPVtDSDJdKWMxYyhjMjMpW0NIMl1bQ0BASF00YzVjKFtjSF1bY0hdW2NIXWMzNSlbQ0gyXVtDSDJdTjRbQ0gzXQ==

>  <s_epik_cmdline>  (356) 
J2VwaWtfcHl0aG9uJywgJy1waHQnLCAnMi4wJywgJy1waCcsICc3LjAnLCAnLXRuJywgJzgnLCAnLW1hJywgJzIwMCcsICctaW1hZScsICc8aW5maWxlLm1hZT4nLCAnLW9tYWUnLCAnPG91dGZpbGUubWFlPic=

>  <r_epik_Ionization_Penalty>  (356) 
1.33164

>  <r_epik_Ionization_Penalty_Charging>  (356) 
0

>  <r_epik_Ionization_Penalty_Neutral>  (356) 
1.33164

>  <r_epik_State_Penalty>  (356) 
1.40812

>  <r_epik_Charging_Adjusted_Penalty>  (356) 
1.40812

>  <i_epik_Tot_Q>  (356) 
0

>  <i_epik_Tot_abs_Q>  (356) 
0

>  <s_lp_Force_Field>  (356) 
OPLS3e

>  <r_lp_Energy>  (356) 
61.3877

>  <b_lp_Chiralities_Consistent>  (356) 
1

>  <s_lp_Variant>  (356) 
78:0-2

>  <s_i_glide_gridfile>  (356) 
pfpi4k_grid

>  <i_i_glide_lignum>  (356) 
14

>  <i_i_glide_rotatable_bonds>  (356) 
2

>  <r_i_docking_score>  (356) 
-2.67621

>  <r_i_glide_ligand_efficiency>  (356) 
-0.102931

>  <r_i_glide_ligand_efficiency_sa>  (356) 
-0.304934

>  <r_i_glide_ligand_efficiency_ln>  (356) 
-0.6285

>  <r_i_glide_gscore>  (356) 
-2.67621

>  <r_i_glide_lipo>  (356) 
-0.498397

>  <r_i_glide_hbond>  (356) 
0

>  <r_i_glide_metal>  (356) 
-0

>  <r_i_glide_rewards>  (356) 
-1.08105

>  <r_i_glide_evdw>  (356) 
-23.2646

>  <r_i_glide_ecoul>  (356) 
-0.640515

>  <r_i_glide_erotb>  (356) 
0.162543

>  <r_i_glide_esite>  (356) 
0

>  <r_i_glide_emodel>  (356) 
-28.5367

>  <r_i_glide_energy>  (356) 
-23.9051

>  <r_i_glide_einternal>  (356) 
0.00228141

>  <r_i_glide_intrahb_reward>  (356) 
-0

>  <i_i_glide_confnum>  (356) 
2

>  <i_i_glide_posenum>  (356) 
34

>  <r_i_glide_eff_state_penalty>  (356) 
0

>  <ligand_id>  (356) 
78

>  <original_smiles>  (356) 
C=Cc1cc2c(c3cccc(OC)c13)CC1c3c(cccc3-2)CCN1C

>  <smiles>  (356) 
[H]C([H])=C([H])c1c([H])c2c(c3c([H])c([H])c([H])c(OC([H])([H])[H])c13)C([H])([H])C1([H])c3c-2c([H])c([H])c([H])c3C([H])([H])C([H])([H])N1C([H])([H])[H]

$$$$
78:1:2
     RDKit          3D

 49 53  0  0  1  0  0  0  0  0999 V2000
    3.6213   -8.9840    0.8859 C   0  0  0  0  0  0  0  0  0  0  0  0
    2.5090   -8.8179    1.6233 C   0  0  0  0  0  0  0  0  0  0  0  0
    2.2194   -7.6661    2.5062 C   0  0  0  0  0  0  0  0  0  0  0  0
    2.6197   -6.4062    2.0239 C   0  0  0  0  0  0  0  0  0  0  0  0
    2.3814   -5.2113    2.7232 C   0  0  0  0  0  0  0  0  0  0  0  0
    1.6806   -5.2686    3.9440 C   0  0  0  0  0  0  0  0  0  0  0  0
    1.3421   -6.5372    4.5054 C   0  0  0  0  0  0  0  0  0  0  0  0
    0.7547   -6.6022    5.7922 C   0  0  0  0  0  0  0  0  0  0  0  0
    0.4118   -7.8334    6.3699 C   0  0  0  0  0  0  0  0  0  0  0  0
    0.6575   -9.0259    5.6802 C   0  0  0  0  0  0  0  0  0  0  0  0
    1.2662   -9.0135    4.4011 C   0  0  0  0  0  0  0  0  0  0  0  0
    1.5455  -10.1963    3.7460 O   0  0  0  0  0  0  0  0  0  0  0  0
    1.2742  -11.4440    4.3716 C   0  0  0  0  0  0  0  0  0  0  0  0
    1.6078   -7.7553    3.7967 C   0  0  0  0  0  0  0  0  0  0  0  0
    1.3220   -3.9327    4.6114 C   0  0  0  0  0  0  0  0  0  0  0  0
    1.1314   -2.7601    3.6017 C   0  0  2  0  0  0  0  0  0  0  0  0
    2.3215   -2.6718    2.6241 C   0  0  0  0  0  0  0  0  0  0  0  0
    2.7836   -1.4124    2.1590 C   0  0  0  0  0  0  0  0  0  0  0  0
    3.8328   -1.3752    1.2255 C   0  0  0  0  0  0  0  0  0  0  0  0
    4.4033   -2.5777    0.7772 C   0  0  0  0  0  0  0  0  0  0  0  0
    3.9255   -3.8081    1.2654 C   0  0  0  0  0  0  0  0  0  0  0  0
    2.8588   -3.9110    2.1972 C   0  0  0  0  0  0  0  0  0  0  0  0
    2.1365   -0.1881    2.7705 C   0  0  0  0  0  0  0  0  0  0  0  0
    0.7395   -0.4049    3.3352 C   0  0  0  0  0  0  0  0  0  0  0  0
    0.7899   -1.5018    4.2943 N   0  0  0  0  0  0  0  0  0  0  0  0
   -0.5187   -1.5475    4.9462 C   0  0  0  0  0  0  0  0  0  0  0  0
    4.4325   -8.2721    0.9016 H   0  0  0  0  0  0  0  0  0  0  0  0
    3.7315   -9.8545    0.2510 H   0  0  0  0  0  0  0  0  0  0  0  0
    1.7428   -9.5721    1.5284 H   0  0  0  0  0  0  0  0  0  0  0  0
    3.0963   -6.3591    1.0581 H   0  0  0  0  0  0  0  0  0  0  0  0
    0.5694   -5.7243    6.3863 H   0  0  0  0  0  0  0  0  0  0  0  0
   -0.0381   -7.8648    7.3532 H   0  0  0  0  0  0  0  0  0  0  0  0
    0.3798   -9.9523    6.1660 H   0  0  0  0  0  0  0  0  0  0  0  0
    1.5583  -12.2484    3.6938 H   0  0  0  0  0  0  0  0  0  0  0  0
    0.2150  -11.5670    4.5933 H   0  0  0  0  0  0  0  0  0  0  0  0
    1.8566  -11.5644    5.2847 H   0  0  0  0  0  0  0  0  0  0  0  0
    0.4069   -4.0471    5.1843 H   0  0  0  0  0  0  0  0  0  0  0  0
    2.1184   -3.6789    5.3104 H   0  0  0  0  0  0  0  0  0  0  0  0
    0.2762   -3.0181    2.9775 H   0  0  0  0  0  0  0  0  0  0  0  0
    4.2129   -0.4288    0.8658 H   0  0  0  0  0  0  0  0  0  0  0  0
    5.2142   -2.5683    0.0668 H   0  0  0  0  0  0  0  0  0  0  0  0
    4.4123   -4.7031    0.9140 H   0  0  0  0  0  0  0  0  0  0  0  0
    2.7979    0.1877    3.5516 H   0  0  0  0  0  0  0  0  0  0  0  0
    2.0880    0.5774    1.9955 H   0  0  0  0  0  0  0  0  0  0  0  0
    0.4233    0.5163    3.8267 H   0  0  0  0  0  0  0  0  0  0  0  0
    0.0327   -0.6028    2.5322 H   0  0  0  0  0  0  0  0  0  0  0  0
   -0.7583   -0.5717    5.3729 H   0  0  0  0  0  0  0  0  0  0  0  0
   -0.5414   -2.2578    5.7709 H   0  0  0  0  0  0  0  0  0  0  0  0
   -1.3160   -1.8033    4.2457 H   0  0  0  0  0  0  0  0  0  0  0  0
  1  2  2  0
  1 27  1  0
  1 28  1  0
  2  3  1  0
  2 29  1  0
  3 14  2  0
  3  4  1  0
  4  5  2  0
  4 30  1  0
  5 22  1  0
  5  6  1  0
  6  7  2  0
  6 15  1  0
  7 14  1  0
  7  8  1  0
  8  9  2  0
  8 31  1  0
  9 10  1  0
  9 32  1  0
 10 11  2  0
 10 33  1  0
 11 12  1  0
 11 14  1  0
 12 13  1  0
 13 34  1  0
 13 35  1  0
 13 36  1  0
 15 16  1  0
 15 37  1  0
 15 38  1  0
 16 25  1  0
 16 17  1  0
 16 39  1  6
 17 22  2  0
 17 18  1  0
 18 19  2  0
 18 23  1  0
 19 20  1  0
 19 40  1  0
 20 21  2  0
 20 41  1  0
 21 22  1  0
 21 42  1  0
 23 24  1  0
 23 43  1  0
 23 44  1  0
 24 25  1  0
 24 45  1  0
 24 46  1  0
 25 26  1  0
 26 47  1  0
 26 48  1  0
 26 49  1  0
M  END
>  <i_m_ct_stereo_status>  (357) 
1

>  <s_m_source_file>  (357) 
/var/tmp/pbs.5102264.sched01/tmplas2qej_/115vanlg5zy.sdf

>  <i_m_source_file_index>  (357) 
14

>  <i_lp_mmshare_version>  (357) 
48012

>  <i_f3d_flags>  (357) 
0

>  <s_epik_input>  (357) 
W2NIXTFbY0hdW2NIXWMoT1tDSDNdKWMoYyhbY0hdMilbQ0hdPVtDSDJdKWMxYyhjMjMpW0NIMl1bQ0BASF00YzVjKFtjSF1bY0hdW2NIXWMzNSlbQ0gyXVtDSDJdTjRbQ0gzXQ==

>  <s_epik_cmdline>  (357) 
J2VwaWtfcHl0aG9uJywgJy1waHQnLCAnMi4wJywgJy1waCcsICc3LjAnLCAnLXRuJywgJzgnLCAnLW1hJywgJzIwMCcsICctaW1hZScsICc8aW5maWxlLm1hZT4nLCAnLW9tYWUnLCAnPG91dGZpbGUubWFlPic=

>  <r_epik_Ionization_Penalty>  (357) 
1.33164

>  <r_epik_Ionization_Penalty_Charging>  (357) 
0

>  <r_epik_Ionization_Penalty_Neutral>  (357) 
1.33164

>  <r_epik_State_Penalty>  (357) 
1.40812

>  <r_epik_Charging_Adjusted_Penalty>  (357) 
1.40812

>  <i_epik_Tot_Q>  (357) 
0

>  <i_epik_Tot_abs_Q>  (357) 
0

>  <s_lp_Force_Field>  (357) 
OPLS3e

>  <r_lp_Energy>  (357) 
61.3877

>  <b_lp_Chiralities_Consistent>  (357) 
1

>  <s_lp_Variant>  (357) 
78:0-2

>  <s_i_glide_gridfile>  (357) 
pfpi4k_grid

>  <i_i_glide_lignum>  (357) 
14

>  <i_i_glide_rotatable_bonds>  (357) 
2

>  <r_i_docking_score>  (357) 
-2.42955

>  <r_i_glide_ligand_efficiency>  (357) 
-0.0934443

>  <r_i_glide_ligand_efficiency_sa>  (357) 
-0.276828

>  <r_i_glide_ligand_efficiency_ln>  (357) 
-0.570572

>  <r_i_glide_gscore>  (357) 
-2.42955

>  <r_i_glide_lipo>  (357) 
-0.17357

>  <r_i_glide_hbond>  (357) 
0

>  <r_i_glide_metal>  (357) 
-0

>  <r_i_glide_rewards>  (357) 
-1.08105

>  <r_i_glide_evdw>  (357) 
-22.8916

>  <r_i_glide_ecoul>  (357) 
-1.28592

>  <r_i_glide_erotb>  (357) 
0.162543

>  <r_i_glide_esite>  (357) 
0

>  <r_i_glide_emodel>  (357) 
-28.2807

>  <r_i_glide_energy>  (357) 
-24.1776

>  <r_i_glide_einternal>  (357) 
0.207528

>  <r_i_glide_intrahb_reward>  (357) 
-0

>  <i_i_glide_confnum>  (357) 
5

>  <i_i_glide_posenum>  (357) 
11

>  <r_i_glide_eff_state_penalty>  (357) 
0

>  <ligand_id>  (357) 
78

>  <original_smiles>  (357) 
C=Cc1cc2c(c3cccc(OC)c13)CC1c3c(cccc3-2)CCN1C

>  <smiles>  (357) 
[H]C([H])=C([H])c1c([H])c2c(c3c([H])c([H])c([H])c(OC([H])([H])[H])c13)C([H])([H])C1([H])c3c-2c([H])c([H])c([H])c3C([H])([H])C([H])([H])N1C([H])([H])[H]

$$$$
79:0:0
     RDKit          3D

 36 38  0  0  1  0  0  0  0  0999 V2000
    3.0674   -3.5157   -3.8130 C   0  0  0  0  0  0  0  0  0  0  0  0
    2.4480   -2.6767   -2.6882 C   0  0  0  0  0  0  0  0  0  0  0  0
    3.1803   -1.3227   -2.5702 C   0  0  0  0  0  0  0  0  0  0  0  0
    2.2729   -3.4594   -1.3508 C   0  0  0  0  0  0  0  0  0  0  0  0
    3.4975   -3.6305   -0.3802 C   0  0  1  0  0  0  0  0  0  0  0  0
    4.6555   -3.8154   -1.1703 O   0  0  0  0  0  0  0  0  0  0  0  0
    3.6321   -2.3823    0.5109 C   0  0  0  0  0  0  0  0  0  0  0  0
    4.6166   -1.3865    0.2755 C   0  0  0  0  0  0  0  0  0  0  0  0
    4.7028   -0.2734    1.0340 N   0  0  0  0  0  0  0  0  0  0  0  0
    3.8064   -0.1517    2.0406 C   0  0  0  0  0  0  0  0  0  0  0  0
    2.8413   -1.1471    2.3039 C   0  0  0  0  0  0  0  0  0  0  0  0
    2.7531   -2.2578    1.5389 N   0  0  0  0  0  0  0  0  0  0  0  0
    3.3573   -4.8723    0.4973 C   0  0  0  0  0  0  0  0  0  0  0  0
    4.3221   -5.4416    1.3325 C   0  0  0  0  0  0  0  0  0  0  0  0
    3.9144   -6.5917    2.0038 O   0  0  0  0  0  0  0  0  0  0  0  0
    2.6577   -6.7264    1.5616 C   0  0  0  0  0  0  0  0  0  0  0  0
    1.6141   -7.6030    1.7304 N   0  0  0  0  0  0  0  0  0  0  0  0
    0.6646   -7.0726    0.9062 C   0  0  0  0  0  0  0  0  0  0  0  0
    1.0065   -5.9495    0.2314 N   0  0  0  0  0  0  0  0  0  0  0  0
    2.2968   -5.7880    0.7060 C   0  0  0  0  0  0  0  0  0  0  0  0
    4.0869   -3.8407   -3.5917 H   0  0  0  0  0  0  0  0  0  0  0  0
    3.0999   -2.9394   -4.7336 H   0  0  0  0  0  0  0  0  0  0  0  0
    2.4609   -4.4012   -4.0169 H   0  0  0  0  0  0  0  0  0  0  0  0
    1.4320   -2.4898   -3.0399 H   0  0  0  0  0  0  0  0  0  0  0  0
    4.1914   -1.4678   -2.2004 H   0  0  0  0  0  0  0  0  0  0  0  0
    2.6302   -0.6707   -1.8905 H   0  0  0  0  0  0  0  0  0  0  0  0
    3.1946   -0.8117   -3.5493 H   0  0  0  0  0  0  0  0  0  0  0  0
    1.4301   -3.0541   -0.7888 H   0  0  0  0  0  0  0  0  0  0  0  0
    1.8920   -4.4362   -1.6551 H   0  0  0  0  0  0  0  0  0  0  0  0
    4.6019   -3.2155   -1.8945 H   0  0  0  0  0  0  0  0  0  0  0  0
    5.3332   -1.4693   -0.5377 H   0  0  0  0  0  0  0  0  0  0  0  0
    3.8690    0.7398    2.6459 H   0  0  0  0  0  0  0  0  0  0  0  0
    2.1682   -1.0680    3.1474 H   0  0  0  0  0  0  0  0  0  0  0  0
    5.3433   -5.1417    1.5497 H   0  0  0  0  0  0  0  0  0  0  0  0
   -0.3151   -7.5079    0.7833 H   0  0  0  0  0  0  0  0  0  0  0  0
    1.5615   -8.4271    2.2968 H   0  0  0  0  0  0  0  0  0  0  0  0
  1  2  1  0
  1 21  1  0
  1 22  1  0
  1 23  1  0
  2  3  1  0
  2  4  1  0
  2 24  1  0
  3 25  1  0
  3 26  1  0
  3 27  1  0
  4  5  1  0
  4 28  1  0
  4 29  1  0
  5  6  1  6
  5  7  1  0
  5 13  1  0
  6 30  1  0
  7 12  1  0
  7  8  2  0
  8  9  1  0
  8 31  1  0
  9 10  2  0
 10 11  1  0
 10 32  1  0
 11 12  2  0
 11 33  1  0
 13 20  1  0
 13 14  2  0
 14 15  1  0
 14 34  1  0
 15 16  1  0
 16 20  2  0
 16 17  1  0
 17 18  1  0
 17 36  1  0
 18 19  2  0
 18 35  1  0
 19 20  1  0
M  END
>  <i_m_ct_stereo_status>  (358) 
1

>  <s_m_source_file>  (358) 
/var/tmp/pbs.5102264.sched01/tmplas2qej_/115vanlg5zy.sdf

>  <i_m_source_file_index>  (358) 
15

>  <i_lp_mmshare_version>  (358) 
48012

>  <i_f3d_flags>  (358) 
0

>  <s_epik_input>  (358) 
bjFbY0hdW25IXWMoYzEyKWMoW2NIXW8yKVtDQEBdKFtPSF0pKFtDSDJdW0NIXShbQ0gzXSlbQ0gzXSljM1tjSF1uW2NIXVtjSF1uMw==

>  <s_epik_cmdline>  (358) 
J2VwaWtfcHl0aG9uJywgJy1waHQnLCAnMi4wJywgJy1waCcsICc3LjAnLCAnLXRuJywgJzgnLCAnLW1hJywgJzIwMCcsICctaW1hZScsICc8aW5maWxlLm1hZT4nLCAnLW9tYWUnLCAnPG91dGZpbGUubWFlPic=

>  <r_lp_tautomer_probability>  (358) 
1

>  <r_epik_Ionization_Penalty>  (358) 
0.000743473

>  <r_epik_Ionization_Penalty_Charging>  (358) 
0.000737378

>  <r_epik_Ionization_Penalty_Neutral>  (358) 
6.09494e-06

>  <r_epik_State_Penalty>  (358) 
0.0347206

>  <r_epik_Charging_Adjusted_Penalty>  (358) 
0.035458

>  <i_epik_Tot_Q>  (358) 
0

>  <i_epik_Tot_abs_Q>  (358) 
0

>  <s_lp_Force_Field>  (358) 
OPLS3e

>  <r_lp_Energy>  (358) 
23.0243

>  <b_lp_Chiralities_Consistent>  (358) 
1

>  <s_lp_Variant>  (358) 
79:0-1

>  <s_i_glide_gridfile>  (358) 
pfpi4k_grid

>  <i_i_glide_lignum>  (358) 
15

>  <i_i_glide_rotatable_bonds>  (358) 
5

>  <r_i_docking_score>  (358) 
-3.25375

>  <r_i_glide_ligand_efficiency>  (358) 
-0.162688

>  <r_i_glide_ligand_efficiency_sa>  (358) 
-0.441602

>  <r_i_glide_ligand_efficiency_ln>  (358) 
-0.814307

>  <r_i_glide_gscore>  (358) 
-3.25375

>  <r_i_glide_lipo>  (358) 
-0.233505

>  <r_i_glide_hbond>  (358) 
-0.29661

>  <r_i_glide_metal>  (358) 
-0

>  <r_i_glide_rewards>  (358) 
-1.55248

>  <r_i_glide_evdw>  (358) 
-21.6265

>  <r_i_glide_ecoul>  (358) 
-4.63762

>  <r_i_glide_erotb>  (358) 
0.725003

>  <r_i_glide_esite>  (358) 
-0.119188

>  <r_i_glide_emodel>  (358) 
-29.4719

>  <r_i_glide_energy>  (358) 
-26.2641

>  <r_i_glide_einternal>  (358) 
4.55974

>  <r_i_glide_intrahb_reward>  (358) 
-0

>  <i_i_glide_confnum>  (358) 
1

>  <i_i_glide_posenum>  (358) 
4

>  <r_i_glide_eff_state_penalty>  (358) 
0

>  <ligand_id>  (358) 
79

>  <original_smiles>  (358) 
CC(C)CC(O)(c1cnccn1)c1coc2nc[nH]c12

>  <smiles>  (358) 
[H]OC(c1nc([H])c([H])nc1[H])(c1c([H])oc2c1nc([H])n2[H])C([H])([H])C([H])(C([H])([H])[H])C([H])([H])[H]

$$$$
79:0:1
     RDKit          3D

 36 38  0  0  1  0  0  0  0  0999 V2000
    6.7754   -3.0351   -1.6617 C   0  0  0  0  0  0  0  0  0  0  0  0
    7.0228   -2.7789   -0.1479 C   0  0  0  0  0  0  0  0  0  0  0  0
    7.9474   -3.8956    0.3472 C   0  0  0  0  0  0  0  0  0  0  0  0
    5.7090   -2.6306    0.7036 C   0  0  0  0  0  0  0  0  0  0  0  0
    4.6450   -1.5425    0.3301 C   0  0  1  0  0  0  0  0  0  0  0  0
    5.3479   -0.3175    0.4179 O   0  0  0  0  0  0  0  0  0  0  0  0
    4.0623   -1.7446   -1.0805 C   0  0  0  0  0  0  0  0  0  0  0  0
    4.4139   -0.9398   -2.1875 C   0  0  0  0  0  0  0  0  0  0  0  0
    4.0249   -1.1743   -3.4407 N   0  0  0  0  0  0  0  0  0  0  0  0
    3.2473   -2.2615   -3.6116 C   0  0  0  0  0  0  0  0  0  0  0  0
    2.8272   -3.0506   -2.5362 C   0  0  0  0  0  0  0  0  0  0  0  0
    3.2154   -2.7921   -1.2621 N   0  0  0  0  0  0  0  0  0  0  0  0
    3.4846   -1.5271    1.3334 C   0  0  0  0  0  0  0  0  0  0  0  0
    2.8525   -2.5871    1.9743 C   0  0  0  0  0  0  0  0  0  0  0  0
    1.7788   -2.2374    2.7986 O   0  0  0  0  0  0  0  0  0  0  0  0
    1.7774   -0.8948    2.6332 C   0  0  0  0  0  0  0  0  0  0  0  0
    1.0559    0.1792    3.0982 N   0  0  0  0  0  0  0  0  0  0  0  0
    1.6683    1.2237    2.4833 C   0  0  0  0  0  0  0  0  0  0  0  0
    2.7218    0.9365    1.6822 N   0  0  0  0  0  0  0  0  0  0  0  0
    2.7150   -0.4574    1.8389 C   0  0  0  0  0  0  0  0  0  0  0  0
    6.0975   -3.9104   -1.7851 H   0  0  0  0  0  0  0  0  0  0  0  0
    7.7095   -3.1975   -2.2189 H   0  0  0  0  0  0  0  0  0  0  0  0
    6.3832   -2.1694   -2.0932 H   0  0  0  0  0  0  0  0  0  0  0  0
    7.5765   -1.8389   -0.0608 H   0  0  0  0  0  0  0  0  0  0  0  0
    7.4208   -4.8556    0.3842 H   0  0  0  0  0  0  0  0  0  0  0  0
    8.3895   -3.6961    1.3276 H   0  0  0  0  0  0  0  0  0  0  0  0
    8.7715   -4.0270   -0.3635 H   0  0  0  0  0  0  0  0  0  0  0  0
    5.2276   -3.6079    0.7578 H   0  0  0  0  0  0  0  0  0  0  0  0
    6.0258   -2.4373    1.7375 H   0  0  0  0  0  0  0  0  0  0  0  0
    4.7415    0.3792    0.2203 H   0  0  0  0  0  0  0  0  0  0  0  0
    5.1449   -0.1375   -2.0708 H   0  0  0  0  0  0  0  0  0  0  0  0
    2.9514   -2.4910   -4.6342 H   0  0  0  0  0  0  0  0  0  0  0  0
    2.1409   -3.8644   -2.6799 H   0  0  0  0  0  0  0  0  0  0  0  0
    3.0261   -3.6529    1.9271 H   0  0  0  0  0  0  0  0  0  0  0  0
    1.3487    2.2557    2.6171 H   0  0  0  0  0  0  0  0  0  0  0  0
    0.2790    0.1838    3.7368 H   0  0  0  0  0  0  0  0  0  0  0  0
  1  2  1  0
  1 21  1  0
  1 22  1  0
  1 23  1  0
  2  3  1  0
  2  4  1  0
  2 24  1  0
  3 25  1  0
  3 26  1  0
  3 27  1  0
  4  5  1  0
  4 28  1  0
  4 29  1  0
  5  6  1  6
  5  7  1  0
  5 13  1  0
  6 30  1  0
  7 12  1  0
  7  8  2  0
  8  9  1  0
  8 31  1  0
  9 10  2  0
 10 11  1  0
 10 32  1  0
 11 12  2  0
 11 33  1  0
 13 20  1  0
 13 14  2  0
 14 15  1  0
 14 34  1  0
 15 16  1  0
 16 20  2  0
 16 17  1  0
 17 18  1  0
 17 36  1  0
 18 19  2  0
 18 35  1  0
 19 20  1  0
M  END
>  <i_m_ct_stereo_status>  (359) 
1

>  <s_m_source_file>  (359) 
/var/tmp/pbs.5102264.sched01/tmplas2qej_/115vanlg5zy.sdf

>  <i_m_source_file_index>  (359) 
15

>  <i_lp_mmshare_version>  (359) 
48012

>  <i_f3d_flags>  (359) 
0

>  <s_epik_input>  (359) 
bjFbY0hdW25IXWMoYzEyKWMoW2NIXW8yKVtDQEBdKFtPSF0pKFtDSDJdW0NIXShbQ0gzXSlbQ0gzXSljM1tjSF1uW2NIXVtjSF1uMw==

>  <s_epik_cmdline>  (359) 
J2VwaWtfcHl0aG9uJywgJy1waHQnLCAnMi4wJywgJy1waCcsICc3LjAnLCAnLXRuJywgJzgnLCAnLW1hJywgJzIwMCcsICctaW1hZScsICc8aW5maWxlLm1hZT4nLCAnLW9tYWUnLCAnPG91dGZpbGUubWFlPic=

>  <r_lp_tautomer_probability>  (359) 
1

>  <r_epik_Ionization_Penalty>  (359) 
0.000743473

>  <r_epik_Ionization_Penalty_Charging>  (359) 
0.000737378

>  <r_epik_Ionization_Penalty_Neutral>  (359) 
6.09494e-06

>  <r_epik_State_Penalty>  (359) 
0.0347206

>  <r_epik_Charging_Adjusted_Penalty>  (359) 
0.035458

>  <i_epik_Tot_Q>  (359) 
0

>  <i_epik_Tot_abs_Q>  (359) 
0

>  <s_lp_Force_Field>  (359) 
OPLS3e

>  <r_lp_Energy>  (359) 
23.0243

>  <b_lp_Chiralities_Consistent>  (359) 
1

>  <s_lp_Variant>  (359) 
79:0-1

>  <s_i_glide_gridfile>  (359) 
pfpi4k_grid

>  <i_i_glide_lignum>  (359) 
15

>  <i_i_glide_rotatable_bonds>  (359) 
5

>  <r_i_docking_score>  (359) 
-3.048

>  <r_i_glide_ligand_efficiency>  (359) 
-0.1524

>  <r_i_glide_ligand_efficiency_sa>  (359) 
-0.413677

>  <r_i_glide_ligand_efficiency_ln>  (359) 
-0.762813

>  <r_i_glide_gscore>  (359) 
-3.048

>  <r_i_glide_lipo>  (359) 
-0.573694

>  <r_i_glide_hbond>  (359) 
-0.0517824

>  <r_i_glide_metal>  (359) 
-0

>  <r_i_glide_rewards>  (359) 
-1.55248

>  <r_i_glide_evdw>  (359) 
-27.8066

>  <r_i_glide_ecoul>  (359) 
-1.14248

>  <r_i_glide_erotb>  (359) 
0.725003

>  <r_i_glide_esite>  (359) 
-0.0333373

>  <r_i_glide_emodel>  (359) 
-32.3481

>  <r_i_glide_energy>  (359) 
-28.9491

>  <r_i_glide_einternal>  (359) 
1.5949

>  <r_i_glide_intrahb_reward>  (359) 
-0

>  <i_i_glide_confnum>  (359) 
2

>  <i_i_glide_posenum>  (359) 
2

>  <r_i_glide_eff_state_penalty>  (359) 
0

>  <ligand_id>  (359) 
79

>  <original_smiles>  (359) 
CC(C)CC(O)(c1cnccn1)c1coc2nc[nH]c12

>  <smiles>  (359) 
[H]OC(c1nc([H])c([H])nc1[H])(c1c([H])oc2c1nc([H])n2[H])C([H])([H])C([H])(C([H])([H])[H])C([H])([H])[H]

$$$$
79:0:2
     RDKit          3D

 36 38  0  0  1  0  0  0  0  0999 V2000
    6.5674   -3.4226   -1.5321 C   0  0  0  0  0  0  0  0  0  0  0  0
    6.7763   -3.2444   -0.0170 C   0  0  0  0  0  0  0  0  0  0  0  0
    7.5879   -4.4543    0.4989 C   0  0  0  0  0  0  0  0  0  0  0  0
    5.4647   -3.0382    0.8051 C   0  0  0  0  0  0  0  0  0  0  0  0
    4.5561   -1.7985    0.4714 C   0  0  1  0  0  0  0  0  0  0  0  0
    5.4353   -0.6960    0.6218 O   0  0  0  0  0  0  0  0  0  0  0  0
    3.9863   -1.8956   -0.9569 C   0  0  0  0  0  0  0  0  0  0  0  0
    4.3682   -0.9989   -1.9918 C   0  0  0  0  0  0  0  0  0  0  0  0
    3.9399   -1.1283   -3.2550 N   0  0  0  0  0  0  0  0  0  0  0  0
    3.1193   -2.1766   -3.5081 C   0  0  0  0  0  0  0  0  0  0  0  0
    2.6960   -3.0412   -2.4864 C   0  0  0  0  0  0  0  0  0  0  0  0
    3.1022   -2.8933   -1.2045 N   0  0  0  0  0  0  0  0  0  0  0  0
    3.3971   -1.6695    1.4489 C   0  0  0  0  0  0  0  0  0  0  0  0
    2.6821   -2.6505    2.1405 C   0  0  0  0  0  0  0  0  0  0  0  0
    1.6319   -2.1898    2.9354 O   0  0  0  0  0  0  0  0  0  0  0  0
    1.7026   -0.8753    2.7172 C   0  0  0  0  0  0  0  0  0  0  0  0
    1.0523    0.2674    3.1237 N   0  0  0  0  0  0  0  0  0  0  0  0
    1.7291    1.2530    2.4677 C   0  0  0  0  0  0  0  0  0  0  0  0
    2.7682    0.8514    1.6926 N   0  0  0  0  0  0  0  0  0  0  0  0
    2.6824   -0.5187    1.9011 C   0  0  0  0  0  0  0  0  0  0  0  0
    5.8657   -4.2476   -1.7136 H   0  0  0  0  0  0  0  0  0  0  0  0
    7.5026   -3.6434   -2.0476 H   0  0  0  0  0  0  0  0  0  0  0  0
    6.1909   -2.5245   -1.9813 H   0  0  0  0  0  0  0  0  0  0  0  0
    7.4075   -2.3711    0.1270 H   0  0  0  0  0  0  0  0  0  0  0  0
    6.9867   -5.3638    0.4922 H   0  0  0  0  0  0  0  0  0  0  0  0
    7.9884   -4.3095    1.5046 H   0  0  0  0  0  0  0  0  0  0  0  0
    8.4360   -4.6374   -0.1647 H   0  0  0  0  0  0  0  0  0  0  0  0
    4.8624   -3.9434    0.7657 H   0  0  0  0  0  0  0  0  0  0  0  0
    5.7465   -2.9427    1.8532 H   0  0  0  0  0  0  0  0  0  0  0  0
    5.6568   -0.6354    1.5357 H   0  0  0  0  0  0  0  0  0  0  0  0
    5.0734   -0.1994   -1.8170 H   0  0  0  0  0  0  0  0  0  0  0  0
    2.8052   -2.3088   -4.5318 H   0  0  0  0  0  0  0  0  0  0  0  0
    2.0129   -3.8550   -2.7002 H   0  0  0  0  0  0  0  0  0  0  0  0
    2.7932   -3.7277    2.1517 H   0  0  0  0  0  0  0  0  0  0  0  0
    1.4784    2.2920    2.5408 H   0  0  0  0  0  0  0  0  0  0  0  0
    0.2705    0.3529    3.7564 H   0  0  0  0  0  0  0  0  0  0  0  0
  1  2  1  0
  1 21  1  0
  1 22  1  0
  1 23  1  0
  2  3  1  0
  2  4  1  0
  2 24  1  0
  3 25  1  0
  3 26  1  0
  3 27  1  0
  4  5  1  0
  4 28  1  0
  4 29  1  0
  5  6  1  6
  5  7  1  0
  5 13  1  0
  6 30  1  0
  7 12  1  0
  7  8  2  0
  8  9  1  0
  8 31  1  0
  9 10  2  0
 10 11  1  0
 10 32  1  0
 11 12  2  0
 11 33  1  0
 13 20  1  0
 13 14  2  0
 14 15  1  0
 14 34  1  0
 15 16  1  0
 16 20  2  0
 16 17  1  0
 17 18  1  0
 17 36  1  0
 18 19  2  0
 18 35  1  0
 19 20  1  0
M  END
>  <i_m_ct_stereo_status>  (360) 
1

>  <s_m_source_file>  (360) 
/var/tmp/pbs.5102264.sched01/tmplas2qej_/115vanlg5zy.sdf

>  <i_m_source_file_index>  (360) 
15

>  <i_lp_mmshare_version>  (360) 
48012

>  <i_f3d_flags>  (360) 
0

>  <s_epik_input>  (360) 
bjFbY0hdW25IXWMoYzEyKWMoW2NIXW8yKVtDQEBdKFtPSF0pKFtDSDJdW0NIXShbQ0gzXSlbQ0gzXSljM1tjSF1uW2NIXVtjSF1uMw==

>  <s_epik_cmdline>  (360) 
J2VwaWtfcHl0aG9uJywgJy1waHQnLCAnMi4wJywgJy1waCcsICc3LjAnLCAnLXRuJywgJzgnLCAnLW1hJywgJzIwMCcsICctaW1hZScsICc8aW5maWxlLm1hZT4nLCAnLW9tYWUnLCAnPG91dGZpbGUubWFlPic=

>  <r_lp_tautomer_probability>  (360) 
1

>  <r_epik_Ionization_Penalty>  (360) 
0.000743473

>  <r_epik_Ionization_Penalty_Charging>  (360) 
0.000737378

>  <r_epik_Ionization_Penalty_Neutral>  (360) 
6.09494e-06

>  <r_epik_State_Penalty>  (360) 
0.0347206

>  <r_epik_Charging_Adjusted_Penalty>  (360) 
0.035458

>  <i_epik_Tot_Q>  (360) 
0

>  <i_epik_Tot_abs_Q>  (360) 
0

>  <s_lp_Force_Field>  (360) 
OPLS3e

>  <r_lp_Energy>  (360) 
23.0243

>  <b_lp_Chiralities_Consistent>  (360) 
1

>  <s_lp_Variant>  (360) 
79:0-1

>  <s_i_glide_gridfile>  (360) 
pfpi4k_grid

>  <i_i_glide_lignum>  (360) 
15

>  <i_i_glide_rotatable_bonds>  (360) 
5

>  <r_i_docking_score>  (360) 
-2.87219

>  <r_i_glide_ligand_efficiency>  (360) 
-0.14361

>  <r_i_glide_ligand_efficiency_sa>  (360) 
-0.389816

>  <r_i_glide_ligand_efficiency_ln>  (360) 
-0.718815

>  <r_i_glide_gscore>  (360) 
-2.87219

>  <r_i_glide_lipo>  (360) 
-0.675758

>  <r_i_glide_hbond>  (360) 
0

>  <r_i_glide_metal>  (360) 
-0

>  <r_i_glide_rewards>  (360) 
-1.55248

>  <r_i_glide_evdw>  (360) 
-27.3053

>  <r_i_glide_ecoul>  (360) 
0.167834

>  <r_i_glide_erotb>  (360) 
0.725003

>  <r_i_glide_esite>  (360) 
-0.0288615

>  <r_i_glide_emodel>  (360) 
-31.5048

>  <r_i_glide_energy>  (360) 
-27.1375

>  <r_i_glide_einternal>  (360) 
0.785177

>  <r_i_glide_intrahb_reward>  (360) 
-0

>  <i_i_glide_confnum>  (360) 
2

>  <i_i_glide_posenum>  (360) 
15

>  <r_i_glide_eff_state_penalty>  (360) 
0

>  <ligand_id>  (360) 
79

>  <original_smiles>  (360) 
CC(C)CC(O)(c1cnccn1)c1coc2nc[nH]c12

>  <smiles>  (360) 
[H]OC(c1nc([H])c([H])nc1[H])(c1c([H])oc2c1nc([H])n2[H])C([H])([H])C([H])(C([H])([H])[H])C([H])([H])[H]

$$$$
79:1:0
     RDKit          3D

 36 38  0  0  1  0  0  0  0  0999 V2000
    8.5583   -2.9536   -0.4477 C   0  0  0  0  0  0  0  0  0  0  0  0
    7.1387   -3.5356   -0.4128 C   0  0  0  0  0  0  0  0  0  0  0  0
    6.5426   -3.4715   -1.8270 C   0  0  0  0  0  0  0  0  0  0  0  0
    6.2563   -2.9314    0.7326 C   0  0  0  0  0  0  0  0  0  0  0  0
    5.2907   -1.7140    0.4720 C   0  0  1  0  0  0  0  0  0  0  0  0
    6.1685   -0.6774    0.0776 O   0  0  0  0  0  0  0  0  0  0  0  0
    4.2580   -2.0380   -0.6177 C   0  0  0  0  0  0  0  0  0  0  0  0
    4.2164   -1.3477   -1.8564 C   0  0  0  0  0  0  0  0  0  0  0  0
    3.3714   -1.6983   -2.8526 N   0  0  0  0  0  0  0  0  0  0  0  0
    2.5690   -2.7544   -2.6083 C   0  0  0  0  0  0  0  0  0  0  0  0
    2.5865   -3.4360   -1.3740 C   0  0  0  0  0  0  0  0  0  0  0  0
    3.4074   -3.0642   -0.3671 N   0  0  0  0  0  0  0  0  0  0  0  0
    4.5866   -1.2737    1.7498 C   0  0  0  0  0  0  0  0  0  0  0  0
    5.0779   -1.3268    3.0503 C   0  0  0  0  0  0  0  0  0  0  0  0
    4.2142   -0.8400    4.0238 O   0  0  0  0  0  0  0  0  0  0  0  0
    3.1669   -0.4686    3.2942 C   0  0  0  0  0  0  0  0  0  0  0  0
    1.9333    0.0803    3.5463 N   0  0  0  0  0  0  0  0  0  0  0  0
    1.4455    0.1574    2.2784 C   0  0  0  0  0  0  0  0  0  0  0  0
    2.2643   -0.3061    1.2869 N   0  0  0  0  0  0  0  0  0  0  0  0
    3.3644   -0.6942    2.0063 C   0  0  0  0  0  0  0  0  0  0  0  0
    2.0326   -0.4316    0.3037 H   0  0  0  0  0  0  0  0  0  0  0  0
    8.5475   -1.8855   -0.6593 H   0  0  0  0  0  0  0  0  0  0  0  0
    9.1356   -3.4427   -1.2325 H   0  0  0  0  0  0  0  0  0  0  0  0
    9.0873   -3.1068    0.4934 H   0  0  0  0  0  0  0  0  0  0  0  0
    7.2703   -4.5913   -0.1581 H   0  0  0  0  0  0  0  0  0  0  0  0
    6.4181   -2.4421   -2.1358 H   0  0  0  0  0  0  0  0  0  0  0  0
    5.6008   -4.0238   -1.8647 H   0  0  0  0  0  0  0  0  0  0  0  0
    7.2041   -3.8637   -2.6018 H   0  0  0  0  0  0  0  0  0  0  0  0
    5.6750   -3.7447    1.1674 H   0  0  0  0  0  0  0  0  0  0  0  0
    6.9460   -2.6624    1.5304 H   0  0  0  0  0  0  0  0  0  0  0  0
    5.6653    0.1210   -0.0092 H   0  0  0  0  0  0  0  0  0  0  0  0
    4.9001   -0.5445   -2.0945 H   0  0  0  0  0  0  0  0  0  0  0  0
    1.8667   -3.0242   -3.3786 H   0  0  0  0  0  0  0  0  0  0  0  0
    1.9172   -4.2581   -1.1775 H   0  0  0  0  0  0  0  0  0  0  0  0
    6.0271   -1.6814    3.4187 H   0  0  0  0  0  0  0  0  0  0  0  0
    0.4511    0.5275    2.0572 H   0  0  0  0  0  0  0  0  0  0  0  0
  1  2  1  0
  1 22  1  0
  1 23  1  0
  1 24  1  0
  2  3  1  0
  2  4  1  0
  2 25  1  0
  3 26  1  0
  3 27  1  0
  3 28  1  0
  4  5  1  0
  4 29  1  0
  4 30  1  0
  5  6  1  6
  5  7  1  0
  5 13  1  0
  6 31  1  0
  7 12  1  0
  7  8  2  0
  8  9  1  0
  8 32  1  0
  9 10  2  0
 10 11  1  0
 10 33  1  0
 11 12  2  0
 11 34  1  0
 13 20  1  0
 13 14  2  0
 14 15  1  0
 14 35  1  0
 15 16  1  0
 16 20  2  0
 16 17  1  0
 17 18  2  0
 18 19  1  0
 18 36  1  0
 19 21  1  0
 19 20  1  0
M  END
>  <i_m_ct_stereo_status>  (361) 
1

>  <s_m_source_file>  (361) 
/var/tmp/pbs.5102264.sched01/tmplas2qej_/115vanlg5zy.sdf

>  <i_m_source_file_index>  (361) 
16

>  <i_lp_mmshare_version>  (361) 
48012

>  <i_f3d_flags>  (361) 
0

>  <s_epik_input>  (361) 
bjFbY0hdW25IXWMoYzEyKWMoW2NIXW8yKVtDQEBdKFtPSF0pKFtDSDJdW0NIXShbQ0gzXSlbQ0gzXSljM1tjSF1uW2NIXVtjSF1uMw==

>  <s_epik_cmdline>  (361) 
J2VwaWtfcHl0aG9uJywgJy1waHQnLCAnMi4wJywgJy1waCcsICc3LjAnLCAnLXRuJywgJzgnLCAnLW1hJywgJzIwMCcsICctaW1hZScsICc8aW5maWxlLm1hZT4nLCAnLW9tYWUnLCAnPG91dGZpbGUubWFlPic=

>  <r_epik_Ionization_Penalty>  (361) 
0.0103779

>  <r_epik_Ionization_Penalty_Charging>  (361) 
0.0102858

>  <r_epik_Ionization_Penalty_Neutral>  (361) 
9.21727e-05

>  <r_epik_State_Penalty>  (361) 
1.70601

>  <r_epik_Charging_Adjusted_Penalty>  (361) 
1.7163

>  <i_epik_Tot_Q>  (361) 
0

>  <i_epik_Tot_abs_Q>  (361) 
0

>  <s_lp_Force_Field>  (361) 
OPLS3e

>  <r_lp_Energy>  (361) 
21.3259

>  <b_lp_Chiralities_Consistent>  (361) 
1

>  <s_lp_Variant>  (361) 
79:0-2

>  <s_i_glide_gridfile>  (361) 
pfpi4k_grid

>  <i_i_glide_lignum>  (361) 
16

>  <i_i_glide_rotatable_bonds>  (361) 
5

>  <r_i_docking_score>  (361) 
-3.98316

>  <r_i_glide_ligand_efficiency>  (361) 
-0.199158

>  <r_i_glide_ligand_efficiency_sa>  (361) 
-0.540598

>  <r_i_glide_ligand_efficiency_ln>  (361) 
-0.996853

>  <r_i_glide_gscore>  (361) 
-3.98316

>  <r_i_glide_lipo>  (361) 
-0.632427

>  <r_i_glide_hbond>  (361) 
-0.327706

>  <r_i_glide_metal>  (361) 
-0

>  <r_i_glide_rewards>  (361) 
-1.55248

>  <r_i_glide_evdw>  (361) 
-22.9524

>  <r_i_glide_ecoul>  (361) 
-6.13648

>  <r_i_glide_erotb>  (361) 
0.725003

>  <r_i_glide_esite>  (361) 
-0.127452

>  <r_i_glide_emodel>  (361) 
-34.7392

>  <r_i_glide_energy>  (361) 
-29.0889

>  <r_i_glide_einternal>  (361) 
3.65197

>  <r_i_glide_intrahb_reward>  (361) 
-0

>  <i_i_glide_confnum>  (361) 
2

>  <i_i_glide_posenum>  (361) 
27

>  <r_i_glide_eff_state_penalty>  (361) 
0

>  <ligand_id>  (361) 
79

>  <original_smiles>  (361) 
CC(C)CC(O)(c1cnccn1)c1coc2nc[nH]c12

>  <smiles>  (361) 
[H]OC(c1nc([H])c([H])nc1[H])(c1c([H])oc2nc([H])n([H])c12)C([H])([H])C([H])(C([H])([H])[H])C([H])([H])[H]

$$$$
79:1:1
     RDKit          3D

 36 38  0  0  1  0  0  0  0  0999 V2000
    3.5107   -3.7845    2.4454 C   0  0  0  0  0  0  0  0  0  0  0  0
    4.2463   -4.5676    1.3499 C   0  0  0  0  0  0  0  0  0  0  0  0
    4.4489   -6.0084    1.7978 C   0  0  0  0  0  0  0  0  0  0  0  0
    5.5570   -3.8524    0.8260 C   0  0  0  0  0  0  0  0  0  0  0  0
    5.4836   -2.4081    0.1534 C   0  0  1  0  0  0  0  0  0  0  0  0
    6.8471   -2.1796   -0.2190 O   0  0  0  0  0  0  0  0  0  0  0  0
    4.5956   -2.3686   -1.1119 C   0  0  0  0  0  0  0  0  0  0  0  0
    4.9873   -1.6996   -2.3032 C   0  0  0  0  0  0  0  0  0  0  0  0
    4.2048   -1.6654   -3.4126 N   0  0  0  0  0  0  0  0  0  0  0  0
    3.0232   -2.3140   -3.3282 C   0  0  0  0  0  0  0  0  0  0  0  0
    2.6345   -2.9749   -2.1469 C   0  0  0  0  0  0  0  0  0  0  0  0
    3.3934   -2.9710   -1.0382 N   0  0  0  0  0  0  0  0  0  0  0  0
    5.0722   -1.3186    1.1549 C   0  0  0  0  0  0  0  0  0  0  0  0
    5.8281   -0.8320    2.2096 C   0  0  0  0  0  0  0  0  0  0  0  0
    5.1650    0.0323    3.0704 O   0  0  0  0  0  0  0  0  0  0  0  0
    4.0207    0.1532    2.4611 C   0  0  0  0  0  0  0  0  0  0  0  0
    2.8039    0.7859    2.7727 N   0  0  0  0  0  0  0  0  0  0  0  0
    2.0550    0.3418    1.7223 C   0  0  0  0  0  0  0  0  0  0  0  0
    2.6707   -0.5272    0.8777 N   0  0  0  0  0  0  0  0  0  0  0  0
    3.9524   -0.5709    1.3549 C   0  0  0  0  0  0  0  0  0  0  0  0
    2.2587   -1.0361    0.1258 H   0  0  0  0  0  0  0  0  0  0  0  0
    4.1631   -3.5909    3.3049 H   0  0  0  0  0  0  0  0  0  0  0  0
    2.5932   -4.2870    2.7587 H   0  0  0  0  0  0  0  0  0  0  0  0
    3.1530   -2.8467    2.0296 H   0  0  0  0  0  0  0  0  0  0  0  0
    3.5500   -4.7675    0.5374 H   0  0  0  0  0  0  0  0  0  0  0  0
    5.1709   -6.0970    2.6154 H   0  0  0  0  0  0  0  0  0  0  0  0
    4.7371   -6.6454    0.9487 H   0  0  0  0  0  0  0  0  0  0  0  0
    3.4704   -6.3709    2.1456 H   0  0  0  0  0  0  0  0  0  0  0  0
    6.2806   -3.8252    1.6434 H   0  0  0  0  0  0  0  0  0  0  0  0
    6.0262   -4.5270    0.1095 H   0  0  0  0  0  0  0  0  0  0  0  0
    7.1821   -2.9280   -0.6607 H   0  0  0  0  0  0  0  0  0  0  0  0
    5.9218   -1.1524   -2.3209 H   0  0  0  0  0  0  0  0  0  0  0  0
    2.3697   -2.3029   -4.1881 H   0  0  0  0  0  0  0  0  0  0  0  0
    1.7130   -3.5309   -2.0747 H   0  0  0  0  0  0  0  0  0  0  0  0
    6.8269   -1.1089    2.5099 H   0  0  0  0  0  0  0  0  0  0  0  0
    1.0219    0.5959    1.5620 H   0  0  0  0  0  0  0  0  0  0  0  0
  1  2  1  0
  1 22  1  0
  1 23  1  0
  1 24  1  0
  2  3  1  0
  2  4  1  0
  2 25  1  0
  3 26  1  0
  3 27  1  0
  3 28  1  0
  4  5  1  0
  4 29  1  0
  4 30  1  0
  5  6  1  6
  5  7  1  0
  5 13  1  0
  6 31  1  0
  7 12  1  0
  7  8  2  0
  8  9  1  0
  8 32  1  0
  9 10  2  0
 10 11  1  0
 10 33  1  0
 11 12  2  0
 11 34  1  0
 13 20  1  0
 13 14  2  0
 14 15  1  0
 14 35  1  0
 15 16  1  0
 16 20  2  0
 16 17  1  0
 17 18  2  0
 18 19  1  0
 18 36  1  0
 19 21  1  0
 19 20  1  0
M  END
>  <i_m_ct_stereo_status>  (362) 
1

>  <s_m_source_file>  (362) 
/var/tmp/pbs.5102264.sched01/tmplas2qej_/115vanlg5zy.sdf

>  <i_m_source_file_index>  (362) 
16

>  <i_lp_mmshare_version>  (362) 
48012

>  <i_f3d_flags>  (362) 
0

>  <s_epik_input>  (362) 
bjFbY0hdW25IXWMoYzEyKWMoW2NIXW8yKVtDQEBdKFtPSF0pKFtDSDJdW0NIXShbQ0gzXSlbQ0gzXSljM1tjSF1uW2NIXVtjSF1uMw==

>  <s_epik_cmdline>  (362) 
J2VwaWtfcHl0aG9uJywgJy1waHQnLCAnMi4wJywgJy1waCcsICc3LjAnLCAnLXRuJywgJzgnLCAnLW1hJywgJzIwMCcsICctaW1hZScsICc8aW5maWxlLm1hZT4nLCAnLW9tYWUnLCAnPG91dGZpbGUubWFlPic=

>  <r_epik_Ionization_Penalty>  (362) 
0.0103779

>  <r_epik_Ionization_Penalty_Charging>  (362) 
0.0102858

>  <r_epik_Ionization_Penalty_Neutral>  (362) 
9.21727e-05

>  <r_epik_State_Penalty>  (362) 
1.70601

>  <r_epik_Charging_Adjusted_Penalty>  (362) 
1.7163

>  <i_epik_Tot_Q>  (362) 
0

>  <i_epik_Tot_abs_Q>  (362) 
0

>  <s_lp_Force_Field>  (362) 
OPLS3e

>  <r_lp_Energy>  (362) 
21.3259

>  <b_lp_Chiralities_Consistent>  (362) 
1

>  <s_lp_Variant>  (362) 
79:0-2

>  <s_i_glide_gridfile>  (362) 
pfpi4k_grid

>  <i_i_glide_lignum>  (362) 
16

>  <i_i_glide_rotatable_bonds>  (362) 
5

>  <r_i_docking_score>  (362) 
-3.50166

>  <r_i_glide_ligand_efficiency>  (362) 
-0.175083

>  <r_i_glide_ligand_efficiency_sa>  (362) 
-0.475248

>  <r_i_glide_ligand_efficiency_ln>  (362) 
-0.876349

>  <r_i_glide_gscore>  (362) 
-3.50166

>  <r_i_glide_lipo>  (362) 
-0.486362

>  <r_i_glide_hbond>  (362) 
-0.22467

>  <r_i_glide_metal>  (362) 
-0

>  <r_i_glide_rewards>  (362) 
-1.55248

>  <r_i_glide_evdw>  (362) 
-21.2765

>  <r_i_glide_ecoul>  (362) 
-5.19408

>  <r_i_glide_erotb>  (362) 
0.725003

>  <r_i_glide_esite>  (362) 
-0.120207

>  <r_i_glide_emodel>  (362) 
-31.0892

>  <r_i_glide_energy>  (362) 
-26.4705

>  <r_i_glide_einternal>  (362) 
2.34148

>  <r_i_glide_intrahb_reward>  (362) 
-0

>  <i_i_glide_confnum>  (362) 
4

>  <i_i_glide_posenum>  (362) 
14

>  <r_i_glide_eff_state_penalty>  (362) 
0

>  <ligand_id>  (362) 
79

>  <original_smiles>  (362) 
CC(C)CC(O)(c1cnccn1)c1coc2nc[nH]c12

>  <smiles>  (362) 
[H]OC(c1nc([H])c([H])nc1[H])(c1c([H])oc2nc([H])n([H])c12)C([H])([H])C([H])(C([H])([H])[H])C([H])([H])[H]

$$$$
79:1:2
     RDKit          3D

 36 38  0  0  1  0  0  0  0  0999 V2000
    5.1911   -1.7984   -2.0074 C   0  0  0  0  0  0  0  0  0  0  0  0
    6.0116   -2.7344   -1.1134 C   0  0  0  0  0  0  0  0  0  0  0  0
    7.2983   -3.1428   -1.8706 C   0  0  0  0  0  0  0  0  0  0  0  0
    5.1909   -3.9621   -0.6169 C   0  0  0  0  0  0  0  0  0  0  0  0
    3.9007   -3.6922    0.2438 C   0  0  1  0  0  0  0  0  0  0  0  0
    2.9566   -3.1562   -0.6582 O   0  0  0  0  0  0  0  0  0  0  0  0
    3.3586   -5.0280    0.7936 C   0  0  0  0  0  0  0  0  0  0  0  0
    2.0703   -5.5072    0.4255 C   0  0  0  0  0  0  0  0  0  0  0  0
    1.5351   -6.6453    0.9020 N   0  0  0  0  0  0  0  0  0  0  0  0
    2.3190   -7.3543    1.7335 C   0  0  0  0  0  0  0  0  0  0  0  0
    3.6126   -6.9160    2.0990 C   0  0  0  0  0  0  0  0  0  0  0  0
    4.1308   -5.7506    1.6455 N   0  0  0  0  0  0  0  0  0  0  0  0
    4.1862   -2.6996    1.3863 C   0  0  0  0  0  0  0  0  0  0  0  0
    5.1571   -2.7874    2.3682 C   0  0  0  0  0  0  0  0  0  0  0  0
    5.1963   -1.7137    3.2523 O   0  0  0  0  0  0  0  0  0  0  0  0
    4.2207   -0.9486    2.7963 C   0  0  0  0  0  0  0  0  0  0  0  0
    3.6430    0.2647    3.1284 N   0  0  0  0  0  0  0  0  0  0  0  0
    2.7016    0.3598    2.1629 C   0  0  0  0  0  0  0  0  0  0  0  0
    2.6399   -0.6739    1.2787 N   0  0  0  0  0  0  0  0  0  0  0  0
    3.6370   -1.4944    1.7327 C   0  0  0  0  0  0  0  0  0  0  0  0
    2.0137   -0.8108    0.4849 H   0  0  0  0  0  0  0  0  0  0  0  0
    4.8032   -2.3444   -2.8712 H   0  0  0  0  0  0  0  0  0  0  0  0
    5.7885   -0.9535   -2.3407 H   0  0  0  0  0  0  0  0  0  0  0  0
    4.3586   -1.3526   -1.4732 H   0  0  0  0  0  0  0  0  0  0  0  0
    6.3442   -2.1683   -0.2445 H   0  0  0  0  0  0  0  0  0  0  0  0
    7.0830   -3.8046   -2.7102 H   0  0  0  0  0  0  0  0  0  0  0  0
    8.0275   -3.6436   -1.2258 H   0  0  0  0  0  0  0  0  0  0  0  0
    7.8069   -2.2723   -2.2943 H   0  0  0  0  0  0  0  0  0  0  0  0
    4.9596   -4.6254   -1.4561 H   0  0  0  0  0  0  0  0  0  0  0  0
    5.8855   -4.5466   -0.0178 H   0  0  0  0  0  0  0  0  0  0  0  0
    2.9406   -3.6985   -1.4314 H   0  0  0  0  0  0  0  0  0  0  0  0
    1.4339   -4.9901   -0.2713 H   0  0  0  0  0  0  0  0  0  0  0  0
    1.9033   -8.2760    2.1034 H   0  0  0  0  0  0  0  0  0  0  0  0
    4.2146   -7.5084    2.7711 H   0  0  0  0  0  0  0  0  0  0  0  0
    5.8953   -3.5564    2.5594 H   0  0  0  0  0  0  0  0  0  0  0  0
    2.0433    1.2251    2.1088 H   0  0  0  0  0  0  0  0  0  0  0  0
  1  2  1  0
  1 22  1  0
  1 23  1  0
  1 24  1  0
  2  3  1  0
  2  4  1  0
  2 25  1  0
  3 26  1  0
  3 27  1  0
  3 28  1  0
  4  5  1  0
  4 29  1  0
  4 30  1  0
  5  6  1  6
  5  7  1  0
  5 13  1  0
  6 31  1  0
  7 12  1  0
  7  8  2  0
  8  9  1  0
  8 32  1  0
  9 10  2  0
 10 11  1  0
 10 33  1  0
 11 12  2  0
 11 34  1  0
 13 20  1  0
 13 14  2  0
 14 15  1  0
 14 35  1  0
 15 16  1  0
 16 20  2  0
 16 17  1  0
 17 18  2  0
 18 19  1  0
 18 36  1  0
 19 21  1  0
 19 20  1  0
M  END
>  <i_m_ct_stereo_status>  (363) 
1

>  <s_m_source_file>  (363) 
/var/tmp/pbs.5102264.sched01/tmplas2qej_/115vanlg5zy.sdf

>  <i_m_source_file_index>  (363) 
16

>  <i_lp_mmshare_version>  (363) 
48012

>  <i_f3d_flags>  (363) 
0

>  <s_epik_input>  (363) 
bjFbY0hdW25IXWMoYzEyKWMoW2NIXW8yKVtDQEBdKFtPSF0pKFtDSDJdW0NIXShbQ0gzXSlbQ0gzXSljM1tjSF1uW2NIXVtjSF1uMw==

>  <s_epik_cmdline>  (363) 
J2VwaWtfcHl0aG9uJywgJy1waHQnLCAnMi4wJywgJy1waCcsICc3LjAnLCAnLXRuJywgJzgnLCAnLW1hJywgJzIwMCcsICctaW1hZScsICc8aW5maWxlLm1hZT4nLCAnLW9tYWUnLCAnPG91dGZpbGUubWFlPic=

>  <r_epik_Ionization_Penalty>  (363) 
0.0103779

>  <r_epik_Ionization_Penalty_Charging>  (363) 
0.0102858

>  <r_epik_Ionization_Penalty_Neutral>  (363) 
9.21727e-05

>  <r_epik_State_Penalty>  (363) 
1.70601

>  <r_epik_Charging_Adjusted_Penalty>  (363) 
1.7163

>  <i_epik_Tot_Q>  (363) 
0

>  <i_epik_Tot_abs_Q>  (363) 
0

>  <s_lp_Force_Field>  (363) 
OPLS3e

>  <r_lp_Energy>  (363) 
21.3259

>  <b_lp_Chiralities_Consistent>  (363) 
1

>  <s_lp_Variant>  (363) 
79:0-2

>  <s_i_glide_gridfile>  (363) 
pfpi4k_grid

>  <i_i_glide_lignum>  (363) 
16

>  <i_i_glide_rotatable_bonds>  (363) 
5

>  <r_i_docking_score>  (363) 
-2.9813

>  <r_i_glide_ligand_efficiency>  (363) 
-0.149065

>  <r_i_glide_ligand_efficiency_sa>  (363) 
-0.404625

>  <r_i_glide_ligand_efficiency_ln>  (363) 
-0.746122

>  <r_i_glide_gscore>  (363) 
-2.9813

>  <r_i_glide_lipo>  (363) 
-0.183653

>  <r_i_glide_hbond>  (363) 
-0.16

>  <r_i_glide_metal>  (363) 
-0

>  <r_i_glide_rewards>  (363) 
-1.5579

>  <r_i_glide_evdw>  (363) 
-20.6789

>  <r_i_glide_ecoul>  (363) 
-4.69135

>  <r_i_glide_erotb>  (363) 
0.725003

>  <r_i_glide_esite>  (363) 
-0.0671078

>  <r_i_glide_emodel>  (363) 
-30.5929

>  <r_i_glide_energy>  (363) 
-25.3703

>  <r_i_glide_einternal>  (363) 
0.857211

>  <r_i_glide_intrahb_reward>  (363) 
-0

>  <i_i_glide_confnum>  (363) 
3

>  <i_i_glide_posenum>  (363) 
2

>  <r_i_glide_eff_state_penalty>  (363) 
0

>  <ligand_id>  (363) 
79

>  <original_smiles>  (363) 
CC(C)CC(O)(c1cnccn1)c1coc2nc[nH]c12

>  <smiles>  (363) 
[H]OC(c1nc([H])c([H])nc1[H])(c1c([H])oc2nc([H])n([H])c12)C([H])([H])C([H])(C([H])([H])[H])C([H])([H])[H]

$$$$
80:0:0
     RDKit          3D

 40 44  0  0  1  0  0  0  0  0999 V2000
   -4.8552   -6.9919   -5.1939 C   0  0  0  0  0  0  0  0  0  0  0  0
   -6.1435   -6.2778   -5.3251 N   0  0  0  0  0  0  0  0  0  0  0  0
   -6.3482   -5.1500   -4.6299 C   0  0  0  0  0  0  0  0  0  0  0  0
   -7.5687   -4.6854   -4.9329 N   0  0  0  0  0  0  0  0  0  0  0  0
   -8.1666   -5.5156   -5.8486 C   0  0  0  0  0  0  0  0  0  0  0  0
   -7.2614   -6.5344   -6.1018 C   0  0  0  0  0  0  0  0  0  0  0  0
   -7.4502   -7.6723   -7.0523 C   0  0  0  0  0  0  0  0  0  0  0  0
   -8.4075   -7.5540   -8.0980 C   0  0  0  0  0  0  0  0  0  0  0  0
   -8.6213   -8.6248   -9.0093 C   0  0  0  0  0  0  0  0  0  0  0  0
   -7.8773   -9.8230   -8.9038 C   0  0  0  0  0  0  0  0  0  0  0  0
   -6.9027   -9.9412   -7.8753 C   0  0  0  0  0  0  0  0  0  0  0  0
   -6.7305   -8.8977   -6.9523 C   0  0  0  0  0  0  0  0  0  0  0  0
   -6.0672  -11.2432   -7.7389 C   0  0  2  0  0  0  0  0  0  0  0  0
   -6.4291  -12.0756   -6.4804 C   0  0  0  0  0  0  0  0  0  0  0  0
   -5.3707  -11.8786   -5.5672 O   0  0  0  0  0  0  0  0  0  0  0  0
   -4.3375  -11.3292   -6.2229 C   0  0  0  0  0  0  0  0  0  0  0  0
   -3.1740  -11.2349   -5.5606 N   0  0  0  0  0  0  0  0  0  0  0  0
   -4.6264  -10.9827   -7.4938 N   0  0  0  0  0  0  0  0  0  0  0  0
   -6.2961  -11.9864   -9.0365 C   0  0  1  0  0  0  0  0  0  0  0  0
   -6.9425  -13.2490   -9.5244 C   0  0  0  0  0  0  0  0  0  0  0  0
   -7.8343  -12.1301   -9.1251 C   0  0  2  0  0  0  0  0  0  0  0  0
   -8.1264  -10.8891   -9.7709 O   0  0  0  0  0  0  0  0  0  0  0  0
   -4.3357   -6.6536   -4.3016 H   0  0  0  0  0  0  0  0  0  0  0  0
   -4.2471   -6.8196   -6.0868 H   0  0  0  0  0  0  0  0  0  0  0  0
   -4.9961   -8.0399   -4.9817 H   0  0  0  0  0  0  0  0  0  0  0  0
   -5.6665   -4.6698   -3.9474 H   0  0  0  0  0  0  0  0  0  0  0  0
   -9.1696   -5.3115   -6.2165 H   0  0  0  0  0  0  0  0  0  0  0  0
   -9.0236   -6.6569   -8.2130 H   0  0  0  0  0  0  0  0  0  0  0  0
   -9.3791   -8.5414   -9.7776 H   0  0  0  0  0  0  0  0  0  0  0  0
   -6.0491   -9.1724   -6.1696 H   0  0  0  0  0  0  0  0  0  0  0  0
   -7.4113  -11.8418   -6.0509 H   0  0  0  0  0  0  0  0  0  0  0  0
   -6.3654  -13.1500   -6.6694 H   0  0  0  0  0  0  0  0  0  0  0  0
   -2.2869  -11.0348   -6.0066 H   0  0  0  0  0  0  0  0  0  0  0  0
   -3.9710  -10.6052   -8.1736 H   0  0  0  0  0  0  0  0  0  0  0  0
   -5.7900  -11.4849   -9.8402 H   0  0  0  0  0  0  0  0  0  0  0  0
   -6.9338  -13.4366  -10.5949 H   0  0  0  0  0  0  0  0  0  0  0  0
   -6.9185  -14.1210   -8.8728 H   0  0  0  0  0  0  0  0  0  0  0  0
   -8.4123  -12.2722   -8.2135 H   0  0  0  0  0  0  0  0  0  0  0  0
   -3.1704  -11.6030   -4.6034 H   0  0  0  0  0  0  0  0  0  0  0  0
   -7.9734   -3.8470   -4.5179 H   0  0  0  0  0  0  0  0  0  0  0  0
  1  2  1  0
  1 23  1  0
  1 24  1  0
  1 25  1  0
  2  6  1  0
  2  3  1  0
  3  4  2  0
  3 26  1  0
  4  5  1  0
  4 40  1  0
  5  6  2  0
  5 27  1  0
  6  7  1  0
  7 12  1  0
  7  8  2  0
  8  9  1  0
  8 28  1  0
  9 10  2  0
  9 29  1  0
 10 22  1  0
 10 11  1  0
 11 12  2  0
 11 13  1  0
 12 30  1  0
 13 18  1  0
 13 14  1  1
 13 19  1  0
 14 15  1  0
 14 31  1  0
 14 32  1  0
 15 16  1  0
 16 17  1  0
 16 18  2  0
 17 33  1  0
 17 39  1  0
 18 34  1  0
 19 21  1  0
 19 20  1  0
 19 35  1  6
 20 21  1  0
 20 36  1  0
 20 37  1  0
 21 22  1  0
 21 38  1  1
M  CHG  2   4   1  18   1
M  END
>  <i_m_ct_stereo_status>  (364) 
1

>  <s_m_source_file>  (364) 
/var/tmp/pbs.5102264.sched01/tmplas2qej_/115vanlg5zy.sdf

>  <i_m_source_file_index>  (364) 
17

>  <i_lp_mmshare_version>  (364) 
48012

>  <i_f3d_flags>  (364) 
0

>  <s_epik_input>  (364) 
W0NIM11uMVtjSF1uW2NIXWMxLWMoW2NIXTIpW2NIXVtjSF1jKE9bQ0BASF0zW0NAQEhdNFtDSDJdMyljMltDQEBdNDVbQ0gyXU8vQyg9TlxbSF0pW05IXTU=

>  <s_epik_cmdline>  (364) 
J2VwaWtfcHl0aG9uJywgJy1waHQnLCAnMi4wJywgJy1waCcsICc3LjAnLCAnLXRuJywgJzgnLCAnLW1hJywgJzIwMCcsICctaW1hZScsICc8aW5maWxlLm1hZT4nLCAnLW9tYWUnLCAnPG91dGZpbGUubWFlPic=

>  <r_lp_tautomer_probability>  (364) 
1

>  <r_epik_Ionization_Penalty>  (364) 
0.347767

>  <r_epik_Ionization_Penalty_Charging>  (364) 
0.000836891

>  <r_epik_Ionization_Penalty_Neutral>  (364) 
0.34693

>  <r_epik_State_Penalty>  (364) 
0.338724

>  <r_epik_Charging_Adjusted_Penalty>  (364) 
0.339561

>  <i_epik_Tot_Q>  (364) 
2

>  <i_epik_Tot_abs_Q>  (364) 
2

>  <s_epik_Chemistry_Notes>  (364) 
This compound has an imine and may undergo hydrolysis.

>  <s_lp_Force_Field>  (364) 
OPLS3e

>  <r_lp_Energy>  (364) 
53.3735

>  <b_lp_Chiralities_Consistent>  (364) 
1

>  <s_lp_Variant>  (364) 
80:0-1

>  <s_i_glide_gridfile>  (364) 
pfpi4k_grid

>  <i_i_glide_lignum>  (364) 
17

>  <i_i_glide_rotatable_bonds>  (364) 
1

>  <r_i_docking_score>  (364) 
-5.62719

>  <r_i_glide_ligand_efficiency>  (364) 
-0.255781

>  <r_i_glide_ligand_efficiency_sa>  (364) 
-0.716709

>  <r_i_glide_ligand_efficiency_ln>  (364) 
-1.37549

>  <r_i_glide_gscore>  (364) 
-5.62719

>  <r_i_glide_lipo>  (364) 
-1.73414

>  <r_i_glide_hbond>  (364) 
0

>  <r_i_glide_metal>  (364) 
-0

>  <r_i_glide_rewards>  (364) 
-2.49426

>  <r_i_glide_evdw>  (364) 
-21.5653

>  <r_i_glide_ecoul>  (364) 
-3.20286

>  <r_i_glide_erotb>  (364) 
0.206159

>  <r_i_glide_esite>  (364) 
-0.0462515

>  <r_i_glide_emodel>  (364) 
-36.904

>  <r_i_glide_energy>  (364) 
-24.7682

>  <r_i_glide_einternal>  (364) 
0.913461

>  <r_i_glide_intrahb_reward>  (364) 
-0

>  <i_i_glide_confnum>  (364) 
5

>  <i_i_glide_posenum>  (364) 
18

>  <r_i_glide_eff_state_penalty>  (364) 
0

>  <ligand_id>  (364) 
80

>  <original_smiles>  (364) 
Cn1cncc1-c1ccc2c(c1)C1(COC(=N)N1)C1CC1O2

>  <smiles>  (364) 
[H]c1c([H])c(-c2c([H])[n+]([H])c([H])n2C([H])([H])[H])c([H])c2c1OC1([H])C([H])([H])C1([H])C21[N+]([H])=C(N([H])[H])OC1([H])[H]

$$$$
80:0:1
     RDKit          3D

 40 44  0  0  1  0  0  0  0  0999 V2000
    3.8542    1.3490    4.4710 C   0  0  0  0  0  0  0  0  0  0  0  0
    2.8285    1.4593    3.3949 N   0  0  0  0  0  0  0  0  0  0  0  0
    2.2731    2.6424    3.1187 C   0  0  0  0  0  0  0  0  0  0  0  0
    1.4260    2.4677    2.0819 N   0  0  0  0  0  0  0  0  0  0  0  0
    1.4449    1.1555    1.6951 C   0  0  0  0  0  0  0  0  0  0  0  0
    2.3286    0.5144    2.5212 C   0  0  0  0  0  0  0  0  0  0  0  0
    2.6935   -0.9246    2.4798 C   0  0  0  0  0  0  0  0  0  0  0  0
    2.7597   -1.6716    3.6807 C   0  0  0  0  0  0  0  0  0  0  0  0
    3.1714   -3.0204    3.6805 C   0  0  0  0  0  0  0  0  0  0  0  0
    3.4443   -3.6651    2.4732 C   0  0  0  0  0  0  0  0  0  0  0  0
    3.3229   -2.9661    1.2406 C   0  0  0  0  0  0  0  0  0  0  0  0
    2.9593   -1.5918    1.2560 C   0  0  0  0  0  0  0  0  0  0  0  0
    3.5783   -3.7539   -0.0586 C   0  0  2  0  0  0  0  0  0  0  0  0
    4.8752   -3.3036   -0.7688 C   0  0  0  0  0  0  0  0  0  0  0  0
    4.4426   -2.4543   -1.8189 O   0  0  0  0  0  0  0  0  0  0  0  0
    3.1403   -2.7042   -2.0521 C   0  0  0  0  0  0  0  0  0  0  0  0
    2.6055   -2.2573   -3.1852 N   0  0  0  0  0  0  0  0  0  0  0  0
    2.5865   -3.4609   -1.0877 N   0  0  0  0  0  0  0  0  0  0  0  0
    3.5400   -5.2241    0.3264 C   0  0  1  0  0  0  0  0  0  0  0  0
    4.4791   -6.3962    0.3944 C   0  0  0  0  0  0  0  0  0  0  0  0
    4.6252   -5.3320    1.4155 C   0  0  2  0  0  0  0  0  0  0  0  0
    3.8164   -4.9910    2.5155 O   0  0  0  0  0  0  0  0  0  0  0  0
    3.7508    2.1926    5.1626 H   0  0  0  0  0  0  0  0  0  0  0  0
    4.8484    1.3835    4.0206 H   0  0  0  0  0  0  0  0  0  0  0  0
    3.7448    0.4251    5.0421 H   0  0  0  0  0  0  0  0  0  0  0  0
    2.4785    3.5726    3.6112 H   0  0  0  0  0  0  0  0  0  0  0  0
    0.8433    0.7900    0.8738 H   0  0  0  0  0  0  0  0  0  0  0  0
    2.4967   -1.2329    4.6362 H   0  0  0  0  0  0  0  0  0  0  0  0
    3.2828   -3.5338    4.6187 H   0  0  0  0  0  0  0  0  0  0  0  0
    2.8645   -1.0552    0.3271 H   0  0  0  0  0  0  0  0  0  0  0  0
    5.5969   -2.8368   -0.1001 H   0  0  0  0  0  0  0  0  0  0  0  0
    5.3568   -4.1503   -1.2496 H   0  0  0  0  0  0  0  0  0  0  0  0
    1.6463   -2.4837   -3.4429 H   0  0  0  0  0  0  0  0  0  0  0  0
    1.6328   -3.7722   -1.1080 H   0  0  0  0  0  0  0  0  0  0  0  0
    2.5248   -5.5436    0.5738 H   0  0  0  0  0  0  0  0  0  0  0  0
    4.0963   -7.3442    0.7650 H   0  0  0  0  0  0  0  0  0  0  0  0
    5.2813   -6.4627   -0.3366 H   0  0  0  0  0  0  0  0  0  0  0  0
    5.5444   -4.7480    1.3694 H   0  0  0  0  0  0  0  0  0  0  0  0
    3.1587   -1.6604   -3.7949 H   0  0  0  0  0  0  0  0  0  0  0  0
    0.8976    3.2212    1.6276 H   0  0  0  0  0  0  0  0  0  0  0  0
  1  2  1  0
  1 23  1  0
  1 24  1  0
  1 25  1  0
  2  6  1  0
  2  3  1  0
  3  4  2  0
  3 26  1  0
  4  5  1  0
  4 40  1  0
  5  6  2  0
  5 27  1  0
  6  7  1  0
  7 12  1  0
  7  8  2  0
  8  9  1  0
  8 28  1  0
  9 10  2  0
  9 29  1  0
 10 22  1  0
 10 11  1  0
 11 12  2  0
 11 13  1  0
 12 30  1  0
 13 18  1  0
 13 14  1  6
 13 19  1  0
 14 15  1  0
 14 31  1  0
 14 32  1  0
 15 16  1  0
 16 17  1  0
 16 18  2  0
 17 33  1  0
 17 39  1  0
 18 34  1  0
 19 21  1  0
 19 20  1  0
 19 35  1  1
 20 21  1  0
 20 36  1  0
 20 37  1  0
 21 22  1  0
 21 38  1  6
M  CHG  2   4   1  18   1
M  END
>  <i_m_ct_stereo_status>  (365) 
1

>  <s_m_source_file>  (365) 
/var/tmp/pbs.5102264.sched01/tmplas2qej_/115vanlg5zy.sdf

>  <i_m_source_file_index>  (365) 
17

>  <i_lp_mmshare_version>  (365) 
48012

>  <i_f3d_flags>  (365) 
0

>  <s_epik_input>  (365) 
W0NIM11uMVtjSF1uW2NIXWMxLWMoW2NIXTIpW2NIXVtjSF1jKE9bQ0BASF0zW0NAQEhdNFtDSDJdMyljMltDQEBdNDVbQ0gyXU8vQyg9TlxbSF0pW05IXTU=

>  <s_epik_cmdline>  (365) 
J2VwaWtfcHl0aG9uJywgJy1waHQnLCAnMi4wJywgJy1waCcsICc3LjAnLCAnLXRuJywgJzgnLCAnLW1hJywgJzIwMCcsICctaW1hZScsICc8aW5maWxlLm1hZT4nLCAnLW9tYWUnLCAnPG91dGZpbGUubWFlPic=

>  <r_lp_tautomer_probability>  (365) 
1

>  <r_epik_Ionization_Penalty>  (365) 
0.347767

>  <r_epik_Ionization_Penalty_Charging>  (365) 
0.000836891

>  <r_epik_Ionization_Penalty_Neutral>  (365) 
0.34693

>  <r_epik_State_Penalty>  (365) 
0.338724

>  <r_epik_Charging_Adjusted_Penalty>  (365) 
0.339561

>  <i_epik_Tot_Q>  (365) 
2

>  <i_epik_Tot_abs_Q>  (365) 
2

>  <s_epik_Chemistry_Notes>  (365) 
This compound has an imine and may undergo hydrolysis.

>  <s_lp_Force_Field>  (365) 
OPLS3e

>  <r_lp_Energy>  (365) 
53.3735

>  <b_lp_Chiralities_Consistent>  (365) 
1

>  <s_lp_Variant>  (365) 
80:0-1

>  <s_i_glide_gridfile>  (365) 
pfpi4k_grid

>  <i_i_glide_lignum>  (365) 
17

>  <i_i_glide_rotatable_bonds>  (365) 
1

>  <r_i_docking_score>  (365) 
-3.83952

>  <r_i_glide_ligand_efficiency>  (365) 
-0.174524

>  <r_i_glide_ligand_efficiency_sa>  (365) 
-0.489022

>  <r_i_glide_ligand_efficiency_ln>  (365) 
-0.938519

>  <r_i_glide_gscore>  (365) 
-3.83952

>  <r_i_glide_lipo>  (365) 
-0.233864

>  <r_i_glide_hbond>  (365) 
-0.2

>  <r_i_glide_metal>  (365) 
-0

>  <r_i_glide_rewards>  (365) 
-1.37496

>  <r_i_glide_evdw>  (365) 
-16.4157

>  <r_i_glide_ecoul>  (365) 
-8.32001

>  <r_i_glide_erotb>  (365) 
0.206159

>  <r_i_glide_esite>  (365) 
-0.168071

>  <r_i_glide_emodel>  (365) 
-33.6402

>  <r_i_glide_energy>  (365) 
-24.7358

>  <r_i_glide_einternal>  (365) 
0.467248

>  <r_i_glide_intrahb_reward>  (365) 
-0

>  <i_i_glide_confnum>  (365) 
3

>  <i_i_glide_posenum>  (365) 
37

>  <r_i_glide_eff_state_penalty>  (365) 
0

>  <ligand_id>  (365) 
80

>  <original_smiles>  (365) 
Cn1cncc1-c1ccc2c(c1)C1(COC(=N)N1)C1CC1O2

>  <smiles>  (365) 
[H]c1c([H])c(-c2c([H])[n+]([H])c([H])n2C([H])([H])[H])c([H])c2c1OC1([H])C([H])([H])C1([H])C21[N+]([H])=C(N([H])[H])OC1([H])[H]

$$$$
80:0:2
     RDKit          3D

 40 44  0  0  1  0  0  0  0  0999 V2000
   -0.3801   -0.6517    4.1171 C   0  0  0  0  0  0  0  0  0  0  0  0
    0.2995    0.2882    3.2115 N   0  0  0  0  0  0  0  0  0  0  0  0
   -0.1738    1.5222    2.9744 C   0  0  0  0  0  0  0  0  0  0  0  0
    0.6553    2.1071    2.1000 N   0  0  0  0  0  0  0  0  0  0  0  0
    1.6749    1.2470    1.7776 C   0  0  0  0  0  0  0  0  0  0  0  0
    1.4502    0.0921    2.4858 C   0  0  0  0  0  0  0  0  0  0  0  0
    2.2697   -1.1425    2.4877 C   0  0  0  0  0  0  0  0  0  0  0  0
    2.5395   -1.8113    3.7044 C   0  0  0  0  0  0  0  0  0  0  0  0
    3.2946   -2.9951    3.7325 C   0  0  0  0  0  0  0  0  0  0  0  0
    3.8300   -3.5141    2.5438 C   0  0  0  0  0  0  0  0  0  0  0  0
    3.5881   -2.8505    1.3026 C   0  0  0  0  0  0  0  0  0  0  0  0
    2.8142   -1.6671    1.2908 C   0  0  0  0  0  0  0  0  0  0  0  0
    4.1841   -3.4649    0.0210 C   0  0  2  0  0  0  0  0  0  0  0  0
    5.3174   -2.5983   -0.5765 C   0  0  0  0  0  0  0  0  0  0  0  0
    4.7094   -1.8967   -1.6501 O   0  0  0  0  0  0  0  0  0  0  0  0
    3.5743   -2.5403   -1.9872 C   0  0  0  0  0  0  0  0  0  0  0  0
    3.0064   -2.2403   -3.1606 N   0  0  0  0  0  0  0  0  0  0  0  0
    3.2207   -3.4533   -1.0785 N   0  0  0  0  0  0  0  0  0  0  0  0
    4.6062   -4.8846    0.3936 C   0  0  1  0  0  0  0  0  0  0  0  0
    5.8704   -5.6909    0.5378 C   0  0  0  0  0  0  0  0  0  0  0  0
    5.5753   -4.6738    1.5751 C   0  0  2  0  0  0  0  0  0  0  0  0
    4.6111   -4.6546    2.6113 O   0  0  0  0  0  0  0  0  0  0  0  0
   -1.4369   -0.3960    4.2092 H   0  0  0  0  0  0  0  0  0  0  0  0
    0.1003   -0.6095    5.0961 H   0  0  0  0  0  0  0  0  0  0  0  0
   -0.2856   -1.6582    3.7091 H   0  0  0  0  0  0  0  0  0  0  0  0
   -1.0657    1.9507    3.3955 H   0  0  0  0  0  0  0  0  0  0  0  0
    2.4718    1.4922    1.0971 H   0  0  0  0  0  0  0  0  0  0  0  0
    2.1815   -1.4191    4.6418 H   0  0  0  0  0  0  0  0  0  0  0  0
    3.4937   -3.4814    4.6759 H   0  0  0  0  0  0  0  0  0  0  0  0
    2.6199   -1.1601    0.3582 H   0  0  0  0  0  0  0  0  0  0  0  0
    5.8004   -1.9464    0.1549 H   0  0  0  0  0  0  0  0  0  0  0  0
    6.0826   -3.2254   -1.0312 H   0  0  0  0  0  0  0  0  0  0  0  0
    2.2087   -2.7578   -3.5212 H   0  0  0  0  0  0  0  0  0  0  0  0
    2.4579   -4.1046   -1.1874 H   0  0  0  0  0  0  0  0  0  0  0  0
    3.7408   -5.5288    0.5466 H   0  0  0  0  0  0  0  0  0  0  0  0
    5.7957   -6.7246    0.8669 H   0  0  0  0  0  0  0  0  0  0  0  0
    6.7023   -5.4708   -0.1255 H   0  0  0  0  0  0  0  0  0  0  0  0
    6.2486   -3.8172    1.6077 H   0  0  0  0  0  0  0  0  0  0  0  0
    3.4036   -1.4906   -3.7110 H   0  0  0  0  0  0  0  0  0  0  0  0
    0.5043    3.0389    1.6907 H   0  0  0  0  0  0  0  0  0  0  0  0
  1  2  1  0
  1 23  1  0
  1 24  1  0
  1 25  1  0
  2  6  1  0
  2  3  1  0
  3  4  2  0
  3 26  1  0
  4  5  1  0
  4 40  1  0
  5  6  2  0
  5 27  1  0
  6  7  1  0
  7 12  1  0
  7  8  2  0
  8  9  1  0
  8 28  1  0
  9 10  2  0
  9 29  1  0
 10 22  1  0
 10 11  1  0
 11 12  2  0
 11 13  1  0
 12 30  1  0
 13 18  1  0
 13 14  1  6
 13 19  1  0
 14 15  1  0
 14 31  1  0
 14 32  1  0
 15 16  1  0
 16 17  1  0
 16 18  2  0
 17 33  1  0
 17 39  1  0
 18 34  1  0
 19 21  1  0
 19 20  1  0
 19 35  1  1
 20 21  1  0
 20 36  1  0
 20 37  1  0
 21 22  1  0
 21 38  1  6
M  CHG  2   4   1  18   1
M  END
>  <i_m_ct_stereo_status>  (366) 
1

>  <s_m_source_file>  (366) 
/var/tmp/pbs.5102264.sched01/tmplas2qej_/115vanlg5zy.sdf

>  <i_m_source_file_index>  (366) 
17

>  <i_lp_mmshare_version>  (366) 
48012

>  <i_f3d_flags>  (366) 
0

>  <s_epik_input>  (366) 
W0NIM11uMVtjSF1uW2NIXWMxLWMoW2NIXTIpW2NIXVtjSF1jKE9bQ0BASF0zW0NAQEhdNFtDSDJdMyljMltDQEBdNDVbQ0gyXU8vQyg9TlxbSF0pW05IXTU=

>  <s_epik_cmdline>  (366) 
J2VwaWtfcHl0aG9uJywgJy1waHQnLCAnMi4wJywgJy1waCcsICc3LjAnLCAnLXRuJywgJzgnLCAnLW1hJywgJzIwMCcsICctaW1hZScsICc8aW5maWxlLm1hZT4nLCAnLW9tYWUnLCAnPG91dGZpbGUubWFlPic=

>  <r_lp_tautomer_probability>  (366) 
1

>  <r_epik_Ionization_Penalty>  (366) 
0.347767

>  <r_epik_Ionization_Penalty_Charging>  (366) 
0.000836891

>  <r_epik_Ionization_Penalty_Neutral>  (366) 
0.34693

>  <r_epik_State_Penalty>  (366) 
0.338724

>  <r_epik_Charging_Adjusted_Penalty>  (366) 
0.339561

>  <i_epik_Tot_Q>  (366) 
2

>  <i_epik_Tot_abs_Q>  (366) 
2

>  <s_epik_Chemistry_Notes>  (366) 
This compound has an imine and may undergo hydrolysis.

>  <s_lp_Force_Field>  (366) 
OPLS3e

>  <r_lp_Energy>  (366) 
53.3735

>  <b_lp_Chiralities_Consistent>  (366) 
1

>  <s_lp_Variant>  (366) 
80:0-1

>  <s_i_glide_gridfile>  (366) 
pfpi4k_grid

>  <i_i_glide_lignum>  (366) 
17

>  <i_i_glide_rotatable_bonds>  (366) 
1

>  <r_i_docking_score>  (366) 
-3.8318

>  <r_i_glide_ligand_efficiency>  (366) 
-0.174173

>  <r_i_glide_ligand_efficiency_sa>  (366) 
-0.488038

>  <r_i_glide_ligand_efficiency_ln>  (366) 
-0.936631

>  <r_i_glide_gscore>  (366) 
-3.8318

>  <r_i_glide_lipo>  (366) 
-0.232253

>  <r_i_glide_hbond>  (366) 
-0.2

>  <r_i_glide_metal>  (366) 
-0

>  <r_i_glide_rewards>  (366) 
-1.37496

>  <r_i_glide_evdw>  (366) 
-15.9582

>  <r_i_glide_ecoul>  (366) 
-8.29902

>  <r_i_glide_erotb>  (366) 
0.206159

>  <r_i_glide_esite>  (366) 
-0.187981

>  <r_i_glide_emodel>  (366) 
-33.4392

>  <r_i_glide_energy>  (366) 
-24.2572

>  <r_i_glide_einternal>  (366) 
0.32807

>  <r_i_glide_intrahb_reward>  (366) 
-0

>  <i_i_glide_confnum>  (366) 
3

>  <i_i_glide_posenum>  (366) 
6

>  <r_i_glide_eff_state_penalty>  (366) 
0

>  <ligand_id>  (366) 
80

>  <original_smiles>  (366) 
Cn1cncc1-c1ccc2c(c1)C1(COC(=N)N1)C1CC1O2

>  <smiles>  (366) 
[H]c1c([H])c(-c2c([H])[n+]([H])c([H])n2C([H])([H])[H])c([H])c2c1OC1([H])C([H])([H])C1([H])C21[N+]([H])=C(N([H])[H])OC1([H])[H]

$$$$
80:1:0
     RDKit          3D

 39 43  0  0  1  0  0  0  0  0999 V2000
   -8.6054   -3.8957   -5.5814 C   0  0  0  0  0  0  0  0  0  0  0  0
   -7.4323   -4.7662   -5.4799 N   0  0  0  0  0  0  0  0  0  0  0  0
   -6.3574   -4.4522   -4.7249 C   0  0  0  0  0  0  0  0  0  0  0  0
   -5.3753   -5.3452   -4.7205 N   0  0  0  0  0  0  0  0  0  0  0  0
   -5.8604   -6.3676   -5.5333 C   0  0  0  0  0  0  0  0  0  0  0  0
   -7.1020   -6.0231   -6.0507 C   0  0  0  0  0  0  0  0  0  0  0  0
   -7.9193   -6.7653   -7.0333 C   0  0  0  0  0  0  0  0  0  0  0  0
   -8.8244   -6.1213   -7.9072 C   0  0  0  0  0  0  0  0  0  0  0  0
   -9.6596   -6.8350   -8.7711 C   0  0  0  0  0  0  0  0  0  0  0  0
   -9.5381   -8.2280   -8.8662 C   0  0  0  0  0  0  0  0  0  0  0  0
   -8.5811   -8.9164   -8.0665 C   0  0  0  0  0  0  0  0  0  0  0  0
   -7.7851   -8.1908   -7.1442 C   0  0  0  0  0  0  0  0  0  0  0  0
   -8.4663  -10.4498   -8.2501 C   0  0  2  0  0  0  0  0  0  0  0  0
   -9.0073  -11.2158   -7.0269 C   0  0  0  0  0  0  0  0  0  0  0  0
   -7.8326  -11.5842   -6.3227 O   0  0  0  0  0  0  0  0  0  0  0  0
   -6.7757  -11.4975   -7.1373 C   0  0  0  0  0  0  0  0  0  0  0  0
   -5.6309  -12.0554   -6.7238 N   0  0  0  0  0  0  0  0  0  0  0  0
   -7.0649  -10.8675   -8.2747 N   0  0  0  0  0  0  0  0  0  0  0  0
   -9.1848  -10.7614   -9.5569 C   0  0  1  0  0  0  0  0  0  0  0  0
  -10.4079  -11.4963  -10.0312 C   0  0  0  0  0  0  0  0  0  0  0  0
  -10.6162  -10.2074   -9.3395 C   0  0  2  0  0  0  0  0  0  0  0  0
  -10.3554   -8.8869   -9.7687 O   0  0  0  0  0  0  0  0  0  0  0  0
   -8.3489   -2.8961   -5.2299 H   0  0  0  0  0  0  0  0  0  0  0  0
   -9.4046   -4.2749   -4.9490 H   0  0  0  0  0  0  0  0  0  0  0  0
   -8.9608   -3.7340   -6.5973 H   0  0  0  0  0  0  0  0  0  0  0  0
   -6.3165   -3.5447   -4.1336 H   0  0  0  0  0  0  0  0  0  0  0  0
   -5.2345   -7.2268   -5.7360 H   0  0  0  0  0  0  0  0  0  0  0  0
   -8.9451   -5.0641   -8.0019 H   0  0  0  0  0  0  0  0  0  0  0  0
  -10.3811   -6.3143   -9.3639 H   0  0  0  0  0  0  0  0  0  0  0  0
   -7.0601   -8.7155   -6.5201 H   0  0  0  0  0  0  0  0  0  0  0  0
   -9.7308  -10.6536   -6.4236 H   0  0  0  0  0  0  0  0  0  0  0  0
   -9.4609  -12.1565   -7.3364 H   0  0  0  0  0  0  0  0  0  0  0  0
   -4.8229  -12.1199   -7.3116 H   0  0  0  0  0  0  0  0  0  0  0  0
   -6.4322  -10.6755   -9.0291 H   0  0  0  0  0  0  0  0  0  0  0  0
   -8.6214  -10.3799  -10.4112 H   0  0  0  0  0  0  0  0  0  0  0  0
  -10.6475  -11.4708  -11.0915 H   0  0  0  0  0  0  0  0  0  0  0  0
  -10.7145  -12.3836   -9.4859 H   0  0  0  0  0  0  0  0  0  0  0  0
  -11.0816  -10.2271   -8.3525 H   0  0  0  0  0  0  0  0  0  0  0  0
   -5.6039  -12.4889   -5.8107 H   0  0  0  0  0  0  0  0  0  0  0  0
  1  2  1  0
  1 23  1  0
  1 24  1  0
  1 25  1  0
  2  6  1  0
  2  3  1  0
  3  4  2  0
  3 26  1  0
  4  5  1  0
  5  6  2  0
  5 27  1  0
  6  7  1  0
  7 12  1  0
  7  8  2  0
  8  9  1  0
  8 28  1  0
  9 10  2  0
  9 29  1  0
 10 22  1  0
 10 11  1  0
 11 12  2  0
 11 13  1  0
 12 30  1  0
 13 18  1  0
 13 14  1  1
 13 19  1  0
 14 15  1  0
 14 31  1  0
 14 32  1  0
 15 16  1  0
 16 17  1  0
 16 18  2  0
 17 33  1  0
 17 39  1  0
 18 34  1  0
 19 21  1  0
 19 20  1  0
 19 35  1  6
 20 21  1  0
 20 36  1  0
 20 37  1  0
 21 22  1  0
 21 38  1  1
M  CHG  1  18   1
M  END
>  <i_m_ct_stereo_status>  (367) 
1

>  <s_m_source_file>  (367) 
/var/tmp/pbs.5102264.sched01/tmplas2qej_/115vanlg5zy.sdf

>  <i_m_source_file_index>  (367) 
18

>  <i_lp_mmshare_version>  (367) 
48012

>  <i_f3d_flags>  (367) 
0

>  <s_epik_input>  (367) 
W0NIM11uMVtjSF1uW2NIXWMxLWMoW2NIXTIpW2NIXVtjSF1jKE9bQ0BASF0zW0NAQEhdNFtDSDJdMyljMltDQEBdNDVbQ0gyXU8vQyg9TlxbSF0pW05IXTU=

>  <s_epik_cmdline>  (367) 
J2VwaWtfcHl0aG9uJywgJy1waHQnLCAnMi4wJywgJy1waCcsICc3LjAnLCAnLXRuJywgJzgnLCAnLW1hJywgJzIwMCcsICctaW1hZScsICc8aW5maWxlLm1hZT4nLCAnLW9tYWUnLCAnPG91dGZpbGUubWFlPic=

>  <r_lp_tautomer_probability>  (367) 
1

>  <r_epik_Ionization_Penalty>  (367) 
0.536388

>  <r_epik_Ionization_Penalty_Charging>  (367) 
0.513302

>  <r_epik_Ionization_Penalty_Neutral>  (367) 
0.0230864

>  <r_epik_State_Penalty>  (367) 
0.539998

>  <r_epik_Charging_Adjusted_Penalty>  (367) 
1.0533

>  <i_epik_Tot_Q>  (367) 
1

>  <i_epik_Tot_abs_Q>  (367) 
1

>  <s_epik_Chemistry_Notes>  (367) 
This compound has an imine and may undergo hydrolysis.

>  <s_lp_Force_Field>  (367) 
OPLS3e

>  <r_lp_Energy>  (367) 
43.4062

>  <b_lp_Chiralities_Consistent>  (367) 
1

>  <s_lp_Variant>  (367) 
80:0-2

>  <s_i_glide_gridfile>  (367) 
pfpi4k_grid

>  <i_i_glide_lignum>  (367) 
18

>  <i_i_glide_rotatable_bonds>  (367) 
1

>  <r_i_docking_score>  (367) 
-6.07593

>  <r_i_glide_ligand_efficiency>  (367) 
-0.276179

>  <r_i_glide_ligand_efficiency_sa>  (367) 
-0.773864

>  <r_i_glide_ligand_efficiency_ln>  (367) 
-1.48518

>  <r_i_glide_gscore>  (367) 
-6.07593

>  <r_i_glide_lipo>  (367) 
-1.64226

>  <r_i_glide_hbond>  (367) 
-0.133365

>  <r_i_glide_metal>  (367) 
-0

>  <r_i_glide_rewards>  (367) 
-2.97062

>  <r_i_glide_evdw>  (367) 
-25.1341

>  <r_i_glide_ecoul>  (367) 
-1.86911

>  <r_i_glide_erotb>  (367) 
0.207382

>  <r_i_glide_esite>  (367) 
0

>  <r_i_glide_emodel>  (367) 
-37.8146

>  <r_i_glide_energy>  (367) 
-27.0032

>  <r_i_glide_einternal>  (367) 
0.793178

>  <r_i_glide_intrahb_reward>  (367) 
-0

>  <i_i_glide_confnum>  (367) 
3

>  <i_i_glide_posenum>  (367) 
15

>  <r_i_glide_eff_state_penalty>  (367) 
0

>  <ligand_id>  (367) 
80

>  <original_smiles>  (367) 
Cn1cncc1-c1ccc2c(c1)C1(COC(=N)N1)C1CC1O2

>  <smiles>  (367) 
[H]c1nc([H])n(C([H])([H])[H])c1-c1c([H])c([H])c2c(c1[H])C1([N+]([H])=C(N([H])[H])OC1([H])[H])C1([H])C([H])([H])C1([H])O2

$$$$
80:1:1
     RDKit          3D

 39 43  0  0  1  0  0  0  0  0999 V2000
    0.1702    4.4188    7.7852 C   0  0  0  0  0  0  0  0  0  0  0  0
   -1.1833    3.9123    7.8398 N   0  0  0  0  0  0  0  0  0  0  0  0
   -2.1203    4.3347    8.7036 C   0  0  0  0  0  0  0  0  0  0  0  0
   -3.2831    3.7087    8.6026 N   0  0  0  0  0  0  0  0  0  0  0  0
   -3.0886    2.8060    7.5683 C   0  0  0  0  0  0  0  0  0  0  0  0
   -1.8096    2.9296    7.0607 C   0  0  0  0  0  0  0  0  0  0  0  0
   -1.1707    2.1752    5.9754 C   0  0  0  0  0  0  0  0  0  0  0  0
   -1.6405    0.8678    5.6993 C   0  0  0  0  0  0  0  0  0  0  0  0
   -1.0792    0.0903    4.6649 C   0  0  0  0  0  0  0  0  0  0  0  0
   -0.0182    0.6037    3.8922 C   0  0  0  0  0  0  0  0  0  0  0  0
    0.4680    1.9207    4.1454 C   0  0  0  0  0  0  0  0  0  0  0  0
   -0.1297    2.6950    5.1621 C   0  0  0  0  0  0  0  0  0  0  0  0
    1.6285    2.4628    3.2895 C   0  0  2  0  0  0  0  0  0  0  0  0
    2.9478    2.5975    4.0854 C   0  0  0  0  0  0  0  0  0  0  0  0
    3.0542    3.9833    4.3993 O   0  0  0  0  0  0  0  0  0  0  0  0
    2.2251    4.6612    3.5794 C   0  0  0  0  0  0  0  0  0  0  0  0
    2.3138    6.0032    3.5289 N   0  0  0  0  0  0  0  0  0  0  0  0
    1.4002    3.8519    2.8954 N   0  0  0  0  0  0  0  0  0  0  0  0
    1.6933    1.5431    2.0820 C   0  0  1  0  0  0  0  0  0  0  0  0
    2.6408    0.5512    1.4673 C   0  0  0  0  0  0  0  0  0  0  0  0
    1.9095    0.1456    2.6924 C   0  0  2  0  0  0  0  0  0  0  0  0
    0.5493   -0.1883    2.9059 O   0  0  0  0  0  0  0  0  0  0  0  0
    0.4517    4.8572    8.7440 H   0  0  0  0  0  0  0  0  0  0  0  0
    0.2475    5.1882    7.0136 H   0  0  0  0  0  0  0  0  0  0  0  0
    0.8660    3.6074    7.5783 H   0  0  0  0  0  0  0  0  0  0  0  0
   -1.9508    5.1125    9.4304 H   0  0  0  0  0  0  0  0  0  0  0  0
   -3.8885    2.1392    7.2663 H   0  0  0  0  0  0  0  0  0  0  0  0
   -2.4473    0.4377    6.2764 H   0  0  0  0  0  0  0  0  0  0  0  0
   -1.4466   -0.9135    4.4778 H   0  0  0  0  0  0  0  0  0  0  0  0
    0.2335    3.7001    5.3044 H   0  0  0  0  0  0  0  0  0  0  0  0
    3.0100    1.9425    4.9544 H   0  0  0  0  0  0  0  0  0  0  0  0
    3.7883    2.3769    3.4391 H   0  0  0  0  0  0  0  0  0  0  0  0
    1.7810    6.5656    2.8614 H   0  0  0  0  0  0  0  0  0  0  0  0
    0.7676    4.1309    2.1355 H   0  0  0  0  0  0  0  0  0  0  0  0
    0.8415    1.6888    1.4268 H   0  0  0  0  0  0  0  0  0  0  0  0
    2.3282    0.0240    0.5679 H   0  0  0  0  0  0  0  0  0  0  0  0
    3.7103    0.7274    1.5693 H   0  0  0  0  0  0  0  0  0  0  0  0
    2.5103    0.0252    3.5832 H   0  0  0  0  0  0  0  0  0  0  0  0
    3.0347    6.4516    4.0757 H   0  0  0  0  0  0  0  0  0  0  0  0
  1  2  1  0
  1 23  1  0
  1 24  1  0
  1 25  1  0
  2  6  1  0
  2  3  1  0
  3  4  2  0
  3 26  1  0
  4  5  1  0
  5  6  2  0
  5 27  1  0
  6  7  1  0
  7 12  1  0
  7  8  2  0
  8  9  1  0
  8 28  1  0
  9 10  2  0
  9 29  1  0
 10 22  1  0
 10 11  1  0
 11 12  2  0
 11 13  1  0
 12 30  1  0
 13 18  1  0
 13 14  1  1
 13 19  1  0
 14 15  1  0
 14 31  1  0
 14 32  1  0
 15 16  1  0
 16 17  1  0
 16 18  2  0
 17 33  1  0
 17 39  1  0
 18 34  1  0
 19 21  1  0
 19 20  1  0
 19 35  1  6
 20 21  1  0
 20 36  1  0
 20 37  1  0
 21 22  1  0
 21 38  1  1
M  CHG  1  18   1
M  END
>  <i_m_ct_stereo_status>  (368) 
1

>  <s_m_source_file>  (368) 
/var/tmp/pbs.5102264.sched01/tmplas2qej_/115vanlg5zy.sdf

>  <i_m_source_file_index>  (368) 
18

>  <i_lp_mmshare_version>  (368) 
48012

>  <i_f3d_flags>  (368) 
0

>  <s_epik_input>  (368) 
W0NIM11uMVtjSF1uW2NIXWMxLWMoW2NIXTIpW2NIXVtjSF1jKE9bQ0BASF0zW0NAQEhdNFtDSDJdMyljMltDQEBdNDVbQ0gyXU8vQyg9TlxbSF0pW05IXTU=

>  <s_epik_cmdline>  (368) 
J2VwaWtfcHl0aG9uJywgJy1waHQnLCAnMi4wJywgJy1waCcsICc3LjAnLCAnLXRuJywgJzgnLCAnLW1hJywgJzIwMCcsICctaW1hZScsICc8aW5maWxlLm1hZT4nLCAnLW9tYWUnLCAnPG91dGZpbGUubWFlPic=

>  <r_lp_tautomer_probability>  (368) 
1

>  <r_epik_Ionization_Penalty>  (368) 
0.536388

>  <r_epik_Ionization_Penalty_Charging>  (368) 
0.513302

>  <r_epik_Ionization_Penalty_Neutral>  (368) 
0.0230864

>  <r_epik_State_Penalty>  (368) 
0.539998

>  <r_epik_Charging_Adjusted_Penalty>  (368) 
1.0533

>  <i_epik_Tot_Q>  (368) 
1

>  <i_epik_Tot_abs_Q>  (368) 
1

>  <s_epik_Chemistry_Notes>  (368) 
This compound has an imine and may undergo hydrolysis.

>  <s_lp_Force_Field>  (368) 
OPLS3e

>  <r_lp_Energy>  (368) 
43.4062

>  <b_lp_Chiralities_Consistent>  (368) 
1

>  <s_lp_Variant>  (368) 
80:0-2

>  <s_i_glide_gridfile>  (368) 
pfpi4k_grid

>  <i_i_glide_lignum>  (368) 
18

>  <i_i_glide_rotatable_bonds>  (368) 
1

>  <r_i_docking_score>  (368) 
-3.458

>  <r_i_glide_ligand_efficiency>  (368) 
-0.157182

>  <r_i_glide_ligand_efficiency_sa>  (368) 
-0.440429

>  <r_i_glide_ligand_efficiency_ln>  (368) 
-0.84526

>  <r_i_glide_gscore>  (368) 
-3.458

>  <r_i_glide_lipo>  (368) 
-0.206199

>  <r_i_glide_hbond>  (368) 
-0.2

>  <r_i_glide_metal>  (368) 
-0

>  <r_i_glide_rewards>  (368) 
-1.38529

>  <r_i_glide_evdw>  (368) 
-18.0886

>  <r_i_glide_ecoul>  (368) 
-5.37992

>  <r_i_glide_erotb>  (368) 
0.207382

>  <r_i_glide_esite>  (368) 
-0.16247

>  <r_i_glide_emodel>  (368) 
-30.3839

>  <r_i_glide_energy>  (368) 
-23.4685

>  <r_i_glide_einternal>  (368) 
0.00475554

>  <r_i_glide_intrahb_reward>  (368) 
-0

>  <i_i_glide_confnum>  (368) 
3

>  <i_i_glide_posenum>  (368) 
6

>  <r_i_glide_eff_state_penalty>  (368) 
0

>  <ligand_id>  (368) 
80

>  <original_smiles>  (368) 
Cn1cncc1-c1ccc2c(c1)C1(COC(=N)N1)C1CC1O2

>  <smiles>  (368) 
[H]c1nc([H])n(C([H])([H])[H])c1-c1c([H])c([H])c2c(c1[H])C1([N+]([H])=C(N([H])[H])OC1([H])[H])C1([H])C([H])([H])C1([H])O2

$$$$
80:1:2
     RDKit          3D

 39 43  0  0  1  0  0  0  0  0999 V2000
   -3.7921    3.1326    8.6782 C   0  0  0  0  0  0  0  0  0  0  0  0
   -2.6595    4.0337    8.7629 N   0  0  0  0  0  0  0  0  0  0  0  0
   -2.5449    4.9890    9.6806 C   0  0  0  0  0  0  0  0  0  0  0  0
   -1.4529    5.7321    9.5843 N   0  0  0  0  0  0  0  0  0  0  0  0
   -0.7799    5.1744    8.5047 C   0  0  0  0  0  0  0  0  0  0  0  0
   -1.4874    4.1032    7.9927 C   0  0  0  0  0  0  0  0  0  0  0  0
   -1.1520    3.2264    6.8488 C   0  0  0  0  0  0  0  0  0  0  0  0
   -1.7130    1.9281    6.7110 C   0  0  0  0  0  0  0  0  0  0  0  0
   -1.4285    1.1259    5.6017 C   0  0  0  0  0  0  0  0  0  0  0  0
   -0.4992    1.5489    4.6487 C   0  0  0  0  0  0  0  0  0  0  0  0
    0.1341    2.8194    4.7809 C   0  0  0  0  0  0  0  0  0  0  0  0
   -0.2089    3.6518    5.8785 C   0  0  0  0  0  0  0  0  0  0  0  0
    1.1613    3.2297    3.7087 C   0  0  2  0  0  0  0  0  0  0  0  0
    2.6119    3.2689    4.2463 C   0  0  0  0  0  0  0  0  0  0  0  0
    2.8650    4.6444    4.4938 O   0  0  0  0  0  0  0  0  0  0  0  0
    1.9671    5.3684    3.8098 C   0  0  0  0  0  0  0  0  0  0  0  0
    2.1861    6.6903    3.6793 N   0  0  0  0  0  0  0  0  0  0  0  0
    0.9757    4.6247    3.3122 N   0  0  0  0  0  0  0  0  0  0  0  0
    0.9422    2.2750    2.5416 C   0  0  1  0  0  0  0  0  0  0  0  0
    1.6824    1.1774    1.8247 C   0  0  0  0  0  0  0  0  0  0  0  0
    1.1470    0.8837    3.1748 C   0  0  2  0  0  0  0  0  0  0  0  0
   -0.1843    0.6868    3.6106 O   0  0  0  0  0  0  0  0  0  0  0  0
   -4.6777    3.5584    9.1641 H   0  0  0  0  0  0  0  0  0  0  0  0
   -3.5435    2.2018    9.2017 H   0  0  0  0  0  0  0  0  0  0  0  0
   -4.0651    2.9358    7.6416 H   0  0  0  0  0  0  0  0  0  0  0  0
   -3.2953    5.1368   10.4399 H   0  0  0  0  0  0  0  0  0  0  0  0
    0.1759    5.5869    8.2083 H   0  0  0  0  0  0  0  0  0  0  0  0
   -2.3646    1.4896    7.4416 H   0  0  0  0  0  0  0  0  0  0  0  0
   -1.8973    0.1602    5.5096 H   0  0  0  0  0  0  0  0  0  0  0  0
    0.2713    4.6142    5.9811 H   0  0  0  0  0  0  0  0  0  0  0  0
    2.7683    2.6291    5.1166 H   0  0  0  0  0  0  0  0  0  0  0  0
    3.3145    2.9581    3.4760 H   0  0  0  0  0  0  0  0  0  0  0  0
    1.5844    7.2896    3.1104 H   0  0  0  0  0  0  0  0  0  0  0  0
    0.2831    4.9150    2.6259 H   0  0  0  0  0  0  0  0  0  0  0  0
   -0.0142    2.4756    2.0616 H   0  0  0  0  0  0  0  0  0  0  0  0
    1.1771    0.6686    1.0073 H   0  0  0  0  0  0  0  0  0  0  0  0
    2.7637    1.2571    1.7301 H   0  0  0  0  0  0  0  0  0  0  0  0
    1.8759    0.7156    3.9666 H   0  0  0  0  0  0  0  0  0  0  0  0
    3.0234    7.0745    4.1077 H   0  0  0  0  0  0  0  0  0  0  0  0
  1  2  1  0
  1 23  1  0
  1 24  1  0
  1 25  1  0
  2  6  1  0
  2  3  1  0
  3  4  2  0
  3 26  1  0
  4  5  1  0
  5  6  2  0
  5 27  1  0
  6  7  1  0
  7 12  1  0
  7  8  2  0
  8  9  1  0
  8 28  1  0
  9 10  2  0
  9 29  1  0
 10 22  1  0
 10 11  1  0
 11 12  2  0
 11 13  1  0
 12 30  1  0
 13 18  1  0
 13 14  1  1
 13 19  1  0
 14 15  1  0
 14 31  1  0
 14 32  1  0
 15 16  1  0
 16 17  1  0
 16 18  2  0
 17 33  1  0
 17 39  1  0
 18 34  1  0
 19 21  1  0
 19 20  1  0
 19 35  1  6
 20 21  1  0
 20 36  1  0
 20 37  1  0
 21 22  1  0
 21 38  1  1
M  CHG  1  18   1
M  END
>  <i_m_ct_stereo_status>  (369) 
1

>  <s_m_source_file>  (369) 
/var/tmp/pbs.5102264.sched01/tmplas2qej_/115vanlg5zy.sdf

>  <i_m_source_file_index>  (369) 
18

>  <i_lp_mmshare_version>  (369) 
48012

>  <i_f3d_flags>  (369) 
0

>  <s_epik_input>  (369) 
W0NIM11uMVtjSF1uW2NIXWMxLWMoW2NIXTIpW2NIXVtjSF1jKE9bQ0BASF0zW0NAQEhdNFtDSDJdMyljMltDQEBdNDVbQ0gyXU8vQyg9TlxbSF0pW05IXTU=

>  <s_epik_cmdline>  (369) 
J2VwaWtfcHl0aG9uJywgJy1waHQnLCAnMi4wJywgJy1waCcsICc3LjAnLCAnLXRuJywgJzgnLCAnLW1hJywgJzIwMCcsICctaW1hZScsICc8aW5maWxlLm1hZT4nLCAnLW9tYWUnLCAnPG91dGZpbGUubWFlPic=

>  <r_lp_tautomer_probability>  (369) 
1

>  <r_epik_Ionization_Penalty>  (369) 
0.536388

>  <r_epik_Ionization_Penalty_Charging>  (369) 
0.513302

>  <r_epik_Ionization_Penalty_Neutral>  (369) 
0.0230864

>  <r_epik_State_Penalty>  (369) 
0.539998

>  <r_epik_Charging_Adjusted_Penalty>  (369) 
1.0533

>  <i_epik_Tot_Q>  (369) 
1

>  <i_epik_Tot_abs_Q>  (369) 
1

>  <s_epik_Chemistry_Notes>  (369) 
This compound has an imine and may undergo hydrolysis.

>  <s_lp_Force_Field>  (369) 
OPLS3e

>  <r_lp_Energy>  (369) 
43.4062

>  <b_lp_Chiralities_Consistent>  (369) 
1

>  <s_lp_Variant>  (369) 
80:0-2

>  <s_i_glide_gridfile>  (369) 
pfpi4k_grid

>  <i_i_glide_lignum>  (369) 
18

>  <i_i_glide_rotatable_bonds>  (369) 
1

>  <r_i_docking_score>  (369) 
-3.37728

>  <r_i_glide_ligand_efficiency>  (369) 
-0.153513

>  <r_i_glide_ligand_efficiency_sa>  (369) 
-0.430149

>  <r_i_glide_ligand_efficiency_ln>  (369) 
-0.825531

>  <r_i_glide_gscore>  (369) 
-3.37728

>  <r_i_glide_lipo>  (369) 
-0.0158128

>  <r_i_glide_hbond>  (369) 
-0.265719

>  <r_i_glide_metal>  (369) 
-0

>  <r_i_glide_rewards>  (369) 
-1.45561

>  <r_i_glide_evdw>  (369) 
-18.3646

>  <r_i_glide_ecoul>  (369) 
-5.01622

>  <r_i_glide_erotb>  (369) 
0.207382

>  <r_i_glide_esite>  (369) 
-0.176862

>  <r_i_glide_emodel>  (369) 
-29.352

>  <r_i_glide_energy>  (369) 
-23.3808

>  <r_i_glide_einternal>  (369) 
1.06389

>  <r_i_glide_intrahb_reward>  (369) 
-0

>  <i_i_glide_confnum>  (369) 
3

>  <i_i_glide_posenum>  (369) 
1

>  <r_i_glide_eff_state_penalty>  (369) 
0

>  <ligand_id>  (369) 
80

>  <original_smiles>  (369) 
Cn1cncc1-c1ccc2c(c1)C1(COC(=N)N1)C1CC1O2

>  <smiles>  (369) 
[H]c1nc([H])n(C([H])([H])[H])c1-c1c([H])c([H])c2c(c1[H])C1([N+]([H])=C(N([H])[H])OC1([H])[H])C1([H])C([H])([H])C1([H])O2

$$$$
80:2:0
     RDKit          3D

 39 43  0  0  1  0  0  0  0  0999 V2000
   -4.9765   -6.9669   -5.4881 C   0  0  0  0  0  0  0  0  0  0  0  0
   -6.2133   -6.1868   -5.5002 N   0  0  0  0  0  0  0  0  0  0  0  0
   -6.3478   -5.0941   -4.7415 C   0  0  0  0  0  0  0  0  0  0  0  0
   -7.5471   -4.5859   -4.9850 N   0  0  0  0  0  0  0  0  0  0  0  0
   -8.2192   -5.3398   -5.9128 C   0  0  0  0  0  0  0  0  0  0  0  0
   -7.3711   -6.3780   -6.2240 C   0  0  0  0  0  0  0  0  0  0  0  0
   -7.6111   -7.4869   -7.1746 C   0  0  0  0  0  0  0  0  0  0  0  0
   -8.4736   -7.3057   -8.2878 C   0  0  0  0  0  0  0  0  0  0  0  0
   -8.6900   -8.3477   -9.2158 C   0  0  0  0  0  0  0  0  0  0  0  0
   -8.0608   -9.5974   -9.0568 C   0  0  0  0  0  0  0  0  0  0  0  0
   -7.2026   -9.8047   -7.9433 C   0  0  0  0  0  0  0  0  0  0  0  0
   -7.0166   -8.7719   -7.0138 C   0  0  0  0  0  0  0  0  0  0  0  0
   -6.4646  -11.1522   -7.7805 C   0  0  2  0  0  0  0  0  0  0  0  0
   -6.9395  -11.9837   -6.5650 C   0  0  0  0  0  0  0  0  0  0  0  0
   -5.7442  -12.3576   -5.9188 O   0  0  0  0  0  0  0  0  0  0  0  0
   -4.7411  -11.6745   -6.5106 C   0  0  0  0  0  0  0  0  0  0  0  0
   -3.5082  -11.8626   -5.9287 N   0  0  0  0  0  0  0  0  0  0  0  0
   -5.0564  -10.9461   -7.5378 N   0  0  0  0  0  0  0  0  0  0  0  0
   -6.6518  -11.8526   -9.1124 C   0  0  1  0  0  0  0  0  0  0  0  0
   -7.3168  -13.0724   -9.6748 C   0  0  0  0  0  0  0  0  0  0  0  0
   -8.1740  -11.8990   -9.3391 C   0  0  2  0  0  0  0  0  0  0  0  0
   -8.3063  -10.6218   -9.9536 O   0  0  0  0  0  0  0  0  0  0  0  0
   -4.1264   -6.3599   -5.1620 H   0  0  0  0  0  0  0  0  0  0  0  0
   -4.7639   -7.3146   -6.5017 H   0  0  0  0  0  0  0  0  0  0  0  0
   -5.0894   -7.8231   -4.8133 H   0  0  0  0  0  0  0  0  0  0  0  0
   -5.6226   -4.6902   -4.0619 H   0  0  0  0  0  0  0  0  0  0  0  0
   -9.2157   -5.1000   -6.2498 H   0  0  0  0  0  0  0  0  0  0  0  0
   -8.9895   -6.3592   -8.4374 H   0  0  0  0  0  0  0  0  0  0  0  0
   -9.3724   -8.2069  -10.0410 H   0  0  0  0  0  0  0  0  0  0  0  0
   -6.3898   -9.0078   -6.1684 H   0  0  0  0  0  0  0  0  0  0  0  0
   -7.5290  -11.3633   -5.8873 H   0  0  0  0  0  0  0  0  0  0  0  0
   -7.5348  -12.8613   -6.8241 H   0  0  0  0  0  0  0  0  0  0  0  0
   -2.6530  -11.4072   -6.2343 H   0  0  0  0  0  0  0  0  0  0  0  0
   -6.0214  -11.4218   -9.8720 H   0  0  0  0  0  0  0  0  0  0  0  0
   -7.2044  -13.2601  -10.7434 H   0  0  0  0  0  0  0  0  0  0  0  0
   -7.3808  -13.9555   -9.0375 H   0  0  0  0  0  0  0  0  0  0  0  0
   -8.8320  -12.0197   -8.4868 H   0  0  0  0  0  0  0  0  0  0  0  0
   -3.3668  -12.4352   -5.0915 H   0  0  0  0  0  0  0  0  0  0  0  0
   -7.9069   -3.7533   -4.5358 H   0  0  0  0  0  0  0  0  0  0  0  0
  1  2  1  0
  1 23  1  0
  1 24  1  0
  1 25  1  0
  2  6  1  0
  2  3  1  0
  3  4  2  0
  3 26  1  0
  4  5  1  0
  4 39  1  0
  5  6  2  0
  5 27  1  0
  6  7  1  0
  7 12  1  0
  7  8  2  0
  8  9  1  0
  8 28  1  0
  9 10  2  0
  9 29  1  0
 10 22  1  0
 10 11  1  0
 11 12  2  0
 11 13  1  0
 12 30  1  0
 13 18  1  0
 13 14  1  1
 13 19  1  0
 14 15  1  0
 14 31  1  0
 14 32  1  0
 15 16  1  0
 16 17  1  0
 16 18  2  0
 17 33  1  0
 17 38  1  0
 19 21  1  0
 19 20  1  0
 19 34  1  6
 20 21  1  0
 20 35  1  0
 20 36  1  0
 21 22  1  0
 21 37  1  1
M  CHG  1   4   1
M  END
>  <i_m_ct_stereo_status>  (370) 
1

>  <s_m_source_file>  (370) 
/var/tmp/pbs.5102264.sched01/tmplas2qej_/115vanlg5zy.sdf

>  <i_m_source_file_index>  (370) 
19

>  <i_lp_mmshare_version>  (370) 
48012

>  <i_f3d_flags>  (370) 
0

>  <s_epik_input>  (370) 
W0NIM11uMVtjSF1uW2NIXWMxLWMoW2NIXTIpW2NIXVtjSF1jKE9bQ0BASF0zW0NAQEhdNFtDSDJdMyljMltDQEBdNDVbQ0gyXU8vQyg9TlxbSF0pW05IXTU=

>  <s_epik_cmdline>  (370) 
J2VwaWtfcHl0aG9uJywgJy1waHQnLCAnMi4wJywgJy1waCcsICc3LjAnLCAnLXRuJywgJzgnLCAnLW1hJywgJzIwMCcsICctaW1hZScsICc8aW5maWxlLm1hZT4nLCAnLW9tYWUnLCAnPG91dGZpbGUubWFlPic=

>  <r_epik_Ionization_Penalty>  (370) 
2.25801

>  <r_epik_Ionization_Penalty_Charging>  (370) 
1.93417

>  <r_epik_Ionization_Penalty_Neutral>  (370) 
0.323844

>  <r_epik_State_Penalty>  (370) 
2.37801

>  <r_epik_Charging_Adjusted_Penalty>  (370) 
4.31218

>  <i_epik_Tot_Q>  (370) 
1

>  <i_epik_Tot_abs_Q>  (370) 
1

>  <s_epik_Chemistry_Notes>  (370) 
This compound has an imine and may undergo hydrolysis.

>  <s_lp_Force_Field>  (370) 
OPLS3e

>  <r_lp_Energy>  (370) 
42.0688

>  <b_lp_Chiralities_Consistent>  (370) 
1

>  <s_lp_Variant>  (370) 
80:0-3

>  <s_i_glide_gridfile>  (370) 
pfpi4k_grid

>  <i_i_glide_lignum>  (370) 
19

>  <i_i_glide_rotatable_bonds>  (370) 
1

>  <r_i_docking_score>  (370) 
-7.03859

>  <r_i_glide_ligand_efficiency>  (370) 
-0.319936

>  <r_i_glide_ligand_efficiency_sa>  (370) 
-0.896474

>  <r_i_glide_ligand_efficiency_ln>  (370) 
-1.72049

>  <r_i_glide_gscore>  (370) 
-7.03859

>  <r_i_glide_lipo>  (370) 
-1.83664

>  <r_i_glide_hbond>  (370) 
-0.60166

>  <r_i_glide_metal>  (370) 
-0

>  <r_i_glide_rewards>  (370) 
-2.48063

>  <r_i_glide_evdw>  (370) 
-27.0603

>  <r_i_glide_ecoul>  (370) 
-6.1626

>  <r_i_glide_erotb>  (370) 
0.207382

>  <r_i_glide_esite>  (370) 
-0.0496471

>  <r_i_glide_emodel>  (370) 
-46.8984

>  <r_i_glide_energy>  (370) 
-33.2229

>  <r_i_glide_einternal>  (370) 
0.778557

>  <r_i_glide_intrahb_reward>  (370) 
-0

>  <i_i_glide_confnum>  (370) 
6

>  <i_i_glide_posenum>  (370) 
6

>  <r_i_glide_eff_state_penalty>  (370) 
0

>  <ligand_id>  (370) 
80

>  <original_smiles>  (370) 
Cn1cncc1-c1ccc2c(c1)C1(COC(=N)N1)C1CC1O2

>  <smiles>  (370) 
[H]c1c([H])c(-c2c([H])[n+]([H])c([H])n2C([H])([H])[H])c([H])c2c1OC1([H])C([H])([H])C1([H])C21N=C(N([H])[H])OC1([H])[H]

$$$$
80:2:1
     RDKit          3D

 39 43  0  0  1  0  0  0  0  0999 V2000
   -5.7695  -10.3678   -7.6069 C   0  0  0  0  0  0  0  0  0  0  0  0
   -5.4646   -9.4601   -6.4954 N   0  0  0  0  0  0  0  0  0  0  0  0
   -4.4727   -9.7428   -5.6346 C   0  0  0  0  0  0  0  0  0  0  0  0
   -4.3836   -8.7236   -4.7770 N   0  0  0  0  0  0  0  0  0  0  0  0
   -5.3445   -7.7777   -5.0604 C   0  0  0  0  0  0  0  0  0  0  0  0
   -6.0537   -8.2586   -6.1371 C   0  0  0  0  0  0  0  0  0  0  0  0
   -7.2142   -7.6234   -6.8115 C   0  0  0  0  0  0  0  0  0  0  0  0
   -7.3861   -6.2167   -6.7662 C   0  0  0  0  0  0  0  0  0  0  0  0
   -8.4460   -5.5902   -7.4550 C   0  0  0  0  0  0  0  0  0  0  0  0
   -9.3754   -6.3569   -8.1823 C   0  0  0  0  0  0  0  0  0  0  0  0
   -9.2344   -7.7742   -8.2197 C   0  0  0  0  0  0  0  0  0  0  0  0
   -8.1846   -8.3840   -7.5163 C   0  0  0  0  0  0  0  0  0  0  0  0
  -10.2316   -8.6284   -9.0314 C   0  0  2  0  0  0  0  0  0  0  0  0
  -11.1464   -9.5249   -8.1543 C   0  0  0  0  0  0  0  0  0  0  0  0
  -11.0354  -10.7932   -8.7616 O   0  0  0  0  0  0  0  0  0  0  0  0
  -10.0689  -10.7273   -9.6982 C   0  0  0  0  0  0  0  0  0  0  0  0
   -9.7853  -11.9235  -10.3101 N   0  0  0  0  0  0  0  0  0  0  0  0
   -9.5344   -9.5615   -9.8909 N   0  0  0  0  0  0  0  0  0  0  0  0
  -10.9722   -7.6227   -9.8986 C   0  0  1  0  0  0  0  0  0  0  0  0
  -12.3640   -7.0873  -10.0603 C   0  0  0  0  0  0  0  0  0  0  0  0
  -11.5623   -6.6117   -8.8956 C   0  0  2  0  0  0  0  0  0  0  0  0
  -10.4440   -5.7342   -8.8183 O   0  0  0  0  0  0  0  0  0  0  0  0
   -4.9069  -10.9813   -7.8633 H   0  0  0  0  0  0  0  0  0  0  0  0
   -6.0360   -9.7674   -8.4746 H   0  0  0  0  0  0  0  0  0  0  0  0
   -6.6015  -11.0047   -7.3085 H   0  0  0  0  0  0  0  0  0  0  0  0
   -3.8464  -10.6174   -5.6412 H   0  0  0  0  0  0  0  0  0  0  0  0
   -5.4626   -6.8804   -4.4647 H   0  0  0  0  0  0  0  0  0  0  0  0
   -6.6839   -5.5994   -6.2263 H   0  0  0  0  0  0  0  0  0  0  0  0
   -8.5601   -4.5209   -7.4081 H   0  0  0  0  0  0  0  0  0  0  0  0
   -8.1747   -9.4584   -7.5403 H   0  0  0  0  0  0  0  0  0  0  0  0
  -10.7667   -9.6171   -7.1349 H   0  0  0  0  0  0  0  0  0  0  0  0
  -12.1851   -9.1997   -8.1126 H   0  0  0  0  0  0  0  0  0  0  0  0
   -9.1067  -12.0318  -11.0504 H   0  0  0  0  0  0  0  0  0  0  0  0
  -10.3270   -7.2417  -10.6875 H   0  0  0  0  0  0  0  0  0  0  0  0
  -12.5347   -6.3366  -10.8254 H   0  0  0  0  0  0  0  0  0  0  0  0
  -13.1978   -7.7561   -9.8516 H   0  0  0  0  0  0  0  0  0  0  0  0
  -11.9037   -6.9489   -7.9156 H   0  0  0  0  0  0  0  0  0  0  0  0
  -10.2888  -12.7812  -10.1116 H   0  0  0  0  0  0  0  0  0  0  0  0
   -3.6882   -8.6859   -4.0393 H   0  0  0  0  0  0  0  0  0  0  0  0
  1  2  1  0
  1 23  1  0
  1 24  1  0
  1 25  1  0
  2  6  1  0
  2  3  1  0
  3  4  2  0
  3 26  1  0
  4  5  1  0
  4 39  1  0
  5  6  2  0
  5 27  1  0
  6  7  1  0
  7 12  1  0
  7  8  2  0
  8  9  1  0
  8 28  1  0
  9 10  2  0
  9 29  1  0
 10 22  1  0
 10 11  1  0
 11 12  2  0
 11 13  1  0
 12 30  1  0
 13 18  1  0
 13 14  1  1
 13 19  1  0
 14 15  1  0
 14 31  1  0
 14 32  1  0
 15 16  1  0
 16 17  1  0
 16 18  2  0
 17 33  1  0
 17 38  1  0
 19 21  1  0
 19 20  1  0
 19 34  1  6
 20 21  1  0
 20 35  1  0
 20 36  1  0
 21 22  1  0
 21 37  1  1
M  CHG  1   4   1
M  END
>  <i_m_ct_stereo_status>  (371) 
1

>  <s_m_source_file>  (371) 
/var/tmp/pbs.5102264.sched01/tmplas2qej_/115vanlg5zy.sdf

>  <i_m_source_file_index>  (371) 
19

>  <i_lp_mmshare_version>  (371) 
48012

>  <i_f3d_flags>  (371) 
0

>  <s_epik_input>  (371) 
W0NIM11uMVtjSF1uW2NIXWMxLWMoW2NIXTIpW2NIXVtjSF1jKE9bQ0BASF0zW0NAQEhdNFtDSDJdMyljMltDQEBdNDVbQ0gyXU8vQyg9TlxbSF0pW05IXTU=

>  <s_epik_cmdline>  (371) 
J2VwaWtfcHl0aG9uJywgJy1waHQnLCAnMi4wJywgJy1waCcsICc3LjAnLCAnLXRuJywgJzgnLCAnLW1hJywgJzIwMCcsICctaW1hZScsICc8aW5maWxlLm1hZT4nLCAnLW9tYWUnLCAnPG91dGZpbGUubWFlPic=

>  <r_epik_Ionization_Penalty>  (371) 
2.25801

>  <r_epik_Ionization_Penalty_Charging>  (371) 
1.93417

>  <r_epik_Ionization_Penalty_Neutral>  (371) 
0.323844

>  <r_epik_State_Penalty>  (371) 
2.37801

>  <r_epik_Charging_Adjusted_Penalty>  (371) 
4.31218

>  <i_epik_Tot_Q>  (371) 
1

>  <i_epik_Tot_abs_Q>  (371) 
1

>  <s_epik_Chemistry_Notes>  (371) 
This compound has an imine and may undergo hydrolysis.

>  <s_lp_Force_Field>  (371) 
OPLS3e

>  <r_lp_Energy>  (371) 
42.0688

>  <b_lp_Chiralities_Consistent>  (371) 
1

>  <s_lp_Variant>  (371) 
80:0-3

>  <s_i_glide_gridfile>  (371) 
pfpi4k_grid

>  <i_i_glide_lignum>  (371) 
19

>  <i_i_glide_rotatable_bonds>  (371) 
1

>  <r_i_docking_score>  (371) 
-5.43294

>  <r_i_glide_ligand_efficiency>  (371) 
-0.246952

>  <r_i_glide_ligand_efficiency_sa>  (371) 
-0.691968

>  <r_i_glide_ligand_efficiency_ln>  (371) 
-1.32801

>  <r_i_glide_gscore>  (371) 
-5.43294

>  <r_i_glide_lipo>  (371) 
-1.47549

>  <r_i_glide_hbond>  (371) 
0

>  <r_i_glide_metal>  (371) 
-0

>  <r_i_glide_rewards>  (371) 
-2.24652

>  <r_i_glide_evdw>  (371) 
-24.2643

>  <r_i_glide_ecoul>  (371) 
-4.67403

>  <r_i_glide_erotb>  (371) 
0.207382

>  <r_i_glide_esite>  (371) 
-0.00398716

>  <r_i_glide_emodel>  (371) 
-39.2054

>  <r_i_glide_energy>  (371) 
-28.9384

>  <r_i_glide_einternal>  (371) 
0.970912

>  <r_i_glide_intrahb_reward>  (371) 
-0

>  <i_i_glide_confnum>  (371) 
6

>  <i_i_glide_posenum>  (371) 
7

>  <r_i_glide_eff_state_penalty>  (371) 
0

>  <ligand_id>  (371) 
80

>  <original_smiles>  (371) 
Cn1cncc1-c1ccc2c(c1)C1(COC(=N)N1)C1CC1O2

>  <smiles>  (371) 
[H]c1c([H])c(-c2c([H])[n+]([H])c([H])n2C([H])([H])[H])c([H])c2c1OC1([H])C([H])([H])C1([H])C21N=C(N([H])[H])OC1([H])[H]

$$$$
80:2:2
     RDKit          3D

 39 43  0  0  1  0  0  0  0  0999 V2000
   -6.1335   -8.5405   -5.7288 C   0  0  0  0  0  0  0  0  0  0  0  0
   -6.1569   -7.0739   -5.5663 N   0  0  0  0  0  0  0  0  0  0  0  0
   -5.2020   -6.4956   -4.8314 C   0  0  0  0  0  0  0  0  0  0  0  0
   -5.4113   -5.1734   -4.8353 N   0  0  0  0  0  0  0  0  0  0  0  0
   -6.5438   -4.8814   -5.5586 C   0  0  0  0  0  0  0  0  0  0  0  0
   -7.0138   -6.0943   -6.0359 C   0  0  0  0  0  0  0  0  0  0  0  0
   -8.1943   -6.2938   -6.9115 C   0  0  0  0  0  0  0  0  0  0  0  0
   -9.1248   -5.2603   -7.1591 C   0  0  0  0  0  0  0  0  0  0  0  0
  -10.2688   -5.4719   -7.9795 C   0  0  0  0  0  0  0  0  0  0  0  0
  -10.5001   -6.7344   -8.5845 C   0  0  0  0  0  0  0  0  0  0  0  0
   -9.5860   -7.7818   -8.3552 C   0  0  0  0  0  0  0  0  0  0  0  0
   -8.4723   -7.5577   -7.5350 C   0  0  0  0  0  0  0  0  0  0  0  0
   -9.7833   -9.1676   -9.0051 C   0  0  2  0  0  0  0  0  0  0  0  0
  -10.1606  -10.3064   -8.0227 C   0  0  0  0  0  0  0  0  0  0  0  0
   -9.2751  -11.3572   -8.3585 O   0  0  0  0  0  0  0  0  0  0  0  0
   -8.3927  -10.8684   -9.2469 C   0  0  0  0  0  0  0  0  0  0  0  0
   -7.4066  -11.7513   -9.5966 N   0  0  0  0  0  0  0  0  0  0  0  0
   -8.5790   -9.6490   -9.6420 N   0  0  0  0  0  0  0  0  0  0  0  0
  -10.8295   -8.9242  -10.0877 C   0  0  1  0  0  0  0  0  0  0  0  0
  -12.2474   -9.3093  -10.4150 C   0  0  0  0  0  0  0  0  0  0  0  0
  -12.0230   -8.3075   -9.3305 C   0  0  2  0  0  0  0  0  0  0  0  0
  -11.6286   -6.9398   -9.3843 O   0  0  0  0  0  0  0  0  0  0  0  0
   -5.1737   -8.9691   -5.5012 H   0  0  0  0  0  0  0  0  0  0  0  0
   -6.1926   -8.8126   -6.7914 H   0  0  0  0  0  0  0  0  0  0  0  0
   -6.9560   -8.9856   -5.1435 H   0  0  0  0  0  0  0  0  0  0  0  0
   -4.3939   -7.0263   -4.3311 H   0  0  0  0  0  0  0  0  0  0  0  0
   -6.8704   -3.8584   -5.7059 H   0  0  0  0  0  0  0  0  0  0  0  0
   -9.0096   -4.2646   -6.7009 H   0  0  0  0  0  0  0  0  0  0  0  0
  -10.9935   -4.6956   -8.1383 H   0  0  0  0  0  0  0  0  0  0  0  0
   -7.9246   -8.4444   -7.4452 H   0  0  0  0  0  0  0  0  0  0  0  0
   -9.9429  -10.0340   -6.9892 H   0  0  0  0  0  0  0  0  0  0  0  0
  -11.1900  -10.6447   -8.0726 H   0  0  0  0  0  0  0  0  0  0  0  0
   -6.6763  -11.5295  -10.2538 H   0  0  0  0  0  0  0  0  0  0  0  0
  -10.3930   -8.3548  -10.9112 H   0  0  0  0  0  0  0  0  0  0  0  0
  -12.6969   -8.8963  -11.3104 H   0  0  0  0  0  0  0  0  0  0  0  0
  -12.5726  -10.3007  -10.1278 H   0  0  0  0  0  0  0  0  0  0  0  0
  -12.2339   -8.6357   -8.3028 H   0  0  0  0  0  0  0  0  0  0  0  0
   -7.3503  -12.7022   -9.2507 H   0  0  0  0  0  0  0  0  0  0  0  0
   -4.8241   -4.4670   -4.3788 H   0  0  0  0  0  0  0  0  0  0  0  0
  1  2  1  0
  1 23  1  0
  1 24  1  0
  1 25  1  0
  2  6  1  0
  2  3  1  0
  3  4  2  0
  3 26  1  0
  4  5  1  0
  4 39  1  0
  5  6  2  0
  5 27  1  0
  6  7  1  0
  7 12  1  0
  7  8  2  0
  8  9  1  0
  8 28  1  0
  9 10  2  0
  9 29  1  0
 10 22  1  0
 10 11  1  0
 11 12  2  0
 11 13  1  0
 12 30  1  0
 13 18  1  0
 13 14  1  1
 13 19  1  0
 14 15  1  0
 14 31  1  0
 14 32  1  0
 15 16  1  0
 16 17  1  0
 16 18  2  0
 17 33  1  0
 17 38  1  0
 19 21  1  0
 19 20  1  0
 19 34  1  6
 20 21  1  0
 20 35  1  0
 20 36  1  0
 21 22  1  0
 21 37  1  1
M  CHG  1   4   1
M  END
>  <i_m_ct_stereo_status>  (372) 
1

>  <s_m_source_file>  (372) 
/var/tmp/pbs.5102264.sched01/tmplas2qej_/115vanlg5zy.sdf

>  <i_m_source_file_index>  (372) 
19

>  <i_lp_mmshare_version>  (372) 
48012

>  <i_f3d_flags>  (372) 
0

>  <s_epik_input>  (372) 
W0NIM11uMVtjSF1uW2NIXWMxLWMoW2NIXTIpW2NIXVtjSF1jKE9bQ0BASF0zW0NAQEhdNFtDSDJdMyljMltDQEBdNDVbQ0gyXU8vQyg9TlxbSF0pW05IXTU=

>  <s_epik_cmdline>  (372) 
J2VwaWtfcHl0aG9uJywgJy1waHQnLCAnMi4wJywgJy1waCcsICc3LjAnLCAnLXRuJywgJzgnLCAnLW1hJywgJzIwMCcsICctaW1hZScsICc8aW5maWxlLm1hZT4nLCAnLW9tYWUnLCAnPG91dGZpbGUubWFlPic=

>  <r_epik_Ionization_Penalty>  (372) 
2.25801

>  <r_epik_Ionization_Penalty_Charging>  (372) 
1.93417

>  <r_epik_Ionization_Penalty_Neutral>  (372) 
0.323844

>  <r_epik_State_Penalty>  (372) 
2.37801

>  <r_epik_Charging_Adjusted_Penalty>  (372) 
4.31218

>  <i_epik_Tot_Q>  (372) 
1

>  <i_epik_Tot_abs_Q>  (372) 
1

>  <s_epik_Chemistry_Notes>  (372) 
This compound has an imine and may undergo hydrolysis.

>  <s_lp_Force_Field>  (372) 
OPLS3e

>  <r_lp_Energy>  (372) 
42.0688

>  <b_lp_Chiralities_Consistent>  (372) 
1

>  <s_lp_Variant>  (372) 
80:0-3

>  <s_i_glide_gridfile>  (372) 
pfpi4k_grid

>  <i_i_glide_lignum>  (372) 
19

>  <i_i_glide_rotatable_bonds>  (372) 
1

>  <r_i_docking_score>  (372) 
-4.43645

>  <r_i_glide_ligand_efficiency>  (372) 
-0.201657

>  <r_i_glide_ligand_efficiency_sa>  (372) 
-0.565051

>  <r_i_glide_ligand_efficiency_ln>  (372) 
-1.08443

>  <r_i_glide_gscore>  (372) 
-4.43645

>  <r_i_glide_lipo>  (372) 
-1.40636

>  <r_i_glide_hbond>  (372) 
0

>  <r_i_glide_metal>  (372) 
-0

>  <r_i_glide_rewards>  (372) 
-2.17979

>  <r_i_glide_evdw>  (372) 
-23.8252

>  <r_i_glide_ecoul>  (372) 
0.890461

>  <r_i_glide_erotb>  (372) 
0.207382

>  <r_i_glide_esite>  (372) 
0

>  <r_i_glide_emodel>  (372) 
-27.7674

>  <r_i_glide_energy>  (372) 
-22.9348

>  <r_i_glide_einternal>  (372) 
4.36642

>  <r_i_glide_intrahb_reward>  (372) 
-0

>  <i_i_glide_confnum>  (372) 
6

>  <i_i_glide_posenum>  (372) 
4

>  <r_i_glide_eff_state_penalty>  (372) 
0

>  <ligand_id>  (372) 
80

>  <original_smiles>  (372) 
Cn1cncc1-c1ccc2c(c1)C1(COC(=N)N1)C1CC1O2

>  <smiles>  (372) 
[H]c1c([H])c(-c2c([H])[n+]([H])c([H])n2C([H])([H])[H])c([H])c2c1OC1([H])C([H])([H])C1([H])C21N=C(N([H])[H])OC1([H])[H]

$$$$
80:3:0
     RDKit          3D

 38 42  0  0  1  0  0  0  0  0999 V2000
   -5.0798   -6.9109   -5.4966 C   0  0  0  0  0  0  0  0  0  0  0  0
   -6.2694   -6.0709   -5.5208 N   0  0  0  0  0  0  0  0  0  0  0  0
   -6.4266   -4.9414   -4.8148 C   0  0  0  0  0  0  0  0  0  0  0  0
   -7.5734   -4.3103   -5.0266 N   0  0  0  0  0  0  0  0  0  0  0  0
   -8.2237   -5.1117   -5.9552 C   0  0  0  0  0  0  0  0  0  0  0  0
   -7.4499   -6.2145   -6.2678 C   0  0  0  0  0  0  0  0  0  0  0  0
   -7.7271   -7.3158   -7.2039 C   0  0  0  0  0  0  0  0  0  0  0  0
   -8.5936   -7.1026   -8.3013 C   0  0  0  0  0  0  0  0  0  0  0  0
   -8.8767   -8.1366   -9.2200 C   0  0  0  0  0  0  0  0  0  0  0  0
   -8.3034   -9.4100   -9.0508 C   0  0  0  0  0  0  0  0  0  0  0  0
   -7.4380   -9.6515   -7.9486 C   0  0  0  0  0  0  0  0  0  0  0  0
   -7.1772   -8.6116   -7.0335 C   0  0  0  0  0  0  0  0  0  0  0  0
   -6.7818  -11.0403   -7.7911 C   0  0  2  0  0  0  0  0  0  0  0  0
   -7.3023  -11.8416   -6.5732 C   0  0  0  0  0  0  0  0  0  0  0  0
   -6.1226  -12.2654   -5.9194 O   0  0  0  0  0  0  0  0  0  0  0  0
   -5.0848  -11.6328   -6.5216 C   0  0  0  0  0  0  0  0  0  0  0  0
   -3.8649  -11.8526   -5.9213 N   0  0  0  0  0  0  0  0  0  0  0  0
   -5.3616  -10.9172   -7.5519 N   0  0  0  0  0  0  0  0  0  0  0  0
   -7.0000  -11.7294   -9.1313 C   0  0  1  0  0  0  0  0  0  0  0  0
   -7.7374  -12.9156   -9.6864 C   0  0  0  0  0  0  0  0  0  0  0  0
   -8.5298  -11.6995   -9.3369 C   0  0  2  0  0  0  0  0  0  0  0  0
   -8.6074  -10.4207   -9.9534 O   0  0  0  0  0  0  0  0  0  0  0  0
   -4.2119   -6.3385   -5.1668 H   0  0  0  0  0  0  0  0  0  0  0  0
   -4.8613   -7.2919   -6.4960 H   0  0  0  0  0  0  0  0  0  0  0  0
   -5.2259   -7.7453   -4.8049 H   0  0  0  0  0  0  0  0  0  0  0  0
   -5.6676   -4.5654   -4.1438 H   0  0  0  0  0  0  0  0  0  0  0  0
   -9.2011   -4.8304   -6.3150 H   0  0  0  0  0  0  0  0  0  0  0  0
   -9.0666   -6.1406   -8.4465 H   0  0  0  0  0  0  0  0  0  0  0  0
   -9.5607   -7.9645  -10.0381 H   0  0  0  0  0  0  0  0  0  0  0  0
   -6.5480   -8.8519   -6.1965 H   0  0  0  0  0  0  0  0  0  0  0  0
   -7.8683  -11.1986   -5.8977 H   0  0  0  0  0  0  0  0  0  0  0  0
   -7.9244  -12.6988   -6.8322 H   0  0  0  0  0  0  0  0  0  0  0  0
   -2.9981  -11.4366   -6.2375 H   0  0  0  0  0  0  0  0  0  0  0  0
   -6.3643  -11.2956   -9.8977 H   0  0  0  0  0  0  0  0  0  0  0  0
   -7.6371  -13.1184  -10.7512 H   0  0  0  0  0  0  0  0  0  0  0  0
   -7.8369  -13.7961   -9.0510 H   0  0  0  0  0  0  0  0  0  0  0  0
   -9.2014  -11.7881   -8.4852 H   0  0  0  0  0  0  0  0  0  0  0  0
   -3.7477  -12.4270   -5.0837 H   0  0  0  0  0  0  0  0  0  0  0  0
  1  2  1  0
  1 23  1  0
  1 24  1  0
  1 25  1  0
  2  6  1  0
  2  3  1  0
  3  4  2  0
  3 26  1  0
  4  5  1  0
  5  6  2  0
  5 27  1  0
  6  7  1  0
  7 12  1  0
  7  8  2  0
  8  9  1  0
  8 28  1  0
  9 10  2  0
  9 29  1  0
 10 22  1  0
 10 11  1  0
 11 12  2  0
 11 13  1  0
 12 30  1  0
 13 18  1  0
 13 14  1  1
 13 19  1  0
 14 15  1  0
 14 31  1  0
 14 32  1  0
 15 16  1  0
 16 17  1  0
 16 18  2  0
 17 33  1  0
 17 38  1  0
 19 21  1  0
 19 20  1  0
 19 34  1  6
 20 21  1  0
 20 35  1  0
 20 36  1  0
 21 22  1  0
 21 37  1  1
M  END
>  <i_m_ct_stereo_status>  (373) 
1

>  <s_m_source_file>  (373) 
/var/tmp/pbs.5102264.sched01/tmplas2qej_/115vanlg5zy.sdf

>  <i_m_source_file_index>  (373) 
20

>  <i_lp_mmshare_version>  (373) 
48012

>  <i_f3d_flags>  (373) 
0

>  <s_epik_input>  (373) 
W0NIM11uMVtjSF1uW2NIXWMxLWMoW2NIXTIpW2NIXVtjSF1jKE9bQ0BASF0zW0NAQEhdNFtDSDJdMyljMltDQEBdNDVbQ0gyXU8vQyg9TlxbSF0pW05IXTU=

>  <s_epik_cmdline>  (373) 
J2VwaWtfcHl0aG9uJywgJy1waHQnLCAnMi4wJywgJy1waCcsICc3LjAnLCAnLXRuJywgJzgnLCAnLW1hJywgJzIwMCcsICctaW1hZScsICc8aW5maWxlLm1hZT4nLCAnLW9tYWUnLCAnPG91dGZpbGUubWFlPic=

>  <r_lp_tautomer_probability>  (373) 
1

>  <r_epik_Ionization_Penalty>  (373) 
2.44664

>  <r_epik_Ionization_Penalty_Charging>  (373) 
2.44664

>  <r_epik_Ionization_Penalty_Neutral>  (373) 
1.32216e-13

>  <r_epik_State_Penalty>  (373) 
2.57928

>  <r_epik_Charging_Adjusted_Penalty>  (373) 
5.02591

>  <i_epik_Tot_Q>  (373) 
0

>  <i_epik_Tot_abs_Q>  (373) 
0

>  <s_epik_Chemistry_Notes>  (373) 
This compound has an imine and may undergo hydrolysis.

>  <s_lp_Force_Field>  (373) 
OPLS3e

>  <r_lp_Energy>  (373) 
35.9441

>  <b_lp_Chiralities_Consistent>  (373) 
1

>  <s_lp_Variant>  (373) 
80:0-4

>  <s_i_glide_gridfile>  (373) 
pfpi4k_grid

>  <i_i_glide_lignum>  (373) 
20

>  <i_i_glide_rotatable_bonds>  (373) 
1

>  <r_i_docking_score>  (373) 
-7.43502

>  <r_i_glide_ligand_efficiency>  (373) 
-0.337955

>  <r_i_glide_ligand_efficiency_sa>  (373) 
-0.946964

>  <r_i_glide_ligand_efficiency_ln>  (373) 
-1.81739

>  <r_i_glide_gscore>  (373) 
-7.43502

>  <r_i_glide_lipo>  (373) 
-1.80223

>  <r_i_glide_hbond>  (373) 
-0.392822

>  <r_i_glide_metal>  (373) 
-0

>  <r_i_glide_rewards>  (373) 
-3.25546

>  <r_i_glide_evdw>  (373) 
-29.3895

>  <r_i_glide_ecoul>  (373) 
-4.4631

>  <r_i_glide_erotb>  (373) 
0.208617

>  <r_i_glide_esite>  (373) 
-0.0541813

>  <r_i_glide_emodel>  (373) 
-49.0066

>  <r_i_glide_energy>  (373) 
-33.8526

>  <r_i_glide_einternal>  (373) 
0.548057

>  <r_i_glide_intrahb_reward>  (373) 
-0

>  <i_i_glide_confnum>  (373) 
3

>  <i_i_glide_posenum>  (373) 
30

>  <r_i_glide_eff_state_penalty>  (373) 
0

>  <ligand_id>  (373) 
80

>  <original_smiles>  (373) 
Cn1cncc1-c1ccc2c(c1)C1(COC(=N)N1)C1CC1O2

>  <smiles>  (373) 
[H]c1nc([H])n(C([H])([H])[H])c1-c1c([H])c([H])c2c(c1[H])C1(N=C(N([H])[H])OC1([H])[H])C1([H])C([H])([H])C1([H])O2

$$$$
80:3:1
     RDKit          3D

 38 42  0  0  1  0  0  0  0  0999 V2000
   -9.1380   -4.6440   -6.4730 C   0  0  0  0  0  0  0  0  0  0  0  0
   -7.9218   -5.1354   -5.8422 N   0  0  0  0  0  0  0  0  0  0  0  0
   -7.2656   -4.4790   -4.8789 C   0  0  0  0  0  0  0  0  0  0  0  0
   -6.1852   -5.0915   -4.4146 N   0  0  0  0  0  0  0  0  0  0  0  0
   -6.1335   -6.2683   -5.1470 C   0  0  0  0  0  0  0  0  0  0  0  0
   -7.1726   -6.3089   -6.0616 C   0  0  0  0  0  0  0  0  0  0  0  0
   -7.4696   -7.3637   -7.0607 C   0  0  0  0  0  0  0  0  0  0  0  0
   -8.3218   -7.1564   -8.1792 C   0  0  0  0  0  0  0  0  0  0  0  0
   -8.6038   -8.1853   -9.0888 C   0  0  0  0  0  0  0  0  0  0  0  0
   -8.0116   -9.4422   -8.9403 C   0  0  0  0  0  0  0  0  0  0  0  0
   -7.1225   -9.6777   -7.8496 C   0  0  0  0  0  0  0  0  0  0  0  0
   -6.8629   -8.6382   -6.9233 C   0  0  0  0  0  0  0  0  0  0  0  0
   -6.4369  -11.0524   -7.7395 C   0  0  2  0  0  0  0  0  0  0  0  0
   -6.9214  -11.9017   -6.5390 C   0  0  0  0  0  0  0  0  0  0  0  0
   -5.7294  -12.3111   -5.9187 O   0  0  0  0  0  0  0  0  0  0  0  0
   -4.7155  -11.6345   -6.5201 C   0  0  0  0  0  0  0  0  0  0  0  0
   -3.4850  -11.8471   -5.9255 N   0  0  0  0  0  0  0  0  0  0  0  0
   -5.0162  -10.9007   -7.5182 N   0  0  0  0  0  0  0  0  0  0  0  0
   -6.6684  -11.7185   -9.0897 C   0  0  1  0  0  0  0  0  0  0  0  0
   -7.3739  -12.9054   -9.6681 C   0  0  0  0  0  0  0  0  0  0  0  0
   -8.1975  -11.7269   -9.2819 C   0  0  2  0  0  0  0  0  0  0  0  0
   -8.3028  -10.4396   -9.8648 O   0  0  0  0  0  0  0  0  0  0  0  0
   -9.6354   -3.9073   -5.8361 H   0  0  0  0  0  0  0  0  0  0  0  0
   -9.8539   -5.4468   -6.6144 H   0  0  0  0  0  0  0  0  0  0  0  0
   -8.8914   -4.1702   -7.4257 H   0  0  0  0  0  0  0  0  0  0  0  0
   -7.5942   -3.5137   -4.5135 H   0  0  0  0  0  0  0  0  0  0  0  0
   -5.3334   -6.9823   -4.9711 H   0  0  0  0  0  0  0  0  0  0  0  0
   -8.7993   -6.2231   -8.4087 H   0  0  0  0  0  0  0  0  0  0  0  0
   -9.3018   -8.0059   -9.8950 H   0  0  0  0  0  0  0  0  0  0  0  0
   -6.1783   -8.8336   -6.1084 H   0  0  0  0  0  0  0  0  0  0  0  0
   -7.4943  -11.2840   -5.8514 H   0  0  0  0  0  0  0  0  0  0  0  0
   -7.5280  -12.7629   -6.8201 H   0  0  0  0  0  0  0  0  0  0  0  0
   -2.6245  -11.4104   -6.2393 H   0  0  0  0  0  0  0  0  0  0  0  0
   -6.0501  -11.2670   -9.8444 H   0  0  0  0  0  0  0  0  0  0  0  0
   -7.2793  -13.0652  -10.7413 H   0  0  0  0  0  0  0  0  0  0  0  0
   -7.4503  -13.8026   -9.0548 H   0  0  0  0  0  0  0  0  0  0  0  0
   -8.8521  -11.8481   -8.4268 H   0  0  0  0  0  0  0  0  0  0  0  0
   -3.3561  -12.4594   -5.1222 H   0  0  0  0  0  0  0  0  0  0  0  0
  1  2  1  0
  1 23  1  0
  1 24  1  0
  1 25  1  0
  2  6  1  0
  2  3  1  0
  3  4  2  0
  3 26  1  0
  4  5  1  0
  5  6  2  0
  5 27  1  0
  6  7  1  0
  7 12  1  0
  7  8  2  0
  8  9  1  0
  8 28  1  0
  9 10  2  0
  9 29  1  0
 10 22  1  0
 10 11  1  0
 11 12  2  0
 11 13  1  0
 12 30  1  0
 13 18  1  0
 13 14  1  1
 13 19  1  0
 14 15  1  0
 14 31  1  0
 14 32  1  0
 15 16  1  0
 16 17  1  0
 16 18  2  0
 17 33  1  0
 17 38  1  0
 19 21  1  0
 19 20  1  0
 19 34  1  6
 20 21  1  0
 20 35  1  0
 20 36  1  0
 21 22  1  0
 21 37  1  1
M  END
>  <i_m_ct_stereo_status>  (374) 
1

>  <s_m_source_file>  (374) 
/var/tmp/pbs.5102264.sched01/tmplas2qej_/115vanlg5zy.sdf

>  <i_m_source_file_index>  (374) 
20

>  <i_lp_mmshare_version>  (374) 
48012

>  <i_f3d_flags>  (374) 
0

>  <s_epik_input>  (374) 
W0NIM11uMVtjSF1uW2NIXWMxLWMoW2NIXTIpW2NIXVtjSF1jKE9bQ0BASF0zW0NAQEhdNFtDSDJdMyljMltDQEBdNDVbQ0gyXU8vQyg9TlxbSF0pW05IXTU=

>  <s_epik_cmdline>  (374) 
J2VwaWtfcHl0aG9uJywgJy1waHQnLCAnMi4wJywgJy1waCcsICc3LjAnLCAnLXRuJywgJzgnLCAnLW1hJywgJzIwMCcsICctaW1hZScsICc8aW5maWxlLm1hZT4nLCAnLW9tYWUnLCAnPG91dGZpbGUubWFlPic=

>  <r_lp_tautomer_probability>  (374) 
1

>  <r_epik_Ionization_Penalty>  (374) 
2.44664

>  <r_epik_Ionization_Penalty_Charging>  (374) 
2.44664

>  <r_epik_Ionization_Penalty_Neutral>  (374) 
1.32216e-13

>  <r_epik_State_Penalty>  (374) 
2.57928

>  <r_epik_Charging_Adjusted_Penalty>  (374) 
5.02591

>  <i_epik_Tot_Q>  (374) 
0

>  <i_epik_Tot_abs_Q>  (374) 
0

>  <s_epik_Chemistry_Notes>  (374) 
This compound has an imine and may undergo hydrolysis.

>  <s_lp_Force_Field>  (374) 
OPLS3e

>  <r_lp_Energy>  (374) 
35.9441

>  <b_lp_Chiralities_Consistent>  (374) 
1

>  <s_lp_Variant>  (374) 
80:0-4

>  <s_i_glide_gridfile>  (374) 
pfpi4k_grid

>  <i_i_glide_lignum>  (374) 
20

>  <i_i_glide_rotatable_bonds>  (374) 
1

>  <r_i_docking_score>  (374) 
-7.31303

>  <r_i_glide_ligand_efficiency>  (374) 
-0.332411

>  <r_i_glide_ligand_efficiency_sa>  (374) 
-0.931428

>  <r_i_glide_ligand_efficiency_ln>  (374) 
-1.78757

>  <r_i_glide_gscore>  (374) 
-7.31303

>  <r_i_glide_lipo>  (374) 
-1.96475

>  <r_i_glide_hbond>  (374) 
-0.608

>  <r_i_glide_metal>  (374) 
-0

>  <r_i_glide_rewards>  (374) 
-2.58037

>  <r_i_glide_evdw>  (374) 
-28.9502

>  <r_i_glide_ecoul>  (374) 
-5.82114

>  <r_i_glide_erotb>  (374) 
0.208617

>  <r_i_glide_esite>  (374) 
-0.0478544

>  <r_i_glide_emodel>  (374) 
-49.664

>  <r_i_glide_energy>  (374) 
-34.7713

>  <r_i_glide_einternal>  (374) 
0.300095

>  <r_i_glide_intrahb_reward>  (374) 
-0

>  <i_i_glide_confnum>  (374) 
3

>  <i_i_glide_posenum>  (374) 
32

>  <r_i_glide_eff_state_penalty>  (374) 
0

>  <ligand_id>  (374) 
80

>  <original_smiles>  (374) 
Cn1cncc1-c1ccc2c(c1)C1(COC(=N)N1)C1CC1O2

>  <smiles>  (374) 
[H]c1nc([H])n(C([H])([H])[H])c1-c1c([H])c([H])c2c(c1[H])C1(N=C(N([H])[H])OC1([H])[H])C1([H])C([H])([H])C1([H])O2

$$$$
80:3:2
     RDKit          3D

 38 42  0  0  1  0  0  0  0  0999 V2000
   -0.9702   -9.3750    2.2924 C   0  0  0  0  0  0  0  0  0  0  0  0
   -0.7430   -8.2657    3.2072 N   0  0  0  0  0  0  0  0  0  0  0  0
   -1.7199   -7.7190    3.9234 C   0  0  0  0  0  0  0  0  0  0  0  0
   -1.3694   -6.6710    4.6511 N   0  0  0  0  0  0  0  0  0  0  0  0
   -0.0124   -6.5305    4.3941 C   0  0  0  0  0  0  0  0  0  0  0  0
    0.3959   -7.4879    3.4886 C   0  0  0  0  0  0  0  0  0  0  0  0
    1.7256   -7.6562    2.8802 C   0  0  0  0  0  0  0  0  0  0  0  0
    2.2646   -8.9329    2.5821 C   0  0  0  0  0  0  0  0  0  0  0  0
    3.5219   -9.0798    1.9811 C   0  0  0  0  0  0  0  0  0  0  0  0
    4.3330   -7.9618    1.7635 C   0  0  0  0  0  0  0  0  0  0  0  0
    3.8529   -6.6638    2.1082 C   0  0  0  0  0  0  0  0  0  0  0  0
    2.5514   -6.5183    2.6488 C   0  0  0  0  0  0  0  0  0  0  0  0
    4.7662   -5.4506    1.8415 C   0  0  2  0  0  0  0  0  0  0  0  0
    5.2984   -4.7740    3.1383 C   0  0  0  0  0  0  0  0  0  0  0  0
    4.9957   -3.4084    2.9504 O   0  0  0  0  0  0  0  0  0  0  0  0
    4.2473   -3.3162    1.8243 C   0  0  0  0  0  0  0  0  0  0  0  0
    3.7946   -2.0477    1.5449 N   0  0  0  0  0  0  0  0  0  0  0  0
    4.0387   -4.4098    1.1611 N   0  0  0  0  0  0  0  0  0  0  0  0
    5.8583   -5.9815    0.9214 C   0  0  1  0  0  0  0  0  0  0  0  0
    7.3449   -6.1908    0.9364 C   0  0  0  0  0  0  0  0  0  0  0  0
    6.4993   -7.1491    1.6992 C   0  0  2  0  0  0  0  0  0  0  0  0
    5.6069   -8.1528    1.2595 O   0  0  0  0  0  0  0  0  0  0  0  0
   -1.8787   -9.9093    2.6010 H   0  0  0  0  0  0  0  0  0  0  0  0
   -0.1839  -10.1262    2.3099 H   0  0  0  0  0  0  0  0  0  0  0  0
   -1.1259   -8.9855    1.2882 H   0  0  0  0  0  0  0  0  0  0  0  0
   -2.7222   -8.0956    3.8661 H   0  0  0  0  0  0  0  0  0  0  0  0
    0.5523   -5.7359    4.8730 H   0  0  0  0  0  0  0  0  0  0  0  0
    1.7837   -9.8591    2.8408 H   0  0  0  0  0  0  0  0  0  0  0  0
    3.8909  -10.0727    1.7553 H   0  0  0  0  0  0  0  0  0  0  0  0
    2.1919   -5.5295    2.9073 H   0  0  0  0  0  0  0  0  0  0  0  0
    4.7616   -5.1250    4.0252 H   0  0  0  0  0  0  0  0  0  0  0  0
    6.3671   -4.9218    3.3053 H   0  0  0  0  0  0  0  0  0  0  0  0
    3.1983   -1.8186    0.7581 H   0  0  0  0  0  0  0  0  0  0  0  0
    5.4541   -6.1768   -0.0659 H   0  0  0  0  0  0  0  0  0  0  0  0
    7.8207   -6.6140    0.0548 H   0  0  0  0  0  0  0  0  0  0  0  0
    7.9583   -5.4990    1.5104 H   0  0  0  0  0  0  0  0  0  0  0  0
    6.5787   -7.1204    2.7790 H   0  0  0  0  0  0  0  0  0  0  0  0
    3.9966   -1.2408    2.1256 H   0  0  0  0  0  0  0  0  0  0  0  0
  1  2  1  0
  1 23  1  0
  1 24  1  0
  1 25  1  0
  2  6  1  0
  2  3  1  0
  3  4  2  0
  3 26  1  0
  4  5  1  0
  5  6  2  0
  5 27  1  0
  6  7  1  0
  7 12  1  0
  7  8  2  0
  8  9  1  0
  8 28  1  0
  9 10  2  0
  9 29  1  0
 10 22  1  0
 10 11  1  0
 11 12  2  0
 11 13  1  0
 12 30  1  0
 13 18  1  0
 13 14  1  1
 13 19  1  0
 14 15  1  0
 14 31  1  0
 14 32  1  0
 15 16  1  0
 16 17  1  0
 16 18  2  0
 17 33  1  0
 17 38  1  0
 19 21  1  0
 19 20  1  0
 19 34  1  6
 20 21  1  0
 20 35  1  0
 20 36  1  0
 21 22  1  0
 21 37  1  1
M  END
>  <i_m_ct_stereo_status>  (375) 
1

>  <s_m_source_file>  (375) 
/var/tmp/pbs.5102264.sched01/tmplas2qej_/115vanlg5zy.sdf

>  <i_m_source_file_index>  (375) 
20

>  <i_lp_mmshare_version>  (375) 
48012

>  <i_f3d_flags>  (375) 
0

>  <s_epik_input>  (375) 
W0NIM11uMVtjSF1uW2NIXWMxLWMoW2NIXTIpW2NIXVtjSF1jKE9bQ0BASF0zW0NAQEhdNFtDSDJdMyljMltDQEBdNDVbQ0gyXU8vQyg9TlxbSF0pW05IXTU=

>  <s_epik_cmdline>  (375) 
J2VwaWtfcHl0aG9uJywgJy1waHQnLCAnMi4wJywgJy1waCcsICc3LjAnLCAnLXRuJywgJzgnLCAnLW1hJywgJzIwMCcsICctaW1hZScsICc8aW5maWxlLm1hZT4nLCAnLW9tYWUnLCAnPG91dGZpbGUubWFlPic=

>  <r_lp_tautomer_probability>  (375) 
1

>  <r_epik_Ionization_Penalty>  (375) 
2.44664

>  <r_epik_Ionization_Penalty_Charging>  (375) 
2.44664

>  <r_epik_Ionization_Penalty_Neutral>  (375) 
1.32216e-13

>  <r_epik_State_Penalty>  (375) 
2.57928

>  <r_epik_Charging_Adjusted_Penalty>  (375) 
5.02591

>  <i_epik_Tot_Q>  (375) 
0

>  <i_epik_Tot_abs_Q>  (375) 
0

>  <s_epik_Chemistry_Notes>  (375) 
This compound has an imine and may undergo hydrolysis.

>  <s_lp_Force_Field>  (375) 
OPLS3e

>  <r_lp_Energy>  (375) 
35.9441

>  <b_lp_Chiralities_Consistent>  (375) 
1

>  <s_lp_Variant>  (375) 
80:0-4

>  <s_i_glide_gridfile>  (375) 
pfpi4k_grid

>  <i_i_glide_lignum>  (375) 
20

>  <i_i_glide_rotatable_bonds>  (375) 
1

>  <r_i_docking_score>  (375) 
-3.22714

>  <r_i_glide_ligand_efficiency>  (375) 
-0.146688

>  <r_i_glide_ligand_efficiency_sa>  (375) 
-0.411026

>  <r_i_glide_ligand_efficiency_ln>  (375) 
-0.78883

>  <r_i_glide_gscore>  (375) 
-3.22714

>  <r_i_glide_lipo>  (375) 
-0.492909

>  <r_i_glide_hbond>  (375) 
0

>  <r_i_glide_metal>  (375) 
-0

>  <r_i_glide_rewards>  (375) 
-1.40314

>  <r_i_glide_evdw>  (375) 
-20.6354

>  <r_i_glide_ecoul>  (375) 
-2.45944

>  <r_i_glide_erotb>  (375) 
0.208617

>  <r_i_glide_esite>  (375) 
-0.139018

>  <r_i_glide_emodel>  (375) 
-29.1903

>  <r_i_glide_energy>  (375) 
-23.0949

>  <r_i_glide_einternal>  (375) 
0.329308

>  <r_i_glide_intrahb_reward>  (375) 
-0

>  <i_i_glide_confnum>  (375) 
4

>  <i_i_glide_posenum>  (375) 
1

>  <r_i_glide_eff_state_penalty>  (375) 
0

>  <ligand_id>  (375) 
80

>  <original_smiles>  (375) 
Cn1cncc1-c1ccc2c(c1)C1(COC(=N)N1)C1CC1O2

>  <smiles>  (375) 
[H]c1nc([H])n(C([H])([H])[H])c1-c1c([H])c([H])c2c(c1[H])C1(N=C(N([H])[H])OC1([H])[H])C1([H])C([H])([H])C1([H])O2

$$$$
81:0:0
     RDKit          3D

 34 35  0  0  1  0  0  0  0  0999 V2000
    3.6266   -4.0978    1.4353 C   0  0  0  0  0  0  0  0  0  0  0  0
    4.2818   -2.8892    0.7475 C   0  0  0  0  0  0  0  0  0  0  0  0
    4.3015   -1.6855    1.6942 C   0  0  0  0  0  0  0  0  0  0  0  0
    3.6249   -2.5494   -0.6493 C   0  0  2  0  0  0  0  0  0  0  0  0
    3.5876   -3.7386   -1.6328 C   0  0  2  0  0  0  0  0  0  0  0  0
    5.0189   -4.2339   -1.9438 C   0  0  0  0  0  0  0  0  0  0  0  0
    5.9681   -3.1079   -2.4309 C   0  0  0  0  0  0  0  0  0  0  0  0
    5.7645   -1.7401   -1.7275 C   0  0  0  0  0  0  0  0  0  0  0  0
    4.2992   -1.3857   -1.4165 C   0  0  1  0  0  0  0  0  0  0  0  0
    3.4808   -0.9750   -2.6594 C   0  0  0  0  0  0  0  0  0  0  0  0
    3.1714   -2.1213   -3.6383 C   0  0  0  0  0  0  0  0  0  0  0  0
    2.7577   -3.4154   -2.9062 C   0  0  0  0  0  0  0  0  0  0  0  0
    2.5530   -3.9703    1.5770 H   0  0  0  0  0  0  0  0  0  0  0  0
    4.0723   -4.2913    2.4145 H   0  0  0  0  0  0  0  0  0  0  0  0
    3.7803   -5.0137    0.8625 H   0  0  0  0  0  0  0  0  0  0  0  0
    5.3236   -3.1706    0.6292 H   0  0  0  0  0  0  0  0  0  0  0  0
    3.3071   -1.2719    1.8709 H   0  0  0  0  0  0  0  0  0  0  0  0
    4.9296   -0.8857    1.3019 H   0  0  0  0  0  0  0  0  0  0  0  0
    4.7295   -1.9517    2.6643 H   0  0  0  0  0  0  0  0  0  0  0  0
    2.6033   -2.2547   -0.4568 H   0  0  0  0  0  0  0  0  0  0  0  0
    3.0445   -4.5408   -1.1201 H   0  0  0  0  0  0  0  0  0  0  0  0
    5.4403   -4.6964   -1.0490 H   0  0  0  0  0  0  0  0  0  0  0  0
    5.0150   -5.0349   -2.6877 H   0  0  0  0  0  0  0  0  0  0  0  0
    7.0017   -3.4273   -2.2966 H   0  0  0  0  0  0  0  0  0  0  0  0
    5.8575   -2.9908   -3.4990 H   0  0  0  0  0  0  0  0  0  0  0  0
    6.3288   -1.7396   -0.7869 H   0  0  0  0  0  0  0  0  0  0  0  0
    6.1951   -0.9485   -2.3183 H   0  0  0  0  0  0  0  0  0  0  0  0
    4.2913   -0.4889   -0.7946 H   0  0  0  0  0  0  0  0  0  0  0  0
    2.5298   -0.5553   -2.3357 H   0  0  0  0  0  0  0  0  0  0  0  0
    3.9908   -0.1682   -3.1934 H   0  0  0  0  0  0  0  0  0  0  0  0
    2.3600   -1.8145   -4.3081 H   0  0  0  0  0  0  0  0  0  0  0  0
    4.0183   -2.3049   -4.2900 H   0  0  0  0  0  0  0  0  0  0  0  0
    2.7776   -4.2304   -3.6301 H   0  0  0  0  0  0  0  0  0  0  0  0
    1.7084   -3.3154   -2.6129 H   0  0  0  0  0  0  0  0  0  0  0  0
  1  2  1  0
  1 13  1  0
  1 14  1  0
  1 15  1  0
  2  3  1  0
  2  4  1  0
  2 16  1  0
  3 17  1  0
  3 18  1  0
  3 19  1  0
  4  9  1  0
  4  5  1  0
  4 20  1  1
  5 12  1  0
  5  6  1  0
  5 21  1  1
  6  7  1  0
  6 22  1  0
  6 23  1  0
  7  8  1  0
  7 24  1  0
  7 25  1  0
  8  9  1  0
  8 26  1  0
  8 27  1  0
  9 10  1  0
  9 28  1  1
 10 11  1  0
 10 29  1  0
 10 30  1  0
 11 12  1  0
 11 31  1  0
 11 32  1  0
 12 33  1  0
 12 34  1  0
M  END
>  <i_m_ct_stereo_status>  (376) 
1

>  <s_m_source_file>  (376) 
/var/tmp/pbs.5102264.sched01/tmplas2qej_/115vanlg5zy.sdf

>  <i_m_source_file_index>  (376) 
21

>  <i_lp_mmshare_version>  (376) 
48012

>  <i_f3d_flags>  (376) 
0

>  <s_epik_input>  (376) 
W0NIM11bQ0hdKFtDSDNdKVtDQEhdKFtDQEhdMTIpW0NAQEhdKFtDSDJdW0NIMl1bQ0gyXTEpW0NIMl1bQ0gyXVtDSDJdMg==

>  <s_epik_cmdline>  (376) 
J2VwaWtfcHl0aG9uJywgJy1waHQnLCAnMi4wJywgJy1waCcsICc3LjAnLCAnLXRuJywgJzgnLCAnLW1hJywgJzIwMCcsICctaW1hZScsICc8aW5maWxlLm1hZT4nLCAnLW9tYWUnLCAnPG91dGZpbGUubWFlPic=

>  <r_lp_tautomer_probability>  (376) 
1

>  <r_epik_Ionization_Penalty>  (376) 
0

>  <r_epik_Ionization_Penalty_Charging>  (376) 
0

>  <r_epik_Ionization_Penalty_Neutral>  (376) 
0

>  <r_epik_State_Penalty>  (376) 
-0

>  <r_epik_Charging_Adjusted_Penalty>  (376) 
0

>  <i_epik_Tot_Q>  (376) 
0

>  <i_epik_Tot_abs_Q>  (376) 
0

>  <s_lp_Force_Field>  (376) 
OPLS3e

>  <r_lp_Energy>  (376) 
25.1291

>  <b_lp_Chiralities_Consistent>  (376) 
1

>  <s_lp_Variant>  (376) 
81:0-1

>  <s_i_glide_gridfile>  (376) 
pfpi4k_grid

>  <i_i_glide_lignum>  (376) 
21

>  <i_i_glide_rotatable_bonds>  (376) 
1

>  <r_i_docking_score>  (376) 
-3.45159

>  <r_i_glide_ligand_efficiency>  (376) 
-0.287633

>  <r_i_glide_ligand_efficiency_sa>  (376) 
-0.658515

>  <r_i_glide_ligand_efficiency_ln>  (376) 
-0.990441

>  <r_i_glide_gscore>  (376) 
-3.45159

>  <r_i_glide_lipo>  (376) 
-0.543678

>  <r_i_glide_hbond>  (376) 
0

>  <r_i_glide_metal>  (376) 
-0

>  <r_i_glide_rewards>  (376) 
-2.25

>  <r_i_glide_evdw>  (376) 
-12.4657

>  <r_i_glide_ecoul>  (376) 
-0.230874

>  <r_i_glide_erotb>  (376) 
0

>  <r_i_glide_esite>  (376) 
0

>  <r_i_glide_emodel>  (376) 
-15.2757

>  <r_i_glide_energy>  (376) 
-12.6966

>  <r_i_glide_einternal>  (376) 
7.82742e-05

>  <r_i_glide_intrahb_reward>  (376) 
-0

>  <i_i_glide_confnum>  (376) 
2

>  <i_i_glide_posenum>  (376) 
13

>  <r_i_glide_eff_state_penalty>  (376) 
0

>  <ligand_id>  (376) 
81

>  <original_smiles>  (376) 
CC(C)C1C2CCCC1CCC2

>  <smiles>  (376) 
[H]C([H])([H])C([H])(C([H])([H])[H])C1([H])C2([H])C([H])([H])C([H])([H])C([H])([H])C1([H])C([H])([H])C([H])([H])C2([H])[H]

$$$$
81:0:1
     RDKit          3D

 34 35  0  0  1  0  0  0  0  0999 V2000
    2.7844   -3.7928    2.0891 C   0  0  0  0  0  0  0  0  0  0  0  0
    3.4448   -2.4767    1.6212 C   0  0  0  0  0  0  0  0  0  0  0  0
    2.6338   -1.2642    2.1296 C   0  0  0  0  0  0  0  0  0  0  0  0
    3.7219   -2.4300    0.0790 C   0  0  2  0  0  0  0  0  0  0  0  0
    4.5479   -3.6218   -0.4620 C   0  0  1  0  0  0  0  0  0  0  0  0
    4.5790   -3.6319   -2.0137 C   0  0  0  0  0  0  0  0  0  0  0  0
    5.0649   -2.3175   -2.6479 C   0  0  0  0  0  0  0  0  0  0  0  0
    4.4778   -1.0718   -1.9564 C   0  0  0  0  0  0  0  0  0  0  0  0
    4.4503   -1.1525   -0.4044 C   0  0  2  0  0  0  0  0  0  0  0  0
    5.8426   -1.0408    0.2589 C   0  0  0  0  0  0  0  0  0  0  0  0
    6.7171   -2.3105    0.1108 C   0  0  0  0  0  0  0  0  0  0  0  0
    5.9471   -3.6511    0.1966 C   0  0  0  0  0  0  0  0  0  0  0  0
    1.8449   -3.9863    1.5760 H   0  0  0  0  0  0  0  0  0  0  0  0
    2.5808   -3.7750    3.1603 H   0  0  0  0  0  0  0  0  0  0  0  0
    3.4467   -4.6407    1.9196 H   0  0  0  0  0  0  0  0  0  0  0  0
    4.3882   -2.4323    2.1715 H   0  0  0  0  0  0  0  0  0  0  0  0
    1.6779   -1.1667    1.6161 H   0  0  0  0  0  0  0  0  0  0  0  0
    3.1908   -0.3394    1.9875 H   0  0  0  0  0  0  0  0  0  0  0  0
    2.4348   -1.3398    3.1988 H   0  0  0  0  0  0  0  0  0  0  0  0
    2.7569   -2.4543   -0.4204 H   0  0  0  0  0  0  0  0  0  0  0  0
    4.0495   -4.5588   -0.2230 H   0  0  0  0  0  0  0  0  0  0  0  0
    5.1888   -4.4618   -2.3804 H   0  0  0  0  0  0  0  0  0  0  0  0
    3.5716   -3.8260   -2.3807 H   0  0  0  0  0  0  0  0  0  0  0  0
    6.1586   -2.2839   -2.6317 H   0  0  0  0  0  0  0  0  0  0  0  0
    4.8076   -2.3055   -3.7075 H   0  0  0  0  0  0  0  0  0  0  0  0
    5.0152   -0.1820   -2.2917 H   0  0  0  0  0  0  0  0  0  0  0  0
    3.4550   -0.9447   -2.3118 H   0  0  0  0  0  0  0  0  0  0  0  0
    3.8812   -0.2711   -0.1170 H   0  0  0  0  0  0  0  0  0  0  0  0
    6.3722   -0.1676   -0.1143 H   0  0  0  0  0  0  0  0  0  0  0  0
    5.7066   -0.8311    1.3155 H   0  0  0  0  0  0  0  0  0  0  0  0
    7.2604   -2.2729   -0.8341 H   0  0  0  0  0  0  0  0  0  0  0  0
    7.5008   -2.2967    0.8705 H   0  0  0  0  0  0  0  0  0  0  0  0
    5.8315   -3.9189    1.2425 H   0  0  0  0  0  0  0  0  0  0  0  0
    6.5485   -4.4541   -0.2272 H   0  0  0  0  0  0  0  0  0  0  0  0
  1  2  1  0
  1 13  1  0
  1 14  1  0
  1 15  1  0
  2  3  1  0
  2  4  1  0
  2 16  1  0
  3 17  1  0
  3 18  1  0
  3 19  1  0
  4  9  1  0
  4  5  1  0
  4 20  1  6
  5 12  1  0
  5  6  1  0
  5 21  1  1
  6  7  1  0
  6 22  1  0
  6 23  1  0
  7  8  1  0
  7 24  1  0
  7 25  1  0
  8  9  1  0
  8 26  1  0
  8 27  1  0
  9 10  1  0
  9 28  1  1
 10 11  1  0
 10 29  1  0
 10 30  1  0
 11 12  1  0
 11 31  1  0
 11 32  1  0
 12 33  1  0
 12 34  1  0
M  END
>  <i_m_ct_stereo_status>  (377) 
1

>  <s_m_source_file>  (377) 
/var/tmp/pbs.5102264.sched01/tmplas2qej_/115vanlg5zy.sdf

>  <i_m_source_file_index>  (377) 
21

>  <i_lp_mmshare_version>  (377) 
48012

>  <i_f3d_flags>  (377) 
0

>  <s_epik_input>  (377) 
W0NIM11bQ0hdKFtDSDNdKVtDQEhdKFtDQEhdMTIpW0NAQEhdKFtDSDJdW0NIMl1bQ0gyXTEpW0NIMl1bQ0gyXVtDSDJdMg==

>  <s_epik_cmdline>  (377) 
J2VwaWtfcHl0aG9uJywgJy1waHQnLCAnMi4wJywgJy1waCcsICc3LjAnLCAnLXRuJywgJzgnLCAnLW1hJywgJzIwMCcsICctaW1hZScsICc8aW5maWxlLm1hZT4nLCAnLW9tYWUnLCAnPG91dGZpbGUubWFlPic=

>  <r_lp_tautomer_probability>  (377) 
1

>  <r_epik_Ionization_Penalty>  (377) 
0

>  <r_epik_Ionization_Penalty_Charging>  (377) 
0

>  <r_epik_Ionization_Penalty_Neutral>  (377) 
0

>  <r_epik_State_Penalty>  (377) 
-0

>  <r_epik_Charging_Adjusted_Penalty>  (377) 
0

>  <i_epik_Tot_Q>  (377) 
0

>  <i_epik_Tot_abs_Q>  (377) 
0

>  <s_lp_Force_Field>  (377) 
OPLS3e

>  <r_lp_Energy>  (377) 
25.1291

>  <b_lp_Chiralities_Consistent>  (377) 
1

>  <s_lp_Variant>  (377) 
81:0-1

>  <s_i_glide_gridfile>  (377) 
pfpi4k_grid

>  <i_i_glide_lignum>  (377) 
21

>  <i_i_glide_rotatable_bonds>  (377) 
1

>  <r_i_docking_score>  (377) 
-3.2833

>  <r_i_glide_ligand_efficiency>  (377) 
-0.273608

>  <r_i_glide_ligand_efficiency_sa>  (377) 
-0.626407

>  <r_i_glide_ligand_efficiency_ln>  (377) 
-0.942149

>  <r_i_glide_gscore>  (377) 
-3.2833

>  <r_i_glide_lipo>  (377) 
-0.365583

>  <r_i_glide_hbond>  (377) 
0

>  <r_i_glide_metal>  (377) 
-0

>  <r_i_glide_rewards>  (377) 
-2.25

>  <r_i_glide_evdw>  (377) 
-12.776

>  <r_i_glide_ecoul>  (377) 
-0.192799

>  <r_i_glide_erotb>  (377) 
0

>  <r_i_glide_esite>  (377) 
0

>  <r_i_glide_emodel>  (377) 
-15.4551

>  <r_i_glide_energy>  (377) 
-12.9688

>  <r_i_glide_einternal>  (377) 
0.0151073

>  <r_i_glide_intrahb_reward>  (377) 
-0

>  <i_i_glide_confnum>  (377) 
1

>  <i_i_glide_posenum>  (377) 
7

>  <r_i_glide_eff_state_penalty>  (377) 
0

>  <ligand_id>  (377) 
81

>  <original_smiles>  (377) 
CC(C)C1C2CCCC1CCC2

>  <smiles>  (377) 
[H]C([H])([H])C([H])(C([H])([H])[H])C1([H])C2([H])C([H])([H])C([H])([H])C([H])([H])C1([H])C([H])([H])C([H])([H])C2([H])[H]

$$$$
81:0:2
     RDKit          3D

 34 35  0  0  1  0  0  0  0  0999 V2000
    4.9643   -4.7417    1.6969 C   0  0  0  0  0  0  0  0  0  0  0  0
    4.0132   -3.7146    1.0558 C   0  0  0  0  0  0  0  0  0  0  0  0
    2.6297   -3.7884    1.7221 C   0  0  0  0  0  0  0  0  0  0  0  0
    3.9513   -3.8385   -0.5088 C   0  0  2  0  0  0  0  0  0  0  0  0
    5.3242   -3.7335   -1.2260 C   0  0  2  0  0  0  0  0  0  0  0  0
    5.9964   -2.3780   -0.9366 C   0  0  0  0  0  0  0  0  0  0  0  0
    5.0930   -1.1676   -1.2652 C   0  0  0  0  0  0  0  0  0  0  0  0
    3.5889   -1.3707   -0.9486 C   0  0  0  0  0  0  0  0  0  0  0  0
    3.0482   -2.7936   -1.2072 C   0  0  1  0  0  0  0  0  0  0  0  0
    2.8354   -3.0741   -2.7141 C   0  0  0  0  0  0  0  0  0  0  0  0
    4.1390   -3.2422   -3.5108 C   0  0  0  0  0  0  0  0  0  0  0  0
    5.2241   -4.0259   -2.7456 C   0  0  0  0  0  0  0  0  0  0  0  0
    4.6996   -5.7671    1.4386 H   0  0  0  0  0  0  0  0  0  0  0  0
    4.9676   -4.6628    2.7831 H   0  0  0  0  0  0  0  0  0  0  0  0
    5.9920   -4.5705    1.3780 H   0  0  0  0  0  0  0  0  0  0  0  0
    4.4078   -2.7435    1.3517 H   0  0  0  0  0  0  0  0  0  0  0  0
    2.0956   -4.7029    1.4686 H   0  0  0  0  0  0  0  0  0  0  0  0
    2.0150   -2.9400    1.4275 H   0  0  0  0  0  0  0  0  0  0  0  0
    2.7057   -3.7391    2.8059 H   0  0  0  0  0  0  0  0  0  0  0  0
    3.5436   -4.8214   -0.7224 H   0  0  0  0  0  0  0  0  0  0  0  0
    5.9811   -4.5230   -0.8534 H   0  0  0  0  0  0  0  0  0  0  0  0
    6.2870   -2.3347    0.1142 H   0  0  0  0  0  0  0  0  0  0  0  0
    6.9354   -2.3021   -1.4880 H   0  0  0  0  0  0  0  0  0  0  0  0
    5.4413   -0.2937   -0.7192 H   0  0  0  0  0  0  0  0  0  0  0  0
    5.1976   -0.9034   -2.3156 H   0  0  0  0  0  0  0  0  0  0  0  0
    3.4080   -1.1174    0.0984 H   0  0  0  0  0  0  0  0  0  0  0  0
    2.9971   -0.6746   -1.5230 H   0  0  0  0  0  0  0  0  0  0  0  0
    2.0451   -2.8649   -0.7961 H   0  0  0  0  0  0  0  0  0  0  0  0
    2.2162   -3.9655   -2.8235 H   0  0  0  0  0  0  0  0  0  0  0  0
    2.2405   -2.2737   -3.1607 H   0  0  0  0  0  0  0  0  0  0  0  0
    3.9260   -3.7572   -4.4494 H   0  0  0  0  0  0  0  0  0  0  0  0
    4.5251   -2.2710   -3.8070 H   0  0  0  0  0  0  0  0  0  0  0  0
    6.1899   -3.8455   -3.2262 H   0  0  0  0  0  0  0  0  0  0  0  0
    5.0194   -5.0848   -2.8613 H   0  0  0  0  0  0  0  0  0  0  0  0
  1  2  1  0
  1 13  1  0
  1 14  1  0
  1 15  1  0
  2  3  1  0
  2  4  1  0
  2 16  1  0
  3 17  1  0
  3 18  1  0
  3 19  1  0
  4  9  1  0
  4  5  1  0
  4 20  1  1
  5 12  1  0
  5  6  1  0
  5 21  1  1
  6  7  1  0
  6 22  1  0
  6 23  1  0
  7  8  1  0
  7 24  1  0
  7 25  1  0
  8  9  1  0
  8 26  1  0
  8 27  1  0
  9 10  1  0
  9 28  1  1
 10 11  1  0
 10 29  1  0
 10 30  1  0
 11 12  1  0
 11 31  1  0
 11 32  1  0
 12 33  1  0
 12 34  1  0
M  END
>  <i_m_ct_stereo_status>  (378) 
1

>  <s_m_source_file>  (378) 
/var/tmp/pbs.5102264.sched01/tmplas2qej_/115vanlg5zy.sdf

>  <i_m_source_file_index>  (378) 
21

>  <i_lp_mmshare_version>  (378) 
48012

>  <i_f3d_flags>  (378) 
0

>  <s_epik_input>  (378) 
W0NIM11bQ0hdKFtDSDNdKVtDQEhdKFtDQEhdMTIpW0NAQEhdKFtDSDJdW0NIMl1bQ0gyXTEpW0NIMl1bQ0gyXVtDSDJdMg==

>  <s_epik_cmdline>  (378) 
J2VwaWtfcHl0aG9uJywgJy1waHQnLCAnMi4wJywgJy1waCcsICc3LjAnLCAnLXRuJywgJzgnLCAnLW1hJywgJzIwMCcsICctaW1hZScsICc8aW5maWxlLm1hZT4nLCAnLW9tYWUnLCAnPG91dGZpbGUubWFlPic=

>  <r_lp_tautomer_probability>  (378) 
1

>  <r_epik_Ionization_Penalty>  (378) 
0

>  <r_epik_Ionization_Penalty_Charging>  (378) 
0

>  <r_epik_Ionization_Penalty_Neutral>  (378) 
0

>  <r_epik_State_Penalty>  (378) 
-0

>  <r_epik_Charging_Adjusted_Penalty>  (378) 
0

>  <i_epik_Tot_Q>  (378) 
0

>  <i_epik_Tot_abs_Q>  (378) 
0

>  <s_lp_Force_Field>  (378) 
OPLS3e

>  <r_lp_Energy>  (378) 
25.1291

>  <b_lp_Chiralities_Consistent>  (378) 
1

>  <s_lp_Variant>  (378) 
81:0-1

>  <s_i_glide_gridfile>  (378) 
pfpi4k_grid

>  <i_i_glide_lignum>  (378) 
21

>  <i_i_glide_rotatable_bonds>  (378) 
1

>  <r_i_docking_score>  (378) 
-3.18563

>  <r_i_glide_ligand_efficiency>  (378) 
-0.265469

>  <r_i_glide_ligand_efficiency_sa>  (378) 
-0.607772

>  <r_i_glide_ligand_efficiency_ln>  (378) 
-0.914121

>  <r_i_glide_gscore>  (378) 
-3.18563

>  <r_i_glide_lipo>  (378) 
-0.268909

>  <r_i_glide_hbond>  (378) 
0

>  <r_i_glide_metal>  (378) 
-0

>  <r_i_glide_rewards>  (378) 
-2.25

>  <r_i_glide_evdw>  (378) 
-13.0179

>  <r_i_glide_ecoul>  (378) 
-0.105472

>  <r_i_glide_erotb>  (378) 
0

>  <r_i_glide_esite>  (378) 
0

>  <r_i_glide_emodel>  (378) 
-15.4597

>  <r_i_glide_energy>  (378) 
-13.1234

>  <r_i_glide_einternal>  (378) 
0.00128261

>  <r_i_glide_intrahb_reward>  (378) 
-0

>  <i_i_glide_confnum>  (378) 
4

>  <i_i_glide_posenum>  (378) 
9

>  <r_i_glide_eff_state_penalty>  (378) 
0

>  <ligand_id>  (378) 
81

>  <original_smiles>  (378) 
CC(C)C1C2CCCC1CCC2

>  <smiles>  (378) 
[H]C([H])([H])C([H])(C([H])([H])[H])C1([H])C2([H])C([H])([H])C([H])([H])C([H])([H])C1([H])C([H])([H])C([H])([H])C2([H])[H]

$$$$
82:0:0
     RDKit          3D

 20 20  0  0  1  0  0  0  0  0999 V2000
   -7.9258   -7.9419   -8.2729 C   0  0  0  0  0  0  0  0  0  0  0  0
   -7.4259   -7.0681   -7.1271 C   0  0  0  0  0  0  0  0  0  0  0  0
   -6.3464   -7.4216   -6.3713 C   0  0  0  0  0  0  0  0  0  0  0  0
   -5.6945   -8.6382   -6.5169 N   0  0  0  0  0  0  0  0  0  0  0  0
   -6.3474   -9.8705   -6.3406 N   0  0  0  0  0  0  0  0  0  0  0  0
   -7.5755   -9.8714   -6.1969 O   0  0  0  0  0  0  0  0  0  0  0  0
   -5.6505  -10.8626   -6.3306 O   0  0  0  0  0  0  0  0  0  0  0  0
   -5.7580   -6.5586   -5.3457 C   0  0  0  0  0  0  0  0  0  0  0  0
   -4.7235   -6.8404   -4.7506 O   0  0  0  0  0  0  0  0  0  0  0  0
   -6.4250   -4.9727   -4.9437 S   0  0  0  0  0  0  0  0  0  0  0  0
   -8.0921   -5.2070   -5.5215 C   0  0  0  0  0  0  0  0  0  0  0  0
   -8.1865   -5.7636   -6.9387 C   0  0  0  0  0  0  0  0  0  0  0  0
   -8.9400   -8.2925   -8.0672 H   0  0  0  0  0  0  0  0  0  0  0  0
   -7.3203   -8.8380   -8.4443 H   0  0  0  0  0  0  0  0  0  0  0  0
   -7.9119   -7.4145   -9.2241 H   0  0  0  0  0  0  0  0  0  0  0  0
   -4.7086   -8.6644   -6.2987 H   0  0  0  0  0  0  0  0  0  0  0  0
   -8.5925   -5.8586   -4.8104 H   0  0  0  0  0  0  0  0  0  0  0  0
   -8.5052   -4.2124   -5.4492 H   0  0  0  0  0  0  0  0  0  0  0  0
   -7.8308   -5.0440   -7.6693 H   0  0  0  0  0  0  0  0  0  0  0  0
   -9.2386   -5.9352   -7.1613 H   0  0  0  0  0  0  0  0  0  0  0  0
  1  2  1  0
  1 13  1  0
  1 14  1  0
  1 15  1  0
  2 12  1  0
  2  3  2  0
  3  4  1  0
  3  8  1  0
  4  5  1  0
  4 16  1  0
  5  6  2  0
  5  7  1  0
  8  9  2  0
  8 10  1  0
 10 11  1  0
 11 12  1  0
 11 17  1  0
 11 18  1  0
 12 19  1  0
 12 20  1  0
M  CHG  2   5   1   7  -1
M  END
>  <i_m_ct_stereo_status>  (379) 
1

>  <s_m_source_file>  (379) 
/var/tmp/pbs.5102264.sched01/tmplas2qej_/115vanlg5zy.sdf

>  <i_m_source_file_index>  (379) 
22

>  <i_lp_mmshare_version>  (379) 
48012

>  <i_f3d_flags>  (379) 
0

>  <s_epik_input>  (379) 
Tz1bTitdKFtPLV0pW05IXUMoPUMxW0NIM10pQyg9TylTW0NIMl1bQ0gyXTE=

>  <s_epik_cmdline>  (379) 
J2VwaWtfcHl0aG9uJywgJy1waHQnLCAnMi4wJywgJy1waCcsICc3LjAnLCAnLXRuJywgJzgnLCAnLW1hJywgJzIwMCcsICctaW1hZScsICc8aW5maWxlLm1hZT4nLCAnLW9tYWUnLCAnPG91dGZpbGUubWFlPic=

>  <r_lp_tautomer_probability>  (379) 
1

>  <r_epik_Ionization_Penalty>  (379) 
1.33345e-11

>  <r_epik_Ionization_Penalty_Charging>  (379) 
0

>  <r_epik_Ionization_Penalty_Neutral>  (379) 
1.33345e-11

>  <r_epik_State_Penalty>  (379) 
-0

>  <r_epik_Charging_Adjusted_Penalty>  (379) 
0

>  <i_epik_Tot_Q>  (379) 
0

>  <i_epik_Tot_abs_Q>  (379) 
2

>  <s_lp_Force_Field>  (379) 
OPLS3e

>  <r_lp_Energy>  (379) 
18.7855

>  <b_lp_Chiralities_Consistent>  (379) 
1

>  <s_lp_Variant>  (379) 
82:0-1

>  <s_i_glide_gridfile>  (379) 
pfpi4k_grid

>  <i_i_glide_lignum>  (379) 
22

>  <i_i_glide_rotatable_bonds>  (379) 
2

>  <r_i_docking_score>  (379) 
-6.10396

>  <r_i_glide_ligand_efficiency>  (379) 
-0.508663

>  <r_i_glide_ligand_efficiency_sa>  (379) 
-1.16455

>  <r_i_glide_ligand_efficiency_ln>  (379) 
-1.75154

>  <r_i_glide_gscore>  (379) 
-6.10396

>  <r_i_glide_lipo>  (379) 
-1.44353

>  <r_i_glide_hbond>  (379) 
-0.32

>  <r_i_glide_metal>  (379) 
-0

>  <r_i_glide_rewards>  (379) 
-3.43813

>  <r_i_glide_evdw>  (379) 
-23.7409

>  <r_i_glide_ecoul>  (379) 
-1.11291

>  <r_i_glide_erotb>  (379) 
0.451681

>  <r_i_glide_esite>  (379) 
0

>  <r_i_glide_emodel>  (379) 
-34.0234

>  <r_i_glide_energy>  (379) 
-24.8539

>  <r_i_glide_einternal>  (379) 
0.691873

>  <r_i_glide_intrahb_reward>  (379) 
-0

>  <i_i_glide_confnum>  (379) 
4

>  <i_i_glide_posenum>  (379) 
12

>  <r_i_glide_eff_state_penalty>  (379) 
0

>  <ligand_id>  (379) 
82

>  <original_smiles>  (379) 
CC1=C(N[N+](=O)[O-])C(=O)SCC1

>  <smiles>  (379) 
[H]N(C1=C(C([H])([H])[H])C([H])([H])C([H])([H])SC1=O)[N+](=O)[O-]

$$$$
82:0:1
     RDKit          3D

 20 20  0  0  1  0  0  0  0  0999 V2000
   -9.0465   -6.0511   -7.6300 C   0  0  0  0  0  0  0  0  0  0  0  0
   -7.9477   -5.8903   -6.5844 C   0  0  0  0  0  0  0  0  0  0  0  0
   -7.1243   -6.9176   -6.2210 C   0  0  0  0  0  0  0  0  0  0  0  0
   -7.2964   -8.2046   -6.7578 N   0  0  0  0  0  0  0  0  0  0  0  0
   -6.3352   -8.7678   -7.6244 N   0  0  0  0  0  0  0  0  0  0  0  0
   -6.7182   -9.6926   -8.3102 O   0  0  0  0  0  0  0  0  0  0  0  0
   -5.2054   -8.2783   -7.6714 O   0  0  0  0  0  0  0  0  0  0  0  0
   -5.9958   -6.7681   -5.2951 C   0  0  0  0  0  0  0  0  0  0  0  0
   -5.2750   -7.7030   -4.9283 O   0  0  0  0  0  0  0  0  0  0  0  0
   -5.5327   -5.1323   -4.7465 S   0  0  0  0  0  0  0  0  0  0  0  0
   -7.1740   -4.3884   -4.6803 C   0  0  0  0  0  0  0  0  0  0  0  0
   -7.8194   -4.4614   -6.0500 C   0  0  0  0  0  0  0  0  0  0  0  0
  -10.0261   -5.8256   -7.2067 H   0  0  0  0  0  0  0  0  0  0  0  0
   -9.1216   -7.0602   -8.0404 H   0  0  0  0  0  0  0  0  0  0  0  0
   -8.8907   -5.3907   -8.4839 H   0  0  0  0  0  0  0  0  0  0  0  0
   -8.2278   -8.4607   -7.0064 H   0  0  0  0  0  0  0  0  0  0  0  0
   -7.8340   -4.8294   -3.9254 H   0  0  0  0  0  0  0  0  0  0  0  0
   -6.9988   -3.3567   -4.3757 H   0  0  0  0  0  0  0  0  0  0  0  0
   -7.2337   -3.8869   -6.7623 H   0  0  0  0  0  0  0  0  0  0  0  0
   -8.7967   -3.9853   -6.0191 H   0  0  0  0  0  0  0  0  0  0  0  0
  1  2  1  0
  1 13  1  0
  1 14  1  0
  1 15  1  0
  2 12  1  0
  2  3  2  0
  3  4  1  0
  3  8  1  0
  4  5  1  0
  4 16  1  0
  5  6  2  0
  5  7  1  0
  8  9  2  0
  8 10  1  0
 10 11  1  0
 11 12  1  0
 11 17  1  0
 11 18  1  0
 12 19  1  0
 12 20  1  0
M  CHG  2   5   1   7  -1
M  END
>  <i_m_ct_stereo_status>  (380) 
1

>  <s_m_source_file>  (380) 
/var/tmp/pbs.5102264.sched01/tmplas2qej_/115vanlg5zy.sdf

>  <i_m_source_file_index>  (380) 
22

>  <i_lp_mmshare_version>  (380) 
48012

>  <i_f3d_flags>  (380) 
0

>  <s_epik_input>  (380) 
Tz1bTitdKFtPLV0pW05IXUMoPUMxW0NIM10pQyg9TylTW0NIMl1bQ0gyXTE=

>  <s_epik_cmdline>  (380) 
J2VwaWtfcHl0aG9uJywgJy1waHQnLCAnMi4wJywgJy1waCcsICc3LjAnLCAnLXRuJywgJzgnLCAnLW1hJywgJzIwMCcsICctaW1hZScsICc8aW5maWxlLm1hZT4nLCAnLW9tYWUnLCAnPG91dGZpbGUubWFlPic=

>  <r_lp_tautomer_probability>  (380) 
1

>  <r_epik_Ionization_Penalty>  (380) 
1.33345e-11

>  <r_epik_Ionization_Penalty_Charging>  (380) 
0

>  <r_epik_Ionization_Penalty_Neutral>  (380) 
1.33345e-11

>  <r_epik_State_Penalty>  (380) 
-0

>  <r_epik_Charging_Adjusted_Penalty>  (380) 
0

>  <i_epik_Tot_Q>  (380) 
0

>  <i_epik_Tot_abs_Q>  (380) 
2

>  <s_lp_Force_Field>  (380) 
OPLS3e

>  <r_lp_Energy>  (380) 
18.7855

>  <b_lp_Chiralities_Consistent>  (380) 
1

>  <s_lp_Variant>  (380) 
82:0-1

>  <s_i_glide_gridfile>  (380) 
pfpi4k_grid

>  <i_i_glide_lignum>  (380) 
22

>  <i_i_glide_rotatable_bonds>  (380) 
2

>  <r_i_docking_score>  (380) 
-5.19234

>  <r_i_glide_ligand_efficiency>  (380) 
-0.432695

>  <r_i_glide_ligand_efficiency_sa>  (380) 
-0.990624

>  <r_i_glide_ligand_efficiency_ln>  (380) 
-1.48995

>  <r_i_glide_gscore>  (380) 
-5.19234

>  <r_i_glide_lipo>  (380) 
-1.45495

>  <r_i_glide_hbond>  (380) 
0

>  <r_i_glide_metal>  (380) 
-0

>  <r_i_glide_rewards>  (380) 
-2.95363

>  <r_i_glide_evdw>  (380) 
-22.6842

>  <r_i_glide_ecoul>  (380) 
-0.674898

>  <r_i_glide_erotb>  (380) 
0.451681

>  <r_i_glide_esite>  (380) 
0

>  <r_i_glide_emodel>  (380) 
-31.1829

>  <r_i_glide_energy>  (380) 
-23.3591

>  <r_i_glide_einternal>  (380) 
1.06858

>  <r_i_glide_intrahb_reward>  (380) 
-0

>  <i_i_glide_confnum>  (380) 
5

>  <i_i_glide_posenum>  (380) 
1

>  <r_i_glide_eff_state_penalty>  (380) 
0

>  <ligand_id>  (380) 
82

>  <original_smiles>  (380) 
CC1=C(N[N+](=O)[O-])C(=O)SCC1

>  <smiles>  (380) 
[H]N(C1=C(C([H])([H])[H])C([H])([H])C([H])([H])SC1=O)[N+](=O)[O-]

$$$$
82:0:2
     RDKit          3D

 20 20  0  0  1  0  0  0  0  0999 V2000
   -8.5008   -7.2041   -8.1984 C   0  0  0  0  0  0  0  0  0  0  0  0
   -8.0059   -6.3096   -7.0621 C   0  0  0  0  0  0  0  0  0  0  0  0
   -7.1365   -6.7677   -6.1534 C   0  0  0  0  0  0  0  0  0  0  0  0
   -6.6651   -8.0801   -6.1314 N   0  0  0  0  0  0  0  0  0  0  0  0
   -5.3269   -8.3842   -6.3233 N   0  0  0  0  0  0  0  0  0  0  0  0
   -4.4881   -7.5700   -6.0379 O   0  0  0  0  0  0  0  0  0  0  0  0
   -5.0921   -9.4892   -6.8038 O   0  0  0  0  0  0  0  0  0  0  0  0
   -6.6046   -5.9289   -5.0305 C   0  0  0  0  0  0  0  0  0  0  0  0
   -5.8609   -6.3085   -4.1488 O   0  0  0  0  0  0  0  0  0  0  0  0
   -7.0041   -4.2180   -4.9552 S   0  0  0  0  0  0  0  0  0  0  0  0
   -8.5567   -4.1730   -5.7875 C   0  0  0  0  0  0  0  0  0  0  0  0
   -8.5354   -4.8737   -7.1384 C   0  0  0  0  0  0  0  0  0  0  0  0
   -9.5838   -7.3172   -8.1891 H   0  0  0  0  0  0  0  0  0  0  0  0
   -8.1005   -8.2248   -8.1847 H   0  0  0  0  0  0  0  0  0  0  0  0
   -8.2373   -6.8074   -9.1774 H   0  0  0  0  0  0  0  0  0  0  0  0
   -7.2791   -8.7456   -6.5318 H   0  0  0  0  0  0  0  0  0  0  0  0
   -9.3022   -4.6221   -5.1314 H   0  0  0  0  0  0  0  0  0  0  0  0
   -8.8328   -3.1374   -5.8937 H   0  0  0  0  0  0  0  0  0  0  0  0
   -7.9330   -4.3307   -7.8464 H   0  0  0  0  0  0  0  0  0  0  0  0
   -9.5343   -4.8842   -7.5488 H   0  0  0  0  0  0  0  0  0  0  0  0
  1  2  1  0
  1 13  1  0
  1 14  1  0
  1 15  1  0
  2 12  1  0
  2  3  2  0
  3  4  1  0
  3  8  1  0
  4  5  1  0
  4 16  1  0
  5  6  2  0
  5  7  1  0
  8  9  2  0
  8 10  1  0
 10 11  1  0
 11 12  1  0
 11 17  1  0
 11 18  1  0
 12 19  1  0
 12 20  1  0
M  CHG  2   5   1   7  -1
M  END
>  <i_m_ct_stereo_status>  (381) 
1

>  <s_m_source_file>  (381) 
/var/tmp/pbs.5102264.sched01/tmplas2qej_/115vanlg5zy.sdf

>  <i_m_source_file_index>  (381) 
22

>  <i_lp_mmshare_version>  (381) 
48012

>  <i_f3d_flags>  (381) 
0

>  <s_epik_input>  (381) 
Tz1bTitdKFtPLV0pW05IXUMoPUMxW0NIM10pQyg9TylTW0NIMl1bQ0gyXTE=

>  <s_epik_cmdline>  (381) 
J2VwaWtfcHl0aG9uJywgJy1waHQnLCAnMi4wJywgJy1waCcsICc3LjAnLCAnLXRuJywgJzgnLCAnLW1hJywgJzIwMCcsICctaW1hZScsICc8aW5maWxlLm1hZT4nLCAnLW9tYWUnLCAnPG91dGZpbGUubWFlPic=

>  <r_lp_tautomer_probability>  (381) 
1

>  <r_epik_Ionization_Penalty>  (381) 
1.33345e-11

>  <r_epik_Ionization_Penalty_Charging>  (381) 
0

>  <r_epik_Ionization_Penalty_Neutral>  (381) 
1.33345e-11

>  <r_epik_State_Penalty>  (381) 
-0

>  <r_epik_Charging_Adjusted_Penalty>  (381) 
0

>  <i_epik_Tot_Q>  (381) 
0

>  <i_epik_Tot_abs_Q>  (381) 
2

>  <s_lp_Force_Field>  (381) 
OPLS3e

>  <r_lp_Energy>  (381) 
18.7855

>  <b_lp_Chiralities_Consistent>  (381) 
1

>  <s_lp_Variant>  (381) 
82:0-1

>  <s_i_glide_gridfile>  (381) 
pfpi4k_grid

>  <i_i_glide_lignum>  (381) 
22

>  <i_i_glide_rotatable_bonds>  (381) 
2

>  <r_i_docking_score>  (381) 
-5.10256

>  <r_i_glide_ligand_efficiency>  (381) 
-0.425213

>  <r_i_glide_ligand_efficiency_sa>  (381) 
-0.973496

>  <r_i_glide_ligand_efficiency_ln>  (381) 
-1.46419

>  <r_i_glide_gscore>  (381) 
-5.10256

>  <r_i_glide_lipo>  (381) 
-1.4529

>  <r_i_glide_hbond>  (381) 
0

>  <r_i_glide_metal>  (381) 
-0

>  <r_i_glide_rewards>  (381) 
-2.89072

>  <r_i_glide_evdw>  (381) 
-23.2611

>  <r_i_glide_ecoul>  (381) 
-0.317106

>  <r_i_glide_erotb>  (381) 
0.451681

>  <r_i_glide_esite>  (381) 
0

>  <r_i_glide_emodel>  (381) 
-30.7569

>  <r_i_glide_energy>  (381) 
-23.5782

>  <r_i_glide_einternal>  (381) 
1.81955

>  <r_i_glide_intrahb_reward>  (381) 
-0

>  <i_i_glide_confnum>  (381) 
4

>  <i_i_glide_posenum>  (381) 
37

>  <r_i_glide_eff_state_penalty>  (381) 
0

>  <ligand_id>  (381) 
82

>  <original_smiles>  (381) 
CC1=C(N[N+](=O)[O-])C(=O)SCC1

>  <smiles>  (381) 
[H]N(C1=C(C([H])([H])[H])C([H])([H])C([H])([H])SC1=O)[N+](=O)[O-]

$$$$
83:0:0
     RDKit          3D

 31 31  0  0  1  0  0  0  0  0999 V2000
    2.2177   -2.5885   -3.7070 C   0  0  0  0  0  0  0  0  0  0  0  0
    2.5809   -3.0607   -2.4239 O   0  0  0  0  0  0  0  0  0  0  0  0
    3.8576   -2.9024   -1.9910 C   0  0  0  0  0  0  0  0  0  0  0  0
    4.7087   -2.2940   -2.6654 O   0  0  0  0  0  0  0  0  0  0  0  0
    4.1755   -3.5199   -0.6411 C   0  0  0  0  0  0  0  0  0  0  0  0
    5.3387   -3.2563   -0.2577 O   0  0  0  0  0  0  0  0  0  0  0  0
    3.1641   -4.2778   -0.0454 C   0  0  0  0  0  0  0  0  0  0  0  0
    3.2458   -4.9843    1.2508 C   0  0  0  0  0  0  0  0  0  0  0  0
    4.2400   -4.9078    1.9712 O   0  0  0  0  0  0  0  0  0  0  0  0
    2.0685   -5.7838    1.7120 C   0  0  0  0  0  0  0  0  0  0  0  0
    1.9554   -6.0284    3.0899 C   0  0  0  0  0  0  0  0  0  0  0  0
    0.8939   -6.7952    3.5761 C   0  0  0  0  0  0  0  0  0  0  0  0
   -0.0657   -7.3066    2.6689 C   0  0  0  0  0  0  0  0  0  0  0  0
   -1.1742   -8.0728    3.0986 N   0  0  0  0  0  0  0  0  0  0  0  0
   -1.3846   -9.3113    2.3531 C   0  0  0  0  0  0  0  0  0  0  0  0
   -1.3042   -8.2192    4.5415 C   0  0  0  0  0  0  0  0  0  0  0  0
    0.1324   -7.0109    1.2974 C   0  0  0  0  0  0  0  0  0  0  0  0
    1.1529   -6.2584    0.8258 N   0  0  0  0  0  0  0  0  0  0  0  0
    1.1632   -2.7848   -3.8858 H   0  0  0  0  0  0  0  0  0  0  0  0
    2.8023   -3.0957   -4.4738 H   0  0  0  0  0  0  0  0  0  0  0  0
    2.3903   -1.5145   -3.7845 H   0  0  0  0  0  0  0  0  0  0  0  0
    2.2149   -4.3918   -0.5285 H   0  0  0  0  0  0  0  0  0  0  0  0
    2.7017   -5.6541    3.7759 H   0  0  0  0  0  0  0  0  0  0  0  0
    0.8646   -6.9574    4.6457 H   0  0  0  0  0  0  0  0  0  0  0  0
   -1.4384   -9.1503    1.2763 H   0  0  0  0  0  0  0  0  0  0  0  0
   -2.3129   -9.7954    2.6515 H   0  0  0  0  0  0  0  0  0  0  0  0
   -0.5692   -9.9980    2.5550 H   0  0  0  0  0  0  0  0  0  0  0  0
   -1.3261   -7.2557    5.0410 H   0  0  0  0  0  0  0  0  0  0  0  0
   -0.5030   -8.8320    4.9294 H   0  0  0  0  0  0  0  0  0  0  0  0
   -2.2263   -8.7408    4.8178 H   0  0  0  0  0  0  0  0  0  0  0  0
   -0.5688   -7.3358    0.5365 H   0  0  0  0  0  0  0  0  0  0  0  0
  1  2  1  0
  1 19  1  0
  1 20  1  0
  1 21  1  0
  2  3  1  0
  3  4  2  0
  3  5  1  0
  5  7  2  0
  5  6  1  0
  7  8  1  0
  7 22  1  0
  8 10  1  0
  8  9  2  0
 10 18  2  0
 10 11  1  0
 11 12  2  0
 11 23  1  0
 12 13  1  0
 12 24  1  0
 13 14  1  0
 13 17  2  0
 14 15  1  0
 14 16  1  0
 15 25  1  0
 15 26  1  0
 15 27  1  0
 16 28  1  0
 16 29  1  0
 16 30  1  0
 17 18  1  0
 17 31  1  0
M  CHG  1   6  -1
M  END
>  <i_m_ct_stereo_status>  (382) 
1

>  <s_m_source_file>  (382) 
/var/tmp/pbs.5102264.sched01/tmplas2qej_/115vanlg5zy.sdf

>  <i_m_source_file_index>  (382) 
23

>  <i_lp_mmshare_version>  (382) 
48012

>  <i_f3d_flags>  (382) 
0

>  <s_epik_input>  (382) 
W0NIM11PQyg9TylDKD1PKVtDSDJdQyg9TyljMVtjSF1bY0hdYyhbY0hdbjEpTihbQ0gzXSlbQ0gzXQ==

>  <s_epik_cmdline>  (382) 
J2VwaWtfcHl0aG9uJywgJy1waHQnLCAnMi4wJywgJy1waCcsICc3LjAnLCAnLXRuJywgJzgnLCAnLW1hJywgJzIwMCcsICctaW1hZScsICc8aW5maWxlLm1hZT4nLCAnLW9tYWUnLCAnPG91dGZpbGUubWFlPic=

>  <r_epik_Ionization_Penalty>  (382) 
0.179076

>  <r_epik_Ionization_Penalty_Charging>  (382) 
0.177067

>  <r_epik_Ionization_Penalty_Neutral>  (382) 
0.00200916

>  <r_epik_State_Penalty>  (382) 
0.700632

>  <r_epik_Charging_Adjusted_Penalty>  (382) 
0.877699

>  <i_epik_Tot_Q>  (382) 
-1

>  <i_epik_Tot_abs_Q>  (382) 
1

>  <s_epik_Chemistry_Notes>  (382) 
This compound has an ester and may undergo hydrolysis at high or low pH.

>  <s_lp_Force_Field>  (382) 
OPLS3e

>  <r_lp_Energy>  (382) 
54.1296

>  <b_lp_Chiralities_Consistent>  (382) 
1

>  <s_lp_Variant>  (382) 
83:0-1

>  <s_i_glide_gridfile>  (382) 
pfpi4k_grid

>  <i_i_glide_lignum>  (382) 
23

>  <i_i_glide_rotatable_bonds>  (382) 
5

>  <r_i_docking_score>  (382) 
-3.33961

>  <r_i_glide_ligand_efficiency>  (382) 
-0.185534

>  <r_i_glide_ligand_efficiency_sa>  (382) 
-0.486236

>  <r_i_glide_ligand_efficiency_ln>  (382) 
-0.858428

>  <r_i_glide_gscore>  (382) 
-3.33961

>  <r_i_glide_lipo>  (382) 
-0.585144

>  <r_i_glide_hbond>  (382) 
-0.16

>  <r_i_glide_metal>  (382) 
-0

>  <r_i_glide_rewards>  (382) 
-1.70971

>  <r_i_glide_evdw>  (382) 
-26.2717

>  <r_i_glide_ecoul>  (382) 
-2.25785

>  <r_i_glide_erotb>  (382) 
0.84438

>  <r_i_glide_esite>  (382) 
-0.0768674

>  <r_i_glide_emodel>  (382) 
-33.2704

>  <r_i_glide_energy>  (382) 
-28.5296

>  <r_i_glide_einternal>  (382) 
5.14395

>  <r_i_glide_intrahb_reward>  (382) 
-0

>  <i_i_glide_confnum>  (382) 
3

>  <i_i_glide_posenum>  (382) 
13

>  <r_i_glide_eff_state_penalty>  (382) 
0

>  <ligand_id>  (382) 
83

>  <original_smiles>  (382) 
COC(=O)C(=O)CC(=O)c1ccc(N(C)C)cn1

>  <smiles>  (382) 
[H]C(C(=O)c1nc([H])c(N(C([H])([H])[H])C([H])([H])[H])c([H])c1[H])=C([O-])C(=O)OC([H])([H])[H]

$$$$
83:0:1
     RDKit          3D

 31 31  0  0  1  0  0  0  0  0999 V2000
    3.5796   -0.7795   -3.6899 C   0  0  0  0  0  0  0  0  0  0  0  0
    3.9892   -1.5627   -2.5851 O   0  0  0  0  0  0  0  0  0  0  0  0
    3.2405   -2.6319   -2.1779 C   0  0  0  0  0  0  0  0  0  0  0  0
    2.2619   -3.0479   -2.8030 O   0  0  0  0  0  0  0  0  0  0  0  0
    3.7388   -3.2548   -0.8863 C   0  0  0  0  0  0  0  0  0  0  0  0
    4.8595   -2.8372   -0.5159 O   0  0  0  0  0  0  0  0  0  0  0  0
    2.8780   -4.1947   -0.3196 C   0  0  0  0  0  0  0  0  0  0  0  0
    3.1185   -4.9510    0.9250 C   0  0  0  0  0  0  0  0  0  0  0  0
    4.1923   -4.8925    1.5168 O   0  0  0  0  0  0  0  0  0  0  0  0
    2.0074   -5.7736    1.4985 C   0  0  0  0  0  0  0  0  0  0  0  0
    2.0385   -6.0119    2.8849 C   0  0  0  0  0  0  0  0  0  0  0  0
    1.0460   -6.7963    3.4774 C   0  0  0  0  0  0  0  0  0  0  0  0
    0.0123   -7.3272    2.6684 C   0  0  0  0  0  0  0  0  0  0  0  0
   -1.0366   -8.1198    3.2079 N   0  0  0  0  0  0  0  0  0  0  0  0
   -1.3007   -9.3543    2.4789 C   0  0  0  0  0  0  0  0  0  0  0  0
   -1.0479   -8.2696    4.6604 C   0  0  0  0  0  0  0  0  0  0  0  0
    0.0734   -7.0338    1.2809 C   0  0  0  0  0  0  0  0  0  0  0  0
    1.0166   -6.2599    0.7098 N   0  0  0  0  0  0  0  0  0  0  0  0
    4.3002    0.0225   -3.8401 H   0  0  0  0  0  0  0  0  0  0  0  0
    2.6083   -0.3310   -3.4967 H   0  0  0  0  0  0  0  0  0  0  0  0
    3.5325   -1.3839   -4.5958 H   0  0  0  0  0  0  0  0  0  0  0  0
    1.9466   -4.4007   -0.8095 H   0  0  0  0  0  0  0  0  0  0  0  0
    2.8396   -5.6177    3.4862 H   0  0  0  0  0  0  0  0  0  0  0  0
    1.1269   -6.9561    4.5442 H   0  0  0  0  0  0  0  0  0  0  0  0
   -1.4651   -9.2047    1.4112 H   0  0  0  0  0  0  0  0  0  0  0  0
   -2.1874   -9.8476    2.8708 H   0  0  0  0  0  0  0  0  0  0  0  0
   -0.4618  -10.0331    2.5976 H   0  0  0  0  0  0  0  0  0  0  0  0
   -1.0147   -7.3067    5.1623 H   0  0  0  0  0  0  0  0  0  0  0  0
   -0.1985   -8.8700    4.9691 H   0  0  0  0  0  0  0  0  0  0  0  0
   -1.9471   -8.7867    5.0144 H   0  0  0  0  0  0  0  0  0  0  0  0
   -0.6858   -7.3846    0.5975 H   0  0  0  0  0  0  0  0  0  0  0  0
  1  2  1  0
  1 19  1  0
  1 20  1  0
  1 21  1  0
  2  3  1  0
  3  4  2  0
  3  5  1  0
  5  7  2  0
  5  6  1  0
  7  8  1  0
  7 22  1  0
  8 10  1  0
  8  9  2  0
 10 18  2  0
 10 11  1  0
 11 12  2  0
 11 23  1  0
 12 13  1  0
 12 24  1  0
 13 14  1  0
 13 17  2  0
 14 15  1  0
 14 16  1  0
 15 25  1  0
 15 26  1  0
 15 27  1  0
 16 28  1  0
 16 29  1  0
 16 30  1  0
 17 18  1  0
 17 31  1  0
M  CHG  1   6  -1
M  END
>  <i_m_ct_stereo_status>  (383) 
1

>  <s_m_source_file>  (383) 
/var/tmp/pbs.5102264.sched01/tmplas2qej_/115vanlg5zy.sdf

>  <i_m_source_file_index>  (383) 
23

>  <i_lp_mmshare_version>  (383) 
48012

>  <i_f3d_flags>  (383) 
0

>  <s_epik_input>  (383) 
W0NIM11PQyg9TylDKD1PKVtDSDJdQyg9TyljMVtjSF1bY0hdYyhbY0hdbjEpTihbQ0gzXSlbQ0gzXQ==

>  <s_epik_cmdline>  (383) 
J2VwaWtfcHl0aG9uJywgJy1waHQnLCAnMi4wJywgJy1waCcsICc3LjAnLCAnLXRuJywgJzgnLCAnLW1hJywgJzIwMCcsICctaW1hZScsICc8aW5maWxlLm1hZT4nLCAnLW9tYWUnLCAnPG91dGZpbGUubWFlPic=

>  <r_epik_Ionization_Penalty>  (383) 
0.179076

>  <r_epik_Ionization_Penalty_Charging>  (383) 
0.177067

>  <r_epik_Ionization_Penalty_Neutral>  (383) 
0.00200916

>  <r_epik_State_Penalty>  (383) 
0.700632

>  <r_epik_Charging_Adjusted_Penalty>  (383) 
0.877699

>  <i_epik_Tot_Q>  (383) 
-1

>  <i_epik_Tot_abs_Q>  (383) 
1

>  <s_epik_Chemistry_Notes>  (383) 
This compound has an ester and may undergo hydrolysis at high or low pH.

>  <s_lp_Force_Field>  (383) 
OPLS3e

>  <r_lp_Energy>  (383) 
54.1296

>  <b_lp_Chiralities_Consistent>  (383) 
1

>  <s_lp_Variant>  (383) 
83:0-1

>  <s_i_glide_gridfile>  (383) 
pfpi4k_grid

>  <i_i_glide_lignum>  (383) 
23

>  <i_i_glide_rotatable_bonds>  (383) 
5

>  <r_i_docking_score>  (383) 
-3.05958

>  <r_i_glide_ligand_efficiency>  (383) 
-0.169977

>  <r_i_glide_ligand_efficiency_sa>  (383) 
-0.445465

>  <r_i_glide_ligand_efficiency_ln>  (383) 
-0.786449

>  <r_i_glide_gscore>  (383) 
-3.05958

>  <r_i_glide_lipo>  (383) 
-0.510344

>  <r_i_glide_hbond>  (383) 
-0.16

>  <r_i_glide_metal>  (383) 
-0

>  <r_i_glide_rewards>  (383) 
-1.70971

>  <r_i_glide_evdw>  (383) 
-26.6755

>  <r_i_glide_ecoul>  (383) 
-0.570465

>  <r_i_glide_erotb>  (383) 
0.84438

>  <r_i_glide_esite>  (383) 
-0.10456

>  <r_i_glide_emodel>  (383) 
-30.4035

>  <r_i_glide_energy>  (383) 
-27.246

>  <r_i_glide_einternal>  (383) 
7.04413

>  <r_i_glide_intrahb_reward>  (383) 
-0

>  <i_i_glide_confnum>  (383) 
6

>  <i_i_glide_posenum>  (383) 
25

>  <r_i_glide_eff_state_penalty>  (383) 
0

>  <ligand_id>  (383) 
83

>  <original_smiles>  (383) 
COC(=O)C(=O)CC(=O)c1ccc(N(C)C)cn1

>  <smiles>  (383) 
[H]C(C(=O)c1nc([H])c(N(C([H])([H])[H])C([H])([H])[H])c([H])c1[H])=C([O-])C(=O)OC([H])([H])[H]

$$$$
83:0:2
     RDKit          3D

 31 31  0  0  1  0  0  0  0  0999 V2000
    3.5221   -0.3506   -4.0941 C   0  0  0  0  0  0  0  0  0  0  0  0
    4.0340   -1.1289   -3.0338 O   0  0  0  0  0  0  0  0  0  0  0  0
    3.3553   -2.2198   -2.5863 C   0  0  0  0  0  0  0  0  0  0  0  0
    2.3402   -2.6593   -3.1377 O   0  0  0  0  0  0  0  0  0  0  0  0
    3.9764   -2.8516   -1.3462 C   0  0  0  0  0  0  0  0  0  0  0  0
    5.1213   -2.4036   -1.0728 O   0  0  0  0  0  0  0  0  0  0  0  0
    3.1904   -3.8156   -0.7140 C   0  0  0  0  0  0  0  0  0  0  0  0
    3.5438   -4.5918    0.5042 C   0  0  0  0  0  0  0  0  0  0  0  0
    4.6598   -4.4849    1.0196 O   0  0  0  0  0  0  0  0  0  0  0  0
    2.5283   -5.4909    1.1430 C   0  0  0  0  0  0  0  0  0  0  0  0
    2.7716   -5.9405    2.4610 C   0  0  0  0  0  0  0  0  0  0  0  0
    1.8493   -6.7961    3.0849 C   0  0  0  0  0  0  0  0  0  0  0  0
    0.6938   -7.1880    2.3733 C   0  0  0  0  0  0  0  0  0  0  0  0
   -0.2776   -8.0218    2.9461 N   0  0  0  0  0  0  0  0  0  0  0  0
    0.1698   -9.4095    3.0012 C   0  0  0  0  0  0  0  0  0  0  0  0
   -0.7977   -7.5103    4.2086 C   0  0  0  0  0  0  0  0  0  0  0  0
    0.5471   -6.7107    1.0558 C   0  0  0  0  0  0  0  0  0  0  0  0
    1.4128   -5.8603    0.4624 N   0  0  0  0  0  0  0  0  0  0  0  0
    4.2082    0.4699   -4.3015 H   0  0  0  0  0  0  0  0  0  0  0  0
    2.5568    0.0781   -3.8228 H   0  0  0  0  0  0  0  0  0  0  0  0
    3.4116   -0.9464   -5.0021 H   0  0  0  0  0  0  0  0  0  0  0  0
    2.2185   -4.0416   -1.1261 H   0  0  0  0  0  0  0  0  0  0  0  0
    3.6580   -5.6364    2.9940 H   0  0  0  0  0  0  0  0  0  0  0  0
    2.0308   -7.1447    4.0926 H   0  0  0  0  0  0  0  0  0  0  0  0
    0.4944   -9.7612    2.0209 H   0  0  0  0  0  0  0  0  0  0  0  0
   -0.6296  -10.0627    3.3447 H   0  0  0  0  0  0  0  0  0  0  0  0
    1.0071   -9.5230    3.6892 H   0  0  0  0  0  0  0  0  0  0  0  0
   -1.1657   -6.4901    4.0864 H   0  0  0  0  0  0  0  0  0  0  0  0
   -0.0301   -7.5078    4.9823 H   0  0  0  0  0  0  0  0  0  0  0  0
   -1.6173   -8.1323    4.5653 H   0  0  0  0  0  0  0  0  0  0  0  0
   -0.3261   -6.9696    0.4743 H   0  0  0  0  0  0  0  0  0  0  0  0
  1  2  1  0
  1 19  1  0
  1 20  1  0
  1 21  1  0
  2  3  1  0
  3  4  2  0
  3  5  1  0
  5  7  2  0
  5  6  1  0
  7  8  1  0
  7 22  1  0
  8 10  1  0
  8  9  2  0
 10 18  2  0
 10 11  1  0
 11 12  2  0
 11 23  1  0
 12 13  1  0
 12 24  1  0
 13 14  1  0
 13 17  2  0
 14 15  1  0
 14 16  1  0
 15 25  1  0
 15 26  1  0
 15 27  1  0
 16 28  1  0
 16 29  1  0
 16 30  1  0
 17 18  1  0
 17 31  1  0
M  CHG  1   6  -1
M  END
>  <i_m_ct_stereo_status>  (384) 
1

>  <s_m_source_file>  (384) 
/var/tmp/pbs.5102264.sched01/tmplas2qej_/115vanlg5zy.sdf

>  <i_m_source_file_index>  (384) 
23

>  <i_lp_mmshare_version>  (384) 
48012

>  <i_f3d_flags>  (384) 
0

>  <s_epik_input>  (384) 
W0NIM11PQyg9TylDKD1PKVtDSDJdQyg9TyljMVtjSF1bY0hdYyhbY0hdbjEpTihbQ0gzXSlbQ0gzXQ==

>  <s_epik_cmdline>  (384) 
J2VwaWtfcHl0aG9uJywgJy1waHQnLCAnMi4wJywgJy1waCcsICc3LjAnLCAnLXRuJywgJzgnLCAnLW1hJywgJzIwMCcsICctaW1hZScsICc8aW5maWxlLm1hZT4nLCAnLW9tYWUnLCAnPG91dGZpbGUubWFlPic=

>  <r_epik_Ionization_Penalty>  (384) 
0.179076

>  <r_epik_Ionization_Penalty_Charging>  (384) 
0.177067

>  <r_epik_Ionization_Penalty_Neutral>  (384) 
0.00200916

>  <r_epik_State_Penalty>  (384) 
0.700632

>  <r_epik_Charging_Adjusted_Penalty>  (384) 
0.877699

>  <i_epik_Tot_Q>  (384) 
-1

>  <i_epik_Tot_abs_Q>  (384) 
1

>  <s_epik_Chemistry_Notes>  (384) 
This compound has an ester and may undergo hydrolysis at high or low pH.

>  <s_lp_Force_Field>  (384) 
OPLS3e

>  <r_lp_Energy>  (384) 
54.1296

>  <b_lp_Chiralities_Consistent>  (384) 
1

>  <s_lp_Variant>  (384) 
83:0-1

>  <s_i_glide_gridfile>  (384) 
pfpi4k_grid

>  <i_i_glide_lignum>  (384) 
23

>  <i_i_glide_rotatable_bonds>  (384) 
5

>  <r_i_docking_score>  (384) 
-2.60418

>  <r_i_glide_ligand_efficiency>  (384) 
-0.144677

>  <r_i_glide_ligand_efficiency_sa>  (384) 
-0.379161

>  <r_i_glide_ligand_efficiency_ln>  (384) 
-0.669392

>  <r_i_glide_gscore>  (384) 
-2.60418

>  <r_i_glide_lipo>  (384) 
-0.304513

>  <r_i_glide_hbond>  (384) 
-0.15596

>  <r_i_glide_metal>  (384) 
-0

>  <r_i_glide_rewards>  (384) 
-1.70971

>  <r_i_glide_evdw>  (384) 
-26.2084

>  <r_i_glide_ecoul>  (384) 
0.765352

>  <r_i_glide_erotb>  (384) 
0.84438

>  <r_i_glide_esite>  (384) 
-0.0827646

>  <r_i_glide_emodel>  (384) 
-27.8606

>  <r_i_glide_energy>  (384) 
-25.443

>  <r_i_glide_einternal>  (384) 
6.76412

>  <r_i_glide_intrahb_reward>  (384) 
-0

>  <i_i_glide_confnum>  (384) 
6

>  <i_i_glide_posenum>  (384) 
40

>  <r_i_glide_eff_state_penalty>  (384) 
0

>  <ligand_id>  (384) 
83

>  <original_smiles>  (384) 
COC(=O)C(=O)CC(=O)c1ccc(N(C)C)cn1

>  <smiles>  (384) 
[H]C(C(=O)c1nc([H])c(N(C([H])([H])[H])C([H])([H])[H])c([H])c1[H])=C([O-])C(=O)OC([H])([H])[H]

$$$$
83:1:0
     RDKit          3D

 31 31  0  0  1  0  0  0  0  0999 V2000
   -1.5507   -4.6705    7.4887 C   0  0  0  0  0  0  0  0  0  0  0  0
   -0.8445   -3.7645    6.6570 O   0  0  0  0  0  0  0  0  0  0  0  0
    0.0394   -4.2091    5.7581 C   0  0  0  0  0  0  0  0  0  0  0  0
    0.3655   -5.3987    5.7046 O   0  0  0  0  0  0  0  0  0  0  0  0
    0.6072   -3.1676    4.7930 C   0  0  0  0  0  0  0  0  0  0  0  0
    1.5561   -3.6413    4.1254 O   0  0  0  0  0  0  0  0  0  0  0  0
    0.1112   -1.8579    4.6811 C   0  0  0  0  0  0  0  0  0  0  0  0
   -0.9748   -1.0284    5.2668 C   0  0  0  0  0  0  0  0  0  0  0  0
   -1.8356   -1.4842    6.0140 O   0  0  0  0  0  0  0  0  0  0  0  0
   -1.0454    0.4305    4.9218 C   0  0  0  0  0  0  0  0  0  0  0  0
   -1.7066    1.3011    5.8149 C   0  0  0  0  0  0  0  0  0  0  0  0
   -1.8316    2.6616    5.4927 C   0  0  0  0  0  0  0  0  0  0  0  0
   -1.2885    3.1261    4.2807 C   0  0  0  0  0  0  0  0  0  0  0  0
   -1.3930    4.4881    3.9476 N   0  0  0  0  0  0  0  0  0  0  0  0
   -0.0813    5.1183    3.8802 C   0  0  0  0  0  0  0  0  0  0  0  0
   -2.2206    4.6831    2.7701 C   0  0  0  0  0  0  0  0  0  0  0  0
   -0.6472    2.1816    3.4405 C   0  0  0  0  0  0  0  0  0  0  0  0
   -0.5297    0.8705    3.7524 N   0  0  0  0  0  0  0  0  0  0  0  0
   -2.2568   -4.1217    8.1066 H   0  0  0  0  0  0  0  0  0  0  0  0
   -0.8715   -5.2066    8.1460 H   0  0  0  0  0  0  0  0  0  0  0  0
   -2.1194   -5.3945    6.9087 H   0  0  0  0  0  0  0  0  0  0  0  0
    0.6727   -1.2938    3.9560 H   0  0  0  0  0  0  0  0  0  0  0  0
   -2.1260    0.9390    6.7378 H   0  0  0  0  0  0  0  0  0  0  0  0
   -2.3424    3.3343    6.1674 H   0  0  0  0  0  0  0  0  0  0  0  0
   -0.1770    6.1757    3.6312 H   0  0  0  0  0  0  0  0  0  0  0  0
    0.5471    4.6573    3.1163 H   0  0  0  0  0  0  0  0  0  0  0  0
    0.4353    5.0361    4.8384 H   0  0  0  0  0  0  0  0  0  0  0  0
   -2.2744    5.7297    2.4716 H   0  0  0  0  0  0  0  0  0  0  0  0
   -3.2289    4.2941    2.9079 H   0  0  0  0  0  0  0  0  0  0  0  0
   -1.7881    4.1398    1.9469 H   0  0  0  0  0  0  0  0  0  0  0  0
   -0.2080    2.4635    2.4954 H   0  0  0  0  0  0  0  0  0  0  0  0
  1  2  1  0
  1 19  1  0
  1 20  1  0
  1 21  1  0
  2  3  1  0
  3  4  2  0
  3  5  1  0
  5  6  1  0
  5  7  2  0
  7  8  1  0
  7 22  1  0
  8  9  2  0
  8 10  1  0
 10 18  2  0
 10 11  1  0
 11 12  2  0
 11 23  1  0
 12 13  1  0
 12 24  1  0
 13 14  1  0
 13 17  2  0
 14 15  1  0
 14 16  1  0
 15 25  1  0
 15 26  1  0
 15 27  1  0
 16 28  1  0
 16 29  1  0
 16 30  1  0
 17 18  1  0
 17 31  1  0
M  CHG  1   6  -1
M  END
>  <i_m_ct_stereo_status>  (385) 
1

>  <s_m_source_file>  (385) 
/var/tmp/pbs.5102264.sched01/tmps1u238za/138cwx3dj4e.sdf

>  <i_m_source_file_index>  (385) 
1

>  <i_lp_mmshare_version>  (385) 
48012

>  <i_f3d_flags>  (385) 
0

>  <s_epik_input>  (385) 
W0NIM11PQyg9TylDKD1PKVtDSDJdQyg9TyljMVtjSF1bY0hdYyhbY0hdbjEpTihbQ0gzXSlbQ0gzXQ==

>  <s_epik_cmdline>  (385) 
J2VwaWtfcHl0aG9uJywgJy1waHQnLCAnMi4wJywgJy1waCcsICc3LjAnLCAnLXRuJywgJzgnLCAnLW1hJywgJzIwMCcsICctaW1hZScsICc8aW5maWxlLm1hZT4nLCAnLW9tYWUnLCAnPG91dGZpbGUubWFlPic=

>  <r_epik_Ionization_Penalty>  (385) 
0.179076

>  <r_epik_Ionization_Penalty_Charging>  (385) 
0.177067

>  <r_epik_Ionization_Penalty_Neutral>  (385) 
0.00200916

>  <r_epik_State_Penalty>  (385) 
0.700632

>  <r_epik_Charging_Adjusted_Penalty>  (385) 
0.877699

>  <i_epik_Tot_Q>  (385) 
-1

>  <i_epik_Tot_abs_Q>  (385) 
1

>  <s_epik_Chemistry_Notes>  (385) 
This compound has an ester and may undergo hydrolysis at high or low pH.

>  <s_lp_Force_Field>  (385) 
OPLS3e

>  <r_lp_Energy>  (385) 
63.8808

>  <b_lp_Chiralities_Consistent>  (385) 
1

>  <s_lp_Variant>  (385) 
83:0-2

>  <s_i_glide_gridfile>  (385) 
pfpi4k_grid

>  <i_i_glide_lignum>  (385) 
1

>  <i_i_glide_rotatable_bonds>  (385) 
5

>  <r_i_docking_score>  (385) 
-2.33639

>  <r_i_glide_ligand_efficiency>  (385) 
-0.1298

>  <r_i_glide_ligand_efficiency_sa>  (385) 
-0.340171

>  <r_i_glide_ligand_efficiency_ln>  (385) 
-0.600558

>  <r_i_glide_gscore>  (385) 
-2.33639

>  <r_i_glide_lipo>  (385) 
-0.123758

>  <r_i_glide_hbond>  (385) 
-0.0293863

>  <r_i_glide_metal>  (385) 
-0

>  <r_i_glide_rewards>  (385) 
-1.70971

>  <r_i_glide_evdw>  (385) 
-17.2582

>  <r_i_glide_ecoul>  (385) 
-2.08778

>  <r_i_glide_erotb>  (385) 
0.84438

>  <r_i_glide_esite>  (385) 
-0.141841

>  <r_i_glide_emodel>  (385) 
-21.4322

>  <r_i_glide_energy>  (385) 
-19.346

>  <r_i_glide_einternal>  (385) 
5.49462

>  <r_i_glide_intrahb_reward>  (385) 
-0

>  <i_i_glide_confnum>  (385) 
1

>  <i_i_glide_posenum>  (385) 
4

>  <r_i_glide_eff_state_penalty>  (385) 
0

>  <ligand_id>  (385) 
83

>  <original_smiles>  (385) 
COC(=O)C(=O)CC(=O)c1ccc(N(C)C)cn1

>  <smiles>  (385) 
[H]C(C(=O)c1nc([H])c(N(C([H])([H])[H])C([H])([H])[H])c([H])c1[H])=C([O-])C(=O)OC([H])([H])[H]

$$$$
83:1:1
     RDKit          3D

 31 31  0  0  1  0  0  0  0  0999 V2000
   -1.3498    3.2379    6.1510 C   0  0  0  0  0  0  0  0  0  0  0  0
   -1.1360    1.9692    5.5563 O   0  0  0  0  0  0  0  0  0  0  0  0
   -1.7658    0.8882    6.0000 C   0  0  0  0  0  0  0  0  0  0  0  0
   -2.5701    0.9472    6.9192 O   0  0  0  0  0  0  0  0  0  0  0  0
   -1.4154   -0.4171    5.3038 C   0  0  0  0  0  0  0  0  0  0  0  0
   -2.1834   -1.3349    5.6622 O   0  0  0  0  0  0  0  0  0  0  0  0
   -0.3528   -0.5507    4.4009 C   0  0  0  0  0  0  0  0  0  0  0  0
    0.7210    0.3153    3.7975 C   0  0  0  0  0  0  0  0  0  0  0  0
    0.8948    1.4994    4.0691 O   0  0  0  0  0  0  0  0  0  0  0  0
    1.6634   -0.3001    2.8145 C   0  0  0  0  0  0  0  0  0  0  0  0
    2.6146    0.5250    2.1793 C   0  0  0  0  0  0  0  0  0  0  0  0
    3.5232   -0.0356    1.2767 C   0  0  0  0  0  0  0  0  0  0  0  0
    3.4592   -1.4225    0.9996 C   0  0  0  0  0  0  0  0  0  0  0  0
    4.3214   -2.0109    0.0412 N   0  0  0  0  0  0  0  0  0  0  0  0
    4.2710   -3.4632   -0.0655 C   0  0  0  0  0  0  0  0  0  0  0  0
    4.4085   -1.3009   -1.2312 C   0  0  0  0  0  0  0  0  0  0  0  0
    2.4725   -2.1625    1.7127 C   0  0  0  0  0  0  0  0  0  0  0  0
    1.6079   -1.6252    2.5930 N   0  0  0  0  0  0  0  0  0  0  0  0
   -0.6888    3.9499    5.6669 H   0  0  0  0  0  0  0  0  0  0  0  0
   -1.1214    3.2406    7.2123 H   0  0  0  0  0  0  0  0  0  0  0  0
   -2.3723    3.5635    5.9976 H   0  0  0  0  0  0  0  0  0  0  0  0
   -0.2856   -1.5723    4.0560 H   0  0  0  0  0  0  0  0  0  0  0  0
    2.6426    1.5840    2.3857 H   0  0  0  0  0  0  0  0  0  0  0  0
    4.2403    0.6311    0.8063 H   0  0  0  0  0  0  0  0  0  0  0  0
    5.0340   -3.8710   -0.7445 H   0  0  0  0  0  0  0  0  0  0  0  0
    3.3013   -3.7539   -0.4516 H   0  0  0  0  0  0  0  0  0  0  0  0
    4.4240   -3.9233    0.9064 H   0  0  0  0  0  0  0  0  0  0  0  0
    5.1440   -1.7750   -1.8784 H   0  0  0  0  0  0  0  0  0  0  0  0
    4.7020   -0.2581   -1.1263 H   0  0  0  0  0  0  0  0  0  0  0  0
    3.4390   -1.3314   -1.7200 H   0  0  0  0  0  0  0  0  0  0  0  0
    2.2781   -3.2190    1.6082 H   0  0  0  0  0  0  0  0  0  0  0  0
  1  2  1  0
  1 19  1  0
  1 20  1  0
  1 21  1  0
  2  3  1  0
  3  4  2  0
  3  5  1  0
  5  6  1  0
  5  7  2  0
  7  8  1  0
  7 22  1  0
  8  9  2  0
  8 10  1  0
 10 18  2  0
 10 11  1  0
 11 12  2  0
 11 23  1  0
 12 13  1  0
 12 24  1  0
 13 14  1  0
 13 17  2  0
 14 15  1  0
 14 16  1  0
 15 25  1  0
 15 26  1  0
 15 27  1  0
 16 28  1  0
 16 29  1  0
 16 30  1  0
 17 18  1  0
 17 31  1  0
M  CHG  1   6  -1
M  END
>  <i_m_ct_stereo_status>  (386) 
1

>  <s_m_source_file>  (386) 
/var/tmp/pbs.5102264.sched01/tmps1u238za/138cwx3dj4e.sdf

>  <i_m_source_file_index>  (386) 
1

>  <i_lp_mmshare_version>  (386) 
48012

>  <i_f3d_flags>  (386) 
0

>  <s_epik_input>  (386) 
W0NIM11PQyg9TylDKD1PKVtDSDJdQyg9TyljMVtjSF1bY0hdYyhbY0hdbjEpTihbQ0gzXSlbQ0gzXQ==

>  <s_epik_cmdline>  (386) 
J2VwaWtfcHl0aG9uJywgJy1waHQnLCAnMi4wJywgJy1waCcsICc3LjAnLCAnLXRuJywgJzgnLCAnLW1hJywgJzIwMCcsICctaW1hZScsICc8aW5maWxlLm1hZT4nLCAnLW9tYWUnLCAnPG91dGZpbGUubWFlPic=

>  <r_epik_Ionization_Penalty>  (386) 
0.179076

>  <r_epik_Ionization_Penalty_Charging>  (386) 
0.177067

>  <r_epik_Ionization_Penalty_Neutral>  (386) 
0.00200916

>  <r_epik_State_Penalty>  (386) 
0.700632

>  <r_epik_Charging_Adjusted_Penalty>  (386) 
0.877699

>  <i_epik_Tot_Q>  (386) 
-1

>  <i_epik_Tot_abs_Q>  (386) 
1

>  <s_epik_Chemistry_Notes>  (386) 
This compound has an ester and may undergo hydrolysis at high or low pH.

>  <s_lp_Force_Field>  (386) 
OPLS3e

>  <r_lp_Energy>  (386) 
63.8808

>  <b_lp_Chiralities_Consistent>  (386) 
1

>  <s_lp_Variant>  (386) 
83:0-2

>  <s_i_glide_gridfile>  (386) 
pfpi4k_grid

>  <i_i_glide_lignum>  (386) 
1

>  <i_i_glide_rotatable_bonds>  (386) 
5

>  <r_i_docking_score>  (386) 
-2.15687

>  <r_i_glide_ligand_efficiency>  (386) 
-0.119826

>  <r_i_glide_ligand_efficiency_sa>  (386) 
-0.314033

>  <r_i_glide_ligand_efficiency_ln>  (386) 
-0.554412

>  <r_i_glide_gscore>  (386) 
-2.15687

>  <r_i_glide_lipo>  (386) 
-0.0605297

>  <r_i_glide_hbond>  (386) 
-0.186248

>  <r_i_glide_metal>  (386) 
-0

>  <r_i_glide_rewards>  (386) 
-1.70971

>  <r_i_glide_evdw>  (386) 
-18.5787

>  <r_i_glide_ecoul>  (386) 
-0.20937

>  <r_i_glide_erotb>  (386) 
0.84438

>  <r_i_glide_esite>  (386) 
-0.084419

>  <r_i_glide_emodel>  (386) 
-20.6151

>  <r_i_glide_energy>  (386) 
-18.7881

>  <r_i_glide_einternal>  (386) 
4.60005

>  <r_i_glide_intrahb_reward>  (386) 
-0

>  <i_i_glide_confnum>  (386) 
3

>  <i_i_glide_posenum>  (386) 
1

>  <r_i_glide_eff_state_penalty>  (386) 
0

>  <ligand_id>  (386) 
83

>  <original_smiles>  (386) 
COC(=O)C(=O)CC(=O)c1ccc(N(C)C)cn1

>  <smiles>  (386) 
[H]C(C(=O)c1nc([H])c(N(C([H])([H])[H])C([H])([H])[H])c([H])c1[H])=C([O-])C(=O)OC([H])([H])[H]

$$$$
83:1:2
     RDKit          3D

 31 31  0  0  1  0  0  0  0  0999 V2000
    3.3865   -3.3692   -2.4836 C   0  0  0  0  0  0  0  0  0  0  0  0
    3.8129   -2.6952   -1.3108 O   0  0  0  0  0  0  0  0  0  0  0  0
    5.0708   -2.2291   -1.2112 C   0  0  0  0  0  0  0  0  0  0  0  0
    5.9022   -2.3924   -2.1092 O   0  0  0  0  0  0  0  0  0  0  0  0
    5.4179   -1.4771    0.0683 C   0  0  0  0  0  0  0  0  0  0  0  0
    6.6101   -1.0885    0.0713 O   0  0  0  0  0  0  0  0  0  0  0  0
    4.4927   -1.2485    1.0836 C   0  0  0  0  0  0  0  0  0  0  0  0
    3.0844   -1.6173    1.3488 C   0  0  0  0  0  0  0  0  0  0  0  0
    2.6516   -2.7418    1.1062 O   0  0  0  0  0  0  0  0  0  0  0  0
    2.2481   -0.5956    2.0470 C   0  0  0  0  0  0  0  0  0  0  0  0
    2.5636    0.7790    2.0498 C   0  0  0  0  0  0  0  0  0  0  0  0
    1.7120    1.6724    2.7327 C   0  0  0  0  0  0  0  0  0  0  0  0
    0.5665    1.1780    3.4074 C   0  0  0  0  0  0  0  0  0  0  0  0
   -0.3399    2.0412    4.0738 N   0  0  0  0  0  0  0  0  0  0  0  0
   -1.4142    1.4014    4.8279 C   0  0  0  0  0  0  0  0  0  0  0  0
   -0.7430    3.2194    3.3105 C   0  0  0  0  0  0  0  0  0  0  0  0
    0.3719   -0.2231    3.3620 C   0  0  0  0  0  0  0  0  0  0  0  0
    1.1775   -1.0758    2.7158 N   0  0  0  0  0  0  0  0  0  0  0  0
    2.3671   -3.7263   -2.3504 H   0  0  0  0  0  0  0  0  0  0  0  0
    4.0235   -4.2235   -2.7093 H   0  0  0  0  0  0  0  0  0  0  0  0
    3.4016   -2.6932   -3.3351 H   0  0  0  0  0  0  0  0  0  0  0  0
    4.8737   -0.6572    1.9021 H   0  0  0  0  0  0  0  0  0  0  0  0
    3.4271    1.1646    1.5295 H   0  0  0  0  0  0  0  0  0  0  0  0
    1.9409    2.7240    2.7225 H   0  0  0  0  0  0  0  0  0  0  0  0
   -1.0234    0.6316    5.4935 H   0  0  0  0  0  0  0  0  0  0  0  0
   -2.1237    0.9460    4.1399 H   0  0  0  0  0  0  0  0  0  0  0  0
   -1.9636    2.1133    5.4433 H   0  0  0  0  0  0  0  0  0  0  0  0
    0.0998    3.7687    2.9016 H   0  0  0  0  0  0  0  0  0  0  0  0
   -1.2994    3.9152    3.9380 H   0  0  0  0  0  0  0  0  0  0  0  0
   -1.3861    2.9187    2.4847 H   0  0  0  0  0  0  0  0  0  0  0  0
   -0.4726   -0.7174    3.8290 H   0  0  0  0  0  0  0  0  0  0  0  0
  1  2  1  0
  1 19  1  0
  1 20  1  0
  1 21  1  0
  2  3  1  0
  3  4  2  0
  3  5  1  0
  5  6  1  0
  5  7  2  0
  7  8  1  0
  7 22  1  0
  8  9  2  0
  8 10  1  0
 10 18  2  0
 10 11  1  0
 11 12  2  0
 11 23  1  0
 12 13  1  0
 12 24  1  0
 13 14  1  0
 13 17  2  0
 14 15  1  0
 14 16  1  0
 15 25  1  0
 15 26  1  0
 15 27  1  0
 16 28  1  0
 16 29  1  0
 16 30  1  0
 17 18  1  0
 17 31  1  0
M  CHG  1   6  -1
M  END
>  <i_m_ct_stereo_status>  (387) 
1

>  <s_m_source_file>  (387) 
/var/tmp/pbs.5102264.sched01/tmps1u238za/138cwx3dj4e.sdf

>  <i_m_source_file_index>  (387) 
1

>  <i_lp_mmshare_version>  (387) 
48012

>  <i_f3d_flags>  (387) 
0

>  <s_epik_input>  (387) 
W0NIM11PQyg9TylDKD1PKVtDSDJdQyg9TyljMVtjSF1bY0hdYyhbY0hdbjEpTihbQ0gzXSlbQ0gzXQ==

>  <s_epik_cmdline>  (387) 
J2VwaWtfcHl0aG9uJywgJy1waHQnLCAnMi4wJywgJy1waCcsICc3LjAnLCAnLXRuJywgJzgnLCAnLW1hJywgJzIwMCcsICctaW1hZScsICc8aW5maWxlLm1hZT4nLCAnLW9tYWUnLCAnPG91dGZpbGUubWFlPic=

>  <r_epik_Ionization_Penalty>  (387) 
0.179076

>  <r_epik_Ionization_Penalty_Charging>  (387) 
0.177067

>  <r_epik_Ionization_Penalty_Neutral>  (387) 
0.00200916

>  <r_epik_State_Penalty>  (387) 
0.700632

>  <r_epik_Charging_Adjusted_Penalty>  (387) 
0.877699

>  <i_epik_Tot_Q>  (387) 
-1

>  <i_epik_Tot_abs_Q>  (387) 
1

>  <s_epik_Chemistry_Notes>  (387) 
This compound has an ester and may undergo hydrolysis at high or low pH.

>  <s_lp_Force_Field>  (387) 
OPLS3e

>  <r_lp_Energy>  (387) 
63.8808

>  <b_lp_Chiralities_Consistent>  (387) 
1

>  <s_lp_Variant>  (387) 
83:0-2

>  <s_i_glide_gridfile>  (387) 
pfpi4k_grid

>  <i_i_glide_lignum>  (387) 
1

>  <i_i_glide_rotatable_bonds>  (387) 
5

>  <r_i_docking_score>  (387) 
-1.97049

>  <r_i_glide_ligand_efficiency>  (387) 
-0.109471

>  <r_i_glide_ligand_efficiency_sa>  (387) 
-0.286896

>  <r_i_glide_ligand_efficiency_ln>  (387) 
-0.506503

>  <r_i_glide_gscore>  (387) 
-1.97049

>  <r_i_glide_lipo>  (387) 
-0.0360884

>  <r_i_glide_hbond>  (387) 
-0.0674607

>  <r_i_glide_metal>  (387) 
-0

>  <r_i_glide_rewards>  (387) 
-1.70971

>  <r_i_glide_evdw>  (387) 
-21.2503

>  <r_i_glide_ecoul>  (387) 
0.946495

>  <r_i_glide_erotb>  (387) 
0.84438

>  <r_i_glide_esite>  (387) 
-0.081065

>  <r_i_glide_emodel>  (387) 
-20.6807

>  <r_i_glide_energy>  (387) 
-20.3038

>  <r_i_glide_einternal>  (387) 
7.13968

>  <r_i_glide_intrahb_reward>  (387) 
-0

>  <i_i_glide_confnum>  (387) 
5

>  <i_i_glide_posenum>  (387) 
20

>  <r_i_glide_eff_state_penalty>  (387) 
0

>  <ligand_id>  (387) 
83

>  <original_smiles>  (387) 
COC(=O)C(=O)CC(=O)c1ccc(N(C)C)cn1

>  <smiles>  (387) 
[H]C(C(=O)c1nc([H])c(N(C([H])([H])[H])C([H])([H])[H])c([H])c1[H])=C([O-])C(=O)OC([H])([H])[H]

$$$$
83:2:0
     RDKit          3D

 32 32  0  0  1  0  0  0  0  0999 V2000
   -1.7580   -9.3753    2.4473 C   0  0  0  0  0  0  0  0  0  0  0  0
   -1.0209   -8.2159    2.1122 O   0  0  0  0  0  0  0  0  0  0  0  0
    0.2933   -8.1613    2.3910 C   0  0  0  0  0  0  0  0  0  0  0  0
    0.9498   -9.0014    3.0054 O   0  0  0  0  0  0  0  0  0  0  0  0
    0.9221   -6.8782    1.8264 C   0  0  0  0  0  0  0  0  0  0  0  0
    0.3854   -6.2869    0.8850 O   0  0  0  0  0  0  0  0  0  0  0  0
    2.1675   -6.3130    2.5271 C   0  0  0  0  0  0  0  0  0  0  0  0
    3.4150   -6.3767    1.6336 C   0  0  0  0  0  0  0  0  0  0  0  0
    4.2293   -7.2770    1.8325 O   0  0  0  0  0  0  0  0  0  0  0  0
    3.6234   -5.3102    0.6040 C   0  0  0  0  0  0  0  0  0  0  0  0
    4.8303   -5.2609   -0.1215 C   0  0  0  0  0  0  0  0  0  0  0  0
    5.0041   -4.2736   -1.1119 C   0  0  0  0  0  0  0  0  0  0  0  0
    3.9610   -3.3529   -1.3788 C   0  0  0  0  0  0  0  0  0  0  0  0
    4.0841   -2.3623   -2.3807 N   0  0  0  0  0  0  0  0  0  0  0  0
    4.9767   -2.5980   -3.5037 C   0  0  0  0  0  0  0  0  0  0  0  0
    3.0008   -1.4057   -2.5625 C   0  0  0  0  0  0  0  0  0  0  0  0
    2.7930   -3.4951   -0.5861 C   0  0  0  0  0  0  0  0  0  0  0  0
    2.6302   -4.4224    0.3806 N   0  0  0  0  0  0  0  0  0  0  0  0
   -2.8017   -9.2470    2.1610 H   0  0  0  0  0  0  0  0  0  0  0  0
   -1.7102   -9.5535    3.5200 H   0  0  0  0  0  0  0  0  0  0  0  0
   -1.3646  -10.2419    1.9169 H   0  0  0  0  0  0  0  0  0  0  0  0
    1.9823   -5.2815    2.8255 H   0  0  0  0  0  0  0  0  0  0  0  0
    2.3740   -6.8654    3.4469 H   0  0  0  0  0  0  0  0  0  0  0  0
    5.6184   -5.9779    0.0663 H   0  0  0  0  0  0  0  0  0  0  0  0
    5.9311   -4.2433   -1.6631 H   0  0  0  0  0  0  0  0  0  0  0  0
    6.0014   -2.7747   -3.1831 H   0  0  0  0  0  0  0  0  0  0  0  0
    4.9976   -1.7160   -4.1398 H   0  0  0  0  0  0  0  0  0  0  0  0
    4.6278   -3.4445   -4.0964 H   0  0  0  0  0  0  0  0  0  0  0  0
    2.7932   -0.8849   -1.6314 H   0  0  0  0  0  0  0  0  0  0  0  0
    2.0966   -1.9138   -2.8943 H   0  0  0  0  0  0  0  0  0  0  0  0
    3.2485   -0.6489   -3.3042 H   0  0  0  0  0  0  0  0  0  0  0  0
    1.9285   -2.8716   -0.7346 H   0  0  0  0  0  0  0  0  0  0  0  0
  1  2  1  0
  1 19  1  0
  1 20  1  0
  1 21  1  0
  2  3  1  0
  3  4  2  0
  3  5  1  0
  5  6  2  0
  5  7  1  0
  7  8  1  0
  7 22  1  0
  7 23  1  0
  8  9  2  0
  8 10  1  0
 10 18  2  0
 10 11  1  0
 11 12  2  0
 11 24  1  0
 12 13  1  0
 12 25  1  0
 13 14  1  0
 13 17  2  0
 14 15  1  0
 14 16  1  0
 15 26  1  0
 15 27  1  0
 15 28  1  0
 16 29  1  0
 16 30  1  0
 16 31  1  0
 17 18  1  0
 17 32  1  0
M  END
>  <i_m_ct_stereo_status>  (388) 
1

>  <s_m_source_file>  (388) 
/var/tmp/pbs.5102264.sched01/tmps1u238za/138cwx3dj4e.sdf

>  <i_m_source_file_index>  (388) 
2

>  <i_lp_mmshare_version>  (388) 
48012

>  <i_f3d_flags>  (388) 
0

>  <s_epik_input>  (388) 
W0NIM11PQyg9TylDKD1PKVtDSDJdQyg9TyljMVtjSF1bY0hdYyhbY0hdbjEpTihbQ0gzXSlbQ0gzXQ==

>  <s_epik_cmdline>  (388) 
J2VwaWtfcHl0aG9uJywgJy1waHQnLCAnMi4wJywgJy1waCcsICc3LjAnLCAnLXRuJywgJzgnLCAnLW1hJywgJzIwMCcsICctaW1hZScsICc8aW5maWxlLm1hZT4nLCAnLW9tYWUnLCAnPG91dGZpbGUubWFlPic=

>  <r_lp_tautomer_probability>  (388) 
0.692308

>  <r_epik_Ionization_Penalty>  (388) 
0.801935

>  <r_epik_Ionization_Penalty_Charging>  (388) 
0

>  <r_epik_Ionization_Penalty_Neutral>  (388) 
0.801935

>  <r_epik_State_Penalty>  (388) 
0.973222

>  <r_epik_Charging_Adjusted_Penalty>  (388) 
0.973222

>  <i_epik_Tot_Q>  (388) 
0

>  <i_epik_Tot_abs_Q>  (388) 
0

>  <s_epik_Chemistry_Notes>  (388) 
This compound has an ester and may undergo hydrolysis at high or low pH.

>  <s_lp_Force_Field>  (388) 
OPLS3e

>  <r_lp_Energy>  (388) 
38.3633

>  <b_lp_Chiralities_Consistent>  (388) 
1

>  <s_lp_Variant>  (388) 
83:0-3

>  <s_i_glide_gridfile>  (388) 
pfpi4k_grid

>  <i_i_glide_lignum>  (388) 
2

>  <i_i_glide_rotatable_bonds>  (388) 
6

>  <r_i_docking_score>  (388) 
-3.13819

>  <r_i_glide_ligand_efficiency>  (388) 
-0.174344

>  <r_i_glide_ligand_efficiency_sa>  (388) 
-0.456911

>  <r_i_glide_ligand_efficiency_ln>  (388) 
-0.806657

>  <r_i_glide_gscore>  (388) 
-3.13819

>  <r_i_glide_lipo>  (388) 
-0.338442

>  <r_i_glide_hbond>  (388) 
-0.16

>  <r_i_glide_metal>  (388) 
-0

>  <r_i_glide_rewards>  (388) 
-1.84499

>  <r_i_glide_evdw>  (388) 
-24.1415

>  <r_i_glide_ecoul>  (388) 
-3.99119

>  <r_i_glide_erotb>  (388) 
1.11808

>  <r_i_glide_esite>  (388) 
-0.107086

>  <r_i_glide_emodel>  (388) 
-33.332

>  <r_i_glide_energy>  (388) 
-28.1327

>  <r_i_glide_einternal>  (388) 
1.00412

>  <r_i_glide_intrahb_reward>  (388) 
-0

>  <i_i_glide_confnum>  (388) 
2

>  <i_i_glide_posenum>  (388) 
1

>  <r_i_glide_eff_state_penalty>  (388) 
0

>  <ligand_id>  (388) 
83

>  <original_smiles>  (388) 
COC(=O)C(=O)CC(=O)c1ccc(N(C)C)cn1

>  <smiles>  (388) 
[H]c1nc(C(=O)C([H])([H])C(=O)C(=O)OC([H])([H])[H])c([H])c([H])c1N(C([H])([H])[H])C([H])([H])[H]

$$$$
83:2:1
     RDKit          3D

 32 32  0  0  1  0  0  0  0  0999 V2000
    3.2935    0.3717    1.6175 C   0  0  0  0  0  0  0  0  0  0  0  0
    4.3099   -0.3564    0.9665 O   0  0  0  0  0  0  0  0  0  0  0  0
    5.0226   -1.2723    1.6255 C   0  0  0  0  0  0  0  0  0  0  0  0
    4.9614   -1.5227    2.8316 O   0  0  0  0  0  0  0  0  0  0  0  0
    5.9702   -2.0157    0.6849 C   0  0  0  0  0  0  0  0  0  0  0  0
    7.0134   -1.4739    0.3022 O   0  0  0  0  0  0  0  0  0  0  0  0
    5.5832   -3.4181    0.1963 C   0  0  0  0  0  0  0  0  0  0  0  0
    4.2596   -3.5076   -0.6123 C   0  0  0  0  0  0  0  0  0  0  0  0
    3.4640   -4.3831   -0.2628 O   0  0  0  0  0  0  0  0  0  0  0  0
    3.9604   -2.6215   -1.7854 C   0  0  0  0  0  0  0  0  0  0  0  0
    2.9054   -2.9068   -2.6796 C   0  0  0  0  0  0  0  0  0  0  0  0
    2.5869   -1.9999   -3.7089 C   0  0  0  0  0  0  0  0  0  0  0  0
    3.2978   -0.7973   -3.7878 C   0  0  0  0  0  0  0  0  0  0  0  0
    3.0465    0.1914   -4.7469 N   0  0  0  0  0  0  0  0  0  0  0  0
    1.6930    0.5617   -5.1119 C   0  0  0  0  0  0  0  0  0  0  0  0
    3.9492    1.3084   -4.8298 C   0  0  0  0  0  0  0  0  0  0  0  0
    4.3028   -0.5728   -2.8220 C   0  0  0  0  0  0  0  0  0  0  0  0
    4.6868   -1.4786   -1.8955 N   0  0  0  0  0  0  0  0  0  0  0  0
    2.7808    1.0400    0.9327 H   0  0  0  0  0  0  0  0  0  0  0  0
    3.7320    0.9583    2.4110 H   0  0  0  0  0  0  0  0  0  0  0  0
    2.5548   -0.2991    2.0345 H   0  0  0  0  0  0  0  0  0  0  0  0
    6.3544   -3.8418   -0.4308 H   0  0  0  0  0  0  0  0  0  0  0  0
    5.4967   -4.0830    1.0492 H   0  0  0  0  0  0  0  0  0  0  0  0
    2.3037   -3.7977   -2.5680 H   0  0  0  0  0  0  0  0  0  0  0  0
    1.7771   -2.1838   -4.3726 H   0  0  0  0  0  0  0  0  0  0  0  0
    1.1002   -0.2723   -5.4774 H   0  0  0  0  0  0  0  0  0  0  0  0
    1.7107    1.3600   -5.8602 H   0  0  0  0  0  0  0  0  0  0  0  0
    1.1675    0.9813   -4.2577 H   0  0  0  0  0  0  0  0  0  0  0  0
    4.9478    0.9485   -5.1431 H   0  0  0  0  0  0  0  0  0  0  0  0
    4.0431    1.8852   -3.9100 H   0  0  0  0  0  0  0  0  0  0  0  0
    3.5648    1.9838   -5.5770 H   0  0  0  0  0  0  0  0  0  0  0  0
    4.8577    0.3516   -2.7663 H   0  0  0  0  0  0  0  0  0  0  0  0
  1  2  1  0
  1 19  1  0
  1 20  1  0
  1 21  1  0
  2  3  1  0
  3  4  2  0
  3  5  1  0
  5  6  2  0
  5  7  1  0
  7  8  1  0
  7 22  1  0
  7 23  1  0
  8  9  2  0
  8 10  1  0
 10 18  2  0
 10 11  1  0
 11 12  2  0
 11 24  1  0
 12 13  1  0
 12 25  1  0
 13 14  1  0
 13 17  2  0
 14 15  1  0
 14 16  1  0
 15 26  1  0
 15 27  1  0
 15 28  1  0
 16 29  1  0
 16 30  1  0
 16 31  1  0
 17 18  1  0
 17 32  1  0
M  END
>  <i_m_ct_stereo_status>  (389) 
1

>  <s_m_source_file>  (389) 
/var/tmp/pbs.5102264.sched01/tmps1u238za/138cwx3dj4e.sdf

>  <i_m_source_file_index>  (389) 
2

>  <i_lp_mmshare_version>  (389) 
48012

>  <i_f3d_flags>  (389) 
0

>  <s_epik_input>  (389) 
W0NIM11PQyg9TylDKD1PKVtDSDJdQyg9TyljMVtjSF1bY0hdYyhbY0hdbjEpTihbQ0gzXSlbQ0gzXQ==

>  <s_epik_cmdline>  (389) 
J2VwaWtfcHl0aG9uJywgJy1waHQnLCAnMi4wJywgJy1waCcsICc3LjAnLCAnLXRuJywgJzgnLCAnLW1hJywgJzIwMCcsICctaW1hZScsICc8aW5maWxlLm1hZT4nLCAnLW9tYWUnLCAnPG91dGZpbGUubWFlPic=

>  <r_lp_tautomer_probability>  (389) 
0.692308

>  <r_epik_Ionization_Penalty>  (389) 
0.801935

>  <r_epik_Ionization_Penalty_Charging>  (389) 
0

>  <r_epik_Ionization_Penalty_Neutral>  (389) 
0.801935

>  <r_epik_State_Penalty>  (389) 
0.973222

>  <r_epik_Charging_Adjusted_Penalty>  (389) 
0.973222

>  <i_epik_Tot_Q>  (389) 
0

>  <i_epik_Tot_abs_Q>  (389) 
0

>  <s_epik_Chemistry_Notes>  (389) 
This compound has an ester and may undergo hydrolysis at high or low pH.

>  <s_lp_Force_Field>  (389) 
OPLS3e

>  <r_lp_Energy>  (389) 
38.3633

>  <b_lp_Chiralities_Consistent>  (389) 
1

>  <s_lp_Variant>  (389) 
83:0-3

>  <s_i_glide_gridfile>  (389) 
pfpi4k_grid

>  <i_i_glide_lignum>  (389) 
2

>  <i_i_glide_rotatable_bonds>  (389) 
6

>  <r_i_docking_score>  (389) 
-3.10102

>  <r_i_glide_ligand_efficiency>  (389) 
-0.172279

>  <r_i_glide_ligand_efficiency_sa>  (389) 
-0.451499

>  <r_i_glide_ligand_efficiency_ln>  (389) 
-0.797102

>  <r_i_glide_gscore>  (389) 
-3.10102

>  <r_i_glide_lipo>  (389) 
-0.678253

>  <r_i_glide_hbond>  (389) 
-0.0369269

>  <r_i_glide_metal>  (389) 
-0

>  <r_i_glide_rewards>  (389) 
-2.06638

>  <r_i_glide_evdw>  (389) 
-24.6153

>  <r_i_glide_ecoul>  (389) 
-1.37847

>  <r_i_glide_erotb>  (389) 
1.11808

>  <r_i_glide_esite>  (389) 
0

>  <r_i_glide_emodel>  (389) 
-28.4754

>  <r_i_glide_energy>  (389) 
-25.9938

>  <r_i_glide_einternal>  (389) 
4.22474

>  <r_i_glide_intrahb_reward>  (389) 
-0

>  <i_i_glide_confnum>  (389) 
2

>  <i_i_glide_posenum>  (389) 
7

>  <r_i_glide_eff_state_penalty>  (389) 
0

>  <ligand_id>  (389) 
83

>  <original_smiles>  (389) 
COC(=O)C(=O)CC(=O)c1ccc(N(C)C)cn1

>  <smiles>  (389) 
[H]c1nc(C(=O)C([H])([H])C(=O)C(=O)OC([H])([H])[H])c([H])c([H])c1N(C([H])([H])[H])C([H])([H])[H]

$$$$
83:2:2
     RDKit          3D

 32 32  0  0  1  0  0  0  0  0999 V2000
    3.2784   -0.9155   -3.8033 C   0  0  0  0  0  0  0  0  0  0  0  0
    2.9187   -2.0183   -2.9902 O   0  0  0  0  0  0  0  0  0  0  0  0
    3.6618   -2.3269   -1.9135 C   0  0  0  0  0  0  0  0  0  0  0  0
    4.7284   -1.7919   -1.5968 O   0  0  0  0  0  0  0  0  0  0  0  0
    3.0249   -3.4561   -1.0730 C   0  0  0  0  0  0  0  0  0  0  0  0
    1.8138   -3.6813   -1.1329 O   0  0  0  0  0  0  0  0  0  0  0  0
    3.9479   -4.3074   -0.1879 C   0  0  0  0  0  0  0  0  0  0  0  0
    3.5189   -4.2493    1.2849 C   0  0  0  0  0  0  0  0  0  0  0  0
    4.1403   -3.4999    2.0390 O   0  0  0  0  0  0  0  0  0  0  0  0
    2.4049   -5.1308    1.7605 C   0  0  0  0  0  0  0  0  0  0  0  0
    2.0295   -5.1200    3.1196 C   0  0  0  0  0  0  0  0  0  0  0  0
    0.9777   -5.9494    3.5571 C   0  0  0  0  0  0  0  0  0  0  0  0
    0.2951   -6.7693    2.6202 C   0  0  0  0  0  0  0  0  0  0  0  0
   -0.8140   -7.5677    2.9834 N   0  0  0  0  0  0  0  0  0  0  0  0
   -1.1542   -8.7043    2.1339 C   0  0  0  0  0  0  0  0  0  0  0  0
   -1.1770   -7.6675    4.3920 C   0  0  0  0  0  0  0  0  0  0  0  0
    0.7728   -6.7220    1.2860 C   0  0  0  0  0  0  0  0  0  0  0  0
    1.7719   -5.9237    0.8677 N   0  0  0  0  0  0  0  0  0  0  0  0
    2.5705   -0.8216   -4.6253 H   0  0  0  0  0  0  0  0  0  0  0  0
    4.2758   -1.0436   -4.2234 H   0  0  0  0  0  0  0  0  0  0  0  0
    3.2550    0.0091   -3.2279 H   0  0  0  0  0  0  0  0  0  0  0  0
    3.9386   -5.3379   -0.5400 H   0  0  0  0  0  0  0  0  0  0  0  0
    4.9830   -3.9659   -0.2585 H   0  0  0  0  0  0  0  0  0  0  0  0
    2.5498   -4.4901    3.8282 H   0  0  0  0  0  0  0  0  0  0  0  0
    0.6956   -5.9237    4.5989 H   0  0  0  0  0  0  0  0  0  0  0  0
   -1.3857   -8.3945    1.1200 H   0  0  0  0  0  0  0  0  0  0  0  0
   -2.0315   -9.2249    2.5133 H   0  0  0  0  0  0  0  0  0  0  0  0
   -0.3363   -9.4250    2.0968 H   0  0  0  0  0  0  0  0  0  0  0  0
   -1.4262   -6.6904    4.8053 H   0  0  0  0  0  0  0  0  0  0  0  0
   -0.3639   -8.1073    4.9712 H   0  0  0  0  0  0  0  0  0  0  0  0
   -2.0487   -8.3084    4.5208 H   0  0  0  0  0  0  0  0  0  0  0  0
    0.3102   -7.2868    0.4921 H   0  0  0  0  0  0  0  0  0  0  0  0
  1  2  1  0
  1 19  1  0
  1 20  1  0
  1 21  1  0
  2  3  1  0
  3  4  2  0
  3  5  1  0
  5  6  2  0
  5  7  1  0
  7  8  1  0
  7 22  1  0
  7 23  1  0
  8  9  2  0
  8 10  1  0
 10 18  2  0
 10 11  1  0
 11 12  2  0
 11 24  1  0
 12 13  1  0
 12 25  1  0
 13 14  1  0
 13 17  2  0
 14 15  1  0
 14 16  1  0
 15 26  1  0
 15 27  1  0
 15 28  1  0
 16 29  1  0
 16 30  1  0
 16 31  1  0
 17 18  1  0
 17 32  1  0
M  END
>  <i_m_ct_stereo_status>  (390) 
1

>  <s_m_source_file>  (390) 
/var/tmp/pbs.5102264.sched01/tmps1u238za/138cwx3dj4e.sdf

>  <i_m_source_file_index>  (390) 
2

>  <i_lp_mmshare_version>  (390) 
48012

>  <i_f3d_flags>  (390) 
0

>  <s_epik_input>  (390) 
W0NIM11PQyg9TylDKD1PKVtDSDJdQyg9TyljMVtjSF1bY0hdYyhbY0hdbjEpTihbQ0gzXSlbQ0gzXQ==

>  <s_epik_cmdline>  (390) 
J2VwaWtfcHl0aG9uJywgJy1waHQnLCAnMi4wJywgJy1waCcsICc3LjAnLCAnLXRuJywgJzgnLCAnLW1hJywgJzIwMCcsICctaW1hZScsICc8aW5maWxlLm1hZT4nLCAnLW9tYWUnLCAnPG91dGZpbGUubWFlPic=

>  <r_lp_tautomer_probability>  (390) 
0.692308

>  <r_epik_Ionization_Penalty>  (390) 
0.801935

>  <r_epik_Ionization_Penalty_Charging>  (390) 
0

>  <r_epik_Ionization_Penalty_Neutral>  (390) 
0.801935

>  <r_epik_State_Penalty>  (390) 
0.973222

>  <r_epik_Charging_Adjusted_Penalty>  (390) 
0.973222

>  <i_epik_Tot_Q>  (390) 
0

>  <i_epik_Tot_abs_Q>  (390) 
0

>  <s_epik_Chemistry_Notes>  (390) 
This compound has an ester and may undergo hydrolysis at high or low pH.

>  <s_lp_Force_Field>  (390) 
OPLS3e

>  <r_lp_Energy>  (390) 
38.3633

>  <b_lp_Chiralities_Consistent>  (390) 
1

>  <s_lp_Variant>  (390) 
83:0-3

>  <s_i_glide_gridfile>  (390) 
pfpi4k_grid

>  <i_i_glide_lignum>  (390) 
2

>  <i_i_glide_rotatable_bonds>  (390) 
6

>  <r_i_docking_score>  (390) 
-2.80302

>  <r_i_glide_ligand_efficiency>  (390) 
-0.155723

>  <r_i_glide_ligand_efficiency_sa>  (390) 
-0.40811

>  <r_i_glide_ligand_efficiency_ln>  (390) 
-0.720502

>  <r_i_glide_gscore>  (390) 
-2.80302

>  <r_i_glide_lipo>  (390) 
-0.21841

>  <r_i_glide_hbond>  (390) 
-0.0842054

>  <r_i_glide_metal>  (390) 
-0

>  <r_i_glide_rewards>  (390) 
-1.80257

>  <r_i_glide_evdw>  (390) 
-25.6157

>  <r_i_glide_ecoul>  (390) 
-2.87248

>  <r_i_glide_erotb>  (390) 
1.11808

>  <r_i_glide_esite>  (390) 
-0.104255

>  <r_i_glide_emodel>  (390) 
-33.2983

>  <r_i_glide_energy>  (390) 
-28.4881

>  <r_i_glide_einternal>  (390) 
0.663912

>  <r_i_glide_intrahb_reward>  (390) 
-0

>  <i_i_glide_confnum>  (390) 
1

>  <i_i_glide_posenum>  (390) 
2

>  <r_i_glide_eff_state_penalty>  (390) 
0

>  <ligand_id>  (390) 
83

>  <original_smiles>  (390) 
COC(=O)C(=O)CC(=O)c1ccc(N(C)C)cn1

>  <smiles>  (390) 
[H]c1nc(C(=O)C([H])([H])C(=O)C(=O)OC([H])([H])[H])c([H])c([H])c1N(C([H])([H])[H])C([H])([H])[H]

$$$$
83:3:0
     RDKit          3D

 32 32  0  0  1  0  0  0  0  0999 V2000
    3.1347   -0.3144   -4.2864 C   0  0  0  0  0  0  0  0  0  0  0  0
    3.5043   -1.0304   -3.1275 O   0  0  0  0  0  0  0  0  0  0  0  0
    3.9316   -2.2895   -3.2481 C   0  0  0  0  0  0  0  0  0  0  0  0
    4.1753   -2.8667   -4.3090 O   0  0  0  0  0  0  0  0  0  0  0  0
    4.1517   -2.9734   -1.8838 C   0  0  0  0  0  0  0  0  0  0  0  0
    5.0292   -3.8339   -1.8326 O   0  0  0  0  0  0  0  0  0  0  0  0
    3.3397   -2.5106   -0.7337 C   0  0  0  0  0  0  0  0  0  0  0  0
    2.9563   -3.2243    0.3442 C   0  0  0  0  0  0  0  0  0  0  0  0
    2.2155   -2.6096    1.2860 O   0  0  0  0  0  0  0  0  0  0  0  0
    3.2490   -4.6383    0.6690 C   0  0  0  0  0  0  0  0  0  0  0  0
    4.5635   -5.1383    0.7001 C   0  0  0  0  0  0  0  0  0  0  0  0
    4.7772   -6.4910    0.9944 C   0  0  0  0  0  0  0  0  0  0  0  0
    3.6817   -7.3158    1.3383 C   0  0  0  0  0  0  0  0  0  0  0  0
    3.8600   -8.6799    1.6800 N   0  0  0  0  0  0  0  0  0  0  0  0
    2.7048   -9.5677    1.6989 C   0  0  0  0  0  0  0  0  0  0  0  0
    5.1806   -9.2827    1.5384 C   0  0  0  0  0  0  0  0  0  0  0  0
    2.4062   -6.7063    1.3274 C   0  0  0  0  0  0  0  0  0  0  0  0
    2.1854   -5.4181    0.9831 N   0  0  0  0  0  0  0  0  0  0  0  0
    2.7744    0.6646   -3.9875 H   0  0  0  0  0  0  0  0  0  0  0  0
    2.3234   -0.8324   -4.7943 H   0  0  0  0  0  0  0  0  0  0  0  0
    3.9754   -0.1879   -4.9710 H   0  0  0  0  0  0  0  0  0  0  0  0
    3.0183   -1.4791   -0.7564 H   0  0  0  0  0  0  0  0  0  0  0  0
    1.9902   -1.7404    0.9580 H   0  0  0  0  0  0  0  0  0  0  0  0
    5.4090   -4.5022    0.4808 H   0  0  0  0  0  0  0  0  0  0  0  0
    5.7920   -6.8677    0.9621 H   0  0  0  0  0  0  0  0  0  0  0  0
    1.9246   -9.2099    2.3722 H   0  0  0  0  0  0  0  0  0  0  0  0
    2.9897  -10.5585    2.0473 H   0  0  0  0  0  0  0  0  0  0  0  0
    2.2904   -9.6742    0.6953 H   0  0  0  0  0  0  0  0  0  0  0  0
    5.9262   -8.7374    2.1167 H   0  0  0  0  0  0  0  0  0  0  0  0
    5.4807   -9.2957    0.4901 H   0  0  0  0  0  0  0  0  0  0  0  0
    5.1797  -10.3087    1.9002 H   0  0  0  0  0  0  0  0  0  0  0  0
    1.5096   -7.2416    1.6050 H   0  0  0  0  0  0  0  0  0  0  0  0
  1  2  1  0
  1 19  1  0
  1 20  1  0
  1 21  1  0
  2  3  1  0
  3  4  2  0
  3  5  1  0
  5  7  1  0
  5  6  2  0
  7  8  2  0
  7 22  1  0
  8 10  1  0
  8  9  1  0
  9 23  1  0
 10 18  2  0
 10 11  1  0
 11 12  2  0
 11 24  1  0
 12 13  1  0
 12 25  1  0
 13 14  1  0
 13 17  2  0
 14 15  1  0
 14 16  1  0
 15 26  1  0
 15 27  1  0
 15 28  1  0
 16 29  1  0
 16 30  1  0
 16 31  1  0
 17 18  1  0
 17 32  1  0
M  END
>  <i_m_ct_stereo_status>  (391) 
1

>  <s_m_source_file>  (391) 
/var/tmp/pbs.5102264.sched01/tmps1u238za/138cwx3dj4e.sdf

>  <i_m_source_file_index>  (391) 
3

>  <i_lp_mmshare_version>  (391) 
48012

>  <i_f3d_flags>  (391) 
0

>  <s_epik_input>  (391) 
W0NIM11PQyg9TylDKD1PKVtDSDJdQyg9TyljMVtjSF1bY0hdYyhbY0hdbjEpTihbQ0gzXSlbQ0gzXQ==

>  <s_epik_cmdline>  (391) 
J2VwaWtfcHl0aG9uJywgJy1waHQnLCAnMi4wJywgJy1waCcsICc3LjAnLCAnLXRuJywgJzgnLCAnLW1hJywgJzIwMCcsICctaW1hZScsICc8aW5maWxlLm1hZT4nLCAnLW9tYWUnLCAnPG91dGZpbGUubWFlPic=

>  <r_lp_tautomer_probability>  (391) 
0.0769231

>  <r_epik_Ionization_Penalty>  (391) 
0.121185

>  <r_epik_Ionization_Penalty_Charging>  (391) 
0

>  <r_epik_Ionization_Penalty_Neutral>  (391) 
0.121185

>  <r_epik_State_Penalty>  (391) 
1.57061

>  <r_epik_Charging_Adjusted_Penalty>  (391) 
1.57061

>  <i_epik_Tot_Q>  (391) 
0

>  <i_epik_Tot_abs_Q>  (391) 
0

>  <s_epik_Chemistry_Notes>  (391) 
This compound has an ester and may undergo hydrolysis at high or low pH.

>  <s_lp_Force_Field>  (391) 
OPLS3e

>  <r_lp_Energy>  (391) 
43.7291

>  <b_lp_Chiralities_Consistent>  (391) 
1

>  <s_lp_Variant>  (391) 
83:0-4

>  <s_i_glide_gridfile>  (391) 
pfpi4k_grid

>  <i_i_glide_lignum>  (391) 
3

>  <i_i_glide_rotatable_bonds>  (391) 
6

>  <r_i_docking_score>  (391) 
-3.73298

>  <r_i_glide_ligand_efficiency>  (391) 
-0.207388

>  <r_i_glide_ligand_efficiency_sa>  (391) 
-0.54351

>  <r_i_glide_ligand_efficiency_ln>  (391) 
-0.959544

>  <r_i_glide_gscore>  (391) 
-3.73298

>  <r_i_glide_lipo>  (391) 
-0.557586

>  <r_i_glide_hbond>  (391) 
-0.308549

>  <r_i_glide_metal>  (391) 
-0

>  <r_i_glide_rewards>  (391) 
-1.92073

>  <r_i_glide_evdw>  (391) 
-25.1916

>  <r_i_glide_ecoul>  (391) 
-5.04899

>  <r_i_glide_erotb>  (391) 
1.11808

>  <r_i_glide_esite>  (391) 
-0.0472658

>  <r_i_glide_emodel>  (391) 
-36.3816

>  <r_i_glide_energy>  (391) 
-30.2406

>  <r_i_glide_einternal>  (391) 
3.3647

>  <r_i_glide_intrahb_reward>  (391) 
-0

>  <i_i_glide_confnum>  (391) 
5

>  <i_i_glide_posenum>  (391) 
15

>  <r_i_glide_eff_state_penalty>  (391) 
0

>  <ligand_id>  (391) 
83

>  <original_smiles>  (391) 
COC(=O)C(=O)CC(=O)c1ccc(N(C)C)cn1

>  <smiles>  (391) 
[H]OC(=C([H])C(=O)C(=O)OC([H])([H])[H])c1nc([H])c(N(C([H])([H])[H])C([H])([H])[H])c([H])c1[H]

$$$$
83:3:1
     RDKit          3D

 32 32  0  0  1  0  0  0  0  0999 V2000
    2.3054   -2.1257    1.6338 C   0  0  0  0  0  0  0  0  0  0  0  0
    1.4960   -1.2503    2.3938 O   0  0  0  0  0  0  0  0  0  0  0  0
    1.7150    0.0787    2.3482 C   0  0  0  0  0  0  0  0  0  0  0  0
    2.5907    0.6550    1.6981 O   0  0  0  0  0  0  0  0  0  0  0  0
    0.7468    0.8393    3.2771 C   0  0  0  0  0  0  0  0  0  0  0  0
    0.2952    0.2459    4.2545 O   0  0  0  0  0  0  0  0  0  0  0  0
    0.4482    2.2563    2.9330 C   0  0  0  0  0  0  0  0  0  0  0  0
   -0.2336    3.1382    3.7061 C   0  0  0  0  0  0  0  0  0  0  0  0
   -0.4285    4.3935    3.2810 O   0  0  0  0  0  0  0  0  0  0  0  0
   -0.7951    2.9366    5.0484 C   0  0  0  0  0  0  0  0  0  0  0  0
    0.0135    2.5282    6.1274 C   0  0  0  0  0  0  0  0  0  0  0  0
   -0.5615    2.3827    7.4048 C   0  0  0  0  0  0  0  0  0  0  0  0
   -1.9428    2.6703    7.5786 C   0  0  0  0  0  0  0  0  0  0  0  0
   -2.5823    2.5491    8.8313 N   0  0  0  0  0  0  0  0  0  0  0  0
   -1.7702    2.2494   10.0035 C   0  0  0  0  0  0  0  0  0  0  0  0
   -3.8716    3.2010    9.0521 C   0  0  0  0  0  0  0  0  0  0  0  0
   -2.6510    3.0764    6.4226 C   0  0  0  0  0  0  0  0  0  0  0  0
   -2.1064    3.2142    5.2063 N   0  0  0  0  0  0  0  0  0  0  0  0
    1.9951   -3.1543    1.8069 H   0  0  0  0  0  0  0  0  0  0  0  0
    3.3567   -2.0475    1.9110 H   0  0  0  0  0  0  0  0  0  0  0  0
    2.2179   -1.9270    0.5662 H   0  0  0  0  0  0  0  0  0  0  0  0
    0.8095    2.5867    1.9704 H   0  0  0  0  0  0  0  0  0  0  0  0
   -0.1871    4.4258    2.3440 H   0  0  0  0  0  0  0  0  0  0  0  0
    1.0610    2.3302    5.9762 H   0  0  0  0  0  0  0  0  0  0  0  0
    0.0589    2.0587    8.2233 H   0  0  0  0  0  0  0  0  0  0  0  0
   -1.2101    1.3241    9.8758 H   0  0  0  0  0  0  0  0  0  0  0  0
   -2.4066    2.1153   10.8768 H   0  0  0  0  0  0  0  0  0  0  0  0
   -1.0771    3.0653   10.2141 H   0  0  0  0  0  0  0  0  0  0  0  0
   -4.6380    2.8712    8.3489 H   0  0  0  0  0  0  0  0  0  0  0  0
   -3.7727    4.2868    8.9858 H   0  0  0  0  0  0  0  0  0  0  0  0
   -4.2528    2.9646   10.0459 H   0  0  0  0  0  0  0  0  0  0  0  0
   -3.7082    3.2952    6.4418 H   0  0  0  0  0  0  0  0  0  0  0  0
  1  2  1  0
  1 19  1  0
  1 20  1  0
  1 21  1  0
  2  3  1  0
  3  4  2  0
  3  5  1  0
  5  7  1  0
  5  6  2  0
  7  8  2  0
  7 22  1  0
  8 10  1  0
  8  9  1  0
  9 23  1  0
 10 18  2  0
 10 11  1  0
 11 12  2  0
 11 24  1  0
 12 13  1  0
 12 25  1  0
 13 14  1  0
 13 17  2  0
 14 15  1  0
 14 16  1  0
 15 26  1  0
 15 27  1  0
 15 28  1  0
 16 29  1  0
 16 30  1  0
 16 31  1  0
 17 18  1  0
 17 32  1  0
M  END
>  <i_m_ct_stereo_status>  (392) 
1

>  <s_m_source_file>  (392) 
/var/tmp/pbs.5102264.sched01/tmps1u238za/138cwx3dj4e.sdf

>  <i_m_source_file_index>  (392) 
3

>  <i_lp_mmshare_version>  (392) 
48012

>  <i_f3d_flags>  (392) 
0

>  <s_epik_input>  (392) 
W0NIM11PQyg9TylDKD1PKVtDSDJdQyg9TyljMVtjSF1bY0hdYyhbY0hdbjEpTihbQ0gzXSlbQ0gzXQ==

>  <s_epik_cmdline>  (392) 
J2VwaWtfcHl0aG9uJywgJy1waHQnLCAnMi4wJywgJy1waCcsICc3LjAnLCAnLXRuJywgJzgnLCAnLW1hJywgJzIwMCcsICctaW1hZScsICc8aW5maWxlLm1hZT4nLCAnLW9tYWUnLCAnPG91dGZpbGUubWFlPic=

>  <r_lp_tautomer_probability>  (392) 
0.0769231

>  <r_epik_Ionization_Penalty>  (392) 
0.121185

>  <r_epik_Ionization_Penalty_Charging>  (392) 
0

>  <r_epik_Ionization_Penalty_Neutral>  (392) 
0.121185

>  <r_epik_State_Penalty>  (392) 
1.57061

>  <r_epik_Charging_Adjusted_Penalty>  (392) 
1.57061

>  <i_epik_Tot_Q>  (392) 
0

>  <i_epik_Tot_abs_Q>  (392) 
0

>  <s_epik_Chemistry_Notes>  (392) 
This compound has an ester and may undergo hydrolysis at high or low pH.

>  <s_lp_Force_Field>  (392) 
OPLS3e

>  <r_lp_Energy>  (392) 
43.7291

>  <b_lp_Chiralities_Consistent>  (392) 
1

>  <s_lp_Variant>  (392) 
83:0-4

>  <s_i_glide_gridfile>  (392) 
pfpi4k_grid

>  <i_i_glide_lignum>  (392) 
3

>  <i_i_glide_rotatable_bonds>  (392) 
6

>  <r_i_docking_score>  (392) 
-3.1863

>  <r_i_glide_ligand_efficiency>  (392) 
-0.177017

>  <r_i_glide_ligand_efficiency_sa>  (392) 
-0.463916

>  <r_i_glide_ligand_efficiency_ln>  (392) 
-0.819023

>  <r_i_glide_gscore>  (392) 
-3.1863

>  <r_i_glide_lipo>  (392) 
-0.214505

>  <r_i_glide_hbond>  (392) 
-0.16

>  <r_i_glide_metal>  (392) 
-0

>  <r_i_glide_rewards>  (392) 
-1.70284

>  <r_i_glide_evdw>  (392) 
-19.2807

>  <r_i_glide_ecoul>  (392) 
-7.97296

>  <r_i_glide_erotb>  (392) 
1.11808

>  <r_i_glide_esite>  (392) 
-0.0670644

>  <r_i_glide_emodel>  (392) 
-33.432

>  <r_i_glide_energy>  (392) 
-27.2536

>  <r_i_glide_einternal>  (392) 
1.3656

>  <r_i_glide_intrahb_reward>  (392) 
-0

>  <i_i_glide_confnum>  (392) 
5

>  <i_i_glide_posenum>  (392) 
22

>  <r_i_glide_eff_state_penalty>  (392) 
0

>  <ligand_id>  (392) 
83

>  <original_smiles>  (392) 
COC(=O)C(=O)CC(=O)c1ccc(N(C)C)cn1

>  <smiles>  (392) 
[H]OC(=C([H])C(=O)C(=O)OC([H])([H])[H])c1nc([H])c(N(C([H])([H])[H])C([H])([H])[H])c([H])c1[H]

$$$$
83:3:2
     RDKit          3D

 32 32  0  0  1  0  0  0  0  0999 V2000
    3.2536    0.1297    1.1501 C   0  0  0  0  0  0  0  0  0  0  0  0
    2.2199    0.7292    1.9084 O   0  0  0  0  0  0  0  0  0  0  0  0
    1.3110   -0.0438    2.5374 C   0  0  0  0  0  0  0  0  0  0  0  0
    1.2779   -1.2748    2.5332 O   0  0  0  0  0  0  0  0  0  0  0  0
    0.2898    0.7813    3.3481 C   0  0  0  0  0  0  0  0  0  0  0  0
   -0.3167    0.2232    4.2655 O   0  0  0  0  0  0  0  0  0  0  0  0
    0.1116    2.2025    2.9653 C   0  0  0  0  0  0  0  0  0  0  0  0
   -0.4439    3.1653    3.7345 C   0  0  0  0  0  0  0  0  0  0  0  0
   -0.5069    4.4175    3.2827 O   0  0  0  0  0  0  0  0  0  0  0  0
   -0.9893    3.0225    5.0872 C   0  0  0  0  0  0  0  0  0  0  0  0
   -0.1345    3.0139    6.2079 C   0  0  0  0  0  0  0  0  0  0  0  0
   -0.7026    2.9677    7.4994 C   0  0  0  0  0  0  0  0  0  0  0  0
   -2.1164    2.9385    7.6416 C   0  0  0  0  0  0  0  0  0  0  0  0
   -2.7429    2.8873    8.9069 N   0  0  0  0  0  0  0  0  0  0  0  0
   -1.9140    2.8707   10.1069 C   0  0  0  0  0  0  0  0  0  0  0  0
   -4.1210    3.3484    9.0521 C   0  0  0  0  0  0  0  0  0  0  0  0
   -2.8660    2.9596    6.4380 C   0  0  0  0  0  0  0  0  0  0  0  0
   -2.3298    3.0128    5.2093 N   0  0  0  0  0  0  0  0  0  0  0  0
    3.8508    0.9182    0.6941 H   0  0  0  0  0  0  0  0  0  0  0  0
    2.8594   -0.4985    0.3496 H   0  0  0  0  0  0  0  0  0  0  0  0
    3.9194   -0.4678    1.7745 H   0  0  0  0  0  0  0  0  0  0  0  0
    0.4582    2.4865    1.9840 H   0  0  0  0  0  0  0  0  0  0  0  0
   -0.1860    4.4195    2.3654 H   0  0  0  0  0  0  0  0  0  0  0  0
    0.9326    3.0757    6.0828 H   0  0  0  0  0  0  0  0  0  0  0  0
   -0.0504    2.9830    8.3540 H   0  0  0  0  0  0  0  0  0  0  0  0
   -1.2147    2.0353   10.0910 H   0  0  0  0  0  0  0  0  0  0  0  0
   -2.5218    2.7582   11.0050 H   0  0  0  0  0  0  0  0  0  0  0  0
   -1.3568    3.8031   10.2042 H   0  0  0  0  0  0  0  0  0  0  0  0
   -4.8177    2.8283    8.3958 H   0  0  0  0  0  0  0  0  0  0  0  0
   -4.1849    4.4220    8.8704 H   0  0  0  0  0  0  0  0  0  0  0  0
   -4.4747    3.1814   10.0700 H   0  0  0  0  0  0  0  0  0  0  0  0
   -3.9443    2.9410    6.4411 H   0  0  0  0  0  0  0  0  0  0  0  0
  1  2  1  0
  1 19  1  0
  1 20  1  0
  1 21  1  0
  2  3  1  0
  3  4  2  0
  3  5  1  0
  5  7  1  0
  5  6  2  0
  7  8  2  0
  7 22  1  0
  8 10  1  0
  8  9  1  0
  9 23  1  0
 10 18  2  0
 10 11  1  0
 11 12  2  0
 11 24  1  0
 12 13  1  0
 12 25  1  0
 13 14  1  0
 13 17  2  0
 14 15  1  0
 14 16  1  0
 15 26  1  0
 15 27  1  0
 15 28  1  0
 16 29  1  0
 16 30  1  0
 16 31  1  0
 17 18  1  0
 17 32  1  0
M  END
>  <i_m_ct_stereo_status>  (393) 
1

>  <s_m_source_file>  (393) 
/var/tmp/pbs.5102264.sched01/tmps1u238za/138cwx3dj4e.sdf

>  <i_m_source_file_index>  (393) 
3

>  <i_lp_mmshare_version>  (393) 
48012

>  <i_f3d_flags>  (393) 
0

>  <s_epik_input>  (393) 
W0NIM11PQyg9TylDKD1PKVtDSDJdQyg9TyljMVtjSF1bY0hdYyhbY0hdbjEpTihbQ0gzXSlbQ0gzXQ==

>  <s_epik_cmdline>  (393) 
J2VwaWtfcHl0aG9uJywgJy1waHQnLCAnMi4wJywgJy1waCcsICc3LjAnLCAnLXRuJywgJzgnLCAnLW1hJywgJzIwMCcsICctaW1hZScsICc8aW5maWxlLm1hZT4nLCAnLW9tYWUnLCAnPG91dGZpbGUubWFlPic=

>  <r_lp_tautomer_probability>  (393) 
0.0769231

>  <r_epik_Ionization_Penalty>  (393) 
0.121185

>  <r_epik_Ionization_Penalty_Charging>  (393) 
0

>  <r_epik_Ionization_Penalty_Neutral>  (393) 
0.121185

>  <r_epik_State_Penalty>  (393) 
1.57061

>  <r_epik_Charging_Adjusted_Penalty>  (393) 
1.57061

>  <i_epik_Tot_Q>  (393) 
0

>  <i_epik_Tot_abs_Q>  (393) 
0

>  <s_epik_Chemistry_Notes>  (393) 
This compound has an ester and may undergo hydrolysis at high or low pH.

>  <s_lp_Force_Field>  (393) 
OPLS3e

>  <r_lp_Energy>  (393) 
43.7291

>  <b_lp_Chiralities_Consistent>  (393) 
1

>  <s_lp_Variant>  (393) 
83:0-4

>  <s_i_glide_gridfile>  (393) 
pfpi4k_grid

>  <i_i_glide_lignum>  (393) 
3

>  <i_i_glide_rotatable_bonds>  (393) 
6

>  <r_i_docking_score>  (393) 
-3.09234

>  <r_i_glide_ligand_efficiency>  (393) 
-0.171797

>  <r_i_glide_ligand_efficiency_sa>  (393) 
-0.450235

>  <r_i_glide_ligand_efficiency_ln>  (393) 
-0.794871

>  <r_i_glide_gscore>  (393) 
-3.09234

>  <r_i_glide_lipo>  (393) 
-0.288496

>  <r_i_glide_hbond>  (393) 
-0.16

>  <r_i_glide_metal>  (393) 
-0

>  <r_i_glide_rewards>  (393) 
-1.70284

>  <r_i_glide_evdw>  (393) 
-20.5554

>  <r_i_glide_ecoul>  (393) 
-6.41835

>  <r_i_glide_erotb>  (393) 
1.11808

>  <r_i_glide_esite>  (393) 
-0.0685658

>  <r_i_glide_emodel>  (393) 
-31.9023

>  <r_i_glide_energy>  (393) 
-26.9737

>  <r_i_glide_einternal>  (393) 
3.51092

>  <r_i_glide_intrahb_reward>  (393) 
-0

>  <i_i_glide_confnum>  (393) 
5

>  <i_i_glide_posenum>  (393) 
14

>  <r_i_glide_eff_state_penalty>  (393) 
0

>  <ligand_id>  (393) 
83

>  <original_smiles>  (393) 
COC(=O)C(=O)CC(=O)c1ccc(N(C)C)cn1

>  <smiles>  (393) 
[H]OC(=C([H])C(=O)C(=O)OC([H])([H])[H])c1nc([H])c(N(C([H])([H])[H])C([H])([H])[H])c([H])c1[H]

$$$$
83:4:0
     RDKit          3D

 32 32  0  0  1  0  0  0  0  0999 V2000
    4.8778   -2.3705   -2.4611 C   0  0  0  0  0  0  0  0  0  0  0  0
    4.8775   -1.4706   -1.3623 O   0  0  0  0  0  0  0  0  0  0  0  0
    4.2708   -1.8341   -0.2142 C   0  0  0  0  0  0  0  0  0  0  0  0
    3.7127   -2.9093    0.0069 O   0  0  0  0  0  0  0  0  0  0  0  0
    4.3245   -0.7323    0.8605 C   0  0  0  0  0  0  0  0  0  0  0  0
    5.4192   -0.3535    1.2896 O   0  0  0  0  0  0  0  0  0  0  0  0
    3.0259   -0.2031    1.3197 C   0  0  0  0  0  0  0  0  0  0  0  0
    2.7991    0.3822    2.5187 C   0  0  0  0  0  0  0  0  0  0  0  0
    3.7795    0.4993    3.4322 O   0  0  0  0  0  0  0  0  0  0  0  0
    1.4768    0.9371    2.9392 C   0  0  0  0  0  0  0  0  0  0  0  0
    0.3742    0.9740    2.0581 C   0  0  0  0  0  0  0  0  0  0  0  0
   -0.8484    1.5224    2.4790 C   0  0  0  0  0  0  0  0  0  0  0  0
   -0.9770    2.0330    3.7917 C   0  0  0  0  0  0  0  0  0  0  0  0
   -2.1875    2.6084    4.2567 N   0  0  0  0  0  0  0  0  0  0  0  0
   -3.1919    3.0100    3.2790 C   0  0  0  0  0  0  0  0  0  0  0  0
   -2.2385    3.1945    5.5882 C   0  0  0  0  0  0  0  0  0  0  0  0
    0.1795    1.9400    4.6053 C   0  0  0  0  0  0  0  0  0  0  0  0
    1.3555    1.4136    4.2024 N   0  0  0  0  0  0  0  0  0  0  0  0
    5.3974   -1.9227   -3.3062 H   0  0  0  0  0  0  0  0  0  0  0  0
    3.8646   -2.5977   -2.7863 H   0  0  0  0  0  0  0  0  0  0  0  0
    5.3824   -3.3092   -2.2269 H   0  0  0  0  0  0  0  0  0  0  0  0
    2.2242   -0.3060    0.6144 H   0  0  0  0  0  0  0  0  0  0  0  0
    4.5705    0.1526    3.0402 H   0  0  0  0  0  0  0  0  0  0  0  0
    0.4241    0.6112    1.0427 H   0  0  0  0  0  0  0  0  0  0  0  0
   -1.6677    1.5304    1.7742 H   0  0  0  0  0  0  0  0  0  0  0  0
   -3.4604    2.1898    2.6183 H   0  0  0  0  0  0  0  0  0  0  0  0
   -2.8172    3.8296    2.6680 H   0  0  0  0  0  0  0  0  0  0  0  0
   -4.1037    3.3364    3.7700 H   0  0  0  0  0  0  0  0  0  0  0  0
   -1.5868    4.0686    5.6441 H   0  0  0  0  0  0  0  0  0  0  0  0
   -1.9406    2.4782    6.3529 H   0  0  0  0  0  0  0  0  0  0  0  0
   -3.2518    3.5114    5.8294 H   0  0  0  0  0  0  0  0  0  0  0  0
    0.1858    2.2962    5.6248 H   0  0  0  0  0  0  0  0  0  0  0  0
  1  2  1  0
  1 19  1  0
  1 20  1  0
  1 21  1  0
  2  3  1  0
  3  4  2  0
  3  5  1  0
  5  7  1  0
  5  6  2  0
  7  8  2  0
  7 22  1  0
  8 10  1  0
  8  9  1  0
  9 23  1  0
 10 18  2  0
 10 11  1  0
 11 12  2  0
 11 24  1  0
 12 13  1  0
 12 25  1  0
 13 14  1  0
 13 17  2  0
 14 15  1  0
 14 16  1  0
 15 26  1  0
 15 27  1  0
 15 28  1  0
 16 29  1  0
 16 30  1  0
 16 31  1  0
 17 18  1  0
 17 32  1  0
M  END
>  <i_m_ct_stereo_status>  (394) 
1

>  <s_m_source_file>  (394) 
/var/tmp/pbs.5102264.sched01/tmps1u238za/138cwx3dj4e.sdf

>  <i_m_source_file_index>  (394) 
4

>  <i_lp_mmshare_version>  (394) 
48012

>  <i_f3d_flags>  (394) 
0

>  <s_epik_input>  (394) 
W0NIM11PQyg9TylDKD1PKVtDSDJdQyg9TyljMVtjSF1bY0hdYyhbY0hdbjEpTihbQ0gzXSlbQ0gzXQ==

>  <s_epik_cmdline>  (394) 
J2VwaWtfcHl0aG9uJywgJy1waHQnLCAnMi4wJywgJy1waCcsICc3LjAnLCAnLXRuJywgJzgnLCAnLW1hJywgJzIwMCcsICctaW1hZScsICc8aW5maWxlLm1hZT4nLCAnLW9tYWUnLCAnPG91dGZpbGUubWFlPic=

>  <r_lp_tautomer_probability>  (394) 
0.0769231

>  <r_epik_Ionization_Penalty>  (394) 
0.121185

>  <r_epik_Ionization_Penalty_Charging>  (394) 
0

>  <r_epik_Ionization_Penalty_Neutral>  (394) 
0.121185

>  <r_epik_State_Penalty>  (394) 
1.57061

>  <r_epik_Charging_Adjusted_Penalty>  (394) 
1.57061

>  <i_epik_Tot_Q>  (394) 
0

>  <i_epik_Tot_abs_Q>  (394) 
0

>  <s_epik_Chemistry_Notes>  (394) 
This compound has an ester and may undergo hydrolysis at high or low pH.

>  <s_lp_Force_Field>  (394) 
OPLS3e

>  <r_lp_Energy>  (394) 
43.3262

>  <b_lp_Chiralities_Consistent>  (394) 
1

>  <s_lp_Variant>  (394) 
83:0-5

>  <s_i_glide_gridfile>  (394) 
pfpi4k_grid

>  <i_i_glide_lignum>  (394) 
4

>  <i_i_glide_rotatable_bonds>  (394) 
6

>  <r_i_docking_score>  (394) 
-2.79528

>  <r_i_glide_ligand_efficiency>  (394) 
-0.155293

>  <r_i_glide_ligand_efficiency_sa>  (394) 
-0.406983

>  <r_i_glide_ligand_efficiency_ln>  (394) 
-0.718511

>  <r_i_glide_gscore>  (394) 
-2.79528

>  <r_i_glide_lipo>  (394) 
-0.151973

>  <r_i_glide_hbond>  (394) 
-0.108447

>  <r_i_glide_metal>  (394) 
-0

>  <r_i_glide_rewards>  (394) 
-2.30775

>  <r_i_glide_evdw>  (394) 
-22.8016

>  <r_i_glide_ecoul>  (394) 
-1.01677

>  <r_i_glide_erotb>  (394) 
1.11808

>  <r_i_glide_esite>  (394) 
-0.0525888

>  <r_i_glide_emodel>  (394) 
-32.7917

>  <r_i_glide_energy>  (394) 
-23.8183

>  <r_i_glide_einternal>  (394) 
2.2834

>  <r_i_glide_intrahb_reward>  (394) 
-0.5

>  <i_i_glide_confnum>  (394) 
5

>  <i_i_glide_posenum>  (394) 
2

>  <r_i_glide_eff_state_penalty>  (394) 
0

>  <ligand_id>  (394) 
83

>  <original_smiles>  (394) 
COC(=O)C(=O)CC(=O)c1ccc(N(C)C)cn1

>  <smiles>  (394) 
[H]OC(=C([H])C(=O)C(=O)OC([H])([H])[H])c1nc([H])c(N(C([H])([H])[H])C([H])([H])[H])c([H])c1[H]

$$$$
83:4:1
     RDKit          3D

 32 32  0  0  1  0  0  0  0  0999 V2000
   -1.6019   -8.6772    2.8353 C   0  0  0  0  0  0  0  0  0  0  0  0
   -0.2070   -8.5631    2.6343 O   0  0  0  0  0  0  0  0  0  0  0  0
    0.6020   -9.6144    2.8745 C   0  0  0  0  0  0  0  0  0  0  0  0
    0.2450  -10.7125    3.2968 O   0  0  0  0  0  0  0  0  0  0  0  0
    2.0874   -9.3231    2.5382 C   0  0  0  0  0  0  0  0  0  0  0  0
    2.9343  -10.1722    2.8232 O   0  0  0  0  0  0  0  0  0  0  0  0
    2.4166   -8.0186    1.9140 C   0  0  0  0  0  0  0  0  0  0  0  0
    3.6245   -7.6702    1.4267 C   0  0  0  0  0  0  0  0  0  0  0  0
    4.6681   -8.5178    1.4384 O   0  0  0  0  0  0  0  0  0  0  0  0
    3.8910   -6.3340    0.8253 C   0  0  0  0  0  0  0  0  0  0  0  0
    5.2009   -5.9479    0.4865 C   0  0  0  0  0  0  0  0  0  0  0  0
    5.4301   -4.6842   -0.0734 C   0  0  0  0  0  0  0  0  0  0  0  0
    4.3536   -3.8001   -0.3005 C   0  0  0  0  0  0  0  0  0  0  0  0
    4.5622   -2.5159   -0.8623 N   0  0  0  0  0  0  0  0  0  0  0  0
    3.4150   -1.6429   -1.0746 C   0  0  0  0  0  0  0  0  0  0  0  0
    5.7666   -2.2615   -1.6370 C   0  0  0  0  0  0  0  0  0  0  0  0
    3.0742   -4.2704    0.0821 C   0  0  0  0  0  0  0  0  0  0  0  0
    2.8495   -5.4854    0.6350 N   0  0  0  0  0  0  0  0  0  0  0  0
   -2.0687   -7.7250    2.5902 H   0  0  0  0  0  0  0  0  0  0  0  0
   -1.8423   -8.9089    3.8707 H   0  0  0  0  0  0  0  0  0  0  0  0
   -2.0424   -9.4375    2.1918 H   0  0  0  0  0  0  0  0  0  0  0  0
    1.6279   -7.2931    1.8470 H   0  0  0  0  0  0  0  0  0  0  0  0
    4.3653   -9.3290    1.8367 H   0  0  0  0  0  0  0  0  0  0  0  0
    6.0353   -6.6109    0.6509 H   0  0  0  0  0  0  0  0  0  0  0  0
    6.4433   -4.4175   -0.3237 H   0  0  0  0  0  0  0  0  0  0  0  0
    2.8745   -1.4851   -0.1430 H   0  0  0  0  0  0  0  0  0  0  0  0
    2.7384   -2.0736   -1.8111 H   0  0  0  0  0  0  0  0  0  0  0  0
    3.7278   -0.6657   -1.4383 H   0  0  0  0  0  0  0  0  0  0  0  0
    5.7742   -2.8792   -2.5342 H   0  0  0  0  0  0  0  0  0  0  0  0
    6.6719   -2.4503   -1.0657 H   0  0  0  0  0  0  0  0  0  0  0  0
    5.8018   -1.2198   -1.9446 H   0  0  0  0  0  0  0  0  0  0  0  0
    2.1859   -3.6687   -0.0441 H   0  0  0  0  0  0  0  0  0  0  0  0
  1  2  1  0
  1 19  1  0
  1 20  1  0
  1 21  1  0
  2  3  1  0
  3  4  2  0
  3  5  1  0
  5  7  1  0
  5  6  2  0
  7  8  2  0
  7 22  1  0
  8 10  1  0
  8  9  1  0
  9 23  1  0
 10 18  2  0
 10 11  1  0
 11 12  2  0
 11 24  1  0
 12 13  1  0
 12 25  1  0
 13 14  1  0
 13 17  2  0
 14 15  1  0
 14 16  1  0
 15 26  1  0
 15 27  1  0
 15 28  1  0
 16 29  1  0
 16 30  1  0
 16 31  1  0
 17 18  1  0
 17 32  1  0
M  END
>  <i_m_ct_stereo_status>  (395) 
1

>  <s_m_source_file>  (395) 
/var/tmp/pbs.5102264.sched01/tmps1u238za/138cwx3dj4e.sdf

>  <i_m_source_file_index>  (395) 
4

>  <i_lp_mmshare_version>  (395) 
48012

>  <i_f3d_flags>  (395) 
0

>  <s_epik_input>  (395) 
W0NIM11PQyg9TylDKD1PKVtDSDJdQyg9TyljMVtjSF1bY0hdYyhbY0hdbjEpTihbQ0gzXSlbQ0gzXQ==

>  <s_epik_cmdline>  (395) 
J2VwaWtfcHl0aG9uJywgJy1waHQnLCAnMi4wJywgJy1waCcsICc3LjAnLCAnLXRuJywgJzgnLCAnLW1hJywgJzIwMCcsICctaW1hZScsICc8aW5maWxlLm1hZT4nLCAnLW9tYWUnLCAnPG91dGZpbGUubWFlPic=

>  <r_lp_tautomer_probability>  (395) 
0.0769231

>  <r_epik_Ionization_Penalty>  (395) 
0.121185

>  <r_epik_Ionization_Penalty_Charging>  (395) 
0

>  <r_epik_Ionization_Penalty_Neutral>  (395) 
0.121185

>  <r_epik_State_Penalty>  (395) 
1.57061

>  <r_epik_Charging_Adjusted_Penalty>  (395) 
1.57061

>  <i_epik_Tot_Q>  (395) 
0

>  <i_epik_Tot_abs_Q>  (395) 
0

>  <s_epik_Chemistry_Notes>  (395) 
This compound has an ester and may undergo hydrolysis at high or low pH.

>  <s_lp_Force_Field>  (395) 
OPLS3e

>  <r_lp_Energy>  (395) 
43.3262

>  <b_lp_Chiralities_Consistent>  (395) 
1

>  <s_lp_Variant>  (395) 
83:0-5

>  <s_i_glide_gridfile>  (395) 
pfpi4k_grid

>  <i_i_glide_lignum>  (395) 
4

>  <i_i_glide_rotatable_bonds>  (395) 
6

>  <r_i_docking_score>  (395) 
-2.70519

>  <r_i_glide_ligand_efficiency>  (395) 
-0.150288

>  <r_i_glide_ligand_efficiency_sa>  (395) 
-0.393866

>  <r_i_glide_ligand_efficiency_ln>  (395) 
-0.695354

>  <r_i_glide_gscore>  (395) 
-2.70519

>  <r_i_glide_lipo>  (395) 
-0.301849

>  <r_i_glide_hbond>  (395) 
0

>  <r_i_glide_metal>  (395) 
-0

>  <r_i_glide_rewards>  (395) 
-2.27064

>  <r_i_glide_evdw>  (395) 
-24.3797

>  <r_i_glide_ecoul>  (395) 
-0.113305

>  <r_i_glide_erotb>  (395) 
1.11808

>  <r_i_glide_esite>  (395) 
-0.0147953

>  <r_i_glide_emodel>  (395) 
-33.9975

>  <r_i_glide_energy>  (395) 
-24.493

>  <r_i_glide_einternal>  (395) 
1.00551

>  <r_i_glide_intrahb_reward>  (395) 
-0.5

>  <i_i_glide_confnum>  (395) 
3

>  <i_i_glide_posenum>  (395) 
14

>  <r_i_glide_eff_state_penalty>  (395) 
0

>  <ligand_id>  (395) 
83

>  <original_smiles>  (395) 
COC(=O)C(=O)CC(=O)c1ccc(N(C)C)cn1

>  <smiles>  (395) 
[H]OC(=C([H])C(=O)C(=O)OC([H])([H])[H])c1nc([H])c(N(C([H])([H])[H])C([H])([H])[H])c([H])c1[H]

$$$$
83:4:2
     RDKit          3D

 32 32  0  0  1  0  0  0  0  0999 V2000
    4.8667   -4.0961   -4.2927 C   0  0  0  0  0  0  0  0  0  0  0  0
    5.1137   -3.1405   -3.2719 O   0  0  0  0  0  0  0  0  0  0  0  0
    4.1133   -2.7192   -2.4709 C   0  0  0  0  0  0  0  0  0  0  0  0
    2.9253   -3.0189   -2.5945 O   0  0  0  0  0  0  0  0  0  0  0  0
    4.6203   -1.8082   -1.3210 C   0  0  0  0  0  0  0  0  0  0  0  0
    5.8064   -1.4512   -1.3157 O   0  0  0  0  0  0  0  0  0  0  0  0
    3.6380   -1.4178   -0.2729 C   0  0  0  0  0  0  0  0  0  0  0  0
    3.9196   -0.6801    0.8212 C   0  0  0  0  0  0  0  0  0  0  0  0
    5.1664   -0.2723    1.1002 O   0  0  0  0  0  0  0  0  0  0  0  0
    2.9101   -0.3055    1.8360 C   0  0  0  0  0  0  0  0  0  0  0  0
    1.8757   -1.1921    2.1941 C   0  0  0  0  0  0  0  0  0  0  0  0
    0.9264   -0.7880    3.1538 C   0  0  0  0  0  0  0  0  0  0  0  0
    1.0088    0.5017    3.7372 C   0  0  0  0  0  0  0  0  0  0  0  0
    0.0680    0.9479    4.7052 N   0  0  0  0  0  0  0  0  0  0  0  0
   -1.1976    0.2380    4.8404 C   0  0  0  0  0  0  0  0  0  0  0  0
    0.1273    2.3282    5.1722 C   0  0  0  0  0  0  0  0  0  0  0  0
    2.0885    1.3105    3.2986 C   0  0  0  0  0  0  0  0  0  0  0  0
    3.0039    0.9227    2.3863 N   0  0  0  0  0  0  0  0  0  0  0  0
    5.7700   -4.2567   -4.8762 H   0  0  0  0  0  0  0  0  0  0  0  0
    4.0860   -3.7758   -4.9792 H   0  0  0  0  0  0  0  0  0  0  0  0
    4.5935   -5.0587   -3.8709 H   0  0  0  0  0  0  0  0  0  0  0  0
    2.6271   -1.7471   -0.4068 H   0  0  0  0  0  0  0  0  0  0  0  0
    5.7109   -0.5618    0.3819 H   0  0  0  0  0  0  0  0  0  0  0  0
    1.8147   -2.1734    1.7464 H   0  0  0  0  0  0  0  0  0  0  0  0
    0.1455   -1.4830    3.4288 H   0  0  0  0  0  0  0  0  0  0  0  0
   -1.0502   -0.8160    5.0709 H   0  0  0  0  0  0  0  0  0  0  0  0
   -1.7800    0.3326    3.9247 H   0  0  0  0  0  0  0  0  0  0  0  0
   -1.7889    0.6551    5.6510 H   0  0  0  0  0  0  0  0  0  0  0  0
   -0.0808    3.0218    4.3545 H   0  0  0  0  0  0  0  0  0  0  0  0
    1.0993    2.5623    5.6056 H   0  0  0  0  0  0  0  0  0  0  0  0
   -0.6111    2.5071    5.9530 H   0  0  0  0  0  0  0  0  0  0  0  0
    2.2527    2.3067    3.6857 H   0  0  0  0  0  0  0  0  0  0  0  0
  1  2  1  0
  1 19  1  0
  1 20  1  0
  1 21  1  0
  2  3  1  0
  3  4  2  0
  3  5  1  0
  5  7  1  0
  5  6  2  0
  7  8  2  0
  7 22  1  0
  8 10  1  0
  8  9  1  0
  9 23  1  0
 10 18  2  0
 10 11  1  0
 11 12  2  0
 11 24  1  0
 12 13  1  0
 12 25  1  0
 13 14  1  0
 13 17  2  0
 14 15  1  0
 14 16  1  0
 15 26  1  0
 15 27  1  0
 15 28  1  0
 16 29  1  0
 16 30  1  0
 16 31  1  0
 17 18  1  0
 17 32  1  0
M  END
>  <i_m_ct_stereo_status>  (396) 
1

>  <s_m_source_file>  (396) 
/var/tmp/pbs.5102264.sched01/tmps1u238za/138cwx3dj4e.sdf

>  <i_m_source_file_index>  (396) 
4

>  <i_lp_mmshare_version>  (396) 
48012

>  <i_f3d_flags>  (396) 
0

>  <s_epik_input>  (396) 
W0NIM11PQyg9TylDKD1PKVtDSDJdQyg9TyljMVtjSF1bY0hdYyhbY0hdbjEpTihbQ0gzXSlbQ0gzXQ==

>  <s_epik_cmdline>  (396) 
J2VwaWtfcHl0aG9uJywgJy1waHQnLCAnMi4wJywgJy1waCcsICc3LjAnLCAnLXRuJywgJzgnLCAnLW1hJywgJzIwMCcsICctaW1hZScsICc8aW5maWxlLm1hZT4nLCAnLW9tYWUnLCAnPG91dGZpbGUubWFlPic=

>  <r_lp_tautomer_probability>  (396) 
0.0769231

>  <r_epik_Ionization_Penalty>  (396) 
0.121185

>  <r_epik_Ionization_Penalty_Charging>  (396) 
0

>  <r_epik_Ionization_Penalty_Neutral>  (396) 
0.121185

>  <r_epik_State_Penalty>  (396) 
1.57061

>  <r_epik_Charging_Adjusted_Penalty>  (396) 
1.57061

>  <i_epik_Tot_Q>  (396) 
0

>  <i_epik_Tot_abs_Q>  (396) 
0

>  <s_epik_Chemistry_Notes>  (396) 
This compound has an ester and may undergo hydrolysis at high or low pH.

>  <s_lp_Force_Field>  (396) 
OPLS3e

>  <r_lp_Energy>  (396) 
43.3262

>  <b_lp_Chiralities_Consistent>  (396) 
1

>  <s_lp_Variant>  (396) 
83:0-5

>  <s_i_glide_gridfile>  (396) 
pfpi4k_grid

>  <i_i_glide_lignum>  (396) 
4

>  <i_i_glide_rotatable_bonds>  (396) 
6

>  <r_i_docking_score>  (396) 
-2.61076

>  <r_i_glide_ligand_efficiency>  (396) 
-0.145042

>  <r_i_glide_ligand_efficiency_sa>  (396) 
-0.380119

>  <r_i_glide_ligand_efficiency_ln>  (396) 
-0.671084

>  <r_i_glide_gscore>  (396) 
-2.61076

>  <r_i_glide_lipo>  (396) 
-0.0116526

>  <r_i_glide_hbond>  (396) 
-0.0704783

>  <r_i_glide_metal>  (396) 
-0

>  <r_i_glide_rewards>  (396) 
-2.21572

>  <r_i_glide_evdw>  (396) 
-23.6203

>  <r_i_glide_ecoul>  (396) 
-1.36966

>  <r_i_glide_erotb>  (396) 
1.11808

>  <r_i_glide_esite>  (396) 
-0.0445269

>  <r_i_glide_emodel>  (396) 
-34.1669

>  <r_i_glide_energy>  (396) 
-24.9899

>  <r_i_glide_einternal>  (396) 
1.28025

>  <r_i_glide_intrahb_reward>  (396) 
-0.5

>  <i_i_glide_confnum>  (396) 
6

>  <i_i_glide_posenum>  (396) 
36

>  <r_i_glide_eff_state_penalty>  (396) 
0

>  <ligand_id>  (396) 
83

>  <original_smiles>  (396) 
COC(=O)C(=O)CC(=O)c1ccc(N(C)C)cn1

>  <smiles>  (396) 
[H]OC(=C([H])C(=O)C(=O)OC([H])([H])[H])c1nc([H])c(N(C([H])([H])[H])C([H])([H])[H])c([H])c1[H]

$$$$
83:5:0
     RDKit          3D

 32 32  0  0  1  0  0  0  0  0999 V2000
    2.2903   -2.5299   -3.9035 C   0  0  0  0  0  0  0  0  0  0  0  0
    2.6508   -3.0528   -2.6370 O   0  0  0  0  0  0  0  0  0  0  0  0
    3.9391   -3.0012   -2.2427 C   0  0  0  0  0  0  0  0  0  0  0  0
    4.8267   -2.4224   -2.8748 O   0  0  0  0  0  0  0  0  0  0  0  0
    4.1819   -3.7240   -0.9575 C   0  0  0  0  0  0  0  0  0  0  0  0
    5.4404   -3.6377   -0.4802 O   0  0  0  0  0  0  0  0  0  0  0  0
    3.2104   -4.4173   -0.3298 C   0  0  0  0  0  0  0  0  0  0  0  0
    3.3869   -5.1631    0.9373 C   0  0  0  0  0  0  0  0  0  0  0  0
    4.4713   -5.1400    1.5346 O   0  0  0  0  0  0  0  0  0  0  0  0
    2.2285   -5.9179    1.5015 C   0  0  0  0  0  0  0  0  0  0  0  0
    2.2536   -6.2667    2.8593 C   0  0  0  0  0  0  0  0  0  0  0  0
    1.1902   -6.9945    3.4201 C   0  0  0  0  0  0  0  0  0  0  0  0
    0.0907   -7.3535    2.6000 C   0  0  0  0  0  0  0  0  0  0  0  0
   -1.0194   -8.0771    3.1062 N   0  0  0  0  0  0  0  0  0  0  0  0
   -1.3700   -9.2664    2.3430 C   0  0  0  0  0  0  0  0  0  0  0  0
   -1.0750   -8.2615    4.5499 C   0  0  0  0  0  0  0  0  0  0  0  0
    0.1721   -6.9722    1.2401 C   0  0  0  0  0  0  0  0  0  0  0  0
    1.1823   -6.2602    0.6988 N   0  0  0  0  0  0  0  0  0  0  0  0
    1.2196   -2.6610   -4.0728 H   0  0  0  0  0  0  0  0  0  0  0  0
    2.8362   -3.0509   -4.6937 H   0  0  0  0  0  0  0  0  0  0  0  0
    2.5232   -1.4642   -3.9584 H   0  0  0  0  0  0  0  0  0  0  0  0
    2.2197   -4.4613   -0.7588 H   0  0  0  0  0  0  0  0  0  0  0  0
    5.4513   -4.1334    0.3240 H   0  0  0  0  0  0  0  0  0  0  0  0
    3.1002   -5.9958    3.4798 H   0  0  0  0  0  0  0  0  0  0  0  0
    1.2494   -7.2429    4.4649 H   0  0  0  0  0  0  0  0  0  0  0  0
   -1.5037   -9.0626    1.2821 H   0  0  0  0  0  0  0  0  0  0  0  0
   -2.2974   -9.7093    2.7054 H   0  0  0  0  0  0  0  0  0  0  0  0
   -0.5840  -10.0119    2.4491 H   0  0  0  0  0  0  0  0  0  0  0  0
   -0.9508   -7.3178    5.0823 H   0  0  0  0  0  0  0  0  0  0  0  0
   -0.2866   -8.9487    4.8605 H   0  0  0  0  0  0  0  0  0  0  0  0
   -2.0168   -8.6940    4.8701 H   0  0  0  0  0  0  0  0  0  0  0  0
   -0.6271   -7.2049    0.5506 H   0  0  0  0  0  0  0  0  0  0  0  0
  1  2  1  0
  1 19  1  0
  1 20  1  0
  1 21  1  0
  2  3  1  0
  3  4  2  0
  3  5  1  0
  5  7  2  0
  5  6  1  0
  6 23  1  0
  7  8  1  0
  7 22  1  0
  8 10  1  0
  8  9  2  0
 10 18  2  0
 10 11  1  0
 11 12  2  0
 11 24  1  0
 12 13  1  0
 12 25  1  0
 13 14  1  0
 13 17  2  0
 14 15  1  0
 14 16  1  0
 15 26  1  0
 15 27  1  0
 15 28  1  0
 16 29  1  0
 16 30  1  0
 16 31  1  0
 17 18  1  0
 17 32  1  0
M  END
>  <i_m_ct_stereo_status>  (397) 
1

>  <s_m_source_file>  (397) 
/var/tmp/pbs.5102264.sched01/tmps1u238za/138cwx3dj4e.sdf

>  <i_m_source_file_index>  (397) 
5

>  <i_lp_mmshare_version>  (397) 
48012

>  <i_f3d_flags>  (397) 
0

>  <s_epik_input>  (397) 
W0NIM11PQyg9TylDKD1PKVtDSDJdQyg9TyljMVtjSF1bY0hdYyhbY0hdbjEpTihbQ0gzXSlbQ0gzXQ==

>  <s_epik_cmdline>  (397) 
J2VwaWtfcHl0aG9uJywgJy1waHQnLCAnMi4wJywgJy1waCcsICc3LjAnLCAnLXRuJywgJzgnLCAnLW1hJywgJzIwMCcsICctaW1hZScsICc8aW5maWxlLm1hZT4nLCAnLW9tYWUnLCAnPG91dGZpbGUubWFlPic=

>  <r_lp_tautomer_probability>  (397) 
0.0769231

>  <r_epik_Ionization_Penalty>  (397) 
1.16548

>  <r_epik_Ionization_Penalty_Charging>  (397) 
0

>  <r_epik_Ionization_Penalty_Neutral>  (397) 
1.16548

>  <r_epik_State_Penalty>  (397) 
2.07068

>  <r_epik_Charging_Adjusted_Penalty>  (397) 
2.07068

>  <i_epik_Tot_Q>  (397) 
0

>  <i_epik_Tot_abs_Q>  (397) 
0

>  <s_epik_Chemistry_Notes>  (397) 
This compound has an ester and may undergo hydrolysis at high or low pH.

>  <s_lp_Force_Field>  (397) 
OPLS3e

>  <r_lp_Energy>  (397) 
42.8682

>  <b_lp_Chiralities_Consistent>  (397) 
1

>  <s_lp_Variant>  (397) 
83:0-6

>  <s_i_glide_gridfile>  (397) 
pfpi4k_grid

>  <i_i_glide_lignum>  (397) 
5

>  <i_i_glide_rotatable_bonds>  (397) 
6

>  <r_i_docking_score>  (397) 
-3.86736

>  <r_i_glide_ligand_efficiency>  (397) 
-0.214853

>  <r_i_glide_ligand_efficiency_sa>  (397) 
-0.563075

>  <r_i_glide_ligand_efficiency_ln>  (397) 
-0.994084

>  <r_i_glide_gscore>  (397) 
-3.86736

>  <r_i_glide_lipo>  (397) 
-0.473778

>  <r_i_glide_hbond>  (397) 
-0.155686

>  <r_i_glide_metal>  (397) 
-0

>  <r_i_glide_rewards>  (397) 
-2.20284

>  <r_i_glide_evdw>  (397) 
-27.1187

>  <r_i_glide_ecoul>  (397) 
-4.75835

>  <r_i_glide_erotb>  (397) 
1.11808

>  <r_i_glide_esite>  (397) 
-0.0834467

>  <r_i_glide_emodel>  (397) 
-42.0562

>  <r_i_glide_energy>  (397) 
-31.8771

>  <r_i_glide_einternal>  (397) 
5.00242

>  <r_i_glide_intrahb_reward>  (397) 
-0.5

>  <i_i_glide_confnum>  (397) 
4

>  <i_i_glide_posenum>  (397) 
37

>  <r_i_glide_eff_state_penalty>  (397) 
0

>  <ligand_id>  (397) 
83

>  <original_smiles>  (397) 
COC(=O)C(=O)CC(=O)c1ccc(N(C)C)cn1

>  <smiles>  (397) 
[H]OC(C(=O)OC([H])([H])[H])=C([H])C(=O)c1nc([H])c(N(C([H])([H])[H])C([H])([H])[H])c([H])c1[H]

$$$$
83:5:1
     RDKit          3D

 32 32  0  0  1  0  0  0  0  0999 V2000
   -1.9139    2.2404    4.2161 C   0  0  0  0  0  0  0  0  0  0  0  0
   -1.1450    1.0515    4.1247 O   0  0  0  0  0  0  0  0  0  0  0  0
   -1.3463    0.0462    5.0053 C   0  0  0  0  0  0  0  0  0  0  0  0
   -2.1554    0.1043    5.9395 O   0  0  0  0  0  0  0  0  0  0  0  0
   -0.4893   -1.1463    4.7502 C   0  0  0  0  0  0  0  0  0  0  0  0
   -0.7119   -2.1949    5.5612 O   0  0  0  0  0  0  0  0  0  0  0  0
    0.4444   -1.1654    3.7646 C   0  0  0  0  0  0  0  0  0  0  0  0
    1.3287   -2.3146    3.4536 C   0  0  0  0  0  0  0  0  0  0  0  0
    1.2674   -3.3612    4.1042 O   0  0  0  0  0  0  0  0  0  0  0  0
    2.2677   -2.1835    2.2933 C   0  0  0  0  0  0  0  0  0  0  0  0
    2.7421   -0.9336    1.8370 C   0  0  0  0  0  0  0  0  0  0  0  0
    3.5999   -0.8899    0.7227 C   0  0  0  0  0  0  0  0  0  0  0  0
    3.9763   -2.0830    0.0719 C   0  0  0  0  0  0  0  0  0  0  0  0
    4.8287   -2.0499   -1.0602 N   0  0  0  0  0  0  0  0  0  0  0  0
    5.4445   -3.3128   -1.4517 C   0  0  0  0  0  0  0  0  0  0  0  0
    4.3117   -1.2435   -2.1604 C   0  0  0  0  0  0  0  0  0  0  0  0
    3.4487   -3.2848    0.6078 C   0  0  0  0  0  0  0  0  0  0  0  0
    2.6273   -3.3359    1.6801 N   0  0  0  0  0  0  0  0  0  0  0  0
   -1.6091    2.9434    3.4397 H   0  0  0  0  0  0  0  0  0  0  0  0
   -1.7734    2.7208    5.1873 H   0  0  0  0  0  0  0  0  0  0  0  0
   -2.9761    2.0277    4.0787 H   0  0  0  0  0  0  0  0  0  0  0  0
    0.5642   -0.3000    3.1413 H   0  0  0  0  0  0  0  0  0  0  0  0
   -0.0996   -2.8739    5.2965 H   0  0  0  0  0  0  0  0  0  0  0  0
    2.4764   -0.0015    2.3149 H   0  0  0  0  0  0  0  0  0  0  0  0
    3.9744    0.0634    0.3851 H   0  0  0  0  0  0  0  0  0  0  0  0
    5.9109   -3.7984   -0.5973 H   0  0  0  0  0  0  0  0  0  0  0  0
    6.2205   -3.1686   -2.2040 H   0  0  0  0  0  0  0  0  0  0  0  0
    4.7011   -3.9856   -1.8741 H   0  0  0  0  0  0  0  0  0  0  0  0
    3.9920   -0.2593   -1.8307 H   0  0  0  0  0  0  0  0  0  0  0  0
    3.4536   -1.7395   -2.6140 H   0  0  0  0  0  0  0  0  0  0  0  0
    5.0657   -1.0965   -2.9328 H   0  0  0  0  0  0  0  0  0  0  0  0
    3.6651   -4.2498    0.1774 H   0  0  0  0  0  0  0  0  0  0  0  0
  1  2  1  0
  1 19  1  0
  1 20  1  0
  1 21  1  0
  2  3  1  0
  3  4  2  0
  3  5  1  0
  5  7  2  0
  5  6  1  0
  6 23  1  0
  7  8  1  0
  7 22  1  0
  8 10  1  0
  8  9  2  0
 10 18  2  0
 10 11  1  0
 11 12  2  0
 11 24  1  0
 12 13  1  0
 12 25  1  0
 13 14  1  0
 13 17  2  0
 14 15  1  0
 14 16  1  0
 15 26  1  0
 15 27  1  0
 15 28  1  0
 16 29  1  0
 16 30  1  0
 16 31  1  0
 17 18  1  0
 17 32  1  0
M  END
>  <i_m_ct_stereo_status>  (398) 
1

>  <s_m_source_file>  (398) 
/var/tmp/pbs.5102264.sched01/tmps1u238za/138cwx3dj4e.sdf

>  <i_m_source_file_index>  (398) 
5

>  <i_lp_mmshare_version>  (398) 
48012

>  <i_f3d_flags>  (398) 
0

>  <s_epik_input>  (398) 
W0NIM11PQyg9TylDKD1PKVtDSDJdQyg9TyljMVtjSF1bY0hdYyhbY0hdbjEpTihbQ0gzXSlbQ0gzXQ==

>  <s_epik_cmdline>  (398) 
J2VwaWtfcHl0aG9uJywgJy1waHQnLCAnMi4wJywgJy1waCcsICc3LjAnLCAnLXRuJywgJzgnLCAnLW1hJywgJzIwMCcsICctaW1hZScsICc8aW5maWxlLm1hZT4nLCAnLW9tYWUnLCAnPG91dGZpbGUubWFlPic=

>  <r_lp_tautomer_probability>  (398) 
0.0769231

>  <r_epik_Ionization_Penalty>  (398) 
1.16548

>  <r_epik_Ionization_Penalty_Charging>  (398) 
0

>  <r_epik_Ionization_Penalty_Neutral>  (398) 
1.16548

>  <r_epik_State_Penalty>  (398) 
2.07068

>  <r_epik_Charging_Adjusted_Penalty>  (398) 
2.07068

>  <i_epik_Tot_Q>  (398) 
0

>  <i_epik_Tot_abs_Q>  (398) 
0

>  <s_epik_Chemistry_Notes>  (398) 
This compound has an ester and may undergo hydrolysis at high or low pH.

>  <s_lp_Force_Field>  (398) 
OPLS3e

>  <r_lp_Energy>  (398) 
42.8682

>  <b_lp_Chiralities_Consistent>  (398) 
1

>  <s_lp_Variant>  (398) 
83:0-6

>  <s_i_glide_gridfile>  (398) 
pfpi4k_grid

>  <i_i_glide_lignum>  (398) 
5

>  <i_i_glide_rotatable_bonds>  (398) 
6

>  <r_i_docking_score>  (398) 
-3.22028

>  <r_i_glide_ligand_efficiency>  (398) 
-0.178904

>  <r_i_glide_ligand_efficiency_sa>  (398) 
-0.468862

>  <r_i_glide_ligand_efficiency_ln>  (398) 
-0.827756

>  <r_i_glide_gscore>  (398) 
-3.22028

>  <r_i_glide_lipo>  (398) 
-0.102498

>  <r_i_glide_hbond>  (398) 
-0.151557

>  <r_i_glide_metal>  (398) 
-0

>  <r_i_glide_rewards>  (398) 
-2.27252

>  <r_i_glide_evdw>  (398) 
-20.4879

>  <r_i_glide_ecoul>  (398) 
-4.82108

>  <r_i_glide_erotb>  (398) 
1.11808

>  <r_i_glide_esite>  (398) 
-0.0642264

>  <r_i_glide_emodel>  (398) 
-34.9304

>  <r_i_glide_energy>  (398) 
-25.3089

>  <r_i_glide_einternal>  (398) 
3.76012

>  <r_i_glide_intrahb_reward>  (398) 
-0.5

>  <i_i_glide_confnum>  (398) 
5

>  <i_i_glide_posenum>  (398) 
2

>  <r_i_glide_eff_state_penalty>  (398) 
0

>  <ligand_id>  (398) 
83

>  <original_smiles>  (398) 
COC(=O)C(=O)CC(=O)c1ccc(N(C)C)cn1

>  <smiles>  (398) 
[H]OC(C(=O)OC([H])([H])[H])=C([H])C(=O)c1nc([H])c(N(C([H])([H])[H])C([H])([H])[H])c([H])c1[H]

$$$$
83:5:2
     RDKit          3D

 32 32  0  0  1  0  0  0  0  0999 V2000
    2.8367   -2.8954   -2.9789 C   0  0  0  0  0  0  0  0  0  0  0  0
    3.2029   -2.2579   -1.7666 O   0  0  0  0  0  0  0  0  0  0  0  0
    4.4914   -1.9228   -1.5313 C   0  0  0  0  0  0  0  0  0  0  0  0
    5.4094   -2.1588   -2.3272 O   0  0  0  0  0  0  0  0  0  0  0  0
    4.7103   -1.2514   -0.2249 C   0  0  0  0  0  0  0  0  0  0  0  0
    5.9925   -1.0335    0.1103 O   0  0  0  0  0  0  0  0  0  0  0  0
    3.6748   -0.8800    0.5783 C   0  0  0  0  0  0  0  0  0  0  0  0
    3.8237   -0.2173    1.8958 C   0  0  0  0  0  0  0  0  0  0  0  0
    4.9050   -0.2496    2.4917 O   0  0  0  0  0  0  0  0  0  0  0  0
    2.6251    0.4992    2.4682 C   0  0  0  0  0  0  0  0  0  0  0  0
    1.3210    0.2141    2.0167 C   0  0  0  0  0  0  0  0  0  0  0  0
    0.2265    0.9333    2.5037 C   0  0  0  0  0  0  0  0  0  0  0  0
    0.4194    1.9309    3.4780 C   0  0  0  0  0  0  0  0  0  0  0  0
   -0.6588    2.6731    4.0233 N   0  0  0  0  0  0  0  0  0  0  0  0
   -0.4988    4.1225    3.9474 C   0  0  0  0  0  0  0  0  0  0  0  0
   -2.0009    2.1977    3.6859 C   0  0  0  0  0  0  0  0  0  0  0  0
    1.7642    2.1460    3.8852 C   0  0  0  0  0  0  0  0  0  0  0  0
    2.8293    1.4525    3.4071 N   0  0  0  0  0  0  0  0  0  0  0  0
    1.7629   -3.0911   -2.9943 H   0  0  0  0  0  0  0  0  0  0  0  0
    3.3620   -3.8479   -3.0864 H   0  0  0  0  0  0  0  0  0  0  0  0
    3.0821   -2.2630   -3.8360 H   0  0  0  0  0  0  0  0  0  0  0  0
    2.6779   -1.0719    0.2346 H   0  0  0  0  0  0  0  0  0  0  0  0
    5.9719   -0.6294    0.9854 H   0  0  0  0  0  0  0  0  0  0  0  0
    1.0977   -0.5426    1.2837 H   0  0  0  0  0  0  0  0  0  0  0  0
   -0.7471    0.6793    2.1063 H   0  0  0  0  0  0  0  0  0  0  0  0
    0.4493    4.4701    4.3579 H   0  0  0  0  0  0  0  0  0  0  0  0
   -1.2935    4.6221    4.4975 H   0  0  0  0  0  0  0  0  0  0  0  0
   -0.5571    4.4382    2.9085 H   0  0  0  0  0  0  0  0  0  0  0  0
   -2.1058    1.1384    3.8991 H   0  0  0  0  0  0  0  0  0  0  0  0
   -2.2021    2.3664    2.6337 H   0  0  0  0  0  0  0  0  0  0  0  0
   -2.7928    2.7076    4.2444 H   0  0  0  0  0  0  0  0  0  0  0  0
    2.0116    2.8894    4.6325 H   0  0  0  0  0  0  0  0  0  0  0  0
  1  2  1  0
  1 19  1  0
  1 20  1  0
  1 21  1  0
  2  3  1  0
  3  4  2  0
  3  5  1  0
  5  7  2  0
  5  6  1  0
  6 23  1  0
  7  8  1  0
  7 22  1  0
  8 10  1  0
  8  9  2  0
 10 18  2  0
 10 11  1  0
 11 12  2  0
 11 24  1  0
 12 13  1  0
 12 25  1  0
 13 14  1  0
 13 17  2  0
 14 15  1  0
 14 16  1  0
 15 26  1  0
 15 27  1  0
 15 28  1  0
 16 29  1  0
 16 30  1  0
 16 31  1  0
 17 18  1  0
 17 32  1  0
M  END
>  <i_m_ct_stereo_status>  (399) 
1

>  <s_m_source_file>  (399) 
/var/tmp/pbs.5102264.sched01/tmps1u238za/138cwx3dj4e.sdf

>  <i_m_source_file_index>  (399) 
5

>  <i_lp_mmshare_version>  (399) 
48012

>  <i_f3d_flags>  (399) 
0

>  <s_epik_input>  (399) 
W0NIM11PQyg9TylDKD1PKVtDSDJdQyg9TyljMVtjSF1bY0hdYyhbY0hdbjEpTihbQ0gzXSlbQ0gzXQ==

>  <s_epik_cmdline>  (399) 
J2VwaWtfcHl0aG9uJywgJy1waHQnLCAnMi4wJywgJy1waCcsICc3LjAnLCAnLXRuJywgJzgnLCAnLW1hJywgJzIwMCcsICctaW1hZScsICc8aW5maWxlLm1hZT4nLCAnLW9tYWUnLCAnPG91dGZpbGUubWFlPic=

>  <r_lp_tautomer_probability>  (399) 
0.0769231

>  <r_epik_Ionization_Penalty>  (399) 
1.16548

>  <r_epik_Ionization_Penalty_Charging>  (399) 
0

>  <r_epik_Ionization_Penalty_Neutral>  (399) 
1.16548

>  <r_epik_State_Penalty>  (399) 
2.07068

>  <r_epik_Charging_Adjusted_Penalty>  (399) 
2.07068

>  <i_epik_Tot_Q>  (399) 
0

>  <i_epik_Tot_abs_Q>  (399) 
0

>  <s_epik_Chemistry_Notes>  (399) 
This compound has an ester and may undergo hydrolysis at high or low pH.

>  <s_lp_Force_Field>  (399) 
OPLS3e

>  <r_lp_Energy>  (399) 
42.8682

>  <b_lp_Chiralities_Consistent>  (399) 
1

>  <s_lp_Variant>  (399) 
83:0-6

>  <s_i_glide_gridfile>  (399) 
pfpi4k_grid

>  <i_i_glide_lignum>  (399) 
5

>  <i_i_glide_rotatable_bonds>  (399) 
6

>  <r_i_docking_score>  (399) 
-3.05709

>  <r_i_glide_ligand_efficiency>  (399) 
-0.169838

>  <r_i_glide_ligand_efficiency_sa>  (399) 
-0.445102

>  <r_i_glide_ligand_efficiency_ln>  (399) 
-0.785808

>  <r_i_glide_gscore>  (399) 
-3.05709

>  <r_i_glide_lipo>  (399) 
-0.0460469

>  <r_i_glide_hbond>  (399) 
-0.0365041

>  <r_i_glide_metal>  (399) 
-0

>  <r_i_glide_rewards>  (399) 
-2.24956

>  <r_i_glide_evdw>  (399) 
-23.9415

>  <r_i_glide_ecoul>  (399) 
-3.84281

>  <r_i_glide_erotb>  (399) 
1.11808

>  <r_i_glide_esite>  (399) 
-0.0695531

>  <r_i_glide_emodel>  (399) 
-35.8854

>  <r_i_glide_energy>  (399) 
-27.7843

>  <r_i_glide_einternal>  (399) 
5.64241

>  <r_i_glide_intrahb_reward>  (399) 
-0.5

>  <i_i_glide_confnum>  (399) 
2

>  <i_i_glide_posenum>  (399) 
8

>  <r_i_glide_eff_state_penalty>  (399) 
0

>  <ligand_id>  (399) 
83

>  <original_smiles>  (399) 
COC(=O)C(=O)CC(=O)c1ccc(N(C)C)cn1

>  <smiles>  (399) 
[H]OC(C(=O)OC([H])([H])[H])=C([H])C(=O)c1nc([H])c(N(C([H])([H])[H])C([H])([H])[H])c([H])c1[H]

$$$$
83:6:0
     RDKit          3D

 32 32  0  0  1  0  0  0  0  0999 V2000
    5.8399   -0.8198    1.2751 C   0  0  0  0  0  0  0  0  0  0  0  0
    5.1201   -1.9045    0.7308 O   0  0  0  0  0  0  0  0  0  0  0  0
    5.3334   -2.3587   -0.4969 C   0  0  0  0  0  0  0  0  0  0  0  0
    6.1785   -1.8607   -1.2424 O   0  0  0  0  0  0  0  0  0  0  0  0
    4.4656   -3.5075   -0.8858 C   0  0  0  0  0  0  0  0  0  0  0  0
    4.6099   -3.8561   -2.1738 O   0  0  0  0  0  0  0  0  0  0  0  0
    3.5727   -4.2326   -0.1544 C   0  0  0  0  0  0  0  0  0  0  0  0
    3.1348   -4.1542    1.2716 C   0  0  0  0  0  0  0  0  0  0  0  0
    3.4784   -3.2755    2.0537 O   0  0  0  0  0  0  0  0  0  0  0  0
    2.2251   -5.2282    1.7794 C   0  0  0  0  0  0  0  0  0  0  0  0
    1.9971   -5.2860    3.1669 C   0  0  0  0  0  0  0  0  0  0  0  0
    1.1375   -6.2527    3.6914 C   0  0  0  0  0  0  0  0  0  0  0  0
    0.5010   -7.1623    2.8085 C   0  0  0  0  0  0  0  0  0  0  0  0
   -0.4250   -8.1191    3.2750 N   0  0  0  0  0  0  0  0  0  0  0  0
   -0.5812   -8.2319    4.7203 C   0  0  0  0  0  0  0  0  0  0  0  0
   -1.6381   -8.2629    2.4849 C   0  0  0  0  0  0  0  0  0  0  0  0
    0.8265   -7.0543    1.4336 C   0  0  0  0  0  0  0  0  0  0  0  0
    1.6345   -6.0945    0.9248 N   0  0  0  0  0  0  0  0  0  0  0  0
    5.4937   -0.6675    2.2938 H   0  0  0  0  0  0  0  0  0  0  0  0
    5.6583    0.0966    0.7154 H   0  0  0  0  0  0  0  0  0  0  0  0
    6.9096   -1.0242    1.3122 H   0  0  0  0  0  0  0  0  0  0  0  0
    3.0937   -5.0192   -0.7150 H   0  0  0  0  0  0  0  0  0  0  0  0
    4.0248   -4.5798   -2.3480 H   0  0  0  0  0  0  0  0  0  0  0  0
    2.4547   -4.5798    3.8466 H   0  0  0  0  0  0  0  0  0  0  0  0
    0.9724   -6.2331    4.7570 H   0  0  0  0  0  0  0  0  0  0  0  0
   -1.2229   -9.0601    4.9946 H   0  0  0  0  0  0  0  0  0  0  0  0
   -1.0530   -7.3351    5.1157 H   0  0  0  0  0  0  0  0  0  0  0  0
    0.3774   -8.3853    5.2177 H   0  0  0  0  0  0  0  0  0  0  0  0
   -2.2244   -9.1124    2.8363 H   0  0  0  0  0  0  0  0  0  0  0  0
   -1.4448   -8.4237    1.4247 H   0  0  0  0  0  0  0  0  0  0  0  0
   -2.2371   -7.3600    2.5952 H   0  0  0  0  0  0  0  0  0  0  0  0
    0.4266   -7.7214    0.6839 H   0  0  0  0  0  0  0  0  0  0  0  0
  1  2  1  0
  1 19  1  0
  1 20  1  0
  1 21  1  0
  2  3  1  0
  3  4  2  0
  3  5  1  0
  5  7  2  0
  5  6  1  0
  6 23  1  0
  7  8  1  0
  7 22  1  0
  8 10  1  0
  8  9  2  0
 10 18  2  0
 10 11  1  0
 11 12  2  0
 11 24  1  0
 12 13  1  0
 12 25  1  0
 13 14  1  0
 13 17  2  0
 14 15  1  0
 14 16  1  0
 15 26  1  0
 15 27  1  0
 15 28  1  0
 16 29  1  0
 16 30  1  0
 16 31  1  0
 17 18  1  0
 17 32  1  0
M  END
>  <i_m_ct_stereo_status>  (400) 
1

>  <s_m_source_file>  (400) 
/var/tmp/pbs.5102264.sched01/tmps1u238za/138cwx3dj4e.sdf

>  <i_m_source_file_index>  (400) 
6

>  <i_lp_mmshare_version>  (400) 
48012

>  <i_f3d_flags>  (400) 
0

>  <s_epik_input>  (400) 
W0NIM11PQyg9TylDKD1PKVtDSDJdQyg9TyljMVtjSF1bY0hdYyhbY0hdbjEpTihbQ0gzXSlbQ0gzXQ==

>  <s_epik_cmdline>  (400) 
J2VwaWtfcHl0aG9uJywgJy1waHQnLCAnMi4wJywgJy1waCcsICc3LjAnLCAnLXRuJywgJzgnLCAnLW1hJywgJzIwMCcsICctaW1hZScsICc8aW5maWxlLm1hZT4nLCAnLW9tYWUnLCAnPG91dGZpbGUubWFlPic=

>  <r_lp_tautomer_probability>  (400) 
0.0769231

>  <r_epik_Ionization_Penalty>  (400) 
1.90436

>  <r_epik_Ionization_Penalty_Charging>  (400) 
0

>  <r_epik_Ionization_Penalty_Neutral>  (400) 
1.90436

>  <r_epik_State_Penalty>  (400) 
2.26155

>  <r_epik_Charging_Adjusted_Penalty>  (400) 
2.26155

>  <i_epik_Tot_Q>  (400) 
0

>  <i_epik_Tot_abs_Q>  (400) 
0

>  <s_epik_Chemistry_Notes>  (400) 
This compound has an ester and may undergo hydrolysis at high or low pH.

>  <s_lp_Force_Field>  (400) 
OPLS3e

>  <r_lp_Energy>  (400) 
53.628

>  <b_lp_Chiralities_Consistent>  (400) 
1

>  <s_lp_Variant>  (400) 
83:0-7

>  <s_i_glide_gridfile>  (400) 
pfpi4k_grid

>  <i_i_glide_lignum>  (400) 
6

>  <i_i_glide_rotatable_bonds>  (400) 
6

>  <r_i_docking_score>  (400) 
-3.21557

>  <r_i_glide_ligand_efficiency>  (400) 
-0.178643

>  <r_i_glide_ligand_efficiency_sa>  (400) 
-0.468177

>  <r_i_glide_ligand_efficiency_ln>  (400) 
-0.826546

>  <r_i_glide_gscore>  (400) 
-3.21557

>  <r_i_glide_lipo>  (400) 
-0.175133

>  <r_i_glide_hbond>  (400) 
-0.209141

>  <r_i_glide_metal>  (400) 
-0

>  <r_i_glide_rewards>  (400) 
-1.70284

>  <r_i_glide_evdw>  (400) 
-21.8562

>  <r_i_glide_ecoul>  (400) 
-7.28703

>  <r_i_glide_erotb>  (400) 
1.11808

>  <r_i_glide_esite>  (400) 
-0.0606715

>  <r_i_glide_emodel>  (400) 
-32.8634

>  <r_i_glide_energy>  (400) 
-29.1433

>  <r_i_glide_einternal>  (400) 
3.51737

>  <r_i_glide_intrahb_reward>  (400) 
-0

>  <i_i_glide_confnum>  (400) 
6

>  <i_i_glide_posenum>  (400) 
7

>  <r_i_glide_eff_state_penalty>  (400) 
0

>  <ligand_id>  (400) 
83

>  <original_smiles>  (400) 
COC(=O)C(=O)CC(=O)c1ccc(N(C)C)cn1

>  <smiles>  (400) 
[H]OC(C(=O)OC([H])([H])[H])=C([H])C(=O)c1nc([H])c(N(C([H])([H])[H])C([H])([H])[H])c([H])c1[H]

$$$$
83:6:1
     RDKit          3D

 32 32  0  0  1  0  0  0  0  0999 V2000
    3.6811   -3.3813   -2.1643 C   0  0  0  0  0  0  0  0  0  0  0  0
    3.9901   -2.5893   -1.0300 O   0  0  0  0  0  0  0  0  0  0  0  0
    5.1986   -2.0484   -0.8743 C   0  0  0  0  0  0  0  0  0  0  0  0
    6.1107   -2.2222   -1.6821 O   0  0  0  0  0  0  0  0  0  0  0  0
    5.3649   -1.2221    0.3499 C   0  0  0  0  0  0  0  0  0  0  0  0
    6.6123   -0.7439    0.4830 O   0  0  0  0  0  0  0  0  0  0  0  0
    4.4534   -0.9016    1.3077 C   0  0  0  0  0  0  0  0  0  0  0  0
    3.0431   -1.3250    1.4975 C   0  0  0  0  0  0  0  0  0  0  0  0
    2.6548   -2.4637    1.2574 O   0  0  0  0  0  0  0  0  0  0  0  0
    2.1445   -0.3303    2.1545 C   0  0  0  0  0  0  0  0  0  0  0  0
    1.0258   -0.7790    2.8820 C   0  0  0  0  0  0  0  0  0  0  0  0
    0.1873    0.1631    3.5028 C   0  0  0  0  0  0  0  0  0  0  0  0
    0.4627    1.5432    3.3704 C   0  0  0  0  0  0  0  0  0  0  0  0
   -0.3892    2.5077    3.9557 N   0  0  0  0  0  0  0  0  0  0  0  0
    0.1029    3.8766    3.9576 C   0  0  0  0  0  0  0  0  0  0  0  0
   -1.8049    2.3664    3.6368 C   0  0  0  0  0  0  0  0  0  0  0  0
    1.6172    1.8916    2.6232 C   0  0  0  0  0  0  0  0  0  0  0  0
    2.4359    0.9827    2.0449 N   0  0  0  0  0  0  0  0  0  0  0  0
    2.6666   -3.7542   -2.0500 H   0  0  0  0  0  0  0  0  0  0  0  0
    4.3497   -4.2351   -2.2635 H   0  0  0  0  0  0  0  0  0  0  0  0
    3.7270   -2.7827   -3.0713 H   0  0  0  0  0  0  0  0  0  0  0  0
    4.7918   -0.2250    2.0785 H   0  0  0  0  0  0  0  0  0  0  0  0
    6.6635   -0.1993    1.2600 H   0  0  0  0  0  0  0  0  0  0  0  0
    0.8245   -1.8435    2.9662 H   0  0  0  0  0  0  0  0  0  0  0  0
   -0.6548   -0.1905    4.0696 H   0  0  0  0  0  0  0  0  0  0  0  0
   -0.5333    4.5505    4.5252 H   0  0  0  0  0  0  0  0  0  0  0  0
    0.1481    4.2532    2.9337 H   0  0  0  0  0  0  0  0  0  0  0  0
    1.1014    3.9329    4.3957 H   0  0  0  0  0  0  0  0  0  0  0  0
   -2.4049    3.0930    4.1860 H   0  0  0  0  0  0  0  0  0  0  0  0
   -2.1984    1.3810    3.8725 H   0  0  0  0  0  0  0  0  0  0  0  0
   -1.9545    2.5502    2.5747 H   0  0  0  0  0  0  0  0  0  0  0  0
    1.9214    2.9115    2.4408 H   0  0  0  0  0  0  0  0  0  0  0  0
  1  2  1  0
  1 19  1  0
  1 20  1  0
  1 21  1  0
  2  3  1  0
  3  4  2  0
  3  5  1  0
  5  7  2  0
  5  6  1  0
  6 23  1  0
  7  8  1  0
  7 22  1  0
  8 10  1  0
  8  9  2  0
 10 18  2  0
 10 11  1  0
 11 12  2  0
 11 24  1  0
 12 13  1  0
 12 25  1  0
 13 14  1  0
 13 17  2  0
 14 15  1  0
 14 16  1  0
 15 26  1  0
 15 27  1  0
 15 28  1  0
 16 29  1  0
 16 30  1  0
 16 31  1  0
 17 18  1  0
 17 32  1  0
M  END
>  <i_m_ct_stereo_status>  (401) 
1

>  <s_m_source_file>  (401) 
/var/tmp/pbs.5102264.sched01/tmps1u238za/138cwx3dj4e.sdf

>  <i_m_source_file_index>  (401) 
6

>  <i_lp_mmshare_version>  (401) 
48012

>  <i_f3d_flags>  (401) 
0

>  <s_epik_input>  (401) 
W0NIM11PQyg9TylDKD1PKVtDSDJdQyg9TyljMVtjSF1bY0hdYyhbY0hdbjEpTihbQ0gzXSlbQ0gzXQ==

>  <s_epik_cmdline>  (401) 
J2VwaWtfcHl0aG9uJywgJy1waHQnLCAnMi4wJywgJy1waCcsICc3LjAnLCAnLXRuJywgJzgnLCAnLW1hJywgJzIwMCcsICctaW1hZScsICc8aW5maWxlLm1hZT4nLCAnLW9tYWUnLCAnPG91dGZpbGUubWFlPic=

>  <r_lp_tautomer_probability>  (401) 
0.0769231

>  <r_epik_Ionization_Penalty>  (401) 
1.90436

>  <r_epik_Ionization_Penalty_Charging>  (401) 
0

>  <r_epik_Ionization_Penalty_Neutral>  (401) 
1.90436

>  <r_epik_State_Penalty>  (401) 
2.26155

>  <r_epik_Charging_Adjusted_Penalty>  (401) 
2.26155

>  <i_epik_Tot_Q>  (401) 
0

>  <i_epik_Tot_abs_Q>  (401) 
0

>  <s_epik_Chemistry_Notes>  (401) 
This compound has an ester and may undergo hydrolysis at high or low pH.

>  <s_lp_Force_Field>  (401) 
OPLS3e

>  <r_lp_Energy>  (401) 
53.628

>  <b_lp_Chiralities_Consistent>  (401) 
1

>  <s_lp_Variant>  (401) 
83:0-7

>  <s_i_glide_gridfile>  (401) 
pfpi4k_grid

>  <i_i_glide_lignum>  (401) 
6

>  <i_i_glide_rotatable_bonds>  (401) 
6

>  <r_i_docking_score>  (401) 
-2.55666

>  <r_i_glide_ligand_efficiency>  (401) 
-0.142037

>  <r_i_glide_ligand_efficiency_sa>  (401) 
-0.372242

>  <r_i_glide_ligand_efficiency_ln>  (401) 
-0.657178

>  <r_i_glide_gscore>  (401) 
-2.55666

>  <r_i_glide_lipo>  (401) 
-0.150786

>  <r_i_glide_hbond>  (401) 
-0.0514795

>  <r_i_glide_metal>  (401) 
-0

>  <r_i_glide_rewards>  (401) 
-1.70284

>  <r_i_glide_evdw>  (401) 
-21.5532

>  <r_i_glide_ecoul>  (401) 
-3.97158

>  <r_i_glide_erotb>  (401) 
1.11808

>  <r_i_glide_esite>  (401) 
-0.0962455

>  <r_i_glide_emodel>  (401) 
-26.501

>  <r_i_glide_energy>  (401) 
-25.5247

>  <r_i_glide_einternal>  (401) 
6.74188

>  <r_i_glide_intrahb_reward>  (401) 
-0

>  <i_i_glide_confnum>  (401) 
6

>  <i_i_glide_posenum>  (401) 
29

>  <r_i_glide_eff_state_penalty>  (401) 
0

>  <ligand_id>  (401) 
83

>  <original_smiles>  (401) 
COC(=O)C(=O)CC(=O)c1ccc(N(C)C)cn1

>  <smiles>  (401) 
[H]OC(C(=O)OC([H])([H])[H])=C([H])C(=O)c1nc([H])c(N(C([H])([H])[H])C([H])([H])[H])c([H])c1[H]

$$$$
83:6:2
     RDKit          3D

 32 32  0  0  1  0  0  0  0  0999 V2000
    3.9785   -5.0014    0.5943 C   0  0  0  0  0  0  0  0  0  0  0  0
    3.8790   -3.5953    0.5352 O   0  0  0  0  0  0  0  0  0  0  0  0
    4.6792   -2.8536   -0.2190 C   0  0  0  0  0  0  0  0  0  0  0  0
    5.5268   -3.3434   -0.9580 O   0  0  0  0  0  0  0  0  0  0  0  0
    4.4726   -1.3798   -0.0946 C   0  0  0  0  0  0  0  0  0  0  0  0
    5.2714   -0.6695   -0.9054 O   0  0  0  0  0  0  0  0  0  0  0  0
    3.6190   -0.6742    0.6984 C   0  0  0  0  0  0  0  0  0  0  0  0
    2.6186   -1.0836    1.7283 C   0  0  0  0  0  0  0  0  0  0  0  0
    2.5055   -2.2267    2.1679 O   0  0  0  0  0  0  0  0  0  0  0  0
    1.7177   -0.0361    2.2886 C   0  0  0  0  0  0  0  0  0  0  0  0
    0.6310   -0.4592    3.0821 C   0  0  0  0  0  0  0  0  0  0  0  0
   -0.2204    0.4888    3.6570 C   0  0  0  0  0  0  0  0  0  0  0  0
    0.0322    1.8630    3.4433 C   0  0  0  0  0  0  0  0  0  0  0  0
   -0.7703    2.8645    4.0372 N   0  0  0  0  0  0  0  0  0  0  0  0
   -0.0182    3.8690    4.7701 C   0  0  0  0  0  0  0  0  0  0  0  0
   -2.0333    2.4395    4.6251 C   0  0  0  0  0  0  0  0  0  0  0  0
    1.1438    2.1901    2.6217 C   0  0  0  0  0  0  0  0  0  0  0  0
    1.9694    1.2711    2.0714 N   0  0  0  0  0  0  0  0  0  0  0  0
    3.2450   -5.3577    1.3149 H   0  0  0  0  0  0  0  0  0  0  0  0
    4.9615   -5.3303    0.9321 H   0  0  0  0  0  0  0  0  0  0  0  0
    3.7506   -5.4542   -0.3688 H   0  0  0  0  0  0  0  0  0  0  0  0
    3.6880    0.3929    0.5517 H   0  0  0  0  0  0  0  0  0  0  0  0
    5.0782    0.2558   -0.7840 H   0  0  0  0  0  0  0  0  0  0  0  0
    0.4446   -1.5057    3.2739 H   0  0  0  0  0  0  0  0  0  0  0  0
   -1.0251    0.1184    4.2698 H   0  0  0  0  0  0  0  0  0  0  0  0
    0.8201    4.2790    4.2074 H   0  0  0  0  0  0  0  0  0  0  0  0
    0.3712    3.4274    5.6886 H   0  0  0  0  0  0  0  0  0  0  0  0
   -0.6625    4.7051    5.0431 H   0  0  0  0  0  0  0  0  0  0  0  0
   -2.5928    1.8076    3.9356 H   0  0  0  0  0  0  0  0  0  0  0  0
   -2.6708    3.2823    4.8845 H   0  0  0  0  0  0  0  0  0  0  0  0
   -1.8407    1.8753    5.5384 H   0  0  0  0  0  0  0  0  0  0  0  0
    1.4166    3.2087    2.3947 H   0  0  0  0  0  0  0  0  0  0  0  0
  1  2  1  0
  1 19  1  0
  1 20  1  0
  1 21  1  0
  2  3  1  0
  3  4  2  0
  3  5  1  0
  5  7  2  0
  5  6  1  0
  6 23  1  0
  7  8  1  0
  7 22  1  0
  8 10  1  0
  8  9  2  0
 10 18  2  0
 10 11  1  0
 11 12  2  0
 11 24  1  0
 12 13  1  0
 12 25  1  0
 13 14  1  0
 13 17  2  0
 14 15  1  0
 14 16  1  0
 15 26  1  0
 15 27  1  0
 15 28  1  0
 16 29  1  0
 16 30  1  0
 16 31  1  0
 17 18  1  0
 17 32  1  0
M  END
>  <i_m_ct_stereo_status>  (402) 
1

>  <s_m_source_file>  (402) 
/var/tmp/pbs.5102264.sched01/tmps1u238za/138cwx3dj4e.sdf

>  <i_m_source_file_index>  (402) 
6

>  <i_lp_mmshare_version>  (402) 
48012

>  <i_f3d_flags>  (402) 
0

>  <s_epik_input>  (402) 
W0NIM11PQyg9TylDKD1PKVtDSDJdQyg9TyljMVtjSF1bY0hdYyhbY0hdbjEpTihbQ0gzXSlbQ0gzXQ==

>  <s_epik_cmdline>  (402) 
J2VwaWtfcHl0aG9uJywgJy1waHQnLCAnMi4wJywgJy1waCcsICc3LjAnLCAnLXRuJywgJzgnLCAnLW1hJywgJzIwMCcsICctaW1hZScsICc8aW5maWxlLm1hZT4nLCAnLW9tYWUnLCAnPG91dGZpbGUubWFlPic=

>  <r_lp_tautomer_probability>  (402) 
0.0769231

>  <r_epik_Ionization_Penalty>  (402) 
1.90436

>  <r_epik_Ionization_Penalty_Charging>  (402) 
0

>  <r_epik_Ionization_Penalty_Neutral>  (402) 
1.90436

>  <r_epik_State_Penalty>  (402) 
2.26155

>  <r_epik_Charging_Adjusted_Penalty>  (402) 
2.26155

>  <i_epik_Tot_Q>  (402) 
0

>  <i_epik_Tot_abs_Q>  (402) 
0

>  <s_epik_Chemistry_Notes>  (402) 
This compound has an ester and may undergo hydrolysis at high or low pH.

>  <s_lp_Force_Field>  (402) 
OPLS3e

>  <r_lp_Energy>  (402) 
53.628

>  <b_lp_Chiralities_Consistent>  (402) 
1

>  <s_lp_Variant>  (402) 
83:0-7

>  <s_i_glide_gridfile>  (402) 
pfpi4k_grid

>  <i_i_glide_lignum>  (402) 
6

>  <i_i_glide_rotatable_bonds>  (402) 
6

>  <r_i_docking_score>  (402) 
-2.2596

>  <r_i_glide_ligand_efficiency>  (402) 
-0.125533

>  <r_i_glide_ligand_efficiency_sa>  (402) 
-0.328991

>  <r_i_glide_ligand_efficiency_ln>  (402) 
-0.580819

>  <r_i_glide_gscore>  (402) 
-2.2596

>  <r_i_glide_lipo>  (402) 
-0.0231253

>  <r_i_glide_hbond>  (402) 
0

>  <r_i_glide_metal>  (402) 
-0

>  <r_i_glide_rewards>  (402) 
-1.70959

>  <r_i_glide_evdw>  (402) 
-19.3915

>  <r_i_glide_ecoul>  (402) 
-3.90389

>  <r_i_glide_erotb>  (402) 
1.11808

>  <r_i_glide_esite>  (402) 
-0.0898091

>  <r_i_glide_emodel>  (402) 
-25.239

>  <r_i_glide_energy>  (402) 
-23.2954

>  <r_i_glide_einternal>  (402) 
3.39471

>  <r_i_glide_intrahb_reward>  (402) 
-0

>  <i_i_glide_confnum>  (402) 
4

>  <i_i_glide_posenum>  (402) 
34

>  <r_i_glide_eff_state_penalty>  (402) 
0

>  <ligand_id>  (402) 
83

>  <original_smiles>  (402) 
COC(=O)C(=O)CC(=O)c1ccc(N(C)C)cn1

>  <smiles>  (402) 
[H]OC(C(=O)OC([H])([H])[H])=C([H])C(=O)c1nc([H])c(N(C([H])([H])[H])C([H])([H])[H])c([H])c1[H]

$$$$
84:0:0
     RDKit          3D

 39 41  0  0  1  0  0  0  0  0999 V2000
    3.2511   -9.6144    1.5133 C   0  0  0  0  0  0  0  0  0  0  0  0
    2.4558   -8.5529    2.2597 C   0  0  0  0  0  0  0  0  0  0  0  0
    2.8753   -7.3128    2.0232 N   0  0  0  0  0  0  0  0  0  0  0  0
    2.2452   -6.2966    2.6461 C   0  0  0  0  0  0  0  0  0  0  0  0
    2.3865   -4.9221    2.6561 C   0  0  0  0  0  0  0  0  0  0  0  0
    3.3827   -4.1581    1.8990 C   0  0  0  0  0  0  0  0  0  0  0  0
    3.5804   -2.9532    2.0648 O   0  0  0  0  0  0  0  0  0  0  0  0
    4.0607   -4.8848    0.9766 O   0  0  0  0  0  0  0  0  0  0  0  0
    4.9824   -4.2613    0.1717 C   0  0  0  0  0  0  0  0  0  0  0  0
    6.3061   -4.0580    0.6178 C   0  0  0  0  0  0  0  0  0  0  0  0
    7.2517   -3.4406   -0.2262 C   0  0  0  0  0  0  0  0  0  0  0  0
    6.8796   -3.0390   -1.5248 C   0  0  0  0  0  0  0  0  0  0  0  0
    5.5605   -3.2454   -1.9755 C   0  0  0  0  0  0  0  0  0  0  0  0
    4.6157   -3.8579   -1.1291 C   0  0  0  0  0  0  0  0  0  0  0  0
    1.3793   -4.4422    3.5480 C   0  0  0  0  0  0  0  0  0  0  0  0
    1.0476   -3.0279    3.9420 C   0  0  0  0  0  0  0  0  0  0  0  0
    0.6422   -5.4090    4.0442 N   0  0  0  0  0  0  0  0  0  0  0  0
    1.1637   -6.5614    3.5136 N   0  0  0  0  0  0  0  0  0  0  0  0
    0.7236   -7.8340    3.7608 C   0  0  0  0  0  0  0  0  0  0  0  0
   -0.4537   -7.9604    4.7229 C   0  0  0  0  0  0  0  0  0  0  0  0
    1.3713   -8.8868    3.1288 C   0  0  0  0  0  0  0  0  0  0  0  0
    0.9723  -10.3504    3.3278 C   0  0  0  0  0  0  0  0  0  0  0  0
    2.9212  -10.6348    1.7036 H   0  0  0  0  0  0  0  0  0  0  0  0
    4.3062   -9.5669    1.7876 H   0  0  0  0  0  0  0  0  0  0  0  0
    3.1790   -9.4554    0.4365 H   0  0  0  0  0  0  0  0  0  0  0  0
    6.5942   -4.3770    1.6089 H   0  0  0  0  0  0  0  0  0  0  0  0
    8.2615   -3.2837    0.1206 H   0  0  0  0  0  0  0  0  0  0  0  0
    7.6073   -2.5848   -2.1808 H   0  0  0  0  0  0  0  0  0  0  0  0
    5.2715   -2.9492   -2.9733 H   0  0  0  0  0  0  0  0  0  0  0  0
    3.6109   -4.0354   -1.4818 H   0  0  0  0  0  0  0  0  0  0  0  0
    1.6818   -2.2782    3.4717 H   0  0  0  0  0  0  0  0  0  0  0  0
    1.1370   -2.8954    5.0203 H   0  0  0  0  0  0  0  0  0  0  0  0
    0.0192   -2.7808    3.6783 H   0  0  0  0  0  0  0  0  0  0  0  0
   -0.7922   -8.9722    4.9168 H   0  0  0  0  0  0  0  0  0  0  0  0
   -1.3108   -7.4070    4.3363 H   0  0  0  0  0  0  0  0  0  0  0  0
   -0.1874   -7.5253    5.6879 H   0  0  0  0  0  0  0  0  0  0  0  0
    0.1412  -10.5249    4.0014 H   0  0  0  0  0  0  0  0  0  0  0  0
    1.8100  -10.9193    3.7287 H   0  0  0  0  0  0  0  0  0  0  0  0
    0.6852  -10.7919    2.3759 H   0  0  0  0  0  0  0  0  0  0  0  0
  1  2  1  0
  1 23  1  0
  1 24  1  0
  1 25  1  0
  2 21  1  0
  2  3  2  0
  3  4  1  0
  4 18  1  0
  4  5  2  0
  5  6  1  0
  5 15  1  0
  6  7  2  0
  6  8  1  0
  8  9  1  0
  9 14  1  0
  9 10  2  0
 10 11  1  0
 10 26  1  0
 11 12  2  0
 11 27  1  0
 12 13  1  0
 12 28  1  0
 13 14  2  0
 13 29  1  0
 14 30  1  0
 15 16  1  0
 15 17  2  0
 16 31  1  0
 16 32  1  0
 16 33  1  0
 17 18  1  0
 18 19  1  0
 19 20  1  0
 19 21  2  0
 20 34  1  0
 20 35  1  0
 20 36  1  0
 21 22  1  0
 22 37  1  0
 22 38  1  0
 22 39  1  0
M  END
>  <i_m_ct_stereo_status>  (403) 
1

>  <s_m_source_file>  (403) 
/var/tmp/pbs.5102264.sched01/tmps1u238za/138cwx3dj4e.sdf

>  <i_m_source_file_index>  (403) 
7

>  <i_lp_mmshare_version>  (403) 
48012

>  <i_f3d_flags>  (403) 
0

>  <s_epik_input>  (403) 
W0NIM11jKG4xKWMoW0NIM10pYyhbQ0gzXSluKGMxMiluYyhbQ0gzXSljMkMoPU8pT2MzW2NIXVtjSF1bY0hdW2NIXVtjSF0z

>  <s_epik_cmdline>  (403) 
J2VwaWtfcHl0aG9uJywgJy1waHQnLCAnMi4wJywgJy1waCcsICc3LjAnLCAnLXRuJywgJzgnLCAnLW1hJywgJzIwMCcsICctaW1hZScsICc8aW5maWxlLm1hZT4nLCAnLW9tYWUnLCAnPG91dGZpbGUubWFlPic=

>  <r_lp_tautomer_probability>  (403) 
1

>  <r_epik_Ionization_Penalty>  (403) 
2.037e-08

>  <r_epik_Ionization_Penalty_Charging>  (403) 
0

>  <r_epik_Ionization_Penalty_Neutral>  (403) 
2.037e-08

>  <r_epik_State_Penalty>  (403) 
-0

>  <r_epik_Charging_Adjusted_Penalty>  (403) 
0

>  <i_epik_Tot_Q>  (403) 
0

>  <i_epik_Tot_abs_Q>  (403) 
0

>  <s_lp_Force_Field>  (403) 
OPLS3e

>  <r_lp_Energy>  (403) 
26.0148

>  <b_lp_Chiralities_Consistent>  (403) 
1

>  <s_lp_Variant>  (403) 
84:0-1

>  <s_i_glide_gridfile>  (403) 
pfpi4k_grid

>  <i_i_glide_lignum>  (403) 
7

>  <i_i_glide_rotatable_bonds>  (403) 
3

>  <r_i_docking_score>  (403) 
-2.82653

>  <r_i_glide_ligand_efficiency>  (403) 
-0.128479

>  <r_i_glide_ligand_efficiency_sa>  (403) 
-0.360003

>  <r_i_glide_ligand_efficiency_ln>  (403) 
-0.690908

>  <r_i_glide_gscore>  (403) 
-2.82653

>  <r_i_glide_lipo>  (403) 
-0.625965

>  <r_i_glide_hbond>  (403) 
0

>  <r_i_glide_metal>  (403) 
-0

>  <r_i_glide_rewards>  (403) 
-1.39863

>  <r_i_glide_evdw>  (403) 
-24.4301

>  <r_i_glide_ecoul>  (403) 
-1.2236

>  <r_i_glide_erotb>  (403) 
0.629514

>  <r_i_glide_esite>  (403) 
-0.0264063

>  <r_i_glide_emodel>  (403) 
-30.2814

>  <r_i_glide_energy>  (403) 
-25.6537

>  <r_i_glide_einternal>  (403) 
0.440012

>  <r_i_glide_intrahb_reward>  (403) 
-0

>  <i_i_glide_confnum>  (403) 
3

>  <i_i_glide_posenum>  (403) 
1

>  <r_i_glide_eff_state_penalty>  (403) 
0

>  <ligand_id>  (403) 
84

>  <original_smiles>  (403) 
Cc1nc2c(C(=O)Oc3ccccc3)c(C)nn2c(C)c1C

>  <smiles>  (403) 
[H]c1c([H])c([H])c(OC(=O)c2c(C([H])([H])[H])nn3c(C([H])([H])[H])c(C([H])([H])[H])c(C([H])([H])[H])nc23)c([H])c1[H]

$$$$
84:0:1
     RDKit          3D

 39 41  0  0  1  0  0  0  0  0999 V2000
    1.8223   -3.2744   -1.9603 C   0  0  0  0  0  0  0  0  0  0  0  0
    2.8579   -3.1138   -0.8549 C   0  0  0  0  0  0  0  0  0  0  0  0
    2.6220   -3.8819    0.2084 N   0  0  0  0  0  0  0  0  0  0  0  0
    3.4568   -3.7730    1.2607 C   0  0  0  0  0  0  0  0  0  0  0  0
    3.5355   -4.3661    2.5038 C   0  0  0  0  0  0  0  0  0  0  0  0
    2.6224   -5.3818    3.0270 C   0  0  0  0  0  0  0  0  0  0  0  0
    2.8329   -5.9884    4.0766 O   0  0  0  0  0  0  0  0  0  0  0  0
    1.5217   -5.5966    2.2578 O   0  0  0  0  0  0  0  0  0  0  0  0
    0.5289   -6.4675    2.6490 C   0  0  0  0  0  0  0  0  0  0  0  0
    0.0364   -7.4002    1.7150 C   0  0  0  0  0  0  0  0  0  0  0  0
   -0.9892   -8.3001    2.0710 C   0  0  0  0  0  0  0  0  0  0  0  0
   -1.5381   -8.2819    3.3632 C   0  0  0  0  0  0  0  0  0  0  0  0
   -1.0689   -7.3444    4.2949 C   0  0  0  0  0  0  0  0  0  0  0  0
   -0.0483   -6.4398    3.9452 C   0  0  0  0  0  0  0  0  0  0  0  0
    4.6816   -3.7982    3.1325 C   0  0  0  0  0  0  0  0  0  0  0  0
    5.2489   -4.0797    4.4962 C   0  0  0  0  0  0  0  0  0  0  0  0
    5.2894   -2.9167    2.3737 N   0  0  0  0  0  0  0  0  0  0  0  0
    4.5518   -2.8808    1.2162 N   0  0  0  0  0  0  0  0  0  0  0  0
    4.7992   -2.1008    0.1231 C   0  0  0  0  0  0  0  0  0  0  0  0
    6.0180   -1.2017    0.2189 C   0  0  0  0  0  0  0  0  0  0  0  0
    3.9438   -2.1958   -0.9683 C   0  0  0  0  0  0  0  0  0  0  0  0
    4.1078   -1.3707   -2.2414 C   0  0  0  0  0  0  0  0  0  0  0  0
    2.0002   -2.6594   -2.8423 H   0  0  0  0  0  0  0  0  0  0  0  0
    0.8160   -3.0634   -1.6015 H   0  0  0  0  0  0  0  0  0  0  0  0
    1.8079   -4.2990   -2.3116 H   0  0  0  0  0  0  0  0  0  0  0  0
    0.4574   -7.4285    0.7207 H   0  0  0  0  0  0  0  0  0  0  0  0
   -1.3490   -9.0145    1.3446 H   0  0  0  0  0  0  0  0  0  0  0  0
   -2.2994   -8.9981    3.6344 H   0  0  0  0  0  0  0  0  0  0  0  0
   -1.4880   -7.3252    5.2778 H   0  0  0  0  0  0  0  0  0  0  0  0
    0.2824   -5.7287    4.6860 H   0  0  0  0  0  0  0  0  0  0  0  0
    4.6866   -4.8132    5.0686 H   0  0  0  0  0  0  0  0  0  0  0  0
    5.2936   -3.1683    5.0933 H   0  0  0  0  0  0  0  0  0  0  0  0
    6.2564   -4.4784    4.4172 H   0  0  0  0  0  0  0  0  0  0  0  0
    6.1862   -0.5842   -0.6521 H   0  0  0  0  0  0  0  0  0  0  0  0
    6.9124   -1.8104    0.3746 H   0  0  0  0  0  0  0  0  0  0  0  0
    5.9173   -0.5297    1.0743 H   0  0  0  0  0  0  0  0  0  0  0  0
    4.9556   -0.7009   -2.2573 H   0  0  0  0  0  0  0  0  0  0  0  0
    3.2265   -0.7532   -2.4029 H   0  0  0  0  0  0  0  0  0  0  0  0
    4.2232   -2.0318   -3.0965 H   0  0  0  0  0  0  0  0  0  0  0  0
  1  2  1  0
  1 23  1  0
  1 24  1  0
  1 25  1  0
  2 21  1  0
  2  3  2  0
  3  4  1  0
  4 18  1  0
  4  5  2  0
  5  6  1  0
  5 15  1  0
  6  7  2  0
  6  8  1  0
  8  9  1  0
  9 14  1  0
  9 10  2  0
 10 11  1  0
 10 26  1  0
 11 12  2  0
 11 27  1  0
 12 13  1  0
 12 28  1  0
 13 14  2  0
 13 29  1  0
 14 30  1  0
 15 16  1  0
 15 17  2  0
 16 31  1  0
 16 32  1  0
 16 33  1  0
 17 18  1  0
 18 19  1  0
 19 20  1  0
 19 21  2  0
 20 34  1  0
 20 35  1  0
 20 36  1  0
 21 22  1  0
 22 37  1  0
 22 38  1  0
 22 39  1  0
M  END
>  <i_m_ct_stereo_status>  (404) 
1

>  <s_m_source_file>  (404) 
/var/tmp/pbs.5102264.sched01/tmps1u238za/138cwx3dj4e.sdf

>  <i_m_source_file_index>  (404) 
7

>  <i_lp_mmshare_version>  (404) 
48012

>  <i_f3d_flags>  (404) 
0

>  <s_epik_input>  (404) 
W0NIM11jKG4xKWMoW0NIM10pYyhbQ0gzXSluKGMxMiluYyhbQ0gzXSljMkMoPU8pT2MzW2NIXVtjSF1bY0hdW2NIXVtjSF0z

>  <s_epik_cmdline>  (404) 
J2VwaWtfcHl0aG9uJywgJy1waHQnLCAnMi4wJywgJy1waCcsICc3LjAnLCAnLXRuJywgJzgnLCAnLW1hJywgJzIwMCcsICctaW1hZScsICc8aW5maWxlLm1hZT4nLCAnLW9tYWUnLCAnPG91dGZpbGUubWFlPic=

>  <r_lp_tautomer_probability>  (404) 
1

>  <r_epik_Ionization_Penalty>  (404) 
2.037e-08

>  <r_epik_Ionization_Penalty_Charging>  (404) 
0

>  <r_epik_Ionization_Penalty_Neutral>  (404) 
2.037e-08

>  <r_epik_State_Penalty>  (404) 
-0

>  <r_epik_Charging_Adjusted_Penalty>  (404) 
0

>  <i_epik_Tot_Q>  (404) 
0

>  <i_epik_Tot_abs_Q>  (404) 
0

>  <s_lp_Force_Field>  (404) 
OPLS3e

>  <r_lp_Energy>  (404) 
26.0148

>  <b_lp_Chiralities_Consistent>  (404) 
1

>  <s_lp_Variant>  (404) 
84:0-1

>  <s_i_glide_gridfile>  (404) 
pfpi4k_grid

>  <i_i_glide_lignum>  (404) 
7

>  <i_i_glide_rotatable_bonds>  (404) 
3

>  <r_i_docking_score>  (404) 
-2.32047

>  <r_i_glide_ligand_efficiency>  (404) 
-0.105476

>  <r_i_glide_ligand_efficiency_sa>  (404) 
-0.295547

>  <r_i_glide_ligand_efficiency_ln>  (404) 
-0.567207

>  <r_i_glide_gscore>  (404) 
-2.32047

>  <r_i_glide_lipo>  (404) 
-0.143688

>  <r_i_glide_hbond>  (404) 
-0.00783137

>  <r_i_glide_metal>  (404) 
-0

>  <r_i_glide_rewards>  (404) 
-1.42282

>  <r_i_glide_evdw>  (404) 
-23.6083

>  <r_i_glide_ecoul>  (404) 
-1.28294

>  <r_i_glide_erotb>  (404) 
0.629514

>  <r_i_glide_esite>  (404) 
-0.00278808

>  <r_i_glide_emodel>  (404) 
-28.4269

>  <r_i_glide_energy>  (404) 
-24.8913

>  <r_i_glide_einternal>  (404) 
0.545833

>  <r_i_glide_intrahb_reward>  (404) 
-0

>  <i_i_glide_confnum>  (404) 
2

>  <i_i_glide_posenum>  (404) 
9

>  <r_i_glide_eff_state_penalty>  (404) 
0

>  <ligand_id>  (404) 
84

>  <original_smiles>  (404) 
Cc1nc2c(C(=O)Oc3ccccc3)c(C)nn2c(C)c1C

>  <smiles>  (404) 
[H]c1c([H])c([H])c(OC(=O)c2c(C([H])([H])[H])nn3c(C([H])([H])[H])c(C([H])([H])[H])c(C([H])([H])[H])nc23)c([H])c1[H]

$$$$
84:0:2
     RDKit          3D

 39 41  0  0  1  0  0  0  0  0999 V2000
    0.8036   -0.9219    3.7794 C   0  0  0  0  0  0  0  0  0  0  0  0
    1.8754   -1.3615    2.7897 C   0  0  0  0  0  0  0  0  0  0  0  0
    1.9113   -2.6782    2.5954 N   0  0  0  0  0  0  0  0  0  0  0  0
    2.8192   -3.1697    1.7305 C   0  0  0  0  0  0  0  0  0  0  0  0
    3.1498   -4.4317    1.2766 C   0  0  0  0  0  0  0  0  0  0  0  0
    2.5002   -5.6811    1.6766 C   0  0  0  0  0  0  0  0  0  0  0  0
    2.8647   -6.7912    1.2897 O   0  0  0  0  0  0  0  0  0  0  0  0
    1.4276   -5.5109    2.4896 O   0  0  0  0  0  0  0  0  0  0  0  0
    0.5902   -6.5612    2.7802 C   0  0  0  0  0  0  0  0  0  0  0  0
   -0.1191   -7.2350    1.7580 C   0  0  0  0  0  0  0  0  0  0  0  0
   -1.0051   -8.2775    2.0818 C   0  0  0  0  0  0  0  0  0  0  0  0
   -1.1960   -8.6471    3.4240 C   0  0  0  0  0  0  0  0  0  0  0  0
   -0.4976   -7.9811    4.4472 C   0  0  0  0  0  0  0  0  0  0  0  0
    0.3897   -6.9356    4.1251 C   0  0  0  0  0  0  0  0  0  0  0  0
    4.2250   -4.2397    0.3574 C   0  0  0  0  0  0  0  0  0  0  0  0
    4.9865   -5.2575   -0.4455 C   0  0  0  0  0  0  0  0  0  0  0  0
    4.5625   -2.9775    0.2327 N   0  0  0  0  0  0  0  0  0  0  0  0
    3.7067   -2.2991    1.0642 N   0  0  0  0  0  0  0  0  0  0  0  0
    3.6809   -0.9482    1.2679 C   0  0  0  0  0  0  0  0  0  0  0  0
    4.7097   -0.1457    0.4858 C   0  0  0  0  0  0  0  0  0  0  0  0
    2.7482   -0.4280    2.1560 C   0  0  0  0  0  0  0  0  0  0  0  0
    2.6264    1.0646    2.4621 C   0  0  0  0  0  0  0  0  0  0  0  0
    0.7713    0.1543    3.9525 H   0  0  0  0  0  0  0  0  0  0  0  0
    0.9697   -1.3983    4.7474 H   0  0  0  0  0  0  0  0  0  0  0  0
   -0.1850   -1.2161    3.4234 H   0  0  0  0  0  0  0  0  0  0  0  0
    0.0161   -6.9701    0.7192 H   0  0  0  0  0  0  0  0  0  0  0  0
   -1.5237   -8.8092    1.2968 H   0  0  0  0  0  0  0  0  0  0  0  0
   -1.8720   -9.4514    3.6745 H   0  0  0  0  0  0  0  0  0  0  0  0
   -0.6377   -8.2848    5.4739 H   0  0  0  0  0  0  0  0  0  0  0  0
    0.9181   -6.4178    4.9115 H   0  0  0  0  0  0  0  0  0  0  0  0
    4.6470   -6.2807   -0.2985 H   0  0  0  0  0  0  0  0  0  0  0  0
    6.0461   -5.2294   -0.1925 H   0  0  0  0  0  0  0  0  0  0  0  0
    4.9049   -5.0488   -1.5127 H   0  0  0  0  0  0  0  0  0  0  0  0
    4.6582    0.9194    0.6578 H   0  0  0  0  0  0  0  0  0  0  0  0
    4.5700   -0.2985   -0.5853 H   0  0  0  0  0  0  0  0  0  0  0  0
    5.7200   -0.4729    0.7405 H   0  0  0  0  0  0  0  0  0  0  0  0
    3.3237    1.7104    1.9467 H   0  0  0  0  0  0  0  0  0  0  0  0
    2.7843    1.2453    3.5242 H   0  0  0  0  0  0  0  0  0  0  0  0
    1.6332    1.4245    2.1973 H   0  0  0  0  0  0  0  0  0  0  0  0
  1  2  1  0
  1 23  1  0
  1 24  1  0
  1 25  1  0
  2 21  1  0
  2  3  2  0
  3  4  1  0
  4 18  1  0
  4  5  2  0
  5  6  1  0
  5 15  1  0
  6  7  2  0
  6  8  1  0
  8  9  1  0
  9 14  1  0
  9 10  2  0
 10 11  1  0
 10 26  1  0
 11 12  2  0
 11 27  1  0
 12 13  1  0
 12 28  1  0
 13 14  2  0
 13 29  1  0
 14 30  1  0
 15 16  1  0
 15 17  2  0
 16 31  1  0
 16 32  1  0
 16 33  1  0
 17 18  1  0
 18 19  1  0
 19 20  1  0
 19 21  2  0
 20 34  1  0
 20 35  1  0
 20 36  1  0
 21 22  1  0
 22 37  1  0
 22 38  1  0
 22 39  1  0
M  END
>  <i_m_ct_stereo_status>  (405) 
1

>  <s_m_source_file>  (405) 
/var/tmp/pbs.5102264.sched01/tmps1u238za/138cwx3dj4e.sdf

>  <i_m_source_file_index>  (405) 
7

>  <i_lp_mmshare_version>  (405) 
48012

>  <i_f3d_flags>  (405) 
0

>  <s_epik_input>  (405) 
W0NIM11jKG4xKWMoW0NIM10pYyhbQ0gzXSluKGMxMiluYyhbQ0gzXSljMkMoPU8pT2MzW2NIXVtjSF1bY0hdW2NIXVtjSF0z

>  <s_epik_cmdline>  (405) 
J2VwaWtfcHl0aG9uJywgJy1waHQnLCAnMi4wJywgJy1waCcsICc3LjAnLCAnLXRuJywgJzgnLCAnLW1hJywgJzIwMCcsICctaW1hZScsICc8aW5maWxlLm1hZT4nLCAnLW9tYWUnLCAnPG91dGZpbGUubWFlPic=

>  <r_lp_tautomer_probability>  (405) 
1

>  <r_epik_Ionization_Penalty>  (405) 
2.037e-08

>  <r_epik_Ionization_Penalty_Charging>  (405) 
0

>  <r_epik_Ionization_Penalty_Neutral>  (405) 
2.037e-08

>  <r_epik_State_Penalty>  (405) 
-0

>  <r_epik_Charging_Adjusted_Penalty>  (405) 
0

>  <i_epik_Tot_Q>  (405) 
0

>  <i_epik_Tot_abs_Q>  (405) 
0

>  <s_lp_Force_Field>  (405) 
OPLS3e

>  <r_lp_Energy>  (405) 
26.0148

>  <b_lp_Chiralities_Consistent>  (405) 
1

>  <s_lp_Variant>  (405) 
84:0-1

>  <s_i_glide_gridfile>  (405) 
pfpi4k_grid

>  <i_i_glide_lignum>  (405) 
7

>  <i_i_glide_rotatable_bonds>  (405) 
3

>  <r_i_docking_score>  (405) 
-2.30209

>  <r_i_glide_ligand_efficiency>  (405) 
-0.104641

>  <r_i_glide_ligand_efficiency_sa>  (405) 
-0.293207

>  <r_i_glide_ligand_efficiency_ln>  (405) 
-0.562715

>  <r_i_glide_gscore>  (405) 
-2.30209

>  <r_i_glide_lipo>  (405) 
-0.17337

>  <r_i_glide_hbond>  (405) 
0

>  <r_i_glide_metal>  (405) 
-0

>  <r_i_glide_rewards>  (405) 
-1.39544

>  <r_i_glide_evdw>  (405) 
-25.184

>  <r_i_glide_ecoul>  (405) 
-0.447322

>  <r_i_glide_erotb>  (405) 
0.629514

>  <r_i_glide_esite>  (405) 
-0.036501

>  <r_i_glide_emodel>  (405) 
-29.3669

>  <r_i_glide_energy>  (405) 
-25.6313

>  <r_i_glide_einternal>  (405) 
0.328226

>  <r_i_glide_intrahb_reward>  (405) 
-0

>  <i_i_glide_confnum>  (405) 
6

>  <i_i_glide_posenum>  (405) 
35

>  <r_i_glide_eff_state_penalty>  (405) 
0

>  <ligand_id>  (405) 
84

>  <original_smiles>  (405) 
Cc1nc2c(C(=O)Oc3ccccc3)c(C)nn2c(C)c1C

>  <smiles>  (405) 
[H]c1c([H])c([H])c(OC(=O)c2c(C([H])([H])[H])nn3c(C([H])([H])[H])c(C([H])([H])[H])c(C([H])([H])[H])nc23)c([H])c1[H]

$$$$
85:2:0
     RDKit          3D

 59 63  0  0  1  0  0  0  0  0999 V2000
    1.7914   -4.5514    3.2251 C   0  0  0  0  0  0  0  0  0  0  0  0
    1.2819   -5.9331    2.6964 C   0  0  0  0  0  0  0  0  0  0  0  0
    1.8178   -7.2519    3.3591 C   0  0  2  0  0  0  0  0  0  0  0  0
    1.4061   -8.4504    2.4223 C   0  0  0  0  0  0  0  0  0  0  0  0
    1.4901   -7.4673    4.9243 C   0  0  1  0  0  0  0  0  0  0  0  0
    1.3974   -6.1231    5.6992 C   0  0  0  0  0  0  0  0  0  0  0  0
    0.0521   -8.0201    5.0176 C   0  0  0  0  0  0  0  0  0  0  0  0
   -0.9070   -7.4342    4.4933 O   0  0  0  0  0  0  0  0  0  0  0  0
   -0.1902   -9.2953    5.8076 C   0  0  0  0  0  0  0  0  0  0  0  0
    0.5122   -9.2470    7.1660 C   0  0  2  0  0  0  0  0  0  0  0  0
   -0.0827   -8.1647    7.9381 O   0  0  0  0  0  0  0  0  0  0  0  0
    0.9119   -7.6084    8.6641 C   0  0  0  0  0  0  0  0  0  0  0  0
    0.9476   -6.6936    9.7260 C   0  0  0  0  0  0  0  0  0  0  0  0
   -0.2015   -6.0670   10.1325 O   0  0  0  0  0  0  0  0  0  0  0  0
    2.1379   -6.4415   10.4313 C   0  0  0  0  0  0  0  0  0  0  0  0
    3.3178   -7.1492   10.1195 C   0  0  0  0  0  0  0  0  0  0  0  0
    3.3071   -8.0227    9.0089 C   0  0  0  0  0  0  0  0  0  0  0  0
    2.1218   -8.0750    8.2763 C   0  0  0  0  0  0  0  0  0  0  0  0
    2.0587   -8.9929    7.1066 C   0  0  1  0  0  0  0  0  0  0  0  0
    3.0597  -10.0336    7.7104 C   0  0  2  0  0  0  0  0  0  0  0  0
    4.1075   -9.1868    8.5324 C   0  0  0  0  0  0  0  0  0  0  0  0
    3.6293  -11.0316    6.7613 N   0  0  2  0  0  0  0  0  0  0  0  0
    4.5770  -11.9842    7.3675 C   0  0  0  0  0  0  0  0  0  0  0  0
    4.1494  -10.4164    5.5315 C   0  0  0  0  0  0  0  0  0  0  0  0
    3.0695   -9.5840    4.8585 C   0  0  0  0  0  0  0  0  0  0  0  0
    2.5687   -8.3781    5.7114 C   0  0  1  0  0  0  0  0  0  0  0  0
    3.7194   -7.5922    6.0875 O   0  0  0  0  0  0  0  0  0  0  0  0
    4.5733   -6.9611    5.1333 C   0  0  0  0  0  0  0  0  0  0  0  0
    1.3113   -3.7557    2.6507 H   0  0  0  0  0  0  0  0  0  0  0  0
    2.8809   -4.4889    3.1046 H   0  0  0  0  0  0  0  0  0  0  0  0
    1.5348   -4.3454    4.2491 H   0  0  0  0  0  0  0  0  0  0  0  0
    0.1915   -5.9599    2.6895 H   0  0  0  0  0  0  0  0  0  0  0  0
    1.5480   -5.9953    1.6324 H   0  0  0  0  0  0  0  0  0  0  0  0
    2.8935   -7.2006    3.2413 H   0  0  0  0  0  0  0  0  0  0  0  0
    0.3516   -8.4264    2.1489 H   0  0  0  0  0  0  0  0  0  0  0  0
    1.5601   -9.4424    2.8339 H   0  0  0  0  0  0  0  0  0  0  0  0
    1.9760   -8.4396    1.4908 H   0  0  0  0  0  0  0  0  0  0  0  0
    2.3010   -5.5195    5.5974 H   0  0  0  0  0  0  0  0  0  0  0  0
    1.2516   -6.1987    6.7551 H   0  0  0  0  0  0  0  0  0  0  0  0
    0.5590   -5.5027    5.3533 H   0  0  0  0  0  0  0  0  0  0  0  0
   -1.2605   -9.4130    5.9636 H   0  0  0  0  0  0  0  0  0  0  0  0
    0.1577  -10.1383    5.2089 H   0  0  0  0  0  0  0  0  0  0  0  0
    0.3002  -10.1717    7.7028 H   0  0  0  0  0  0  0  0  0  0  0  0
    2.1237   -5.7465   11.2492 H   0  0  0  0  0  0  0  0  0  0  0  0
    4.2008   -7.0582   10.7559 H   0  0  0  0  0  0  0  0  0  0  0  0
    2.5039  -10.6248    8.4457 H   0  0  0  0  0  0  0  0  0  0  0  0
    4.9274   -8.8286    7.9051 H   0  0  0  0  0  0  0  0  0  0  0  0
    4.5317   -9.7804    9.3507 H   0  0  0  0  0  0  0  0  0  0  0  0
    5.5083  -11.4660    7.6535 H   0  0  0  0  0  0  0  0  0  0  0  0
    4.8402  -12.7770    6.6554 H   0  0  0  0  0  0  0  0  0  0  0  0
    4.1476  -12.4578    8.2570 H   0  0  0  0  0  0  0  0  0  0  0  0
    5.0402   -9.8076    5.7648 H   0  0  0  0  0  0  0  0  0  0  0  0
    4.4866  -11.2047    4.8440 H   0  0  0  0  0  0  0  0  0  0  0  0
    3.4742   -9.2779    3.9041 H   0  0  0  0  0  0  0  0  0  0  0  0
    2.2407  -10.2657    4.6594 H   0  0  0  0  0  0  0  0  0  0  0  0
    5.4369   -6.5612    5.6647 H   0  0  0  0  0  0  0  0  0  0  0  0
    4.1133   -6.1050    4.6415 H   0  0  0  0  0  0  0  0  0  0  0  0
    4.9487   -7.6441    4.3714 H   0  0  0  0  0  0  0  0  0  0  0  0
    2.8064  -11.6200    6.4849 H   0  0  0  0  0  0  0  0  0  0  0  0
  1  2  1  0
  1 29  1  0
  1 30  1  0
  1 31  1  0
  2  3  1  0
  2 32  1  0
  2 33  1  0
  3  4  1  0
  3  5  1  0
  3 34  1  1
  4 35  1  0
  4 36  1  0
  4 37  1  0
  5 26  1  0
  5  6  1  1
  5  7  1  0
  6 38  1  0
  6 39  1  0
  6 40  1  0
  7  8  2  0
  7  9  1  0
  9 10  1  0
  9 41  1  0
  9 42  1  0
 10 19  1  0
 10 11  1  0
 10 43  1  1
 11 12  1  0
 12 18  2  0
 12 13  1  0
 13 14  1  0
 13 15  2  0
 15 16  1  0
 15 44  1  0
 16 17  2  0
 16 45  1  0
 17 21  1  0
 17 18  1  0
 19 18  1  1
 19 26  1  0
 19 20  1  0
 20 21  1  0
 20 22  1  0
 20 46  1  1
 21 47  1  0
 21 48  1  0
 22 23  1  0
 22 24  1  0
 22 59  1  6
 23 49  1  0
 23 50  1  0
 23 51  1  0
 24 25  1  0
 24 52  1  0
 24 53  1  0
 25 26  1  0
 25 54  1  0
 25 55  1  0
 26 27  1  1
 27 28  1  0
 28 56  1  0
 28 57  1  0
 28 58  1  0
M  CHG  2  14  -1  22   1
M  END
>  <i_m_ct_stereo_status>  (406) 
1

>  <s_m_source_file>  (406) 
/var/tmp/pbs.5102264.sched01/tmps1u238za/138cwx3dj4e.sdf

>  <i_m_source_file_index>  (406) 
10

>  <i_lp_mmshare_version>  (406) 
48012

>  <i_f3d_flags>  (406) 
0

>  <s_epik_input>  (406) 
W0NAXTEyM1tDQEBIXTRbQ0gyXUMoPU8pW0NAXShbQ0gzXSkoW0NAQEhdKFtDSDNdKVtDSDJdW0NIM10pW0NAXTMoT1tDSDNdKVtDSDJdW0NIMl1OKFtDSDNdKVtDQEhdMltDSDJdYzVjMWMoTzQpYyhbT0hdKVtjSF1bY0hdNQ==

>  <s_epik_cmdline>  (406) 
J2VwaWtfcHl0aG9uJywgJy1waHQnLCAnMi4wJywgJy1waCcsICc3LjAnLCAnLXRuJywgJzgnLCAnLW1hJywgJzIwMCcsICctaW1hZScsICc8aW5maWxlLm1hZT4nLCAnLW9tYWUnLCAnPG91dGZpbGUubWFlPic=

>  <r_epik_Ionization_Penalty>  (406) 
1.69278

>  <r_epik_Ionization_Penalty_Charging>  (406) 
1.69278

>  <r_epik_Ionization_Penalty_Neutral>  (406) 
1.22757e-11

>  <r_epik_State_Penalty>  (406) 
1.7826

>  <r_epik_Charging_Adjusted_Penalty>  (406) 
3.47539

>  <i_epik_Tot_Q>  (406) 
0

>  <i_epik_Tot_abs_Q>  (406) 
2

>  <s_lp_Force_Field>  (406) 
OPLS3e

>  <r_lp_Energy>  (406) 
81.562

>  <b_lp_Chiralities_Consistent>  (406) 
1

>  <s_lp_Variant>  (406) 
85:0-3

>  <s_i_glide_gridfile>  (406) 
pfpi4k_grid

>  <i_i_glide_lignum>  (406) 
10

>  <i_i_glide_rotatable_bonds>  (406) 
3

>  <r_i_docking_score>  (406) 
-3.07615

>  <r_i_glide_ligand_efficiency>  (406) 
-0.109862

>  <r_i_glide_ligand_efficiency_sa>  (406) 
-0.333607

>  <r_i_glide_ligand_efficiency_ln>  (406) 
-0.710065

>  <r_i_glide_gscore>  (406) 
-3.07615

>  <r_i_glide_lipo>  (406) 
0

>  <r_i_glide_hbond>  (406) 
-0.276273

>  <r_i_glide_metal>  (406) 
-0

>  <r_i_glide_rewards>  (406) 
-0.780705

>  <r_i_glide_evdw>  (406) 
-13.5336

>  <r_i_glide_ecoul>  (406) 
-8.94002

>  <r_i_glide_erotb>  (406) 
0.130906

>  <r_i_glide_esite>  (406) 
-0.13239

>  <r_i_glide_emodel>  (406) 
-30.252

>  <r_i_glide_energy>  (406) 
-22.4736

>  <r_i_glide_einternal>  (406) 
0.00617629

>  <r_i_glide_intrahb_reward>  (406) 
-0

>  <i_i_glide_confnum>  (406) 
3

>  <i_i_glide_posenum>  (406) 
28

>  <r_i_glide_eff_state_penalty>  (406) 
0

>  <ligand_id>  (406) 
85

>  <original_smiles>  (406) 
CCC(C)C1(C)C(=O)CC2Oc3c(O)ccc4c3C23C(C4)N(C)CCC13OC

>  <smiles>  (406) 
[H]c1c([H])c2c3c(c1[O-])OC1([H])C([H])([H])C(=O)C(C([H])([H])[H])(C([H])(C([H])([H])[H])C([H])([H])C([H])([H])[H])C4(OC([H])([H])[H])C([H])([H])C([H])([H])[N+]([H])(C([H])([H])[H])C([H])(C2([H])[H])C314

$$$$
85:2:1
     RDKit          3D

 59 63  0  0  1  0  0  0  0  0999 V2000
    6.9040   -7.0529    7.6030 C   0  0  0  0  0  0  0  0  0  0  0  0
    5.6519   -7.0582    6.7343 C   0  0  0  0  0  0  0  0  0  0  0  0
    5.7494   -6.5405    5.2686 C   0  0  2  0  0  0  0  0  0  0  0  0
    6.0659   -5.0122    5.4530 C   0  0  0  0  0  0  0  0  0  0  0  0
    4.5363   -6.9073    4.2446 C   0  0  1  0  0  0  0  0  0  0  0  0
    3.2941   -5.9964    4.5333 C   0  0  0  0  0  0  0  0  0  0  0  0
    5.0113   -6.4796    2.8120 C   0  0  0  0  0  0  0  0  0  0  0  0
    5.3408   -5.3269    2.5444 O   0  0  0  0  0  0  0  0  0  0  0  0
    5.0500   -7.4907    1.6850 C   0  0  0  0  0  0  0  0  0  0  0  0
    3.7285   -8.2325    1.5975 C   0  0  2  0  0  0  0  0  0  0  0  0
    2.6926   -7.2405    1.3059 O   0  0  0  0  0  0  0  0  0  0  0  0
    1.5769   -7.6350    1.9678 C   0  0  0  0  0  0  0  0  0  0  0  0
    0.2276   -7.2983    1.8798 C   0  0  0  0  0  0  0  0  0  0  0  0
   -0.1788   -6.3307    0.9864 O   0  0  0  0  0  0  0  0  0  0  0  0
   -0.7604   -8.0174    2.5725 C   0  0  0  0  0  0  0  0  0  0  0  0
   -0.4200   -9.1973    3.2851 C   0  0  0  0  0  0  0  0  0  0  0  0
    0.9472   -9.5204    3.3995 C   0  0  0  0  0  0  0  0  0  0  0  0
    1.8533   -8.6503    2.8376 C   0  0  0  0  0  0  0  0  0  0  0  0
    3.3082   -8.9659    2.9039 C   0  0  1  0  0  0  0  0  0  0  0  0
    3.0692  -10.5166    2.8925 C   0  0  2  0  0  0  0  0  0  0  0  0
    1.7422  -10.7831    3.6828 C   0  0  0  0  0  0  0  0  0  0  0  0
    4.2414  -11.3596    3.2743 N   0  0  2  0  0  0  0  0  0  0  0  0
    3.9717  -12.8235    3.3009 C   0  0  0  0  0  0  0  0  0  0  0  0
    4.8589  -10.9023    4.5377 C   0  0  0  0  0  0  0  0  0  0  0  0
    5.2936   -9.4454    4.3887 C   0  0  0  0  0  0  0  0  0  0  0  0
    4.0663   -8.4703    4.2489 C   0  0  1  0  0  0  0  0  0  0  0  0
    3.0198   -8.7447    5.2499 O   0  0  0  0  0  0  0  0  0  0  0  0
    3.1907   -8.7945    6.6630 C   0  0  0  0  0  0  0  0  0  0  0  0
    6.6487   -7.6745    8.4738 H   0  0  0  0  0  0  0  0  0  0  0  0
    7.1366   -6.0300    7.9681 H   0  0  0  0  0  0  0  0  0  0  0  0
    7.7645   -7.5372    7.0980 H   0  0  0  0  0  0  0  0  0  0  0  0
    5.5299   -8.1074    6.7233 H   0  0  0  0  0  0  0  0  0  0  0  0
    4.8712   -6.5049    7.2857 H   0  0  0  0  0  0  0  0  0  0  0  0
    6.6431   -6.9938    4.8072 H   0  0  0  0  0  0  0  0  0  0  0  0
    5.3596   -4.5575    6.1602 H   0  0  0  0  0  0  0  0  0  0  0  0
    6.0661   -4.3967    4.5474 H   0  0  0  0  0  0  0  0  0  0  0  0
    7.0707   -4.9221    5.8786 H   0  0  0  0  0  0  0  0  0  0  0  0
    2.8859   -6.1201    5.5379 H   0  0  0  0  0  0  0  0  0  0  0  0
    2.4694   -6.2110    3.8573 H   0  0  0  0  0  0  0  0  0  0  0  0
    3.4890   -4.9308    4.3827 H   0  0  0  0  0  0  0  0  0  0  0  0
    5.2340   -6.9423    0.7588 H   0  0  0  0  0  0  0  0  0  0  0  0
    5.8924   -8.1571    1.8371 H   0  0  0  0  0  0  0  0  0  0  0  0
    3.7664   -8.9215    0.7544 H   0  0  0  0  0  0  0  0  0  0  0  0
   -1.7917   -7.7287    2.4959 H   0  0  0  0  0  0  0  0  0  0  0  0
   -1.2130   -9.8621    3.6519 H   0  0  0  0  0  0  0  0  0  0  0  0
    2.8831  -10.7886    1.8549 H   0  0  0  0  0  0  0  0  0  0  0  0
    1.8975  -10.8469    4.7571 H   0  0  0  0  0  0  0  0  0  0  0  0
    1.2360  -11.6864    3.3420 H   0  0  0  0  0  0  0  0  0  0  0  0
    3.2939  -13.0672    4.1133 H   0  0  0  0  0  0  0  0  0  0  0  0
    4.8988  -13.3784    3.4650 H   0  0  0  0  0  0  0  0  0  0  0  0
    3.5433  -13.1500    2.3562 H   0  0  0  0  0  0  0  0  0  0  0  0
    4.1694  -11.0711    5.3716 H   0  0  0  0  0  0  0  0  0  0  0  0
    5.7338  -11.5185    4.7558 H   0  0  0  0  0  0  0  0  0  0  0  0
    5.9574   -9.2906    5.2172 H   0  0  0  0  0  0  0  0  0  0  0  0
    5.9496   -9.3670    3.5196 H   0  0  0  0  0  0  0  0  0  0  0  0
    2.3286   -9.1892    7.1825 H   0  0  0  0  0  0  0  0  0  0  0  0
    3.3047   -7.7922    7.0272 H   0  0  0  0  0  0  0  0  0  0  0  0
    4.0299   -9.4342    6.9405 H   0  0  0  0  0  0  0  0  0  0  0  0
    4.9428  -11.2318    2.5528 H   0  0  0  0  0  0  0  0  0  0  0  0
  1  2  1  0
  1 29  1  0
  1 30  1  0
  1 31  1  0
  2  3  1  0
  2 32  1  0
  2 33  1  0
  3  4  1  0
  3  5  1  0
  3 34  1  6
  4 35  1  0
  4 36  1  0
  4 37  1  0
  5 26  1  0
  5  6  1  1
  5  7  1  0
  6 38  1  0
  6 39  1  0
  6 40  1  0
  7  8  2  0
  7  9  1  0
  9 10  1  0
  9 41  1  0
  9 42  1  0
 10 19  1  0
 10 11  1  0
 10 43  1  6
 11 12  1  0
 12 18  2  0
 12 13  1  0
 13 14  1  0
 13 15  2  0
 15 16  1  0
 15 44  1  0
 16 17  2  0
 16 45  1  0
 17 21  1  0
 17 18  1  0
 19 18  1  1
 19 26  1  0
 19 20  1  0
 20 21  1  0
 20 22  1  0
 20 46  1  6
 21 47  1  0
 21 48  1  0
 22 23  1  0
 22 24  1  0
 22 59  1  6
 23 49  1  0
 23 50  1  0
 23 51  1  0
 24 25  1  0
 24 52  1  0
 24 53  1  0
 25 26  1  0
 25 54  1  0
 25 55  1  0
 26 27  1  1
 27 28  1  0
 28 56  1  0
 28 57  1  0
 28 58  1  0
M  CHG  2  14  -1  22   1
M  END
>  <i_m_ct_stereo_status>  (407) 
1

>  <s_m_source_file>  (407) 
/var/tmp/pbs.5102264.sched01/tmps1u238za/138cwx3dj4e.sdf

>  <i_m_source_file_index>  (407) 
10

>  <i_lp_mmshare_version>  (407) 
48012

>  <i_f3d_flags>  (407) 
0

>  <s_epik_input>  (407) 
W0NAXTEyM1tDQEBIXTRbQ0gyXUMoPU8pW0NAXShbQ0gzXSkoW0NAQEhdKFtDSDNdKVtDSDJdW0NIM10pW0NAXTMoT1tDSDNdKVtDSDJdW0NIMl1OKFtDSDNdKVtDQEhdMltDSDJdYzVjMWMoTzQpYyhbT0hdKVtjSF1bY0hdNQ==

>  <s_epik_cmdline>  (407) 
J2VwaWtfcHl0aG9uJywgJy1waHQnLCAnMi4wJywgJy1waCcsICc3LjAnLCAnLXRuJywgJzgnLCAnLW1hJywgJzIwMCcsICctaW1hZScsICc8aW5maWxlLm1hZT4nLCAnLW9tYWUnLCAnPG91dGZpbGUubWFlPic=

>  <r_epik_Ionization_Penalty>  (407) 
1.69278

>  <r_epik_Ionization_Penalty_Charging>  (407) 
1.69278

>  <r_epik_Ionization_Penalty_Neutral>  (407) 
1.22757e-11

>  <r_epik_State_Penalty>  (407) 
1.7826

>  <r_epik_Charging_Adjusted_Penalty>  (407) 
3.47539

>  <i_epik_Tot_Q>  (407) 
0

>  <i_epik_Tot_abs_Q>  (407) 
2

>  <s_lp_Force_Field>  (407) 
OPLS3e

>  <r_lp_Energy>  (407) 
81.562

>  <b_lp_Chiralities_Consistent>  (407) 
1

>  <s_lp_Variant>  (407) 
85:0-3

>  <s_i_glide_gridfile>  (407) 
pfpi4k_grid

>  <i_i_glide_lignum>  (407) 
10

>  <i_i_glide_rotatable_bonds>  (407) 
3

>  <r_i_docking_score>  (407) 
-2.86427

>  <r_i_glide_ligand_efficiency>  (407) 
-0.102296

>  <r_i_glide_ligand_efficiency_sa>  (407) 
-0.310629

>  <r_i_glide_ligand_efficiency_ln>  (407) 
-0.661159

>  <r_i_glide_gscore>  (407) 
-2.86427

>  <r_i_glide_lipo>  (407) 
-0.135813

>  <r_i_glide_hbond>  (407) 
-0.286953

>  <r_i_glide_metal>  (407) 
-0

>  <r_i_glide_rewards>  (407) 
-0.780705

>  <r_i_glide_evdw>  (407) 
-17.3763

>  <r_i_glide_ecoul>  (407) 
-5.78464

>  <r_i_glide_erotb>  (407) 
0.130906

>  <r_i_glide_esite>  (407) 
-0.055199

>  <r_i_glide_emodel>  (407) 
-27.9798

>  <r_i_glide_energy>  (407) 
-23.1609

>  <r_i_glide_einternal>  (407) 
3.35255

>  <r_i_glide_intrahb_reward>  (407) 
-0

>  <i_i_glide_confnum>  (407) 
4

>  <i_i_glide_posenum>  (407) 
1

>  <r_i_glide_eff_state_penalty>  (407) 
0

>  <ligand_id>  (407) 
85

>  <original_smiles>  (407) 
CCC(C)C1(C)C(=O)CC2Oc3c(O)ccc4c3C23C(C4)N(C)CCC13OC

>  <smiles>  (407) 
[H]c1c([H])c2c3c(c1[O-])OC1([H])C([H])([H])C(=O)C(C([H])([H])[H])(C([H])(C([H])([H])[H])C([H])([H])C([H])([H])[H])C4(OC([H])([H])[H])C([H])([H])C([H])([H])[N+]([H])(C([H])([H])[H])C([H])(C2([H])[H])C314

$$$$
86:0:0
     RDKit          3D

 28 30  0  0  1  0  0  0  0  0999 V2000
    1.6323   -5.9627    2.1747 C   0  0  0  0  0  0  0  0  0  0  0  0
    1.8152   -5.7492    0.9360 N   0  0  0  0  0  0  0  0  0  0  0  0
    2.8169   -4.9182    0.5459 C   0  0  0  0  0  0  0  0  0  0  0  0
    4.0186   -4.6240    1.0583 N   0  0  0  0  0  0  0  0  0  0  0  0
    4.5963   -3.6973    0.2195 N   0  0  0  0  0  0  0  0  0  0  0  0
    3.7122   -3.4982   -0.7567 C   0  0  0  0  0  0  0  0  0  0  0  0
    3.8249   -2.5999   -1.8960 C   0  0  0  0  0  0  0  0  0  0  0  0
    4.1053   -1.2318   -1.6973 C   0  0  0  0  0  0  0  0  0  0  0  0
    4.2142   -0.4046   -2.8316 C   0  0  0  0  0  0  0  0  0  0  0  0
    4.0242   -0.9653   -4.1051 C   0  0  0  0  0  0  0  0  0  0  0  0
    3.7984   -2.2734   -4.3088 N   0  0  0  0  0  0  0  0  0  0  0  0
    3.6790   -3.0661   -3.2209 C   0  0  0  0  0  0  0  0  0  0  0  0
    2.5720   -4.2257   -0.6013 O   0  0  0  0  0  0  0  0  0  0  0  0
    0.5728   -6.8425    2.7245 C   0  0  0  0  0  0  0  0  0  0  0  0
   -0.1368   -7.7542    1.9091 C   0  0  0  0  0  0  0  0  0  0  0  0
   -1.1385   -8.5619    2.4840 C   0  0  0  0  0  0  0  0  0  0  0  0
   -1.3950   -8.4288    3.8602 C   0  0  0  0  0  0  0  0  0  0  0  0
   -0.7470   -7.5457    4.6482 N   0  0  0  0  0  0  0  0  0  0  0  0
    0.2285   -6.7968    4.0943 C   0  0  0  0  0  0  0  0  0  0  0  0
    2.2585   -5.4486    2.9133 H   0  0  0  0  0  0  0  0  0  0  0  0
    4.2229   -0.8179   -0.7025 H   0  0  0  0  0  0  0  0  0  0  0  0
    4.3917    0.6534   -2.7360 H   0  0  0  0  0  0  0  0  0  0  0  0
    4.1104   -0.3551   -4.9948 H   0  0  0  0  0  0  0  0  0  0  0  0
    3.5075   -4.1048   -3.4401 H   0  0  0  0  0  0  0  0  0  0  0  0
    0.0860   -7.8508    0.8566 H   0  0  0  0  0  0  0  0  0  0  0  0
   -1.6777   -9.2869    1.8935 H   0  0  0  0  0  0  0  0  0  0  0  0
   -2.1486   -9.0374    4.3374 H   0  0  0  0  0  0  0  0  0  0  0  0
    0.7192   -6.1162    4.7747 H   0  0  0  0  0  0  0  0  0  0  0  0
  1  2  2  3
  1 14  1  0
  1 20  1  0
  2  3  1  0
  3 13  1  0
  3  4  2  0
  4  5  1  0
  5  6  2  0
  6  7  1  0
  6 13  1  0
  7 12  1  0
  7  8  2  0
  8  9  1  0
  8 21  1  0
  9 10  2  0
  9 22  1  0
 10 11  1  0
 10 23  1  0
 11 12  2  0
 12 24  1  0
 14 19  1  0
 14 15  2  0
 15 16  1  0
 15 25  1  0
 16 17  2  0
 16 26  1  0
 17 18  1  0
 17 27  1  0
 18 19  2  0
 19 28  1  0
M  END
>  <i_m_ct_stereo_status>  (408) 
1

>  <s_m_source_file>  (408) 
/var/tmp/pbs.5102264.sched01/tmps1u238za/138cwx3dj4e.sdf

>  <i_m_source_file_index>  (408) 
11

>  <i_lp_mmshare_version>  (408) 
48012

>  <i_f3d_flags>  (408) 
0

>  <s_epik_input>  (408) 
W2NIXTFuW2NIXVtjSF1bY0hdYzEvW0NIXT1OL2Mybm5jKG8yKS1jM1tjSF1bY0hdW2NIXW5bY0hdMw==

>  <s_epik_cmdline>  (408) 
J2VwaWtfcHl0aG9uJywgJy1waHQnLCAnMi4wJywgJy1waCcsICc3LjAnLCAnLXRuJywgJzgnLCAnLW1hJywgJzIwMCcsICctaW1hZScsICc8aW5maWxlLm1hZT4nLCAnLW9tYWUnLCAnPG91dGZpbGUubWFlPic=

>  <r_epik_Ionization_Penalty>  (408) 
0.0044119

>  <r_epik_Ionization_Penalty_Charging>  (408) 
0

>  <r_epik_Ionization_Penalty_Neutral>  (408) 
0.0044119

>  <r_epik_State_Penalty>  (408) 
0.00303862

>  <r_epik_Charging_Adjusted_Penalty>  (408) 
0.00303862

>  <i_epik_Tot_Q>  (408) 
0

>  <i_epik_Tot_abs_Q>  (408) 
0

>  <s_epik_Chemistry_Notes>  (408) 
This compound has an imine and may undergo hydrolysis.

>  <s_lp_Force_Field>  (408) 
OPLS3e

>  <r_lp_Energy>  (408) 
30.343

>  <b_lp_Chiralities_Consistent>  (408) 
1

>  <s_lp_Variant>  (408) 
86:0-1

>  <s_i_glide_gridfile>  (408) 
pfpi4k_grid

>  <i_i_glide_lignum>  (408) 
11

>  <i_i_glide_rotatable_bonds>  (408) 
3

>  <r_i_docking_score>  (408) 
-3.91278

>  <r_i_glide_ligand_efficiency>  (408) 
-0.205936

>  <r_i_glide_ligand_efficiency_sa>  (408) 
-0.54952

>  <r_i_glide_ligand_efficiency_ln>  (408) 
-0.991974

>  <r_i_glide_gscore>  (408) 
-3.91278

>  <r_i_glide_lipo>  (408) 
-0.422686

>  <r_i_glide_hbond>  (408) 
-0.396496

>  <r_i_glide_metal>  (408) 
-0

>  <r_i_glide_rewards>  (408) 
-1.69607

>  <r_i_glide_evdw>  (408) 
-26.94

>  <r_i_glide_ecoul>  (408) 
-5.61799

>  <r_i_glide_erotb>  (408) 
0.832884

>  <r_i_glide_esite>  (408) 
-0.0407172

>  <r_i_glide_emodel>  (408) 
-38.6475

>  <r_i_glide_energy>  (408) 
-32.558

>  <r_i_glide_einternal>  (408) 
3.68904

>  <r_i_glide_intrahb_reward>  (408) 
-0

>  <i_i_glide_confnum>  (408) 
5

>  <i_i_glide_posenum>  (408) 
1

>  <r_i_glide_eff_state_penalty>  (408) 
0

>  <ligand_id>  (408) 
86

>  <original_smiles>  (408) 
C(=Nc1nnc(-c2cccnc2)o1)c1cccnc1

>  <smiles>  (408) 
[H]C(=Nc1nnc(-c2c([H])nc([H])c([H])c2[H])o1)c1c([H])nc([H])c([H])c1[H]

$$$$
86:0:1
     RDKit          3D

 28 30  0  0  1  0  0  0  0  0999 V2000
    2.1260   -6.7999    1.5157 C   0  0  0  0  0  0  0  0  0  0  0  0
    1.8394   -5.7638    0.8416 N   0  0  0  0  0  0  0  0  0  0  0  0
    2.8244   -4.9183    0.4399 C   0  0  0  0  0  0  0  0  0  0  0  0
    4.0582   -4.6558    0.8898 N   0  0  0  0  0  0  0  0  0  0  0  0
    4.5824   -3.6754    0.0772 N   0  0  0  0  0  0  0  0  0  0  0  0
    3.6411   -3.4127   -0.8229 C   0  0  0  0  0  0  0  0  0  0  0  0
    3.7090   -2.4772   -1.9359 C   0  0  0  0  0  0  0  0  0  0  0  0
    4.1676   -1.1616   -1.7293 C   0  0  0  0  0  0  0  0  0  0  0  0
    4.2139   -0.2929   -2.8379 C   0  0  0  0  0  0  0  0  0  0  0  0
    3.8167   -0.7663   -4.0967 C   0  0  0  0  0  0  0  0  0  0  0  0
    3.4227   -2.0373   -4.3130 N   0  0  0  0  0  0  0  0  0  0  0  0
    3.3437   -2.8612   -3.2451 C   0  0  0  0  0  0  0  0  0  0  0  0
    2.5010   -4.1241   -0.6202 O   0  0  0  0  0  0  0  0  0  0  0  0
    1.1145   -7.7502    2.0292 C   0  0  0  0  0  0  0  0  0  0  0  0
    1.4889   -9.0051    2.5616 C   0  0  0  0  0  0  0  0  0  0  0  0
    0.4735   -9.8728    3.0133 C   0  0  0  0  0  0  0  0  0  0  0  0
   -0.8669   -9.4534    2.9245 C   0  0  0  0  0  0  0  0  0  0  0  0
   -1.2415   -8.2558    2.4394 N   0  0  0  0  0  0  0  0  0  0  0  0
   -0.2670   -7.4453    1.9891 C   0  0  0  0  0  0  0  0  0  0  0  0
    3.1705   -7.0430    1.7340 H   0  0  0  0  0  0  0  0  0  0  0  0
    4.4590   -0.8158   -0.7485 H   0  0  0  0  0  0  0  0  0  0  0  0
    4.5221    0.7324   -2.7271 H   0  0  0  0  0  0  0  0  0  0  0  0
    3.8391   -0.1179   -4.9611 H   0  0  0  0  0  0  0  0  0  0  0  0
    3.0072   -3.8630   -3.4637 H   0  0  0  0  0  0  0  0  0  0  0  0
    2.5261   -9.3082    2.6107 H   0  0  0  0  0  0  0  0  0  0  0  0
    0.7063  -10.8447    3.4223 H   0  0  0  0  0  0  0  0  0  0  0  0
   -1.6712  -10.0874    3.2565 H   0  0  0  0  0  0  0  0  0  0  0  0
   -0.6256   -6.5083    1.5909 H   0  0  0  0  0  0  0  0  0  0  0  0
  1  2  2  3
  1 14  1  0
  1 20  1  0
  2  3  1  0
  3 13  1  0
  3  4  2  0
  4  5  1  0
  5  6  2  0
  6  7  1  0
  6 13  1  0
  7 12  1  0
  7  8  2  0
  8  9  1  0
  8 21  1  0
  9 10  2  0
  9 22  1  0
 10 11  1  0
 10 23  1  0
 11 12  2  0
 12 24  1  0
 14 19  1  0
 14 15  2  0
 15 16  1  0
 15 25  1  0
 16 17  2  0
 16 26  1  0
 17 18  1  0
 17 27  1  0
 18 19  2  0
 19 28  1  0
M  END
>  <i_m_ct_stereo_status>  (409) 
1

>  <s_m_source_file>  (409) 
/var/tmp/pbs.5102264.sched01/tmps1u238za/138cwx3dj4e.sdf

>  <i_m_source_file_index>  (409) 
11

>  <i_lp_mmshare_version>  (409) 
48012

>  <i_f3d_flags>  (409) 
0

>  <s_epik_input>  (409) 
W2NIXTFuW2NIXVtjSF1bY0hdYzEvW0NIXT1OL2Mybm5jKG8yKS1jM1tjSF1bY0hdW2NIXW5bY0hdMw==

>  <s_epik_cmdline>  (409) 
J2VwaWtfcHl0aG9uJywgJy1waHQnLCAnMi4wJywgJy1waCcsICc3LjAnLCAnLXRuJywgJzgnLCAnLW1hJywgJzIwMCcsICctaW1hZScsICc8aW5maWxlLm1hZT4nLCAnLW9tYWUnLCAnPG91dGZpbGUubWFlPic=

>  <r_epik_Ionization_Penalty>  (409) 
0.0044119

>  <r_epik_Ionization_Penalty_Charging>  (409) 
0

>  <r_epik_Ionization_Penalty_Neutral>  (409) 
0.0044119

>  <r_epik_State_Penalty>  (409) 
0.00303862

>  <r_epik_Charging_Adjusted_Penalty>  (409) 
0.00303862

>  <i_epik_Tot_Q>  (409) 
0

>  <i_epik_Tot_abs_Q>  (409) 
0

>  <s_epik_Chemistry_Notes>  (409) 
This compound has an imine and may undergo hydrolysis.

>  <s_lp_Force_Field>  (409) 
OPLS3e

>  <r_lp_Energy>  (409) 
30.343

>  <b_lp_Chiralities_Consistent>  (409) 
1

>  <s_lp_Variant>  (409) 
86:0-1

>  <s_i_glide_gridfile>  (409) 
pfpi4k_grid

>  <i_i_glide_lignum>  (409) 
11

>  <i_i_glide_rotatable_bonds>  (409) 
3

>  <r_i_docking_score>  (409) 
-3.78707

>  <r_i_glide_ligand_efficiency>  (409) 
-0.199319

>  <r_i_glide_ligand_efficiency_sa>  (409) 
-0.531864

>  <r_i_glide_ligand_efficiency_ln>  (409) 
-0.960103

>  <r_i_glide_gscore>  (409) 
-3.78707

>  <r_i_glide_lipo>  (409) 
-0.533127

>  <r_i_glide_hbond>  (409) 
-0.39046

>  <r_i_glide_metal>  (409) 
-0

>  <r_i_glide_rewards>  (409) 
-1.69607

>  <r_i_glide_evdw>  (409) 
-29.5339

>  <r_i_glide_ecoul>  (409) 
-3.35624

>  <r_i_glide_erotb>  (409) 
0.832884

>  <r_i_glide_esite>  (409) 
-0.0201687

>  <r_i_glide_emodel>  (409) 
-39.1993

>  <r_i_glide_energy>  (409) 
-32.8901

>  <r_i_glide_einternal>  (409) 
3.02915

>  <r_i_glide_intrahb_reward>  (409) 
-0

>  <i_i_glide_confnum>  (409) 
5

>  <i_i_glide_posenum>  (409) 
16

>  <r_i_glide_eff_state_penalty>  (409) 
0

>  <ligand_id>  (409) 
86

>  <original_smiles>  (409) 
C(=Nc1nnc(-c2cccnc2)o1)c1cccnc1

>  <smiles>  (409) 
[H]C(=Nc1nnc(-c2c([H])nc([H])c([H])c2[H])o1)c1c([H])nc([H])c([H])c1[H]

$$$$
86:0:2
     RDKit          3D

 28 30  0  0  1  0  0  0  0  0999 V2000
    3.4657   -3.1590   -0.6652 C   0  0  0  0  0  0  0  0  0  0  0  0
    2.7180   -4.1809   -0.5907 N   0  0  0  0  0  0  0  0  0  0  0  0
    2.7040   -4.9436    0.5277 C   0  0  0  0  0  0  0  0  0  0  0  0
    3.5425   -5.0755    1.5672 N   0  0  0  0  0  0  0  0  0  0  0  0
    2.9544   -5.9613    2.4405 N   0  0  0  0  0  0  0  0  0  0  0  0
    1.8142   -6.3331    1.8633 C   0  0  0  0  0  0  0  0  0  0  0  0
    0.7768   -7.1983    2.3982 C   0  0  0  0  0  0  0  0  0  0  0  0
    0.9198   -7.7960    3.6731 C   0  0  0  0  0  0  0  0  0  0  0  0
   -0.1056   -8.6415    4.1387 C   0  0  0  0  0  0  0  0  0  0  0  0
   -1.2353   -8.8354    3.3224 C   0  0  0  0  0  0  0  0  0  0  0  0
   -1.3912   -8.2553    2.1190 N   0  0  0  0  0  0  0  0  0  0  0  0
   -0.3960   -7.4753    1.6669 C   0  0  0  0  0  0  0  0  0  0  0  0
    1.6193   -5.7606    0.6464 O   0  0  0  0  0  0  0  0  0  0  0  0
    3.6359   -2.3582   -1.8998 C   0  0  0  0  0  0  0  0  0  0  0  0
    4.1248   -1.0371   -1.8356 C   0  0  0  0  0  0  0  0  0  0  0  0
    4.2100   -0.2736   -3.0215 C   0  0  0  0  0  0  0  0  0  0  0  0
    3.8298   -0.8718   -4.2332 C   0  0  0  0  0  0  0  0  0  0  0  0
    3.4198   -2.1501   -4.3202 N   0  0  0  0  0  0  0  0  0  0  0  0
    3.3008   -2.8563   -3.1780 C   0  0  0  0  0  0  0  0  0  0  0  0
    4.0279   -2.8180    0.2095 H   0  0  0  0  0  0  0  0  0  0  0  0
    1.7976   -7.6125    4.2786 H   0  0  0  0  0  0  0  0  0  0  0  0
   -0.0453   -9.1377    5.0927 H   0  0  0  0  0  0  0  0  0  0  0  0
   -2.0658   -9.4434    3.6473 H   0  0  0  0  0  0  0  0  0  0  0  0
   -0.5768   -7.0606    0.6867 H   0  0  0  0  0  0  0  0  0  0  0  0
    4.3802   -0.5865   -0.8901 H   0  0  0  0  0  0  0  0  0  0  0  0
    4.5328    0.7555   -3.0153 H   0  0  0  0  0  0  0  0  0  0  0  0
    3.9015   -0.3288   -5.1662 H   0  0  0  0  0  0  0  0  0  0  0  0
    2.9228   -3.8532   -3.3217 H   0  0  0  0  0  0  0  0  0  0  0  0
  1  2  2  3
  1 14  1  0
  1 20  1  0
  2  3  1  0
  3 13  1  0
  3  4  2  0
  4  5  1  0
  5  6  2  0
  6  7  1  0
  6 13  1  0
  7 12  1  0
  7  8  2  0
  8  9  1  0
  8 21  1  0
  9 10  2  0
  9 22  1  0
 10 11  1  0
 10 23  1  0
 11 12  2  0
 12 24  1  0
 14 19  1  0
 14 15  2  0
 15 16  1  0
 15 25  1  0
 16 17  2  0
 16 26  1  0
 17 18  1  0
 17 27  1  0
 18 19  2  0
 19 28  1  0
M  END
>  <i_m_ct_stereo_status>  (410) 
1

>  <s_m_source_file>  (410) 
/var/tmp/pbs.5102264.sched01/tmps1u238za/138cwx3dj4e.sdf

>  <i_m_source_file_index>  (410) 
11

>  <i_lp_mmshare_version>  (410) 
48012

>  <i_f3d_flags>  (410) 
0

>  <s_epik_input>  (410) 
W2NIXTFuW2NIXVtjSF1bY0hdYzEvW0NIXT1OL2Mybm5jKG8yKS1jM1tjSF1bY0hdW2NIXW5bY0hdMw==

>  <s_epik_cmdline>  (410) 
J2VwaWtfcHl0aG9uJywgJy1waHQnLCAnMi4wJywgJy1waCcsICc3LjAnLCAnLXRuJywgJzgnLCAnLW1hJywgJzIwMCcsICctaW1hZScsICc8aW5maWxlLm1hZT4nLCAnLW9tYWUnLCAnPG91dGZpbGUubWFlPic=

>  <r_epik_Ionization_Penalty>  (410) 
0.0044119

>  <r_epik_Ionization_Penalty_Charging>  (410) 
0

>  <r_epik_Ionization_Penalty_Neutral>  (410) 
0.0044119

>  <r_epik_State_Penalty>  (410) 
0.00303862

>  <r_epik_Charging_Adjusted_Penalty>  (410) 
0.00303862

>  <i_epik_Tot_Q>  (410) 
0

>  <i_epik_Tot_abs_Q>  (410) 
0

>  <s_epik_Chemistry_Notes>  (410) 
This compound has an imine and may undergo hydrolysis.

>  <s_lp_Force_Field>  (410) 
OPLS3e

>  <r_lp_Energy>  (410) 
30.343

>  <b_lp_Chiralities_Consistent>  (410) 
1

>  <s_lp_Variant>  (410) 
86:0-1

>  <s_i_glide_gridfile>  (410) 
pfpi4k_grid

>  <i_i_glide_lignum>  (410) 
11

>  <i_i_glide_rotatable_bonds>  (410) 
3

>  <r_i_docking_score>  (410) 
-3.53925

>  <r_i_glide_ligand_efficiency>  (410) 
-0.186277

>  <r_i_glide_ligand_efficiency_sa>  (410) 
-0.497061

>  <r_i_glide_ligand_efficiency_ln>  (410) 
-0.897277

>  <r_i_glide_gscore>  (410) 
-3.53925

>  <r_i_glide_lipo>  (410) 
-0.385588

>  <r_i_glide_hbond>  (410) 
-0.458805

>  <r_i_glide_metal>  (410) 
-0

>  <r_i_glide_rewards>  (410) 
-1.71937

>  <r_i_glide_evdw>  (410) 
-27.2425

>  <r_i_glide_ecoul>  (410) 
-2.96148

>  <r_i_glide_erotb>  (410) 
0.832884

>  <r_i_glide_esite>  (410) 
-0.00203342

>  <r_i_glide_emodel>  (410) 
-36.8511

>  <r_i_glide_energy>  (410) 
-30.204

>  <r_i_glide_einternal>  (410) 
1.38255

>  <r_i_glide_intrahb_reward>  (410) 
-0

>  <i_i_glide_confnum>  (410) 
2

>  <i_i_glide_posenum>  (410) 
38

>  <r_i_glide_eff_state_penalty>  (410) 
0

>  <ligand_id>  (410) 
86

>  <original_smiles>  (410) 
C(=Nc1nnc(-c2cccnc2)o1)c1cccnc1

>  <smiles>  (410) 
[H]C(=Nc1nnc(-c2c([H])nc([H])c([H])c2[H])o1)c1c([H])nc([H])c([H])c1[H]

$$$$
86:1:0
     RDKit          3D

 28 30  0  0  1  0  0  0  0  0999 V2000
    5.3084   -4.2645   -0.2901 C   0  0  0  0  0  0  0  0  0  0  0  0
    4.9024   -5.0348    0.6405 N   0  0  0  0  0  0  0  0  0  0  0  0
    3.6359   -5.5211    0.7625 C   0  0  0  0  0  0  0  0  0  0  0  0
    2.4819   -5.1218    0.3135 N   0  0  0  0  0  0  0  0  0  0  0  0
    1.5135   -5.9640    0.7003 N   0  0  0  0  0  0  0  0  0  0  0  0
    2.1380   -6.8538    1.4151 C   0  0  0  0  0  0  0  0  0  0  0  0
    1.5388   -8.0162    2.0529 C   0  0  0  0  0  0  0  0  0  0  0  0
    2.3224   -9.1366    2.3912 C   0  0  0  0  0  0  0  0  0  0  0  0
    1.6788  -10.2312    3.0011 C   0  0  0  0  0  0  0  0  0  0  0  0
    0.3010  -10.1470    3.2245 C   0  0  0  0  0  0  0  0  0  0  0  0
   -0.4792   -9.1020    2.8876 N   0  0  0  0  0  0  0  0  0  0  0  0
    0.1455   -8.0486    2.3025 C   0  0  0  0  0  0  0  0  0  0  0  0
    3.4747   -6.6274    1.5065 O   0  0  0  0  0  0  0  0  0  0  0  0
    4.6092   -3.5986   -1.4191 C   0  0  0  0  0  0  0  0  0  0  0  0
    3.2929   -3.1045   -1.3101 C   0  0  0  0  0  0  0  0  0  0  0  0
    2.6191   -2.6793   -2.4547 C   0  0  0  0  0  0  0  0  0  0  0  0
    3.3146   -2.5841   -3.6710 C   0  0  0  0  0  0  0  0  0  0  0  0
    4.6145   -2.9230   -3.7749 N   0  0  0  0  0  0  0  0  0  0  0  0
    5.2353   -3.4489   -2.6776 C   0  0  0  0  0  0  0  0  0  0  0  0
    6.3828   -4.0274   -0.2792 H   0  0  0  0  0  0  0  0  0  0  0  0
    3.3861   -9.1318    2.1753 H   0  0  0  0  0  0  0  0  0  0  0  0
    2.2659  -11.0825    3.2735 H   0  0  0  0  0  0  0  0  0  0  0  0
   -0.1890  -10.9699    3.6957 H   0  0  0  0  0  0  0  0  0  0  0  0
   -0.4895   -7.2112    2.0336 H   0  0  0  0  0  0  0  0  0  0  0  0
    2.7657   -3.0523   -0.3778 H   0  0  0  0  0  0  0  0  0  0  0  0
    1.5708   -2.4235   -2.3807 H   0  0  0  0  0  0  0  0  0  0  0  0
    2.8229   -2.1499   -4.5390 H   0  0  0  0  0  0  0  0  0  0  0  0
    6.2764   -3.7285   -2.8258 H   0  0  0  0  0  0  0  0  0  0  0  0
  1  2  2  3
  1 14  1  0
  1 20  1  0
  2  3  1  0
  3 13  1  0
  3  4  2  0
  4  5  1  0
  5  6  2  0
  6  7  1  0
  6 13  1  0
  7 12  1  0
  7  8  2  0
  8  9  1  0
  8 21  1  0
  9 10  2  0
  9 22  1  0
 10 11  1  0
 10 23  1  0
 11 12  2  0
 12 24  1  0
 14 19  1  0
 14 15  2  0
 15 16  1  0
 15 25  1  0
 16 17  2  0
 16 26  1  0
 17 18  1  0
 17 27  1  0
 18 19  2  0
 19 28  1  0
M  END
>  <i_m_ct_stereo_status>  (411) 
1

>  <s_m_source_file>  (411) 
/var/tmp/pbs.5102264.sched01/tmps1u238za/138cwx3dj4e.sdf

>  <i_m_source_file_index>  (411) 
12

>  <i_lp_mmshare_version>  (411) 
48012

>  <i_f3d_flags>  (411) 
0

>  <s_epik_input>  (411) 
W2NIXTFuW2NIXVtjSF1bY0hdYzEvW0NIXT1OL2Mybm5jKG8yKS1jM1tjSF1bY0hdW2NIXW5bY0hdMw==

>  <s_epik_cmdline>  (411) 
J2VwaWtfcHl0aG9uJywgJy1waHQnLCAnMi4wJywgJy1waCcsICc3LjAnLCAnLXRuJywgJzgnLCAnLW1hJywgJzIwMCcsICctaW1hZScsICc8aW5maWxlLm1hZT4nLCAnLW9tYWUnLCAnPG91dGZpbGUubWFlPic=

>  <r_epik_Ionization_Penalty>  (411) 
0.0044119

>  <r_epik_Ionization_Penalty_Charging>  (411) 
0

>  <r_epik_Ionization_Penalty_Neutral>  (411) 
0.0044119

>  <r_epik_State_Penalty>  (411) 
0.00303862

>  <r_epik_Charging_Adjusted_Penalty>  (411) 
0.00303862

>  <i_epik_Tot_Q>  (411) 
0

>  <i_epik_Tot_abs_Q>  (411) 
0

>  <s_epik_Chemistry_Notes>  (411) 
This compound has an imine and may undergo hydrolysis.

>  <s_lp_Force_Field>  (411) 
OPLS3e

>  <r_lp_Energy>  (411) 
36.0877

>  <b_lp_Chiralities_Consistent>  (411) 
1

>  <s_lp_Variant>  (411) 
86:0-2

>  <s_i_glide_gridfile>  (411) 
pfpi4k_grid

>  <i_i_glide_lignum>  (411) 
12

>  <i_i_glide_rotatable_bonds>  (411) 
3

>  <r_i_docking_score>  (411) 
-3.59344

>  <r_i_glide_ligand_efficiency>  (411) 
-0.189128

>  <r_i_glide_ligand_efficiency_sa>  (411) 
-0.50467

>  <r_i_glide_ligand_efficiency_ln>  (411) 
-0.911013

>  <r_i_glide_gscore>  (411) 
-3.59344

>  <r_i_glide_lipo>  (411) 
-0.539567

>  <r_i_glide_hbond>  (411) 
0

>  <r_i_glide_metal>  (411) 
-0

>  <r_i_glide_rewards>  (411) 
-1.77848

>  <r_i_glide_evdw>  (411) 
-28.5246

>  <r_i_glide_ecoul>  (411) 
-3.59238

>  <r_i_glide_erotb>  (411) 
0.832884

>  <r_i_glide_esite>  (411) 
-0.143192

>  <r_i_glide_emodel>  (411) 
-37.1996

>  <r_i_glide_energy>  (411) 
-32.117

>  <r_i_glide_einternal>  (411) 
0.864391

>  <r_i_glide_intrahb_reward>  (411) 
-0

>  <i_i_glide_confnum>  (411) 
5

>  <i_i_glide_posenum>  (411) 
11

>  <r_i_glide_eff_state_penalty>  (411) 
0

>  <ligand_id>  (411) 
86

>  <original_smiles>  (411) 
C(=Nc1nnc(-c2cccnc2)o1)c1cccnc1

>  <smiles>  (411) 
[H]C(=Nc1nnc(-c2c([H])nc([H])c([H])c2[H])o1)c1c([H])nc([H])c([H])c1[H]

$$$$
86:1:1
     RDKit          3D

 28 30  0  0  1  0  0  0  0  0999 V2000
    5.2064   -4.2983   -0.1422 C   0  0  0  0  0  0  0  0  0  0  0  0
    4.7880   -5.0475    0.8058 N   0  0  0  0  0  0  0  0  0  0  0  0
    3.5220   -5.5697    0.9017 C   0  0  0  0  0  0  0  0  0  0  0  0
    2.3498   -5.2361    0.4028 N   0  0  0  0  0  0  0  0  0  0  0  0
    1.3859   -6.0561    0.7667 N   0  0  0  0  0  0  0  0  0  0  0  0
    2.0131   -6.9303    1.5131 C   0  0  0  0  0  0  0  0  0  0  0  0
    1.4015   -8.0605    2.1374 C   0  0  0  0  0  0  0  0  0  0  0  0
   -0.0175   -8.1444    2.2523 C   0  0  0  0  0  0  0  0  0  0  0  0
   -0.5585   -9.2749    2.8784 C   0  0  0  0  0  0  0  0  0  0  0  0
    0.3182  -10.2564    3.3563 C   0  0  0  0  0  0  0  0  0  0  0  0
    1.6650  -10.1927    3.2443 N   0  0  0  0  0  0  0  0  0  0  0  0
    2.1791   -9.1013    2.6343 C   0  0  0  0  0  0  0  0  0  0  0  0
    3.3538   -6.6837    1.6528 O   0  0  0  0  0  0  0  0  0  0  0  0
    4.4998   -3.6958   -1.3214 C   0  0  0  0  0  0  0  0  0  0  0  0
    3.1569   -3.2807   -1.2792 C   0  0  0  0  0  0  0  0  0  0  0  0
    2.4785   -2.8743   -2.4243 C   0  0  0  0  0  0  0  0  0  0  0  0
    3.2402   -2.6762   -3.5786 C   0  0  0  0  0  0  0  0  0  0  0  0
    4.5685   -2.9287   -3.6304 N   0  0  0  0  0  0  0  0  0  0  0  0
    5.1715   -3.4580   -2.5323 C   0  0  0  0  0  0  0  0  0  0  0  0
    6.2745   -4.0364   -0.1477 H   0  0  0  0  0  0  0  0  0  0  0  0
   -0.6650   -7.3725    1.8706 H   0  0  0  0  0  0  0  0  0  0  0  0
   -1.6267   -9.3832    2.9987 H   0  0  0  0  0  0  0  0  0  0  0  0
   -0.0606  -11.1373    3.8439 H   0  0  0  0  0  0  0  0  0  0  0  0
    3.2631   -9.0540    2.5458 H   0  0  0  0  0  0  0  0  0  0  0  0
    2.5723   -3.2123   -0.4092 H   0  0  0  0  0  0  0  0  0  0  0  0
    1.4223   -2.6575   -2.3501 H   0  0  0  0  0  0  0  0  0  0  0  0
    2.7577   -2.2494   -4.4332 H   0  0  0  0  0  0  0  0  0  0  0  0
    6.2293   -3.6562   -2.6272 H   0  0  0  0  0  0  0  0  0  0  0  0
  1  2  2  3
  1 14  1  0
  1 20  1  0
  2  3  1  0
  3 13  1  0
  3  4  2  0
  4  5  1  0
  5  6  2  0
  6  7  1  0
  6 13  1  0
  7 12  1  0
  7  8  2  0
  8  9  1  0
  8 21  1  0
  9 10  2  0
  9 22  1  0
 10 11  1  0
 10 23  1  0
 11 12  2  0
 12 24  1  0
 14 19  1  0
 14 15  2  0
 15 16  1  0
 15 25  1  0
 16 17  2  0
 16 26  1  0
 17 18  1  0
 17 27  1  0
 18 19  2  0
 19 28  1  0
M  END
>  <i_m_ct_stereo_status>  (412) 
1

>  <s_m_source_file>  (412) 
/var/tmp/pbs.5102264.sched01/tmps1u238za/138cwx3dj4e.sdf

>  <i_m_source_file_index>  (412) 
12

>  <i_lp_mmshare_version>  (412) 
48012

>  <i_f3d_flags>  (412) 
0

>  <s_epik_input>  (412) 
W2NIXTFuW2NIXVtjSF1bY0hdYzEvW0NIXT1OL2Mybm5jKG8yKS1jM1tjSF1bY0hdW2NIXW5bY0hdMw==

>  <s_epik_cmdline>  (412) 
J2VwaWtfcHl0aG9uJywgJy1waHQnLCAnMi4wJywgJy1waCcsICc3LjAnLCAnLXRuJywgJzgnLCAnLW1hJywgJzIwMCcsICctaW1hZScsICc8aW5maWxlLm1hZT4nLCAnLW9tYWUnLCAnPG91dGZpbGUubWFlPic=

>  <r_epik_Ionization_Penalty>  (412) 
0.0044119

>  <r_epik_Ionization_Penalty_Charging>  (412) 
0

>  <r_epik_Ionization_Penalty_Neutral>  (412) 
0.0044119

>  <r_epik_State_Penalty>  (412) 
0.00303862

>  <r_epik_Charging_Adjusted_Penalty>  (412) 
0.00303862

>  <i_epik_Tot_Q>  (412) 
0

>  <i_epik_Tot_abs_Q>  (412) 
0

>  <s_epik_Chemistry_Notes>  (412) 
This compound has an imine and may undergo hydrolysis.

>  <s_lp_Force_Field>  (412) 
OPLS3e

>  <r_lp_Energy>  (412) 
36.0877

>  <b_lp_Chiralities_Consistent>  (412) 
1

>  <s_lp_Variant>  (412) 
86:0-2

>  <s_i_glide_gridfile>  (412) 
pfpi4k_grid

>  <i_i_glide_lignum>  (412) 
12

>  <i_i_glide_rotatable_bonds>  (412) 
3

>  <r_i_docking_score>  (412) 
-3.48909

>  <r_i_glide_ligand_efficiency>  (412) 
-0.183636

>  <r_i_glide_ligand_efficiency_sa>  (412) 
-0.490016

>  <r_i_glide_ligand_efficiency_ln>  (412) 
-0.88456

>  <r_i_glide_gscore>  (412) 
-3.48909

>  <r_i_glide_lipo>  (412) 
-0.499337

>  <r_i_glide_hbond>  (412) 
0

>  <r_i_glide_metal>  (412) 
-0

>  <r_i_glide_rewards>  (412) 
-1.78041

>  <r_i_glide_evdw>  (412) 
-28.3404

>  <r_i_glide_ecoul>  (412) 
-3.17081

>  <r_i_glide_erotb>  (412) 
0.832884

>  <r_i_glide_esite>  (412) 
-0.149587

>  <r_i_glide_emodel>  (412) 
-35.8011

>  <r_i_glide_energy>  (412) 
-31.5112

>  <r_i_glide_einternal>  (412) 
0.690187

>  <r_i_glide_intrahb_reward>  (412) 
-0

>  <i_i_glide_confnum>  (412) 
5

>  <i_i_glide_posenum>  (412) 
1

>  <r_i_glide_eff_state_penalty>  (412) 
0

>  <ligand_id>  (412) 
86

>  <original_smiles>  (412) 
C(=Nc1nnc(-c2cccnc2)o1)c1cccnc1

>  <smiles>  (412) 
[H]C(=Nc1nnc(-c2c([H])nc([H])c([H])c2[H])o1)c1c([H])nc([H])c([H])c1[H]

$$$$
86:1:2
     RDKit          3D

 28 30  0  0  1  0  0  0  0  0999 V2000
    4.8557   -3.7108    0.1880 C   0  0  0  0  0  0  0  0  0  0  0  0
    4.3734   -4.3941    1.1564 N   0  0  0  0  0  0  0  0  0  0  0  0
    3.2366   -5.1143    1.0784 C   0  0  0  0  0  0  0  0  0  0  0  0
    2.4071   -5.4068    0.0851 N   0  0  0  0  0  0  0  0  0  0  0  0
    1.3934   -6.1472    0.5620 N   0  0  0  0  0  0  0  0  0  0  0  0
    1.6297   -6.2897    1.8711 C   0  0  0  0  0  0  0  0  0  0  0  0
    0.8402   -7.0506    2.8229 C   0  0  0  0  0  0  0  0  0  0  0  0
   -0.1788   -7.9205    2.3712 C   0  0  0  0  0  0  0  0  0  0  0  0
   -0.9075   -8.6584    3.3144 C   0  0  0  0  0  0  0  0  0  0  0  0
   -0.5825   -8.4957    4.6753 C   0  0  0  0  0  0  0  0  0  0  0  0
    0.3756   -7.6622    5.1323 N   0  0  0  0  0  0  0  0  0  0  0  0
    1.0791   -6.9637    4.2168 C   0  0  0  0  0  0  0  0  0  0  0  0
    2.7576   -5.6339    2.2555 O   0  0  0  0  0  0  0  0  0  0  0  0
    4.3041   -3.3824   -1.1458 C   0  0  0  0  0  0  0  0  0  0  0  0
    2.9283   -3.1699   -1.3657 C   0  0  0  0  0  0  0  0  0  0  0  0
    2.4560   -2.9902   -2.6650 C   0  0  0  0  0  0  0  0  0  0  0  0
    3.3810   -2.9352   -3.7243 C   0  0  0  0  0  0  0  0  0  0  0  0
    4.7106   -3.0623   -3.5268 N   0  0  0  0  0  0  0  0  0  0  0  0
    5.1543   -3.2936   -2.2728 C   0  0  0  0  0  0  0  0  0  0  0  0
    5.8521   -3.2967    0.3487 H   0  0  0  0  0  0  0  0  0  0  0  0
   -0.3923   -8.0276    1.3134 H   0  0  0  0  0  0  0  0  0  0  0  0
   -1.6827   -9.3426    3.0137 H   0  0  0  0  0  0  0  0  0  0  0  0
   -1.1060   -9.0471    5.4283 H   0  0  0  0  0  0  0  0  0  0  0  0
    1.8574   -6.3057    4.5865 H   0  0  0  0  0  0  0  0  0  0  0  0
    2.2333   -3.2340   -0.5184 H   0  0  0  0  0  0  0  0  0  0  0  0
    1.3980   -2.9172   -2.8620 H   0  0  0  0  0  0  0  0  0  0  0  0
    3.0409   -2.7677   -4.7417 H   0  0  0  0  0  0  0  0  0  0  0  0
    6.2299   -3.4280   -2.1890 H   0  0  0  0  0  0  0  0  0  0  0  0
  1  2  2  3
  1 14  1  0
  1 20  1  0
  2  3  1  0
  3 13  1  0
  3  4  2  0
  4  5  1  0
  5  6  2  0
  6  7  1  0
  6 13  1  0
  7 12  1  0
  7  8  2  0
  8  9  1  0
  8 21  1  0
  9 10  2  0
  9 22  1  0
 10 11  1  0
 10 23  1  0
 11 12  2  0
 12 24  1  0
 14 19  1  0
 14 15  2  0
 15 16  1  0
 15 25  1  0
 16 17  2  0
 16 26  1  0
 17 18  1  0
 17 27  1  0
 18 19  2  0
 19 28  1  0
M  END
>  <i_m_ct_stereo_status>  (413) 
1

>  <s_m_source_file>  (413) 
/var/tmp/pbs.5102264.sched01/tmps1u238za/138cwx3dj4e.sdf

>  <i_m_source_file_index>  (413) 
12

>  <i_lp_mmshare_version>  (413) 
48012

>  <i_f3d_flags>  (413) 
0

>  <s_epik_input>  (413) 
W2NIXTFuW2NIXVtjSF1bY0hdYzEvW0NIXT1OL2Mybm5jKG8yKS1jM1tjSF1bY0hdW2NIXW5bY0hdMw==

>  <s_epik_cmdline>  (413) 
J2VwaWtfcHl0aG9uJywgJy1waHQnLCAnMi4wJywgJy1waCcsICc3LjAnLCAnLXRuJywgJzgnLCAnLW1hJywgJzIwMCcsICctaW1hZScsICc8aW5maWxlLm1hZT4nLCAnLW9tYWUnLCAnPG91dGZpbGUubWFlPic=

>  <r_epik_Ionization_Penalty>  (413) 
0.0044119

>  <r_epik_Ionization_Penalty_Charging>  (413) 
0

>  <r_epik_Ionization_Penalty_Neutral>  (413) 
0.0044119

>  <r_epik_State_Penalty>  (413) 
0.00303862

>  <r_epik_Charging_Adjusted_Penalty>  (413) 
0.00303862

>  <i_epik_Tot_Q>  (413) 
0

>  <i_epik_Tot_abs_Q>  (413) 
0

>  <s_epik_Chemistry_Notes>  (413) 
This compound has an imine and may undergo hydrolysis.

>  <s_lp_Force_Field>  (413) 
OPLS3e

>  <r_lp_Energy>  (413) 
36.0877

>  <b_lp_Chiralities_Consistent>  (413) 
1

>  <s_lp_Variant>  (413) 
86:0-2

>  <s_i_glide_gridfile>  (413) 
pfpi4k_grid

>  <i_i_glide_lignum>  (413) 
12

>  <i_i_glide_rotatable_bonds>  (413) 
3

>  <r_i_docking_score>  (413) 
-3.32547

>  <r_i_glide_ligand_efficiency>  (413) 
-0.175025

>  <r_i_glide_ligand_efficiency_sa>  (413) 
-0.467036

>  <r_i_glide_ligand_efficiency_ln>  (413) 
-0.843077

>  <r_i_glide_gscore>  (413) 
-3.32547

>  <r_i_glide_lipo>  (413) 
-0.428931

>  <r_i_glide_hbond>  (413) 
0

>  <r_i_glide_metal>  (413) 
-0

>  <r_i_glide_rewards>  (413) 
-1.74701

>  <r_i_glide_evdw>  (413) 
-26.7311

>  <r_i_glide_ecoul>  (413) 
-3.27734

>  <r_i_glide_erotb>  (413) 
0.832884

>  <r_i_glide_esite>  (413) 
-0.15425

>  <r_i_glide_emodel>  (413) 
-35.3003

>  <r_i_glide_energy>  (413) 
-30.0084

>  <r_i_glide_einternal>  (413) 
0.239669

>  <r_i_glide_intrahb_reward>  (413) 
-0

>  <i_i_glide_confnum>  (413) 
5

>  <i_i_glide_posenum>  (413) 
34

>  <r_i_glide_eff_state_penalty>  (413) 
0

>  <ligand_id>  (413) 
86

>  <original_smiles>  (413) 
C(=Nc1nnc(-c2cccnc2)o1)c1cccnc1

>  <smiles>  (413) 
[H]C(=Nc1nnc(-c2c([H])nc([H])c([H])c2[H])o1)c1c([H])nc([H])c([H])c1[H]

$$$$
87:0:0
     RDKit          3D

 49 53  0  0  1  0  0  0  0  0999 V2000
    3.7621   -7.2185    2.8558 O   0  0  0  0  0  0  0  0  0  0  0  0
    2.8933   -6.6553    1.8967 C   0  0  2  0  0  0  0  0  0  0  0  0
    1.6256   -7.5473    1.8613 C   0  0  0  0  0  0  0  0  0  0  0  0
    0.1892   -6.7362    2.6250 S   0  0  0  0  0  0  0  0  0  0  0  0
    0.4106   -7.1868    4.3224 C   0  0  0  0  0  0  0  0  0  0  0  0
    0.3245   -6.2911    5.3144 N   0  0  0  0  0  0  0  0  0  0  0  0
    0.4707   -6.9175    6.5494 C   0  0  0  0  0  0  0  0  0  0  0  0
    0.4497   -6.2867    7.8100 C   0  0  0  0  0  0  0  0  0  0  0  0
    0.6151   -7.0191    8.9994 C   0  0  0  0  0  0  0  0  0  0  0  0
    0.7883   -8.4127    8.9506 C   0  0  0  0  0  0  0  0  0  0  0  0
    0.8059   -9.0671    7.7054 C   0  0  0  0  0  0  0  0  0  0  0  0
    0.6481   -8.3273    6.5155 C   0  0  0  0  0  0  0  0  0  0  0  0
    0.6304   -8.8688    4.8307 S   0  0  0  0  0  0  0  0  0  0  0  0
    3.5841   -6.5437    0.5120 C   0  0  0  0  0  0  0  0  0  0  0  0
    4.7254   -5.6298    0.4970 N   0  0  0  0  0  0  0  0  0  0  0  0
    6.0158   -5.9496    0.9320 C   0  0  0  0  0  0  0  0  0  0  0  0
    6.8212   -4.8598    0.8047 C   0  0  0  0  0  0  0  0  0  0  0  0
    6.0482   -3.8119    0.2397 C   0  0  0  0  0  0  0  0  0  0  0  0
    6.3562   -2.4833   -0.1180 C   0  0  0  0  0  0  0  0  0  0  0  0
    5.3758   -1.6359   -0.6703 C   0  0  0  0  0  0  0  0  0  0  0  0
    4.0708   -2.1188   -0.8746 C   0  0  0  0  0  0  0  0  0  0  0  0
    3.7440   -3.4517   -0.5239 C   0  0  0  0  0  0  0  0  0  0  0  0
    4.7288   -4.2962    0.0368 C   0  0  0  0  0  0  0  0  0  0  0  0
    8.2596   -4.8342    1.1974 C   0  0  0  0  0  0  0  0  0  0  0  0
    8.6104   -6.0097    2.1256 C   0  0  0  0  0  0  0  0  0  0  0  0
    8.0022   -7.3377    1.6177 C   0  0  0  0  0  0  0  0  0  0  0  0
    6.4633   -7.2741    1.4981 C   0  0  0  0  0  0  0  0  0  0  0  0
    4.0769   -8.0392    2.5041 H   0  0  0  0  0  0  0  0  0  0  0  0
    2.6528   -5.6463    2.2335 H   0  0  0  0  0  0  0  0  0  0  0  0
    1.3368   -7.7725    0.8353 H   0  0  0  0  0  0  0  0  0  0  0  0
    1.7965   -8.5250    2.3170 H   0  0  0  0  0  0  0  0  0  0  0  0
    0.3181   -5.2165    7.8487 H   0  0  0  0  0  0  0  0  0  0  0  0
    0.6158   -6.5064    9.9487 H   0  0  0  0  0  0  0  0  0  0  0  0
    0.9258   -8.9795    9.8592 H   0  0  0  0  0  0  0  0  0  0  0  0
    0.9512  -10.1346    7.6522 H   0  0  0  0  0  0  0  0  0  0  0  0
    3.9119   -7.5198    0.1673 H   0  0  0  0  0  0  0  0  0  0  0  0
    2.8600   -6.2149   -0.2377 H   0  0  0  0  0  0  0  0  0  0  0  0
    7.3604   -2.1248    0.0537 H   0  0  0  0  0  0  0  0  0  0  0  0
    5.6235   -0.6067   -0.9235 H   0  0  0  0  0  0  0  0  0  0  0  0
    3.3117   -1.4772   -1.2849 H   0  0  0  0  0  0  0  0  0  0  0  0
    2.7418   -3.8197   -0.6856 H   0  0  0  0  0  0  0  0  0  0  0  0
    8.8672   -4.8853    0.2987 H   0  0  0  0  0  0  0  0  0  0  0  0
    8.4938   -3.8917    1.6816 H   0  0  0  0  0  0  0  0  0  0  0  0
    9.6837   -6.0865    2.2343 H   0  0  0  0  0  0  0  0  0  0  0  0
    8.2174   -5.7957    3.1203 H   0  0  0  0  0  0  0  0  0  0  0  0
    8.4464   -7.5875    0.6484 H   0  0  0  0  0  0  0  0  0  0  0  0
    8.2634   -8.1484    2.3020 H   0  0  0  0  0  0  0  0  0  0  0  0
    6.0644   -7.3757    2.5094 H   0  0  0  0  0  0  0  0  0  0  0  0
    6.0954   -8.1137    0.8985 H   0  0  0  0  0  0  0  0  0  0  0  0
  1  2  1  0
  1 28  1  0
  2  3  1  0
  2 14  1  0
  2 29  1  1
  3  4  1  0
  3 30  1  0
  3 31  1  0
  4  5  1  0
  5 13  1  0
  5  6  2  0
  6  7  1  0
  7 12  2  0
  7  8  1  0
  8  9  2  0
  8 32  1  0
  9 10  1  0
  9 33  1  0
 10 11  2  0
 10 34  1  0
 11 12  1  0
 11 35  1  0
 12 13  1  0
 14 15  1  0
 14 36  1  0
 14 37  1  0
 15 23  1  0
 15 16  1  0
 16 27  1  0
 16 17  2  0
 17 18  1  0
 17 24  1  0
 18 23  1  0
 18 19  2  0
 19 20  1  0
 19 38  1  0
 20 21  2  0
 20 39  1  0
 21 22  1  0
 21 40  1  0
 22 23  2  0
 22 41  1  0
 24 25  1  0
 24 42  1  0
 24 43  1  0
 25 26  1  0
 25 44  1  0
 25 45  1  0
 26 27  1  0
 26 46  1  0
 26 47  1  0
 27 48  1  0
 27 49  1  0
M  END
>  <i_m_ct_stereo_status>  (414) 
1

>  <s_m_source_file>  (414) 
/var/tmp/pbs.5102264.sched01/tmps1u238za/138cwx3dj4e.sdf

>  <i_m_source_file_index>  (414) 
13

>  <i_lp_mmshare_version>  (414) 
48012

>  <i_f3d_flags>  (414) 
0

>  <s_epik_input>  (414) 
W0NIMl0xW0NIMl1bQ0gyXVtDSDJdYyhjMTIpYzNjKFtjSF1bY0hdW2NIXVtjSF0zKW4yW0NIMl1bQ0BIXShbT0hdKVtDSDJdU2MobjQpc2MoYzQ1KVtjSF1bY0hdW2NIXVtjSF01

>  <s_epik_cmdline>  (414) 
J2VwaWtfcHl0aG9uJywgJy1waHQnLCAnMi4wJywgJy1waCcsICc3LjAnLCAnLXRuJywgJzgnLCAnLW1hJywgJzIwMCcsICctaW1hZScsICc8aW5maWxlLm1hZT4nLCAnLW9tYWUnLCAnPG91dGZpbGUubWFlPic=

>  <r_epik_Ionization_Penalty>  (414) 
0.000726319

>  <r_epik_Ionization_Penalty_Charging>  (414) 
0

>  <r_epik_Ionization_Penalty_Neutral>  (414) 
0.000726319

>  <r_epik_State_Penalty>  (414) 
0.000459974

>  <r_epik_Charging_Adjusted_Penalty>  (414) 
0.000459974

>  <i_epik_Tot_Q>  (414) 
0

>  <i_epik_Tot_abs_Q>  (414) 
0

>  <s_lp_Force_Field>  (414) 
OPLS3e

>  <r_lp_Energy>  (414) 
23.9169

>  <b_lp_Chiralities_Consistent>  (414) 
1

>  <s_lp_Variant>  (414) 
87:0-1

>  <s_i_glide_gridfile>  (414) 
pfpi4k_grid

>  <i_i_glide_lignum>  (414) 
13

>  <i_i_glide_rotatable_bonds>  (414) 
6

>  <r_i_docking_score>  (414) 
-2.90566

>  <r_i_glide_ligand_efficiency>  (414) 
-0.107617

>  <r_i_glide_ligand_efficiency_sa>  (414) 
-0.322851

>  <r_i_glide_ligand_efficiency_ln>  (414) 
-0.67639

>  <r_i_glide_gscore>  (414) 
-2.90566

>  <r_i_glide_lipo>  (414) 
-0.582021

>  <r_i_glide_hbond>  (414) 
0

>  <r_i_glide_metal>  (414) 
-0

>  <r_i_glide_rewards>  (414) 
-0.847599

>  <r_i_glide_evdw>  (414) 
-30.0738

>  <r_i_glide_ecoul>  (414) 
-2.32683

>  <r_i_glide_erotb>  (414) 
0.376674

>  <r_i_glide_esite>  (414) 
0

>  <r_i_glide_emodel>  (414) 
-35.3759

>  <r_i_glide_energy>  (414) 
-32.4006

>  <r_i_glide_einternal>  (414) 
5.10022

>  <r_i_glide_intrahb_reward>  (414) 
-0

>  <i_i_glide_confnum>  (414) 
1

>  <i_i_glide_posenum>  (414) 
20

>  <r_i_glide_eff_state_penalty>  (414) 
0

>  <ligand_id>  (414) 
87

>  <original_smiles>  (414) 
OC(CSc1nc2ccccc2s1)Cn1c2c(c3ccccc31)CCCC2

>  <smiles>  (414) 
[H]OC([H])(C([H])([H])Sc1nc2c([H])c([H])c([H])c([H])c2s1)C([H])([H])n1c2c(c3c([H])c([H])c([H])c([H])c31)C([H])([H])C([H])([H])C([H])([H])C2([H])[H]

$$$$
87:0:1
     RDKit          3D

 49 53  0  0  1  0  0  0  0  0999 V2000
    2.8669   -0.3962    2.6798 O   0  0  0  0  0  0  0  0  0  0  0  0
    3.0249   -1.1679    3.8490 C   0  0  2  0  0  0  0  0  0  0  0  0
    4.0485   -2.2802    3.5388 C   0  0  0  0  0  0  0  0  0  0  0  0
    3.3688   -3.5704    2.4334 S   0  0  0  0  0  0  0  0  0  0  0  0
    3.5224   -2.8833    0.8090 C   0  0  0  0  0  0  0  0  0  0  0  0
    2.8771   -3.4396   -0.2204 N   0  0  0  0  0  0  0  0  0  0  0  0
    3.1418   -2.7394   -1.3963 C   0  0  0  0  0  0  0  0  0  0  0  0
    2.6658   -3.0451   -2.6835 C   0  0  0  0  0  0  0  0  0  0  0  0
    2.9997   -2.2370   -3.7773 C   0  0  0  0  0  0  0  0  0  0  0  0
    3.7888   -1.0840   -3.6418 C   0  0  0  0  0  0  0  0  0  0  0  0
    4.2703   -0.7649   -2.3617 C   0  0  0  0  0  0  0  0  0  0  0  0
    3.9890   -1.6037   -1.2656 C   0  0  0  0  0  0  0  0  0  0  0  0
    4.5843   -1.5237    0.3902 S   0  0  0  0  0  0  0  0  0  0  0  0
    1.6490   -1.6534    4.4017 C   0  0  0  0  0  0  0  0  0  0  0  0
    0.8082   -0.5441    4.8802 N   0  0  0  0  0  0  0  0  0  0  0  0
    0.1592    0.4083    4.0739 C   0  0  0  0  0  0  0  0  0  0  0  0
   -0.5117    1.2966    4.8487 C   0  0  0  0  0  0  0  0  0  0  0  0
   -0.3358    0.9120    6.2027 C   0  0  0  0  0  0  0  0  0  0  0  0
   -0.8083    1.4381    7.4204 C   0  0  0  0  0  0  0  0  0  0  0  0
   -0.4826    0.8545    8.6547 C   0  0  0  0  0  0  0  0  0  0  0  0
    0.3380   -0.2999    8.6732 C   0  0  0  0  0  0  0  0  0  0  0  0
    0.8188   -0.8456    7.4580 C   0  0  0  0  0  0  0  0  0  0  0  0
    0.4976   -0.2583    6.2258 C   0  0  0  0  0  0  0  0  0  0  0  0
   -1.2906    2.4527    4.3290 C   0  0  0  0  0  0  0  0  0  0  0  0
   -0.9168    2.7641    2.8755 C   0  0  0  0  0  0  0  0  0  0  0  0
   -0.8427    1.4832    2.0142 C   0  0  0  0  0  0  0  0  0  0  0  0
    0.1991    0.5154    2.5675 C   0  0  0  0  0  0  0  0  0  0  0  0
    2.3584   -0.9305    2.0836 H   0  0  0  0  0  0  0  0  0  0  0  0
    3.4705   -0.4934    4.5708 H   0  0  0  0  0  0  0  0  0  0  0  0
    4.9572   -1.8470    3.1075 H   0  0  0  0  0  0  0  0  0  0  0  0
    4.3590   -2.7614    4.4700 H   0  0  0  0  0  0  0  0  0  0  0  0
    2.0366   -3.9144   -2.8097 H   0  0  0  0  0  0  0  0  0  0  0  0
    2.5967   -2.5178   -4.7305 H   0  0  0  0  0  0  0  0  0  0  0  0
    4.0205   -0.4410   -4.4844 H   0  0  0  0  0  0  0  0  0  0  0  0
    4.8635    0.1169   -2.1996 H   0  0  0  0  0  0  0  0  0  0  0  0
    1.0823   -2.2033    3.6461 H   0  0  0  0  0  0  0  0  0  0  0  0
    1.8154   -2.3624    5.2098 H   0  0  0  0  0  0  0  0  0  0  0  0
   -1.4340    2.3254    7.3919 H   0  0  0  0  0  0  0  0  0  0  0  0
   -0.8474    1.2886    9.5779 H   0  0  0  0  0  0  0  0  0  0  0  0
    0.6065   -0.7572    9.6139 H   0  0  0  0  0  0  0  0  0  0  0  0
    1.4469   -1.7238    7.4653 H   0  0  0  0  0  0  0  0  0  0  0  0
   -2.3478    2.2213    4.3748 H   0  0  0  0  0  0  0  0  0  0  0  0
   -1.1175    3.3294    4.9432 H   0  0  0  0  0  0  0  0  0  0  0  0
   -1.6239    3.4808    2.4472 H   0  0  0  0  0  0  0  0  0  0  0  0
    0.0610    3.2690    2.8748 H   0  0  0  0  0  0  0  0  0  0  0  0
   -1.8204    1.0126    1.9375 H   0  0  0  0  0  0  0  0  0  0  0  0
   -0.5145    1.7441    1.0111 H   0  0  0  0  0  0  0  0  0  0  0  0
    1.1304    1.0130    2.2733 H   0  0  0  0  0  0  0  0  0  0  0  0
    0.1613   -0.4628    2.0822 H   0  0  0  0  0  0  0  0  0  0  0  0
  1  2  1  0
  1 28  1  0
  2  3  1  0
  2 14  1  0
  2 29  1  1
  3  4  1  0
  3 30  1  0
  3 31  1  0
  4  5  1  0
  5 13  1  0
  5  6  2  0
  6  7  1  0
  7 12  2  0
  7  8  1  0
  8  9  2  0
  8 32  1  0
  9 10  1  0
  9 33  1  0
 10 11  2  0
 10 34  1  0
 11 12  1  0
 11 35  1  0
 12 13  1  0
 14 15  1  0
 14 36  1  0
 14 37  1  0
 15 23  1  0
 15 16  1  0
 16 27  1  0
 16 17  2  0
 17 18  1  0
 17 24  1  0
 18 23  1  0
 18 19  2  0
 19 20  1  0
 19 38  1  0
 20 21  2  0
 20 39  1  0
 21 22  1  0
 21 40  1  0
 22 23  2  0
 22 41  1  0
 24 25  1  0
 24 42  1  0
 24 43  1  0
 25 26  1  0
 25 44  1  0
 25 45  1  0
 26 27  1  0
 26 46  1  0
 26 47  1  0
 27 48  1  0
 27 49  1  0
M  END
>  <i_m_ct_stereo_status>  (415) 
1

>  <s_m_source_file>  (415) 
/var/tmp/pbs.5102264.sched01/tmps1u238za/138cwx3dj4e.sdf

>  <i_m_source_file_index>  (415) 
13

>  <i_lp_mmshare_version>  (415) 
48012

>  <i_f3d_flags>  (415) 
0

>  <s_epik_input>  (415) 
W0NIMl0xW0NIMl1bQ0gyXVtDSDJdYyhjMTIpYzNjKFtjSF1bY0hdW2NIXVtjSF0zKW4yW0NIMl1bQ0BIXShbT0hdKVtDSDJdU2MobjQpc2MoYzQ1KVtjSF1bY0hdW2NIXVtjSF01

>  <s_epik_cmdline>  (415) 
J2VwaWtfcHl0aG9uJywgJy1waHQnLCAnMi4wJywgJy1waCcsICc3LjAnLCAnLXRuJywgJzgnLCAnLW1hJywgJzIwMCcsICctaW1hZScsICc8aW5maWxlLm1hZT4nLCAnLW9tYWUnLCAnPG91dGZpbGUubWFlPic=

>  <r_epik_Ionization_Penalty>  (415) 
0.000726319

>  <r_epik_Ionization_Penalty_Charging>  (415) 
0

>  <r_epik_Ionization_Penalty_Neutral>  (415) 
0.000726319

>  <r_epik_State_Penalty>  (415) 
0.000459974

>  <r_epik_Charging_Adjusted_Penalty>  (415) 
0.000459974

>  <i_epik_Tot_Q>  (415) 
0

>  <i_epik_Tot_abs_Q>  (415) 
0

>  <s_lp_Force_Field>  (415) 
OPLS3e

>  <r_lp_Energy>  (415) 
23.9169

>  <b_lp_Chiralities_Consistent>  (415) 
1

>  <s_lp_Variant>  (415) 
87:0-1

>  <s_i_glide_gridfile>  (415) 
pfpi4k_grid

>  <i_i_glide_lignum>  (415) 
13

>  <i_i_glide_rotatable_bonds>  (415) 
6

>  <r_i_docking_score>  (415) 
-2.77773

>  <r_i_glide_ligand_efficiency>  (415) 
-0.102879

>  <r_i_glide_ligand_efficiency_sa>  (415) 
-0.308636

>  <r_i_glide_ligand_efficiency_ln>  (415) 
-0.646609

>  <r_i_glide_gscore>  (415) 
-2.77773

>  <r_i_glide_lipo>  (415) 
-0.421091

>  <r_i_glide_hbond>  (415) 
0

>  <r_i_glide_metal>  (415) 
-0

>  <r_i_glide_rewards>  (415) 
-0.718944

>  <r_i_glide_evdw>  (415) 
-29.7136

>  <r_i_glide_ecoul>  (415) 
-3.49883

>  <r_i_glide_erotb>  (415) 
0.376674

>  <r_i_glide_esite>  (415) 
-0.00386167

>  <r_i_glide_emodel>  (415) 
-36.8062

>  <r_i_glide_energy>  (415) 
-33.2124

>  <r_i_glide_einternal>  (415) 
1.99634

>  <r_i_glide_intrahb_reward>  (415) 
-0

>  <i_i_glide_confnum>  (415) 
3

>  <i_i_glide_posenum>  (415) 
11

>  <r_i_glide_eff_state_penalty>  (415) 
0

>  <ligand_id>  (415) 
87

>  <original_smiles>  (415) 
OC(CSc1nc2ccccc2s1)Cn1c2c(c3ccccc31)CCCC2

>  <smiles>  (415) 
[H]OC([H])(C([H])([H])Sc1nc2c([H])c([H])c([H])c([H])c2s1)C([H])([H])n1c2c(c3c([H])c([H])c([H])c([H])c31)C([H])([H])C([H])([H])C([H])([H])C2([H])[H]

$$$$
87:0:2
     RDKit          3D

 49 53  0  0  1  0  0  0  0  0999 V2000
   -0.4170   -0.1503    3.8945 O   0  0  0  0  0  0  0  0  0  0  0  0
    0.4189    0.3662    2.8838 C   0  0  2  0  0  0  0  0  0  0  0  0
    1.8785    0.3104    3.3779 C   0  0  0  0  0  0  0  0  0  0  0  0
    2.4231   -1.3868    3.7749 S   0  0  0  0  0  0  0  0  0  0  0  0
    3.0813   -1.8771    2.2146 C   0  0  0  0  0  0  0  0  0  0  0  0
    3.5754   -1.0108    1.3269 N   0  0  0  0  0  0  0  0  0  0  0  0
    4.0046   -1.6773    0.1902 C   0  0  0  0  0  0  0  0  0  0  0  0
    4.5449   -1.0792   -0.9620 C   0  0  0  0  0  0  0  0  0  0  0  0
    4.9493   -1.8497   -2.0650 C   0  0  0  0  0  0  0  0  0  0  0  0
    4.8383   -3.2504   -2.0254 C   0  0  0  0  0  0  0  0  0  0  0  0
    4.3044   -3.8743   -0.8831 C   0  0  0  0  0  0  0  0  0  0  0  0
    3.8851   -3.0952    0.2148 C   0  0  0  0  0  0  0  0  0  0  0  0
    3.1710   -3.5878    1.7549 S   0  0  0  0  0  0  0  0  0  0  0  0
   -0.0454    1.7950    2.5283 C   0  0  0  0  0  0  0  0  0  0  0  0
    0.1625    2.7618    3.6137 N   0  0  0  0  0  0  0  0  0  0  0  0
    1.2365    3.6576    3.6898 C   0  0  0  0  0  0  0  0  0  0  0  0
    1.1423    4.3879    4.8397 C   0  0  0  0  0  0  0  0  0  0  0  0
   -0.0298    3.9629    5.5175 C   0  0  0  0  0  0  0  0  0  0  0  0
   -0.6221    4.3483    6.7386 C   0  0  0  0  0  0  0  0  0  0  0  0
   -1.8091    3.7371    7.1926 C   0  0  0  0  0  0  0  0  0  0  0  0
   -2.4228    2.7438    6.4149 C   0  0  0  0  0  0  0  0  0  0  0  0
   -1.8487    2.3498    5.1828 C   0  0  0  0  0  0  0  0  0  0  0  0
   -0.6526    2.9472    4.7414 C   0  0  0  0  0  0  0  0  0  0  0  0
    2.1207    5.4259    5.2677 C   0  0  0  0  0  0  0  0  0  0  0  0
    3.4402    5.3095    4.4888 C   0  0  0  0  0  0  0  0  0  0  0  0
    3.1981    5.0637    2.9836 C   0  0  0  0  0  0  0  0  0  0  0  0
    2.3646    3.7973    2.7003 C   0  0  0  0  0  0  0  0  0  0  0  0
   -1.2941    0.1260    3.6936 H   0  0  0  0  0  0  0  0  0  0  0  0
    0.3056   -0.2714    2.0039 H   0  0  0  0  0  0  0  0  0  0  0  0
    2.5259    0.7713    2.6358 H   0  0  0  0  0  0  0  0  0  0  0  0
    2.0300    0.9118    4.2730 H   0  0  0  0  0  0  0  0  0  0  0  0
    4.6150   -0.0046   -0.9841 H   0  0  0  0  0  0  0  0  0  0  0  0
    5.3380   -1.3598   -2.9398 H   0  0  0  0  0  0  0  0  0  0  0  0
    5.1463   -3.8485   -2.8687 H   0  0  0  0  0  0  0  0  0  0  0  0
    4.2086   -4.9480   -0.8516 H   0  0  0  0  0  0  0  0  0  0  0  0
    0.5021    2.1110    1.6444 H   0  0  0  0  0  0  0  0  0  0  0  0
   -1.0939    1.8043    2.2211 H   0  0  0  0  0  0  0  0  0  0  0  0
   -0.1458    5.1173    7.3269 H   0  0  0  0  0  0  0  0  0  0  0  0
   -2.2455    4.0568    8.1348 H   0  0  0  0  0  0  0  0  0  0  0  0
   -3.3283    2.2789    6.7625 H   0  0  0  0  0  0  0  0  0  0  0  0
   -2.3169    1.5886    4.5864 H   0  0  0  0  0  0  0  0  0  0  0  0
    1.6822    6.4070    5.1039 H   0  0  0  0  0  0  0  0  0  0  0  0
    2.3124    5.3401    6.3337 H   0  0  0  0  0  0  0  0  0  0  0  0
    4.0380    6.2004    4.6458 H   0  0  0  0  0  0  0  0  0  0  0  0
    4.0120    4.4730    4.8905 H   0  0  0  0  0  0  0  0  0  0  0  0
    2.6640    5.9213    2.5783 H   0  0  0  0  0  0  0  0  0  0  0  0
    4.1389    5.0127    2.4384 H   0  0  0  0  0  0  0  0  0  0  0  0
    3.0162    2.9261    2.7752 H   0  0  0  0  0  0  0  0  0  0  0  0
    2.0031    3.8277    1.6763 H   0  0  0  0  0  0  0  0  0  0  0  0
  1  2  1  0
  1 28  1  0
  2  3  1  0
  2 14  1  0
  2 29  1  6
  3  4  1  0
  3 30  1  0
  3 31  1  0
  4  5  1  0
  5 13  1  0
  5  6  2  0
  6  7  1  0
  7 12  2  0
  7  8  1  0
  8  9  2  0
  8 32  1  0
  9 10  1  0
  9 33  1  0
 10 11  2  0
 10 34  1  0
 11 12  1  0
 11 35  1  0
 12 13  1  0
 14 15  1  0
 14 36  1  0
 14 37  1  0
 15 23  1  0
 15 16  1  0
 16 27  1  0
 16 17  2  0
 17 18  1  0
 17 24  1  0
 18 23  1  0
 18 19  2  0
 19 20  1  0
 19 38  1  0
 20 21  2  0
 20 39  1  0
 21 22  1  0
 21 40  1  0
 22 23  2  0
 22 41  1  0
 24 25  1  0
 24 42  1  0
 24 43  1  0
 25 26  1  0
 25 44  1  0
 25 45  1  0
 26 27  1  0
 26 46  1  0
 26 47  1  0
 27 48  1  0
 27 49  1  0
M  END
>  <i_m_ct_stereo_status>  (416) 
1

>  <s_m_source_file>  (416) 
/var/tmp/pbs.5102264.sched01/tmps1u238za/138cwx3dj4e.sdf

>  <i_m_source_file_index>  (416) 
13

>  <i_lp_mmshare_version>  (416) 
48012

>  <i_f3d_flags>  (416) 
0

>  <s_epik_input>  (416) 
W0NIMl0xW0NIMl1bQ0gyXVtDSDJdYyhjMTIpYzNjKFtjSF1bY0hdW2NIXVtjSF0zKW4yW0NIMl1bQ0BIXShbT0hdKVtDSDJdU2MobjQpc2MoYzQ1KVtjSF1bY0hdW2NIXVtjSF01

>  <s_epik_cmdline>  (416) 
J2VwaWtfcHl0aG9uJywgJy1waHQnLCAnMi4wJywgJy1waCcsICc3LjAnLCAnLXRuJywgJzgnLCAnLW1hJywgJzIwMCcsICctaW1hZScsICc8aW5maWxlLm1hZT4nLCAnLW9tYWUnLCAnPG91dGZpbGUubWFlPic=

>  <r_epik_Ionization_Penalty>  (416) 
0.000726319

>  <r_epik_Ionization_Penalty_Charging>  (416) 
0

>  <r_epik_Ionization_Penalty_Neutral>  (416) 
0.000726319

>  <r_epik_State_Penalty>  (416) 
0.000459974

>  <r_epik_Charging_Adjusted_Penalty>  (416) 
0.000459974

>  <i_epik_Tot_Q>  (416) 
0

>  <i_epik_Tot_abs_Q>  (416) 
0

>  <s_lp_Force_Field>  (416) 
OPLS3e

>  <r_lp_Energy>  (416) 
23.9169

>  <b_lp_Chiralities_Consistent>  (416) 
1

>  <s_lp_Variant>  (416) 
87:0-1

>  <s_i_glide_gridfile>  (416) 
pfpi4k_grid

>  <i_i_glide_lignum>  (416) 
13

>  <i_i_glide_rotatable_bonds>  (416) 
6

>  <r_i_docking_score>  (416) 
-2.67226

>  <r_i_glide_ligand_efficiency>  (416) 
-0.0989727

>  <r_i_glide_ligand_efficiency_sa>  (416) 
-0.296918

>  <r_i_glide_ligand_efficiency_ln>  (416) 
-0.622059

>  <r_i_glide_gscore>  (416) 
-2.67226

>  <r_i_glide_lipo>  (416) 
-0.376112

>  <r_i_glide_hbond>  (416) 
0

>  <r_i_glide_metal>  (416) 
-0

>  <r_i_glide_rewards>  (416) 
-0.718944

>  <r_i_glide_evdw>  (416) 
-28.6369

>  <r_i_glide_ecoul>  (416) 
-3.06654

>  <r_i_glide_erotb>  (416) 
0.376674

>  <r_i_glide_esite>  (416) 
-0.0620575

>  <r_i_glide_emodel>  (416) 
-35.6445

>  <r_i_glide_energy>  (416) 
-31.7034

>  <r_i_glide_einternal>  (416) 
2.90848

>  <r_i_glide_intrahb_reward>  (416) 
-0

>  <i_i_glide_confnum>  (416) 
2

>  <i_i_glide_posenum>  (416) 
4

>  <r_i_glide_eff_state_penalty>  (416) 
0

>  <ligand_id>  (416) 
87

>  <original_smiles>  (416) 
OC(CSc1nc2ccccc2s1)Cn1c2c(c3ccccc31)CCCC2

>  <smiles>  (416) 
[H]OC([H])(C([H])([H])Sc1nc2c([H])c([H])c([H])c([H])c2s1)C([H])([H])n1c2c(c3c([H])c([H])c([H])c([H])c31)C([H])([H])C([H])([H])C([H])([H])C2([H])[H]

$$$$
88:0:0
     RDKit          3D

 45 48  0  0  1  0  0  0  0  0999 V2000
    2.3627   -3.4406    2.4755 C   0  0  0  0  0  0  0  0  0  0  0  0
    3.7896   -2.8557    2.4272 C   0  0  2  0  0  0  0  0  0  0  0  0
    3.7903   -1.5255    1.6278 C   0  0  0  0  0  0  0  0  0  0  0  0
    5.1399   -0.8175    1.3780 C   0  0  1  0  0  0  0  0  0  0  0  0
    5.8157   -0.5831    2.6059 O   0  0  0  0  0  0  0  0  0  0  0  0
    6.1351   -1.4403    0.3695 C   0  0  0  0  0  0  0  0  0  0  0  0
    5.4984   -2.1777   -0.8087 C   0  0  1  0  0  0  0  0  0  0  0  0
    4.7590   -1.1144   -1.6575 C   0  0  0  0  0  0  0  0  0  0  0  0
    6.3910   -3.0713   -1.6559 C   0  0  0  0  0  0  0  0  0  0  0  0
    5.3717   -4.1002   -1.7161 O   0  0  0  0  0  0  0  0  0  0  0  0
    4.7426   -3.5037   -0.5593 C   0  0  1  0  0  0  0  0  0  0  0  0
    4.8947   -4.5180    0.6251 C   0  0  2  0  0  0  0  0  0  0  0  0
    3.6987   -5.2888    0.6312 O   0  0  0  0  0  0  0  0  0  0  0  0
    4.0907   -6.7361    0.5922 O   0  0  0  0  0  0  0  0  0  0  0  0
    5.0300   -6.9526    1.6287 C   0  0  2  0  0  0  0  0  0  0  0  0
    5.1794   -8.4711    1.7526 C   0  0  0  0  0  0  0  0  0  0  0  0
    4.6414   -6.3456    3.0026 C   0  0  0  0  0  0  0  0  0  0  0  0
    5.1351   -4.9002    3.1983 C   0  0  0  0  0  0  0  0  0  0  0  0
    4.9027   -3.8775    2.0585 C   0  0  2  0  0  0  0  0  0  0  0  0
    6.2882   -6.3892    1.3471 O   0  0  0  0  0  0  0  0  0  0  0  0
    6.0810   -5.2721    0.3326 O   0  0  0  0  0  0  0  0  0  0  0  0
    2.0130   -3.7017    1.4773 H   0  0  0  0  0  0  0  0  0  0  0  0
    1.6493   -2.7282    2.8879 H   0  0  0  0  0  0  0  0  0  0  0  0
    2.3132   -4.3398    3.0940 H   0  0  0  0  0  0  0  0  0  0  0  0
    3.9996   -2.5432    3.4513 H   0  0  0  0  0  0  0  0  0  0  0  0
    3.2497   -1.6659    0.6954 H   0  0  0  0  0  0  0  0  0  0  0  0
    3.1633   -0.8219    2.1781 H   0  0  0  0  0  0  0  0  0  0  0  0
    4.8913    0.1648    0.9833 H   0  0  0  0  0  0  0  0  0  0  0  0
    6.6148   -0.1528    2.4441 H   0  0  0  0  0  0  0  0  0  0  0  0
    6.8008   -0.6490    0.0420 H   0  0  0  0  0  0  0  0  0  0  0  0
    6.8161   -2.1175    0.8609 H   0  0  0  0  0  0  0  0  0  0  0  0
    4.3273   -1.5589   -2.5423 H   0  0  0  0  0  0  0  0  0  0  0  0
    5.4195   -0.3141   -1.9966 H   0  0  0  0  0  0  0  0  0  0  0  0
    3.9373   -0.6569   -1.1193 H   0  0  0  0  0  0  0  0  0  0  0  0
    6.6142   -2.6646   -2.6297 H   0  0  0  0  0  0  0  0  0  0  0  0
    7.3002   -3.3848   -1.1500 H   0  0  0  0  0  0  0  0  0  0  0  0
    3.7135   -3.3003   -0.7593 H   0  0  0  0  0  0  0  0  0  0  0  0
    5.3829   -8.8890    0.7688 H   0  0  0  0  0  0  0  0  0  0  0  0
    4.2686   -8.9340    2.1234 H   0  0  0  0  0  0  0  0  0  0  0  0
    6.0018   -8.7407    2.4078 H   0  0  0  0  0  0  0  0  0  0  0  0
    3.5753   -6.4529    3.1907 H   0  0  0  0  0  0  0  0  0  0  0  0
    5.1456   -6.9242    3.7740 H   0  0  0  0  0  0  0  0  0  0  0  0
    4.7389   -4.5221    4.1436 H   0  0  0  0  0  0  0  0  0  0  0  0
    6.2086   -4.9461    3.3649 H   0  0  0  0  0  0  0  0  0  0  0  0
    5.8143   -3.3117    2.1381 H   0  0  0  0  0  0  0  0  0  0  0  0
  1  2  1  0
  1 22  1  0
  1 23  1  0
  1 24  1  0
  2 19  1  0
  2  3  1  0
  2 25  1  1
  3  4  1  0
  3 26  1  0
  3 27  1  0
  4  5  1  0
  4  6  1  0
  4 28  1  6
  5 29  1  0
  6  7  1  0
  6 30  1  0
  6 31  1  0
  7 11  1  0
  7  8  1  6
  7  9  1  0
  8 32  1  0
  8 33  1  0
  8 34  1  0
  9 10  1  0
  9 35  1  0
  9 36  1  0
 10 11  1  0
 11 12  1  0
 11 37  1  6
 12 19  1  0
 12 21  1  6
 12 13  1  0
 13 14  1  0
 14 15  1  0
 15 16  1  1
 15 17  1  0
 15 20  1  0
 16 38  1  0
 16 39  1  0
 16 40  1  0
 17 18  1  0
 17 41  1  0
 17 42  1  0
 18 19  1  0
 18 43  1  0
 18 44  1  0
 19 45  1  6
 20 21  1  0
M  END
>  <i_m_ct_stereo_status>  (417) 
1

>  <s_m_source_file>  (417) 
/var/tmp/pbs.5102264.sched01/tmps1u238za/138cwx3dj4e.sdf

>  <i_m_source_file_index>  (417) 
14

>  <i_lp_mmshare_version>  (417) 
48012

>  <i_f3d_flags>  (417) 
0

>  <s_epik_input>  (417) 
TzFPW0NAQF0oW0NIM10pKE9PMilbQ0gyXVtDSDJdW0NAQEhdM1tDQEhdKFtDSDNdKVtDSDJdW0NAQEhdKFtPSF0pW0NIMl1bQ0BAXShbQ0gzXSkoW0NIMl1PNClbQ0BASF00W0NAQF0xMjM=

>  <s_epik_cmdline>  (417) 
J2VwaWtfcHl0aG9uJywgJy1waHQnLCAnMi4wJywgJy1waCcsICc3LjAnLCAnLXRuJywgJzgnLCAnLW1hJywgJzIwMCcsICctaW1hZScsICc8aW5maWxlLm1hZT4nLCAnLW9tYWUnLCAnPG91dGZpbGUubWFlPic=

>  <r_lp_tautomer_probability>  (417) 
1

>  <r_epik_Ionization_Penalty>  (417) 
3.09644e-07

>  <r_epik_Ionization_Penalty_Charging>  (417) 
0

>  <r_epik_Ionization_Penalty_Neutral>  (417) 
3.09644e-07

>  <r_epik_State_Penalty>  (417) 
-0

>  <r_epik_Charging_Adjusted_Penalty>  (417) 
0

>  <i_epik_Tot_Q>  (417) 
0

>  <i_epik_Tot_abs_Q>  (417) 
0

>  <s_lp_Force_Field>  (417) 
OPLS3e

>  <r_lp_Energy>  (417) 
32.251

>  <b_lp_Chiralities_Consistent>  (417) 
1

>  <s_lp_Variant>  (417) 
88:0-1

>  <s_i_glide_gridfile>  (417) 
pfpi4k_grid

>  <i_i_glide_lignum>  (417) 
14

>  <i_i_glide_rotatable_bonds>  (417) 
1

>  <r_i_docking_score>  (417) 
-3.28812

>  <r_i_glide_ligand_efficiency>  (417) 
-0.156577

>  <r_i_glide_ligand_efficiency_sa>  (417) 
-0.431984

>  <r_i_glide_ligand_efficiency_ln>  (417) 
-0.81298

>  <r_i_glide_gscore>  (417) 
-3.28812

>  <r_i_glide_lipo>  (417) 
-0.404155

>  <r_i_glide_hbond>  (417) 
-0.297327

>  <r_i_glide_metal>  (417) 
-0

>  <r_i_glide_rewards>  (417) 
-1.51739

>  <r_i_glide_evdw>  (417) 
-18.127

>  <r_i_glide_ecoul>  (417) 
-1.086

>  <r_i_glide_erotb>  (417) 
0

>  <r_i_glide_esite>  (417) 
0

>  <r_i_glide_emodel>  (417) 
-23.2695

>  <r_i_glide_energy>  (417) 
-19.213

>  <r_i_glide_einternal>  (417) 
0.381586

>  <r_i_glide_intrahb_reward>  (417) 
-0

>  <i_i_glide_confnum>  (417) 
1

>  <i_i_glide_posenum>  (417) 
40

>  <r_i_glide_eff_state_penalty>  (417) 
0

>  <ligand_id>  (417) 
88

>  <original_smiles>  (417) 
CC1CC(O)CC2(C)COC2C23OOC(C)(CCC12)OO3

>  <smiles>  (417) 
[H]OC1([H])C([H])([H])C([H])(C([H])([H])[H])C2([H])C([H])([H])C([H])([H])C3(C([H])([H])[H])OOC2(OO3)C2([H])OC([H])([H])C2(C([H])([H])[H])C1([H])[H]

$$$$
88:0:1
     RDKit          3D

 45 48  0  0  1  0  0  0  0  0999 V2000
    3.3024   -8.9462    5.1419 C   0  0  0  0  0  0  0  0  0  0  0  0
    3.6521   -9.0447    3.6381 C   0  0  2  0  0  0  0  0  0  0  0  0
    4.9626   -8.2707    3.3474 C   0  0  0  0  0  0  0  0  0  0  0  0
    5.4360   -8.1695    1.8714 C   0  0  1  0  0  0  0  0  0  0  0  0
    5.6038   -9.4531    1.2874 O   0  0  0  0  0  0  0  0  0  0  0  0
    4.6616   -7.2232    0.9202 C   0  0  0  0  0  0  0  0  0  0  0  0
    4.0345   -5.9888    1.5552 C   0  0  1  0  0  0  0  0  0  0  0  0
    5.2020   -5.0883    2.0225 C   0  0  0  0  0  0  0  0  0  0  0  0
    3.0175   -5.2216    0.7283 C   0  0  0  0  0  0  0  0  0  0  0  0
    2.1371   -5.0577    1.8652 O   0  0  0  0  0  0  0  0  0  0  0  0
    2.8387   -6.1444    2.5285 C   0  0  1  0  0  0  0  0  0  0  0  0
    1.8267   -7.3304    2.6551 C   0  0  2  0  0  0  0  0  0  0  0  0
    1.2604   -7.1937    3.9575 O   0  0  0  0  0  0  0  0  0  0  0  0
   -0.2402   -7.1987    3.8281 O   0  0  0  0  0  0  0  0  0  0  0  0
   -0.5927   -8.3058    3.0338 C   0  0  2  0  0  0  0  0  0  0  0  0
   -2.1193   -8.4371    3.1030 C   0  0  0  0  0  0  0  0  0  0  0  0
    0.0773   -9.6508    3.4161 C   0  0  0  0  0  0  0  0  0  0  0  0
    1.4228   -9.9163    2.7218 C   0  0  0  0  0  0  0  0  0  0  0  0
    2.4614   -8.7708    2.6718 C   0  0  2  0  0  0  0  0  0  0  0  0
   -0.2867   -8.0837    1.6823 O   0  0  0  0  0  0  0  0  0  0  0  0
    0.8826   -7.1221    1.5972 O   0  0  0  0  0  0  0  0  0  0  0  0
    3.0974   -7.9173    5.4450 H   0  0  0  0  0  0  0  0  0  0  0  0
    4.1218   -9.3084    5.7674 H   0  0  0  0  0  0  0  0  0  0  0  0
    2.4296   -9.5536    5.3916 H   0  0  0  0  0  0  0  0  0  0  0  0
    3.9281  -10.0885    3.4836 H   0  0  0  0  0  0  0  0  0  0  0  0
    4.9055   -7.2863    3.8055 H   0  0  0  0  0  0  0  0  0  0  0  0
    5.7630   -8.7639    3.9020 H   0  0  0  0  0  0  0  0  0  0  0  0
    6.4458   -7.7630    1.9282 H   0  0  0  0  0  0  0  0  0  0  0  0
    4.7904   -9.9499    1.2864 H   0  0  0  0  0  0  0  0  0  0  0  0
    5.3240   -6.9222    0.1059 H   0  0  0  0  0  0  0  0  0  0  0  0
    3.8877   -7.7723    0.4053 H   0  0  0  0  0  0  0  0  0  0  0  0
    4.8346   -4.1568    2.4403 H   0  0  0  0  0  0  0  0  0  0  0  0
    5.8701   -4.8174    1.1984 H   0  0  0  0  0  0  0  0  0  0  0  0
    5.8207   -5.5490    2.7871 H   0  0  0  0  0  0  0  0  0  0  0  0
    3.4062   -4.2748    0.3516 H   0  0  0  0  0  0  0  0  0  0  0  0
    2.5745   -5.8037   -0.0835 H   0  0  0  0  0  0  0  0  0  0  0  0
    3.1997   -5.8431    3.4880 H   0  0  0  0  0  0  0  0  0  0  0  0
   -2.5512   -7.4676    2.8725 H   0  0  0  0  0  0  0  0  0  0  0  0
   -2.4267   -8.7408    4.0985 H   0  0  0  0  0  0  0  0  0  0  0  0
   -2.4881   -9.1645    2.3879 H   0  0  0  0  0  0  0  0  0  0  0  0
    0.1415   -9.7617    4.4974 H   0  0  0  0  0  0  0  0  0  0  0  0
   -0.5699  -10.4528    3.0789 H   0  0  0  0  0  0  0  0  0  0  0  0
    1.8651  -10.8239    3.1382 H   0  0  0  0  0  0  0  0  0  0  0  0
    1.2031  -10.1848    1.6931 H   0  0  0  0  0  0  0  0  0  0  0  0
    2.8724   -8.9392    1.6908 H   0  0  0  0  0  0  0  0  0  0  0  0
  1  2  1  0
  1 22  1  0
  1 23  1  0
  1 24  1  0
  2 19  1  0
  2  3  1  0
  2 25  1  1
  3  4  1  0
  3 26  1  0
  3 27  1  0
  4  5  1  0
  4  6  1  0
  4 28  1  1
  5 29  1  0
  6  7  1  0
  6 30  1  0
  6 31  1  0
  7 11  1  0
  7  8  1  1
  7  9  1  0
  8 32  1  0
  8 33  1  0
  8 34  1  0
  9 10  1  0
  9 35  1  0
  9 36  1  0
 10 11  1  0
 11 12  1  0
 11 37  1  1
 12 19  1  0
 12 21  1  6
 12 13  1  0
 13 14  1  0
 14 15  1  0
 15 16  1  6
 15 17  1  0
 15 20  1  0
 16 38  1  0
 16 39  1  0
 16 40  1  0
 17 18  1  0
 17 41  1  0
 17 42  1  0
 18 19  1  0
 18 43  1  0
 18 44  1  0
 19 45  1  6
 20 21  1  0
M  END
>  <i_m_ct_stereo_status>  (418) 
1

>  <s_m_source_file>  (418) 
/var/tmp/pbs.5102264.sched01/tmps1u238za/138cwx3dj4e.sdf

>  <i_m_source_file_index>  (418) 
14

>  <i_lp_mmshare_version>  (418) 
48012

>  <i_f3d_flags>  (418) 
0

>  <s_epik_input>  (418) 
TzFPW0NAQF0oW0NIM10pKE9PMilbQ0gyXVtDSDJdW0NAQEhdM1tDQEhdKFtDSDNdKVtDSDJdW0NAQEhdKFtPSF0pW0NIMl1bQ0BAXShbQ0gzXSkoW0NIMl1PNClbQ0BASF00W0NAQF0xMjM=

>  <s_epik_cmdline>  (418) 
J2VwaWtfcHl0aG9uJywgJy1waHQnLCAnMi4wJywgJy1waCcsICc3LjAnLCAnLXRuJywgJzgnLCAnLW1hJywgJzIwMCcsICctaW1hZScsICc8aW5maWxlLm1hZT4nLCAnLW9tYWUnLCAnPG91dGZpbGUubWFlPic=

>  <r_lp_tautomer_probability>  (418) 
1

>  <r_epik_Ionization_Penalty>  (418) 
3.09644e-07

>  <r_epik_Ionization_Penalty_Charging>  (418) 
0

>  <r_epik_Ionization_Penalty_Neutral>  (418) 
3.09644e-07

>  <r_epik_State_Penalty>  (418) 
-0

>  <r_epik_Charging_Adjusted_Penalty>  (418) 
0

>  <i_epik_Tot_Q>  (418) 
0

>  <i_epik_Tot_abs_Q>  (418) 
0

>  <s_lp_Force_Field>  (418) 
OPLS3e

>  <r_lp_Energy>  (418) 
32.251

>  <b_lp_Chiralities_Consistent>  (418) 
1

>  <s_lp_Variant>  (418) 
88:0-1

>  <s_i_glide_gridfile>  (418) 
pfpi4k_grid

>  <i_i_glide_lignum>  (418) 
14

>  <i_i_glide_rotatable_bonds>  (418) 
1

>  <r_i_docking_score>  (418) 
-3.02319

>  <r_i_glide_ligand_efficiency>  (418) 
-0.143961

>  <r_i_glide_ligand_efficiency_sa>  (418) 
-0.397179

>  <r_i_glide_ligand_efficiency_ln>  (418) 
-0.747478

>  <r_i_glide_gscore>  (418) 
-3.02319

>  <r_i_glide_lipo>  (418) 
-0.311207

>  <r_i_glide_hbond>  (418) 
0

>  <r_i_glide_metal>  (418) 
-0

>  <r_i_glide_rewards>  (418) 
-1.36127

>  <r_i_glide_evdw>  (418) 
-18.2173

>  <r_i_glide_ecoul>  (418) 
-2.50349

>  <r_i_glide_erotb>  (418) 
0

>  <r_i_glide_esite>  (418) 
-0.0643259

>  <r_i_glide_emodel>  (418) 
-24.6327

>  <r_i_glide_energy>  (418) 
-20.7208

>  <r_i_glide_einternal>  (418) 
0.020423

>  <r_i_glide_intrahb_reward>  (418) 
-0

>  <i_i_glide_confnum>  (418) 
2

>  <i_i_glide_posenum>  (418) 
28

>  <r_i_glide_eff_state_penalty>  (418) 
0

>  <ligand_id>  (418) 
88

>  <original_smiles>  (418) 
CC1CC(O)CC2(C)COC2C23OOC(C)(CCC12)OO3

>  <smiles>  (418) 
[H]OC1([H])C([H])([H])C([H])(C([H])([H])[H])C2([H])C([H])([H])C([H])([H])C3(C([H])([H])[H])OOC2(OO3)C2([H])OC([H])([H])C2(C([H])([H])[H])C1([H])[H]

$$$$
88:0:2
     RDKit          3D

 45 48  0  0  1  0  0  0  0  0999 V2000
    2.2362   -3.5580    2.3928 C   0  0  0  0  0  0  0  0  0  0  0  0
    3.6037   -2.8427    2.3681 C   0  0  2  0  0  0  0  0  0  0  0  0
    3.5078   -1.5321    1.5467 C   0  0  0  0  0  0  0  0  0  0  0  0
    4.8007   -0.7056    1.3156 C   0  0  1  0  0  0  0  0  0  0  0  0
    5.4074   -0.3906    2.5590 O   0  0  0  0  0  0  0  0  0  0  0  0
    5.8667   -1.2589    0.3368 C   0  0  0  0  0  0  0  0  0  0  0  0
    5.3184   -2.0558   -0.8519 C   0  0  1  0  0  0  0  0  0  0  0  0
    4.5084   -1.0823   -1.7322 C   0  0  0  0  0  0  0  0  0  0  0  0
    6.3139   -2.8715   -1.6697 C   0  0  0  0  0  0  0  0  0  0  0  0
    5.3950   -3.9803   -1.7433 O   0  0  0  0  0  0  0  0  0  0  0  0
    4.6730   -3.4478   -0.6085 C   0  0  1  0  0  0  0  0  0  0  0  0
    4.8923   -4.4193    0.6042 C   0  0  2  0  0  0  0  0  0  0  0  0
    3.7803   -5.3030    0.5865 O   0  0  0  0  0  0  0  0  0  0  0  0
    4.2821   -6.7165    0.6138 O   0  0  0  0  0  0  0  0  0  0  0  0
    5.2252   -6.8354    1.6620 C   0  0  2  0  0  0  0  0  0  0  0  0
    5.5090   -8.3371    1.8011 C   0  0  0  0  0  0  0  0  0  0  0  0
    4.7588   -6.2388    3.0133 C   0  0  0  0  0  0  0  0  0  0  0  0
    5.1153   -4.7508    3.2000 C   0  0  0  0  0  0  0  0  0  0  0  0
    4.8145   -3.7711    2.0359 C   0  0  2  0  0  0  0  0  0  0  0  0
    6.4306   -6.1678    1.3710 O   0  0  0  0  0  0  0  0  0  0  0  0
    6.1509   -5.0659    0.3586 O   0  0  0  0  0  0  0  0  0  0  0  0
    1.9338   -3.8658    1.3926 H   0  0  0  0  0  0  0  0  0  0  0  0
    1.4525   -2.9045    2.7779 H   0  0  0  0  0  0  0  0  0  0  0  0
    2.2525   -4.4473    3.0251 H   0  0  0  0  0  0  0  0  0  0  0  0
    3.7571   -2.5032    3.3940 H   0  0  0  0  0  0  0  0  0  0  0  0
    3.0070   -1.7318    0.6005 H   0  0  0  0  0  0  0  0  0  0  0  0
    2.8029   -0.8785    2.0644 H   0  0  0  0  0  0  0  0  0  0  0  0
    4.4720    0.2454    0.9026 H   0  0  0  0  0  0  0  0  0  0  0  0
    5.6701   -1.1748    2.9801 H   0  0  0  0  0  0  0  0  0  0  0  0
    6.4612   -0.4147   -0.0034 H   0  0  0  0  0  0  0  0  0  0  0  0
    6.6039   -1.8635    0.8525 H   0  0  0  0  0  0  0  0  0  0  0  0
    4.1267   -1.5806   -2.6187 H   0  0  0  0  0  0  0  0  0  0  0  0
    5.1192   -0.2526   -2.0815 H   0  0  0  0  0  0  0  0  0  0  0  0
    3.6479   -0.6600   -1.2215 H   0  0  0  0  0  0  0  0  0  0  0  0
    6.5226   -2.4527   -2.6499 H   0  0  0  0  0  0  0  0  0  0  0  0
    7.2400   -3.1156   -1.1473 H   0  0  0  0  0  0  0  0  0  0  0  0
    3.6197   -3.3571   -0.8426 H   0  0  0  0  0  0  0  0  0  0  0  0
    5.7722   -8.7543    0.8288 H   0  0  0  0  0  0  0  0  0  0  0  0
    4.6326   -8.8746    2.1662 H   0  0  0  0  0  0  0  0  0  0  0  0
    6.3374   -8.5239    2.4833 H   0  0  0  0  0  0  0  0  0  0  0  0
    3.7009   -6.4321    3.1857 H   0  0  0  0  0  0  0  0  0  0  0  0
    5.2892   -6.7610    3.8108 H   0  0  0  0  0  0  0  0  0  0  0  0
    4.6645   -4.4012    4.1301 H   0  0  0  0  0  0  0  0  0  0  0  0
    6.1863   -4.6983    3.3932 H   0  0  0  0  0  0  0  0  0  0  0  0
    5.6720   -3.1243    2.1228 H   0  0  0  0  0  0  0  0  0  0  0  0
  1  2  1  0
  1 22  1  0
  1 23  1  0
  1 24  1  0
  2 19  1  0
  2  3  1  0
  2 25  1  1
  3  4  1  0
  3 26  1  0
  3 27  1  0
  4  5  1  0
  4  6  1  0
  4 28  1  6
  5 29  1  0
  6  7  1  0
  6 30  1  0
  6 31  1  0
  7 11  1  0
  7  8  1  6
  7  9  1  0
  8 32  1  0
  8 33  1  0
  8 34  1  0
  9 10  1  0
  9 35  1  0
  9 36  1  0
 10 11  1  0
 11 12  1  0
 11 37  1  6
 12 19  1  0
 12 21  1  6
 12 13  1  0
 13 14  1  0
 14 15  1  0
 15 16  1  1
 15 17  1  0
 15 20  1  0
 16 38  1  0
 16 39  1  0
 16 40  1  0
 17 18  1  0
 17 41  1  0
 17 42  1  0
 18 19  1  0
 18 43  1  0
 18 44  1  0
 19 45  1  6
 20 21  1  0
M  END
>  <i_m_ct_stereo_status>  (419) 
1

>  <s_m_source_file>  (419) 
/var/tmp/pbs.5102264.sched01/tmps1u238za/138cwx3dj4e.sdf

>  <i_m_source_file_index>  (419) 
14

>  <i_lp_mmshare_version>  (419) 
48012

>  <i_f3d_flags>  (419) 
0

>  <s_epik_input>  (419) 
TzFPW0NAQF0oW0NIM10pKE9PMilbQ0gyXVtDSDJdW0NAQEhdM1tDQEhdKFtDSDNdKVtDSDJdW0NAQEhdKFtPSF0pW0NIMl1bQ0BAXShbQ0gzXSkoW0NIMl1PNClbQ0BASF00W0NAQF0xMjM=

>  <s_epik_cmdline>  (419) 
J2VwaWtfcHl0aG9uJywgJy1waHQnLCAnMi4wJywgJy1waCcsICc3LjAnLCAnLXRuJywgJzgnLCAnLW1hJywgJzIwMCcsICctaW1hZScsICc8aW5maWxlLm1hZT4nLCAnLW9tYWUnLCAnPG91dGZpbGUubWFlPic=

>  <r_lp_tautomer_probability>  (419) 
1

>  <r_epik_Ionization_Penalty>  (419) 
3.09644e-07

>  <r_epik_Ionization_Penalty_Charging>  (419) 
0

>  <r_epik_Ionization_Penalty_Neutral>  (419) 
3.09644e-07

>  <r_epik_State_Penalty>  (419) 
-0

>  <r_epik_Charging_Adjusted_Penalty>  (419) 
0

>  <i_epik_Tot_Q>  (419) 
0

>  <i_epik_Tot_abs_Q>  (419) 
0

>  <s_lp_Force_Field>  (419) 
OPLS3e

>  <r_lp_Energy>  (419) 
32.251

>  <b_lp_Chiralities_Consistent>  (419) 
1

>  <s_lp_Variant>  (419) 
88:0-1

>  <s_i_glide_gridfile>  (419) 
pfpi4k_grid

>  <i_i_glide_lignum>  (419) 
14

>  <i_i_glide_rotatable_bonds>  (419) 
1

>  <r_i_docking_score>  (419) 
-2.8706

>  <r_i_glide_ligand_efficiency>  (419) 
-0.136695

>  <r_i_glide_ligand_efficiency_sa>  (419) 
-0.377131

>  <r_i_glide_ligand_efficiency_ln>  (419) 
-0.709749

>  <r_i_glide_gscore>  (419) 
-2.8706

>  <r_i_glide_lipo>  (419) 
-0.356175

>  <r_i_glide_hbond>  (419) 
-0.0626713

>  <r_i_glide_metal>  (419) 
-0

>  <r_i_glide_rewards>  (419) 
-1.51141

>  <r_i_glide_evdw>  (419) 
-18.2549

>  <r_i_glide_ecoul>  (419) 
-0.183936

>  <r_i_glide_erotb>  (419) 
0

>  <r_i_glide_esite>  (419) 
0

>  <r_i_glide_emodel>  (419) 
-22.4389

>  <r_i_glide_energy>  (419) 
-18.4389

>  <r_i_glide_einternal>  (419) 
0.00354866

>  <r_i_glide_intrahb_reward>  (419) 
-0

>  <i_i_glide_confnum>  (419) 
1

>  <i_i_glide_posenum>  (419) 
1

>  <r_i_glide_eff_state_penalty>  (419) 
0

>  <ligand_id>  (419) 
88

>  <original_smiles>  (419) 
CC1CC(O)CC2(C)COC2C23OOC(C)(CCC12)OO3

>  <smiles>  (419) 
[H]OC1([H])C([H])([H])C([H])(C([H])([H])[H])C2([H])C([H])([H])C([H])([H])C3(C([H])([H])[H])OOC2(OO3)C2([H])OC([H])([H])C2(C([H])([H])[H])C1([H])[H]

$$$$
89:0:0
     RDKit          3D

 39 41  0  0  1  0  0  0  0  0999 V2000
    2.3252   -2.8023   -3.3207 C   0  0  0  0  0  0  0  0  0  0  0  0
    3.9141   -2.2395   -2.6231 S   0  0  0  0  0  0  0  0  0  0  0  0
    4.9744   -2.6445   -3.5583 O   0  0  0  0  0  0  0  0  0  0  0  0
    3.7844   -0.8203   -2.2539 O   0  0  0  0  0  0  0  0  0  0  0  0
    4.0888   -3.1407   -1.1776 N   0  0  0  0  0  0  0  0  0  0  0  0
    5.0721   -4.2422   -1.1100 C   0  0  0  0  0  0  0  0  0  0  0  0
    5.7335   -4.4514    0.2704 C   0  0  1  0  0  0  0  0  0  0  0  0
    6.1326   -3.1409    0.9595 C   0  0  0  0  0  0  0  0  0  0  0  0
    4.9110   -2.4871    1.6296 C   0  0  0  0  0  0  0  0  0  0  0  0
    3.5805   -3.2286    1.3151 C   0  0  1  0  0  0  0  0  0  0  0  0
    3.0703   -3.0088   -0.1162 C   0  0  0  0  0  0  0  0  0  0  0  0
    3.6631   -4.6714    1.6199 N   0  0  0  0  0  0  0  0  0  0  0  0
    2.6532   -5.3989    2.8064 S   0  0  0  0  0  0  0  0  0  0  0  0
    3.4827   -5.6649    3.9935 O   0  0  0  0  0  0  0  0  0  0  0  0
    1.4226   -4.6031    2.9336 O   0  0  0  0  0  0  0  0  0  0  0  0
    2.2253   -7.0478    1.9967 C   0  0  0  0  0  0  0  0  0  0  0  0
    0.8269   -7.1096    1.4377 C   0  0  0  0  0  0  0  0  0  0  0  0
    1.1547   -7.8059    2.7420 C   0  0  0  0  0  0  0  0  0  0  0  0
    4.9069   -5.3374    1.2036 C   0  0  0  0  0  0  0  0  0  0  0  0
    2.0865   -2.2147   -4.2163 H   0  0  0  0  0  0  0  0  0  0  0  0
    1.5222   -2.6535   -2.5895 H   0  0  0  0  0  0  0  0  0  0  0  0
    2.3762   -3.8614   -3.5859 H   0  0  0  0  0  0  0  0  0  0  0  0
    4.6133   -5.1655   -1.4649 H   0  0  0  0  0  0  0  0  0  0  0  0
    5.8829   -4.0292   -1.8108 H   0  0  0  0  0  0  0  0  0  0  0  0
    6.6608   -5.0002    0.0792 H   0  0  0  0  0  0  0  0  0  0  0  0
    6.8851   -3.3497    1.7197 H   0  0  0  0  0  0  0  0  0  0  0  0
    6.6023   -2.4581    0.2491 H   0  0  0  0  0  0  0  0  0  0  0  0
    5.0658   -2.4664    2.7106 H   0  0  0  0  0  0  0  0  0  0  0  0
    4.8368   -1.4443    1.3129 H   0  0  0  0  0  0  0  0  0  0  0  0
    2.8313   -2.7810    1.9817 H   0  0  0  0  0  0  0  0  0  0  0  0
    2.6130   -2.0193   -0.1886 H   0  0  0  0  0  0  0  0  0  0  0  0
    2.2611   -3.7159   -0.3302 H   0  0  0  0  0  0  0  0  0  0  0  0
    3.0625   -7.5648    1.5755 H   0  0  0  0  0  0  0  0  0  0  0  0
    0.1679   -6.2584    1.4970 H   0  0  0  0  0  0  0  0  0  0  0  0
    0.6948   -7.7298    0.5494 H   0  0  0  0  0  0  0  0  0  0  0  0
    1.2340   -8.8971    2.7253 H   0  0  0  0  0  0  0  0  0  0  0  0
    0.7319   -7.3915    3.6482 H   0  0  0  0  0  0  0  0  0  0  0  0
    4.6661   -6.2802    0.7025 H   0  0  0  0  0  0  0  0  0  0  0  0
    5.4834   -5.6120    2.0933 H   0  0  0  0  0  0  0  0  0  0  0  0
  1  2  1  0
  1 20  1  0
  1 21  1  0
  1 22  1  0
  2  3  2  0
  2  4  2  0
  2  5  1  0
  5 11  1  0
  5  6  1  0
  6  7  1  0
  6 23  1  0
  6 24  1  0
  7 19  1  0
  7  8  1  0
  7 25  1  6
  8  9  1  0
  8 26  1  0
  8 27  1  0
  9 10  1  0
  9 28  1  0
  9 29  1  0
 10 11  1  0
 10 12  1  0
 10 30  1  1
 11 31  1  0
 11 32  1  0
 12 13  1  0
 12 19  1  0
 13 14  2  0
 13 15  2  0
 13 16  1  0
 16 18  1  0
 16 17  1  0
 16 33  1  0
 17 18  1  0
 17 34  1  0
 17 35  1  0
 18 36  1  0
 18 37  1  0
 19 38  1  0
 19 39  1  0
M  END
>  <i_m_ct_stereo_status>  (420) 
1

>  <s_m_source_file>  (420) 
/var/tmp/pbs.5102264.sched01/tmps1u238za/138cwx3dj4e.sdf

>  <i_m_source_file_index>  (420) 
15

>  <i_lp_mmshare_version>  (420) 
48012

>  <i_f3d_flags>  (420) 
0

>  <s_epik_input>  (420) 
W0NIM11TKD1PKSg9TylOKFtDSDJdW0NAQEhdMTIpW0NIMl1bQ0BIXShbQ0gyXVtDSDJdMSlOKFtDSDJdMilTKD1PKSg9TylbQ0hdM1tDSDJdW0NIMl0z

>  <s_epik_cmdline>  (420) 
J2VwaWtfcHl0aG9uJywgJy1waHQnLCAnMi4wJywgJy1waCcsICc3LjAnLCAnLXRuJywgJzgnLCAnLW1hJywgJzIwMCcsICctaW1hZScsICc8aW5maWxlLm1hZT4nLCAnLW9tYWUnLCAnPG91dGZpbGUubWFlPic=

>  <r_lp_tautomer_probability>  (420) 
1

>  <r_epik_Ionization_Penalty>  (420) 
2.00687e-09

>  <r_epik_Ionization_Penalty_Charging>  (420) 
0

>  <r_epik_Ionization_Penalty_Neutral>  (420) 
2.00687e-09

>  <r_epik_State_Penalty>  (420) 
-0

>  <r_epik_Charging_Adjusted_Penalty>  (420) 
0

>  <i_epik_Tot_Q>  (420) 
0

>  <i_epik_Tot_abs_Q>  (420) 
0

>  <s_lp_Force_Field>  (420) 
OPLS3e

>  <r_lp_Energy>  (420) 
52.3633

>  <b_lp_Chiralities_Consistent>  (420) 
1

>  <s_lp_Variant>  (420) 
89:0-1

>  <s_i_glide_gridfile>  (420) 
pfpi4k_grid

>  <i_i_glide_lignum>  (420) 
15

>  <i_i_glide_rotatable_bonds>  (420) 
3

>  <r_i_docking_score>  (420) 
-3.08712

>  <r_i_glide_ligand_efficiency>  (420) 
-0.16248

>  <r_i_glide_ligand_efficiency_sa>  (420) 
-0.433562

>  <r_i_glide_ligand_efficiency_ln>  (420) 
-0.782651

>  <r_i_glide_gscore>  (420) 
-3.08712

>  <r_i_glide_lipo>  (420) 
-0.435188

>  <r_i_glide_hbond>  (420) 
0

>  <r_i_glide_metal>  (420) 
-0

>  <r_i_glide_rewards>  (420) 
-1.37305

>  <r_i_glide_evdw>  (420) 
-25.3631

>  <r_i_glide_ecoul>  (420) 
-2.32838

>  <r_i_glide_erotb>  (420) 
0.388998

>  <r_i_glide_esite>  (420) 
-0.0504707

>  <r_i_glide_emodel>  (420) 
-30.8584

>  <r_i_glide_energy>  (420) 
-27.6915

>  <r_i_glide_einternal>  (420) 
4.48701

>  <r_i_glide_intrahb_reward>  (420) 
-0

>  <i_i_glide_confnum>  (420) 
2

>  <i_i_glide_posenum>  (420) 
31

>  <r_i_glide_eff_state_penalty>  (420) 
0

>  <ligand_id>  (420) 
89

>  <original_smiles>  (420) 
CS(=O)(=O)N1CC2CCC(C1)N(S(=O)(=O)C1CC1)C2

>  <smiles>  (420) 
[H]C1([H])N(S(=O)(=O)C([H])([H])[H])C([H])([H])C2([H])C([H])([H])N(S(=O)(=O)C3([H])C([H])([H])C3([H])[H])C1([H])C([H])([H])C2([H])[H]

$$$$
89:0:1
     RDKit          3D

 39 41  0  0  1  0  0  0  0  0999 V2000
    7.5069   -6.2605    2.9531 C   0  0  0  0  0  0  0  0  0  0  0  0
    5.9232   -5.5752    2.3487 S   0  0  0  0  0  0  0  0  0  0  0  0
    5.4693   -4.5784    3.3383 O   0  0  0  0  0  0  0  0  0  0  0  0
    6.1191   -5.1850    0.9441 O   0  0  0  0  0  0  0  0  0  0  0  0
    4.8390   -6.9032    2.3975 N   0  0  0  0  0  0  0  0  0  0  0  0
    4.5605   -7.6691    1.1617 C   0  0  0  0  0  0  0  0  0  0  0  0
    4.2534   -9.1630    1.3640 C   0  0  1  0  0  0  0  0  0  0  0  0
    5.2007   -9.8417    2.3578 C   0  0  0  0  0  0  0  0  0  0  0  0
    4.7616   -9.5557    3.8043 C   0  0  0  0  0  0  0  0  0  0  0  0
    3.5776   -8.5494    3.8885 C   0  0  1  0  0  0  0  0  0  0  0  0
    3.9803   -7.1018    3.5862 C   0  0  0  0  0  0  0  0  0  0  0  0
    2.4367   -8.9615    3.0455 N   0  0  0  0  0  0  0  0  0  0  0  0
    0.8975   -9.3381    3.7320 S   0  0  0  0  0  0  0  0  0  0  0  0
    0.7074  -10.7899    3.6367 O   0  0  0  0  0  0  0  0  0  0  0  0
    0.7906   -8.6488    5.0288 O   0  0  0  0  0  0  0  0  0  0  0  0
   -0.2786   -8.4863    2.5190 C   0  0  0  0  0  0  0  0  0  0  0  0
   -1.3667   -7.6860    3.1829 C   0  0  0  0  0  0  0  0  0  0  0  0
   -1.6759   -9.0421    2.5831 C   0  0  0  0  0  0  0  0  0  0  0  0
    2.7920   -9.4596    1.7094 C   0  0  0  0  0  0  0  0  0  0  0  0
    8.2764   -5.4789    2.8918 H   0  0  0  0  0  0  0  0  0  0  0  0
    7.8242   -7.1063    2.3294 H   0  0  0  0  0  0  0  0  0  0  0  0
    7.4109   -6.5765    3.9971 H   0  0  0  0  0  0  0  0  0  0  0  0
    3.7417   -7.1844    0.6240 H   0  0  0  0  0  0  0  0  0  0  0  0
    5.4273   -7.5838    0.5084 H   0  0  0  0  0  0  0  0  0  0  0  0
    4.4220   -9.6396    0.3942 H   0  0  0  0  0  0  0  0  0  0  0  0
    5.1833  -10.9209    2.1906 H   0  0  0  0  0  0  0  0  0  0  0  0
    6.2298   -9.5194    2.1859 H   0  0  0  0  0  0  0  0  0  0  0  0
    4.4704  -10.4952    4.2804 H   0  0  0  0  0  0  0  0  0  0  0  0
    5.6114   -9.1716    4.3718 H   0  0  0  0  0  0  0  0  0  0  0  0
    3.2538   -8.5730    4.9392 H   0  0  0  0  0  0  0  0  0  0  0  0
    4.4934   -6.6912    4.4579 H   0  0  0  0  0  0  0  0  0  0  0  0
    3.0757   -6.4912    3.4611 H   0  0  0  0  0  0  0  0  0  0  0  0
    0.1693   -8.2114    1.5902 H   0  0  0  0  0  0  0  0  0  0  0  0
   -1.4132   -7.6090    4.2595 H   0  0  0  0  0  0  0  0  0  0  0  0
   -1.7131   -6.8074    2.6391 H   0  0  0  0  0  0  0  0  0  0  0  0
   -2.2354   -9.0619    1.6466 H   0  0  0  0  0  0  0  0  0  0  0  0
   -1.9017   -9.8440    3.2721 H   0  0  0  0  0  0  0  0  0  0  0  0
    2.1229   -9.0234    0.9621 H   0  0  0  0  0  0  0  0  0  0  0  0
    2.6049  -10.5385    1.6817 H   0  0  0  0  0  0  0  0  0  0  0  0
  1  2  1  0
  1 20  1  0
  1 21  1  0
  1 22  1  0
  2  3  2  0
  2  4  2  0
  2  5  1  0
  5 11  1  0
  5  6  1  0
  6  7  1  0
  6 23  1  0
  6 24  1  0
  7 19  1  0
  7  8  1  0
  7 25  1  6
  8  9  1  0
  8 26  1  0
  8 27  1  0
  9 10  1  0
  9 28  1  0
  9 29  1  0
 10 11  1  0
 10 12  1  0
 10 30  1  1
 11 31  1  0
 11 32  1  0
 12 13  1  0
 12 19  1  0
 13 14  2  0
 13 15  2  0
 13 16  1  0
 16 18  1  0
 16 17  1  0
 16 33  1  0
 17 18  1  0
 17 34  1  0
 17 35  1  0
 18 36  1  0
 18 37  1  0
 19 38  1  0
 19 39  1  0
M  END
>  <i_m_ct_stereo_status>  (421) 
1

>  <s_m_source_file>  (421) 
/var/tmp/pbs.5102264.sched01/tmps1u238za/138cwx3dj4e.sdf

>  <i_m_source_file_index>  (421) 
15

>  <i_lp_mmshare_version>  (421) 
48012

>  <i_f3d_flags>  (421) 
0

>  <s_epik_input>  (421) 
W0NIM11TKD1PKSg9TylOKFtDSDJdW0NAQEhdMTIpW0NIMl1bQ0BIXShbQ0gyXVtDSDJdMSlOKFtDSDJdMilTKD1PKSg9TylbQ0hdM1tDSDJdW0NIMl0z

>  <s_epik_cmdline>  (421) 
J2VwaWtfcHl0aG9uJywgJy1waHQnLCAnMi4wJywgJy1waCcsICc3LjAnLCAnLXRuJywgJzgnLCAnLW1hJywgJzIwMCcsICctaW1hZScsICc8aW5maWxlLm1hZT4nLCAnLW9tYWUnLCAnPG91dGZpbGUubWFlPic=

>  <r_lp_tautomer_probability>  (421) 
1

>  <r_epik_Ionization_Penalty>  (421) 
2.00687e-09

>  <r_epik_Ionization_Penalty_Charging>  (421) 
0

>  <r_epik_Ionization_Penalty_Neutral>  (421) 
2.00687e-09

>  <r_epik_State_Penalty>  (421) 
-0

>  <r_epik_Charging_Adjusted_Penalty>  (421) 
0

>  <i_epik_Tot_Q>  (421) 
0

>  <i_epik_Tot_abs_Q>  (421) 
0

>  <s_lp_Force_Field>  (421) 
OPLS3e

>  <r_lp_Energy>  (421) 
52.3633

>  <b_lp_Chiralities_Consistent>  (421) 
1

>  <s_lp_Variant>  (421) 
89:0-1

>  <s_i_glide_gridfile>  (421) 
pfpi4k_grid

>  <i_i_glide_lignum>  (421) 
15

>  <i_i_glide_rotatable_bonds>  (421) 
3

>  <r_i_docking_score>  (421) 
-2.44443

>  <r_i_glide_ligand_efficiency>  (421) 
-0.128654

>  <r_i_glide_ligand_efficiency_sa>  (421) 
-0.343301

>  <r_i_glide_ligand_efficiency_ln>  (421) 
-0.619716

>  <r_i_glide_gscore>  (421) 
-2.44443

>  <r_i_glide_lipo>  (421) 
-0.212233

>  <r_i_glide_hbond>  (421) 
0

>  <r_i_glide_metal>  (421) 
-0

>  <r_i_glide_rewards>  (421) 
-1.34163

>  <r_i_glide_evdw>  (421) 
-24.3523

>  <r_i_glide_ecoul>  (421) 
-0.0313359

>  <r_i_glide_erotb>  (421) 
0.388998

>  <r_i_glide_esite>  (421) 
-0.0572531

>  <r_i_glide_emodel>  (421) 
-25.9175

>  <r_i_glide_energy>  (421) 
-24.3836

>  <r_i_glide_einternal>  (421) 
5.24966

>  <r_i_glide_intrahb_reward>  (421) 
-0

>  <i_i_glide_confnum>  (421) 
2

>  <i_i_glide_posenum>  (421) 
24

>  <r_i_glide_eff_state_penalty>  (421) 
0

>  <ligand_id>  (421) 
89

>  <original_smiles>  (421) 
CS(=O)(=O)N1CC2CCC(C1)N(S(=O)(=O)C1CC1)C2

>  <smiles>  (421) 
[H]C1([H])N(S(=O)(=O)C([H])([H])[H])C([H])([H])C2([H])C([H])([H])N(S(=O)(=O)C3([H])C([H])([H])C3([H])[H])C1([H])C([H])([H])C2([H])[H]

$$$$
89:0:2
     RDKit          3D

 39 41  0  0  1  0  0  0  0  0999 V2000
    4.9716   -3.3283    2.7466 C   0  0  0  0  0  0  0  0  0  0  0  0
    4.2681   -4.0966    1.2322 S   0  0  0  0  0  0  0  0  0  0  0  0
    3.0050   -3.4172    0.9087 O   0  0  0  0  0  0  0  0  0  0  0  0
    5.3481   -4.1659    0.2394 O   0  0  0  0  0  0  0  0  0  0  0  0
    3.8802   -5.7077    1.7418 N   0  0  0  0  0  0  0  0  0  0  0  0
    4.3255   -6.8527    0.9172 C   0  0  0  0  0  0  0  0  0  0  0  0
    4.5701   -8.1523    1.7158 C   0  0  1  0  0  0  0  0  0  0  0  0
    5.2941   -7.8923    3.0504 C   0  0  0  0  0  0  0  0  0  0  0  0
    4.3150   -7.3873    4.1301 C   0  0  0  0  0  0  0  0  0  0  0  0
    2.8827   -7.1463    3.5858 C   0  0  1  0  0  0  0  0  0  0  0  0
    2.7634   -5.8930    2.6907 C   0  0  0  0  0  0  0  0  0  0  0  0
    2.3890   -8.3573    2.8919 N   0  0  0  0  0  0  0  0  0  0  0  0
    0.9306   -9.1692    3.3905 S   0  0  0  0  0  0  0  0  0  0  0  0
    1.0013  -10.5466    2.8819 O   0  0  0  0  0  0  0  0  0  0  0  0
    0.7538   -8.9249    4.8297 O   0  0  0  0  0  0  0  0  0  0  0  0
   -0.3918   -8.2778    2.4476 C   0  0  0  0  0  0  0  0  0  0  0  0
   -1.4641   -7.6393    3.2960 C   0  0  0  0  0  0  0  0  0  0  0  0
   -1.7510   -8.9321    2.5689 C   0  0  0  0  0  0  0  0  0  0  0  0
    3.2977   -8.9987    1.9294 C   0  0  0  0  0  0  0  0  0  0  0  0
    5.3350   -2.3297    2.4917 H   0  0  0  0  0  0  0  0  0  0  0  0
    5.8016   -3.9371    3.1094 H   0  0  0  0  0  0  0  0  0  0  0  0
    4.1998   -3.2407    3.5122 H   0  0  0  0  0  0  0  0  0  0  0  0
    3.6097   -7.0199    0.1161 H   0  0  0  0  0  0  0  0  0  0  0  0
    5.2619   -6.5965    0.4197 H   0  0  0  0  0  0  0  0  0  0  0  0
    5.2328   -8.7586    1.1041 H   0  0  0  0  0  0  0  0  0  0  0  0
    5.7575   -8.8172    3.3965 H   0  0  0  0  0  0  0  0  0  0  0  0
    6.1094   -7.1792    2.9057 H   0  0  0  0  0  0  0  0  0  0  0  0
    4.2623   -8.1290    4.9308 H   0  0  0  0  0  0  0  0  0  0  0  0
    4.6997   -6.4724    4.5820 H   0  0  0  0  0  0  0  0  0  0  0  0
    2.2422   -6.9642    4.4470 H   0  0  0  0  0  0  0  0  0  0  0  0
    2.7228   -5.0215    3.3412 H   0  0  0  0  0  0  0  0  0  0  0  0
    1.8175   -5.8954    2.1486 H   0  0  0  0  0  0  0  0  0  0  0  0
   -0.0817   -7.8799    1.4830 H   0  0  0  0  0  0  0  0  0  0  0  0
   -1.3859   -7.6938    4.3789 H   0  0  0  0  0  0  0  0  0  0  0  0
   -1.9245   -6.7296    2.9182 H   0  0  0  0  0  0  0  0  0  0  0  0
   -2.4235   -8.8936    1.7112 H   0  0  0  0  0  0  0  0  0  0  0  0
   -1.8509   -9.8263    3.1803 H   0  0  0  0  0  0  0  0  0  0  0  0
    2.7737   -9.1857    0.9922 H   0  0  0  0  0  0  0  0  0  0  0  0
    3.5794   -9.9767    2.3221 H   0  0  0  0  0  0  0  0  0  0  0  0
  1  2  1  0
  1 20  1  0
  1 21  1  0
  1 22  1  0
  2  3  2  0
  2  4  2  0
  2  5  1  0
  5 11  1  0
  5  6  1  0
  6  7  1  0
  6 23  1  0
  6 24  1  0
  7 19  1  0
  7  8  1  0
  7 25  1  6
  8  9  1  0
  8 26  1  0
  8 27  1  0
  9 10  1  0
  9 28  1  0
  9 29  1  0
 10 11  1  0
 10 12  1  0
 10 30  1  1
 11 31  1  0
 11 32  1  0
 12 13  1  0
 12 19  1  0
 13 14  2  0
 13 15  2  0
 13 16  1  0
 16 18  1  0
 16 17  1  0
 16 33  1  0
 17 18  1  0
 17 34  1  0
 17 35  1  0
 18 36  1  0
 18 37  1  0
 19 38  1  0
 19 39  1  0
M  END
>  <i_m_ct_stereo_status>  (422) 
1

>  <s_m_source_file>  (422) 
/var/tmp/pbs.5102264.sched01/tmps1u238za/138cwx3dj4e.sdf

>  <i_m_source_file_index>  (422) 
15

>  <i_lp_mmshare_version>  (422) 
48012

>  <i_f3d_flags>  (422) 
0

>  <s_epik_input>  (422) 
W0NIM11TKD1PKSg9TylOKFtDSDJdW0NAQEhdMTIpW0NIMl1bQ0BIXShbQ0gyXVtDSDJdMSlOKFtDSDJdMilTKD1PKSg9TylbQ0hdM1tDSDJdW0NIMl0z

>  <s_epik_cmdline>  (422) 
J2VwaWtfcHl0aG9uJywgJy1waHQnLCAnMi4wJywgJy1waCcsICc3LjAnLCAnLXRuJywgJzgnLCAnLW1hJywgJzIwMCcsICctaW1hZScsICc8aW5maWxlLm1hZT4nLCAnLW9tYWUnLCAnPG91dGZpbGUubWFlPic=

>  <r_lp_tautomer_probability>  (422) 
1

>  <r_epik_Ionization_Penalty>  (422) 
2.00687e-09

>  <r_epik_Ionization_Penalty_Charging>  (422) 
0

>  <r_epik_Ionization_Penalty_Neutral>  (422) 
2.00687e-09

>  <r_epik_State_Penalty>  (422) 
-0

>  <r_epik_Charging_Adjusted_Penalty>  (422) 
0

>  <i_epik_Tot_Q>  (422) 
0

>  <i_epik_Tot_abs_Q>  (422) 
0

>  <s_lp_Force_Field>  (422) 
OPLS3e

>  <r_lp_Energy>  (422) 
52.3633

>  <b_lp_Chiralities_Consistent>  (422) 
1

>  <s_lp_Variant>  (422) 
89:0-1

>  <s_i_glide_gridfile>  (422) 
pfpi4k_grid

>  <i_i_glide_lignum>  (422) 
15

>  <i_i_glide_rotatable_bonds>  (422) 
3

>  <r_i_docking_score>  (422) 
-2.26582

>  <r_i_glide_ligand_efficiency>  (422) 
-0.119254

>  <r_i_glide_ligand_efficiency_sa>  (422) 
-0.318217

>  <r_i_glide_ligand_efficiency_ln>  (422) 
-0.574434

>  <r_i_glide_gscore>  (422) 
-2.26582

>  <r_i_glide_lipo>  (422) 
-0.324463

>  <r_i_glide_hbond>  (422) 
0

>  <r_i_glide_metal>  (422) 
-0

>  <r_i_glide_rewards>  (422) 
-1.36354

>  <r_i_glide_evdw>  (422) 
-23.8296

>  <r_i_glide_ecoul>  (422) 
1.9532

>  <r_i_glide_erotb>  (422) 
0.388998

>  <r_i_glide_esite>  (422) 
-0.0683122

>  <r_i_glide_emodel>  (422) 
-23.2571

>  <r_i_glide_energy>  (422) 
-21.8764

>  <r_i_glide_einternal>  (422) 
5.36105

>  <r_i_glide_intrahb_reward>  (422) 
-0

>  <i_i_glide_confnum>  (422) 
2

>  <i_i_glide_posenum>  (422) 
8

>  <r_i_glide_eff_state_penalty>  (422) 
0

>  <ligand_id>  (422) 
89

>  <original_smiles>  (422) 
CS(=O)(=O)N1CC2CCC(C1)N(S(=O)(=O)C1CC1)C2

>  <smiles>  (422) 
[H]C1([H])N(S(=O)(=O)C([H])([H])[H])C([H])([H])C2([H])C([H])([H])N(S(=O)(=O)C3([H])C([H])([H])C3([H])[H])C1([H])C([H])([H])C2([H])[H]

$$$$
90:0:0
     RDKit          3D

 45 49  0  0  1  0  0  0  0  0999 V2000
    7.4900   -1.2351    0.4841 O   0  0  0  0  0  0  0  0  0  0  0  0
    6.2079   -1.6211    0.7421 C   0  0  0  0  0  0  0  0  0  0  0  0
    5.7327   -2.8568    0.2600 C   0  0  0  0  0  0  0  0  0  0  0  0
    4.4089   -3.2527    0.5289 C   0  0  0  0  0  0  0  0  0  0  0  0
    3.5611   -2.4239    1.2879 C   0  0  0  0  0  0  0  0  0  0  0  0
    4.0269   -1.1766    1.7646 C   0  0  0  0  0  0  0  0  0  0  0  0
    5.3548   -0.7860    1.4909 C   0  0  0  0  0  0  0  0  0  0  0  0
    3.0900   -0.2902    2.5830 C   0  0  1  0  0  0  0  0  0  0  0  0
    2.4590    0.8504    1.7629 C   0  0  0  0  0  0  0  0  0  0  0  0
    1.1337    1.1184    2.3555 N   0  0  2  0  0  0  0  0  0  0  0  0
    1.1240    2.1600    3.4163 C   0  0  0  0  0  0  0  0  0  0  0  0
   -0.2563    2.4596    3.9104 C   0  0  0  0  0  0  0  0  0  0  0  0
   -1.3820    2.9797    3.3189 C   0  0  0  0  0  0  0  0  0  0  0  0
   -2.3960    2.9974    4.3179 C   0  0  0  0  0  0  0  0  0  0  0  0
   -1.7947    2.5163    5.4385 C   0  0  0  0  0  0  0  0  0  0  0  0
   -2.5780    2.3220    6.9489 Cl  0  0  0  0  0  0  0  0  0  0  0  0
   -0.4978    2.1770    5.2271 O   0  0  0  0  0  0  0  0  0  0  0  0
    0.6561   -0.2171    2.7783 C   0  0  0  0  0  0  0  0  0  0  0  0
    1.8912   -1.0342    3.2323 C   0  0  2  0  0  0  0  0  0  0  0  0
    2.0257   -1.0973    4.7684 C   0  0  0  0  0  0  0  0  0  0  0  0
    2.9385   -2.2938    5.0436 C   0  0  0  0  0  0  0  0  0  0  0  0
    2.5670   -3.3233    3.9794 C   0  0  0  0  0  0  0  0  0  0  0  0
    1.8200   -2.5411    2.8783 C   0  0  2  0  0  0  0  0  0  0  0  0
    2.2989   -2.8700    1.5800 O   0  0  0  0  0  0  0  0  0  0  0  0
    7.7462   -0.4515    0.9571 H   0  0  0  0  0  0  0  0  0  0  0  0
    6.3829   -3.5112   -0.3026 H   0  0  0  0  0  0  0  0  0  0  0  0
    4.0487   -4.2117    0.1838 H   0  0  0  0  0  0  0  0  0  0  0  0
    5.7306    0.1472    1.8729 H   0  0  0  0  0  0  0  0  0  0  0  0
    3.6924    0.1748    3.3667 H   0  0  0  0  0  0  0  0  0  0  0  0
    3.0895    1.7369    1.7126 H   0  0  0  0  0  0  0  0  0  0  0  0
    2.2730    0.5097    0.7461 H   0  0  0  0  0  0  0  0  0  0  0  0
    1.7448    1.8467    4.2530 H   0  0  0  0  0  0  0  0  0  0  0  0
    1.5631    3.0791    3.0324 H   0  0  0  0  0  0  0  0  0  0  0  0
   -1.4698    3.2976    2.2903 H   0  0  0  0  0  0  0  0  0  0  0  0
   -3.4241    3.3091    4.2320 H   0  0  0  0  0  0  0  0  0  0  0  0
   -0.1521   -0.1873    3.5088 H   0  0  0  0  0  0  0  0  0  0  0  0
    0.2491   -0.6608    1.8730 H   0  0  0  0  0  0  0  0  0  0  0  0
    2.4009   -0.1794    5.2231 H   0  0  0  0  0  0  0  0  0  0  0  0
    1.0507   -1.3055    5.2113 H   0  0  0  0  0  0  0  0  0  0  0  0
    3.9819   -2.0023    4.9186 H   0  0  0  0  0  0  0  0  0  0  0  0
    2.8291   -2.6858    6.0550 H   0  0  0  0  0  0  0  0  0  0  0  0
    3.4571   -3.8355    3.6139 H   0  0  0  0  0  0  0  0  0  0  0  0
    1.9197   -4.0928    4.3980 H   0  0  0  0  0  0  0  0  0  0  0  0
    0.7762   -2.8564    2.9140 H   0  0  0  0  0  0  0  0  0  0  0  0
    0.5290    1.4752    1.6252 H   0  0  0  0  0  0  0  0  0  0  0  0
  1  2  1  0
  1 25  1  0
  2  7  2  0
  2  3  1  0
  3  4  2  0
  3 26  1  0
  4  5  1  0
  4 27  1  0
  5 24  1  0
  5  6  2  0
  6  7  1  0
  6  8  1  0
  7 28  1  0
  8 19  1  0
  8  9  1  0
  8 29  1  1
  9 10  1  0
  9 30  1  0
  9 31  1  0
 10 11  1  0
 10 18  1  0
 10 45  1  6
 11 12  1  0
 11 32  1  0
 11 33  1  0
 12 17  1  0
 12 13  2  0
 13 14  1  0
 13 34  1  0
 14 15  2  0
 14 35  1  0
 15 16  1  0
 15 17  1  0
 19 18  1  1
 18 36  1  0
 18 37  1  0
 19 23  1  0
 19 20  1  0
 20 21  1  0
 20 38  1  0
 20 39  1  0
 21 22  1  0
 21 40  1  0
 21 41  1  0
 22 23  1  0
 22 42  1  0
 22 43  1  0
 23 24  1  0
 23 44  1  6
M  CHG  1  10   1
M  END
>  <i_m_ct_stereo_status>  (423) 
1

>  <s_m_source_file>  (423) 
/var/tmp/pbs.5102264.sched01/tmps1u238za/138cwx3dj4e.sdf

>  <i_m_source_file_index>  (423) 
16

>  <i_lp_mmshare_version>  (423) 
48012

>  <i_f3d_flags>  (423) 
0

>  <s_epik_input>  (423) 
W0NIMl0xW0NIMl1bQ0gyXVtDQEBIXTJPYyhbY0hdW2NIXWMoW09IXSlbY0hdMyljM1tDQEhdKFtDQF0xMjQpW0NIMl1OKFtDSDJdNClbQ0gyXWM1W2NIXVtjSF1jKENsKW81

>  <s_epik_cmdline>  (423) 
J2VwaWtfcHl0aG9uJywgJy1waHQnLCAnMi4wJywgJy1waCcsICc3LjAnLCAnLXRuJywgJzgnLCAnLW1hJywgJzIwMCcsICctaW1hZScsICc8aW5maWxlLm1hZT4nLCAnLW9tYWUnLCAnPG91dGZpbGUubWFlPic=

>  <r_lp_tautomer_probability>  (423) 
1

>  <r_epik_Ionization_Penalty>  (423) 
0.0168168

>  <r_epik_Ionization_Penalty_Charging>  (423) 
0.00939959

>  <r_epik_Ionization_Penalty_Neutral>  (423) 
0.00741724

>  <r_epik_State_Penalty>  (423) 
0.0126099

>  <r_epik_Charging_Adjusted_Penalty>  (423) 
0.0220095

>  <i_epik_Tot_Q>  (423) 
1

>  <i_epik_Tot_abs_Q>  (423) 
1

>  <s_lp_Force_Field>  (423) 
OPLS3e

>  <r_lp_Energy>  (423) 
36.8929

>  <b_lp_Chiralities_Consistent>  (423) 
1

>  <s_lp_Variant>  (423) 
90:0-1

>  <s_i_glide_gridfile>  (423) 
pfpi4k_grid

>  <i_i_glide_lignum>  (423) 
16

>  <i_i_glide_rotatable_bonds>  (423) 
3

>  <r_i_docking_score>  (423) 
-3.86468

>  <r_i_glide_ligand_efficiency>  (423) 
-0.161028

>  <r_i_glide_ligand_efficiency_sa>  (423) 
-0.464486

>  <r_i_glide_ligand_efficiency_ln>  (423) 
-0.924994

>  <r_i_glide_gscore>  (423) 
-3.86468

>  <r_i_glide_lipo>  (423) 
-0.414303

>  <r_i_glide_hbond>  (423) 
-0.350618

>  <r_i_glide_metal>  (423) 
-0

>  <r_i_glide_rewards>  (423) 
-1.04436

>  <r_i_glide_evdw>  (423) 
-24.342

>  <r_i_glide_ecoul>  (423) 
-7.42361

>  <r_i_glide_erotb>  (423) 
0.316186

>  <r_i_glide_esite>  (423) 
-0.0409396

>  <r_i_glide_emodel>  (423) 
-41.7394

>  <r_i_glide_energy>  (423) 
-31.7656

>  <r_i_glide_einternal>  (423) 
0.365905

>  <r_i_glide_intrahb_reward>  (423) 
-0

>  <i_i_glide_confnum>  (423) 
2

>  <i_i_glide_posenum>  (423) 
12

>  <r_i_glide_eff_state_penalty>  (423) 
0

>  <ligand_id>  (423) 
90

>  <original_smiles>  (423) 
Oc1ccc2c(c1)C1CN(Cc3ccc(Cl)o3)CC13CCCC3O2

>  <smiles>  (423) 
[H]Oc1c([H])c([H])c2c(c1[H])C1([H])C3(C([H])([H])C([H])([H])C([H])([H])C3([H])O2)C([H])([H])[N+]([H])(C([H])([H])c2oc(Cl)c([H])c2[H])C1([H])[H]

$$$$
90:0:1
     RDKit          3D

 45 49  0  0  1  0  0  0  0  0999 V2000
    3.2591   -2.9189    1.2265 O   0  0  0  0  0  0  0  0  0  0  0  0
    4.2279   -3.8769    1.1397 C   0  0  0  0  0  0  0  0  0  0  0  0
    5.4190   -3.5990    0.4438 C   0  0  0  0  0  0  0  0  0  0  0  0
    6.4214   -4.5793    0.3527 C   0  0  0  0  0  0  0  0  0  0  0  0
    6.2445   -5.8293    0.9657 C   0  0  0  0  0  0  0  0  0  0  0  0
    5.0536   -6.1164    1.6626 C   0  0  0  0  0  0  0  0  0  0  0  0
    4.0374   -5.1354    1.7449 C   0  0  0  0  0  0  0  0  0  0  0  0
    4.8812   -7.4930    2.2805 C   0  0  1  0  0  0  0  0  0  0  0  0
    4.0771   -8.4218    1.3594 C   0  0  0  0  0  0  0  0  0  0  0  0
    4.4564   -9.8162    1.7417 N   0  0  2  0  0  0  0  0  0  0  0  0
    3.7502  -10.4731    2.9126 C   0  0  0  0  0  0  0  0  0  0  0  0
    2.2573  -10.2316    2.9965 C   0  0  0  0  0  0  0  0  0  0  0  0
    1.1156  -10.9580    3.2853 C   0  0  0  0  0  0  0  0  0  0  0  0
    0.0038  -10.0744    3.0437 C   0  0  0  0  0  0  0  0  0  0  0  0
    0.5660   -8.9023    2.6552 C   0  0  0  0  0  0  0  0  0  0  0  0
   -0.2038   -7.4736    2.1070 Cl  0  0  0  0  0  0  0  0  0  0  0  0
    1.8934   -8.9517    2.7937 O   0  0  0  0  0  0  0  0  0  0  0  0
    5.9363   -9.6647    1.9143 C   0  0  0  0  0  0  0  0  0  0  0  0
    6.1953   -8.2672    2.5667 C   0  0  2  0  0  0  0  0  0  0  0  0
    6.4995   -8.3656    4.0797 C   0  0  0  0  0  0  0  0  0  0  0  0
    7.1694   -7.0425    4.4477 C   0  0  0  0  0  0  0  0  0  0  0  0
    8.0181   -6.6830    3.2289 C   0  0  0  0  0  0  0  0  0  0  0  0
    7.4639   -7.5273    2.0580 C   0  0  2  0  0  0  0  0  0  0  0  0
    7.2653   -6.7431    0.8892 O   0  0  0  0  0  0  0  0  0  0  0  0
    3.4521   -2.1443    0.7154 H   0  0  0  0  0  0  0  0  0  0  0  0
    5.5806   -2.6380   -0.0220 H   0  0  0  0  0  0  0  0  0  0  0  0
    7.3449   -4.3730   -0.1656 H   0  0  0  0  0  0  0  0  0  0  0  0
    3.1171   -5.3360    2.2769 H   0  0  0  0  0  0  0  0  0  0  0  0
    4.3393   -7.3517    3.2203 H   0  0  0  0  0  0  0  0  0  0  0  0
    3.0558   -8.0911    1.2998 H   0  0  0  0  0  0  0  0  0  0  0  0
    4.3128   -8.3110    0.3042 H   0  0  0  0  0  0  0  0  0  0  0  0
    3.9695  -11.5540    2.8718 H   0  0  0  0  0  0  0  0  0  0  0  0
    4.2216  -10.1442    3.8380 H   0  0  0  0  0  0  0  0  0  0  0  0
    1.0783  -11.9802    3.6407 H   0  0  0  0  0  0  0  0  0  0  0  0
   -1.0671  -10.2553    3.1683 H   0  0  0  0  0  0  0  0  0  0  0  0
    6.4278  -10.5004    2.4279 H   0  0  0  0  0  0  0  0  0  0  0  0
    6.3499   -9.6536    0.8947 H   0  0  0  0  0  0  0  0  0  0  0  0
    5.6244   -8.5606    4.6979 H   0  0  0  0  0  0  0  0  0  0  0  0
    7.2105   -9.1721    4.2582 H   0  0  0  0  0  0  0  0  0  0  0  0
    6.4137   -6.2727    4.6084 H   0  0  0  0  0  0  0  0  0  0  0  0
    7.7599   -7.1095    5.3607 H   0  0  0  0  0  0  0  0  0  0  0  0
    7.9840   -5.6089    3.0407 H   0  0  0  0  0  0  0  0  0  0  0  0
    9.0649   -6.9311    3.4027 H   0  0  0  0  0  0  0  0  0  0  0  0
    8.2207   -8.2617    1.7998 H   0  0  0  0  0  0  0  0  0  0  0  0
    4.2907  -10.4565    0.9654 H   0  0  0  0  0  0  0  0  0  0  0  0
  1  2  1  0
  1 25  1  0
  2  7  2  0
  2  3  1  0
  3  4  2  0
  3 26  1  0
  4  5  1  0
  4 27  1  0
  5 24  1  0
  5  6  2  0
  6  7  1  0
  6  8  1  0
  7 28  1  0
  8 19  1  0
  8  9  1  0
  8 29  1  1
  9 10  1  0
  9 30  1  0
  9 31  1  0
 10 11  1  0
 10 18  1  0
 10 45  1  6
 11 12  1  0
 11 32  1  0
 11 33  1  0
 12 17  1  0
 12 13  2  0
 13 14  1  0
 13 34  1  0
 14 15  2  0
 14 35  1  0
 15 16  1  0
 15 17  1  0
 19 18  1  6
 18 36  1  0
 18 37  1  0
 19 23  1  0
 19 20  1  0
 20 21  1  0
 20 38  1  0
 20 39  1  0
 21 22  1  0
 21 40  1  0
 21 41  1  0
 22 23  1  0
 22 42  1  0
 22 43  1  0
 23 24  1  0
 23 44  1  6
M  CHG  1  10   1
M  END
>  <i_m_ct_stereo_status>  (424) 
1

>  <s_m_source_file>  (424) 
/var/tmp/pbs.5102264.sched01/tmps1u238za/138cwx3dj4e.sdf

>  <i_m_source_file_index>  (424) 
16

>  <i_lp_mmshare_version>  (424) 
48012

>  <i_f3d_flags>  (424) 
0

>  <s_epik_input>  (424) 
W0NIMl0xW0NIMl1bQ0gyXVtDQEBIXTJPYyhbY0hdW2NIXWMoW09IXSlbY0hdMyljM1tDQEhdKFtDQF0xMjQpW0NIMl1OKFtDSDJdNClbQ0gyXWM1W2NIXVtjSF1jKENsKW81

>  <s_epik_cmdline>  (424) 
J2VwaWtfcHl0aG9uJywgJy1waHQnLCAnMi4wJywgJy1waCcsICc3LjAnLCAnLXRuJywgJzgnLCAnLW1hJywgJzIwMCcsICctaW1hZScsICc8aW5maWxlLm1hZT4nLCAnLW9tYWUnLCAnPG91dGZpbGUubWFlPic=

>  <r_lp_tautomer_probability>  (424) 
1

>  <r_epik_Ionization_Penalty>  (424) 
0.0168168

>  <r_epik_Ionization_Penalty_Charging>  (424) 
0.00939959

>  <r_epik_Ionization_Penalty_Neutral>  (424) 
0.00741724

>  <r_epik_State_Penalty>  (424) 
0.0126099

>  <r_epik_Charging_Adjusted_Penalty>  (424) 
0.0220095

>  <i_epik_Tot_Q>  (424) 
1

>  <i_epik_Tot_abs_Q>  (424) 
1

>  <s_lp_Force_Field>  (424) 
OPLS3e

>  <r_lp_Energy>  (424) 
36.8929

>  <b_lp_Chiralities_Consistent>  (424) 
1

>  <s_lp_Variant>  (424) 
90:0-1

>  <s_i_glide_gridfile>  (424) 
pfpi4k_grid

>  <i_i_glide_lignum>  (424) 
16

>  <i_i_glide_rotatable_bonds>  (424) 
3

>  <r_i_docking_score>  (424) 
-3.59351

>  <r_i_glide_ligand_efficiency>  (424) 
-0.14973

>  <r_i_glide_ligand_efficiency_sa>  (424) 
-0.431895

>  <r_i_glide_ligand_efficiency_ln>  (424) 
-0.860092

>  <r_i_glide_gscore>  (424) 
-3.59351

>  <r_i_glide_lipo>  (424) 
-0.612161

>  <r_i_glide_hbond>  (424) 
-0.2

>  <r_i_glide_metal>  (424) 
-0

>  <r_i_glide_rewards>  (424) 
-1.04436

>  <r_i_glide_evdw>  (424) 
-25.5388

>  <r_i_glide_ecoul>  (424) 
-4.57143

>  <r_i_glide_erotb>  (424) 
0.316186

>  <r_i_glide_esite>  (424) 
-0.0905243

>  <r_i_glide_emodel>  (424) 
-34.5433

>  <r_i_glide_energy>  (424) 
-30.1102

>  <r_i_glide_einternal>  (424) 
4.40653

>  <r_i_glide_intrahb_reward>  (424) 
-0

>  <i_i_glide_confnum>  (424) 
6

>  <i_i_glide_posenum>  (424) 
25

>  <r_i_glide_eff_state_penalty>  (424) 
0

>  <ligand_id>  (424) 
90

>  <original_smiles>  (424) 
Oc1ccc2c(c1)C1CN(Cc3ccc(Cl)o3)CC13CCCC3O2

>  <smiles>  (424) 
[H]Oc1c([H])c([H])c2c(c1[H])C1([H])C3(C([H])([H])C([H])([H])C([H])([H])C3([H])O2)C([H])([H])[N+]([H])(C([H])([H])c2oc(Cl)c([H])c2[H])C1([H])[H]

$$$$
90:0:2
     RDKit          3D

 45 49  0  0  1  0  0  0  0  0999 V2000
    0.3110   -4.2305    6.7495 O   0  0  0  0  0  0  0  0  0  0  0  0
   -0.0094   -3.1210    6.0244 C   0  0  0  0  0  0  0  0  0  0  0  0
   -1.3163   -2.6048    6.0762 C   0  0  0  0  0  0  0  0  0  0  0  0
   -1.6536   -1.4571    5.3367 C   0  0  0  0  0  0  0  0  0  0  0  0
   -0.6817   -0.8201    4.5510 C   0  0  0  0  0  0  0  0  0  0  0  0
    0.6323   -1.3356    4.4823 C   0  0  0  0  0  0  0  0  0  0  0  0
    0.9663   -2.4897    5.2262 C   0  0  0  0  0  0  0  0  0  0  0  0
    1.6649   -0.6235    3.6213 C   0  0  1  0  0  0  0  0  0  0  0  0
    1.8946   -1.3094    2.2564 C   0  0  0  0  0  0  0  0  0  0  0  0
    2.2577   -0.2371    1.3134 N   0  0  2  0  0  0  0  0  0  0  0  0
    3.7229   -0.0038    1.2282 C   0  0  0  0  0  0  0  0  0  0  0  0
    4.4135   -0.9869    0.3367 C   0  0  0  0  0  0  0  0  0  0  0  0
    4.0008   -1.7596   -0.7235 C   0  0  0  0  0  0  0  0  0  0  0  0
    5.1307   -2.5116   -1.1441 C   0  0  0  0  0  0  0  0  0  0  0  0
    6.1411   -2.1140   -0.3280 C   0  0  0  0  0  0  0  0  0  0  0  0
    7.7423   -2.7092   -0.4180 Cl  0  0  0  0  0  0  0  0  0  0  0  0
    5.7478   -1.1770    0.5707 O   0  0  0  0  0  0  0  0  0  0  0  0
    1.4576    0.9295    1.7495 C   0  0  0  0  0  0  0  0  0  0  0  0
    1.3292    0.8577    3.2912 C   0  0  2  0  0  0  0  0  0  0  0  0
    2.2884    1.8343    4.0045 C   0  0  0  0  0  0  0  0  0  0  0  0
    1.7116    2.0031    5.4102 C   0  0  0  0  0  0  0  0  0  0  0  0
    0.1957    1.9668    5.2200 C   0  0  0  0  0  0  0  0  0  0  0  0
   -0.0444    1.3343    3.8317 C   0  0  2  0  0  0  0  0  0  0  0  0
   -1.0383    0.3208    3.8792 O   0  0  0  0  0  0  0  0  0  0  0  0
   -0.4179   -4.6155    7.2080 H   0  0  0  0  0  0  0  0  0  0  0  0
   -2.0722   -3.1005    6.6746 H   0  0  0  0  0  0  0  0  0  0  0  0
   -2.6529   -1.0509    5.3740 H   0  0  0  0  0  0  0  0  0  0  0  0
    1.9728   -2.8861    5.1985 H   0  0  0  0  0  0  0  0  0  0  0  0
    2.6113   -0.6589    4.1632 H   0  0  0  0  0  0  0  0  0  0  0  0
    2.6402   -2.1079    2.3001 H   0  0  0  0  0  0  0  0  0  0  0  0
    0.9685   -1.7457    1.8835 H   0  0  0  0  0  0  0  0  0  0  0  0
    3.9203    0.9899    0.8408 H   0  0  0  0  0  0  0  0  0  0  0  0
    4.1816   -0.0253    2.2193 H   0  0  0  0  0  0  0  0  0  0  0  0
    3.0054   -1.7982   -1.1367 H   0  0  0  0  0  0  0  0  0  0  0  0
    5.2030   -3.2484   -1.9281 H   0  0  0  0  0  0  0  0  0  0  0  0
    1.8227    1.8883    1.3741 H   0  0  0  0  0  0  0  0  0  0  0  0
    0.4695    0.7840    1.3080 H   0  0  0  0  0  0  0  0  0  0  0  0
    3.3292    1.5096    4.0142 H   0  0  0  0  0  0  0  0  0  0  0  0
    2.2564    2.8051    3.5064 H   0  0  0  0  0  0  0  0  0  0  0  0
    2.0191    1.1702    6.0427 H   0  0  0  0  0  0  0  0  0  0  0  0
    2.0446    2.9191    5.8968 H   0  0  0  0  0  0  0  0  0  0  0  0
   -0.2782    1.4190    6.0347 H   0  0  0  0  0  0  0  0  0  0  0  0
   -0.2186    2.9733    5.2483 H   0  0  0  0  0  0  0  0  0  0  0  0
   -0.4268    2.1220    3.1793 H   0  0  0  0  0  0  0  0  0  0  0  0
    1.9205   -0.4977    0.3828 H   0  0  0  0  0  0  0  0  0  0  0  0
  1  2  1  0
  1 25  1  0
  2  7  2  0
  2  3  1  0
  3  4  2  0
  3 26  1  0
  4  5  1  0
  4 27  1  0
  5 24  1  0
  5  6  2  0
  6  7  1  0
  6  8  1  0
  7 28  1  0
  8 19  1  0
  8  9  1  0
  8 29  1  1
  9 10  1  0
  9 30  1  0
  9 31  1  0
 10 11  1  0
 10 18  1  0
 10 45  1  6
 11 12  1  0
 11 32  1  0
 11 33  1  0
 12 17  1  0
 12 13  2  0
 13 14  1  0
 13 34  1  0
 14 15  2  0
 14 35  1  0
 15 16  1  0
 15 17  1  0
 19 18  1  6
 18 36  1  0
 18 37  1  0
 19 23  1  0
 19 20  1  0
 20 21  1  0
 20 38  1  0
 20 39  1  0
 21 22  1  0
 21 40  1  0
 21 41  1  0
 22 23  1  0
 22 42  1  0
 22 43  1  0
 23 24  1  0
 23 44  1  6
M  CHG  1  10   1
M  END
>  <i_m_ct_stereo_status>  (425) 
1

>  <s_m_source_file>  (425) 
/var/tmp/pbs.5102264.sched01/tmps1u238za/138cwx3dj4e.sdf

>  <i_m_source_file_index>  (425) 
16

>  <i_lp_mmshare_version>  (425) 
48012

>  <i_f3d_flags>  (425) 
0

>  <s_epik_input>  (425) 
W0NIMl0xW0NIMl1bQ0gyXVtDQEBIXTJPYyhbY0hdW2NIXWMoW09IXSlbY0hdMyljM1tDQEhdKFtDQF0xMjQpW0NIMl1OKFtDSDJdNClbQ0gyXWM1W2NIXVtjSF1jKENsKW81

>  <s_epik_cmdline>  (425) 
J2VwaWtfcHl0aG9uJywgJy1waHQnLCAnMi4wJywgJy1waCcsICc3LjAnLCAnLXRuJywgJzgnLCAnLW1hJywgJzIwMCcsICctaW1hZScsICc8aW5maWxlLm1hZT4nLCAnLW9tYWUnLCAnPG91dGZpbGUubWFlPic=

>  <r_lp_tautomer_probability>  (425) 
1

>  <r_epik_Ionization_Penalty>  (425) 
0.0168168

>  <r_epik_Ionization_Penalty_Charging>  (425) 
0.00939959

>  <r_epik_Ionization_Penalty_Neutral>  (425) 
0.00741724

>  <r_epik_State_Penalty>  (425) 
0.0126099

>  <r_epik_Charging_Adjusted_Penalty>  (425) 
0.0220095

>  <i_epik_Tot_Q>  (425) 
1

>  <i_epik_Tot_abs_Q>  (425) 
1

>  <s_lp_Force_Field>  (425) 
OPLS3e

>  <r_lp_Energy>  (425) 
36.8929

>  <b_lp_Chiralities_Consistent>  (425) 
1

>  <s_lp_Variant>  (425) 
90:0-1

>  <s_i_glide_gridfile>  (425) 
pfpi4k_grid

>  <i_i_glide_lignum>  (425) 
16

>  <i_i_glide_rotatable_bonds>  (425) 
3

>  <r_i_docking_score>  (425) 
-3.07953

>  <r_i_glide_ligand_efficiency>  (425) 
-0.128314

>  <r_i_glide_ligand_efficiency_sa>  (425) 
-0.370121

>  <r_i_glide_ligand_efficiency_ln>  (425) 
-0.737074

>  <r_i_glide_gscore>  (425) 
-3.07953

>  <r_i_glide_lipo>  (425) 
-0.0491905

>  <r_i_glide_hbond>  (425) 
-0.2

>  <r_i_glide_metal>  (425) 
-0

>  <r_i_glide_rewards>  (425) 
-1.04436

>  <r_i_glide_evdw>  (425) 
-25.8331

>  <r_i_glide_ecoul>  (425) 
-4.84913

>  <r_i_glide_erotb>  (425) 
0.316186

>  <r_i_glide_esite>  (425) 
-0.0831464

>  <r_i_glide_emodel>  (425) 
-37.8728

>  <r_i_glide_energy>  (425) 
-30.6822

>  <r_i_glide_einternal>  (425) 
1.76827

>  <r_i_glide_intrahb_reward>  (425) 
-0

>  <i_i_glide_confnum>  (425) 
6

>  <i_i_glide_posenum>  (425) 
3

>  <r_i_glide_eff_state_penalty>  (425) 
0

>  <ligand_id>  (425) 
90

>  <original_smiles>  (425) 
Oc1ccc2c(c1)C1CN(Cc3ccc(Cl)o3)CC13CCCC3O2

>  <smiles>  (425) 
[H]Oc1c([H])c([H])c2c(c1[H])C1([H])C3(C([H])([H])C([H])([H])C([H])([H])C3([H])O2)C([H])([H])[N+]([H])(C([H])([H])c2oc(Cl)c([H])c2[H])C1([H])[H]

$$$$
90:1:0
     RDKit          3D

 44 48  0  0  1  0  0  0  0  0999 V2000
    4.0358   -3.0259   -2.6322 O   0  0  0  0  0  0  0  0  0  0  0  0
    4.8947   -3.4244   -1.6501 C   0  0  0  0  0  0  0  0  0  0  0  0
    6.2340   -2.9893   -1.6827 C   0  0  0  0  0  0  0  0  0  0  0  0
    7.1342   -3.4032   -0.6849 C   0  0  0  0  0  0  0  0  0  0  0  0
    6.6987   -4.2705    0.3344 C   0  0  0  0  0  0  0  0  0  0  0  0
    5.3539   -4.7015    0.3873 C   0  0  0  0  0  0  0  0  0  0  0  0
    4.4541   -4.2629   -0.6049 C   0  0  0  0  0  0  0  0  0  0  0  0
    4.9083   -5.5919    1.5424 C   0  0  1  0  0  0  0  0  0  0  0  0
    3.9439   -6.7184    1.1410 C   0  0  0  0  0  0  0  0  0  0  0  0
    4.1931   -7.7662    2.1245 N   0  0  0  0  0  0  0  0  0  0  0  0
    3.6166   -9.0582    1.7365 C   0  0  0  0  0  0  0  0  0  0  0  0
    2.2124   -9.2356    2.2320 C   0  0  0  0  0  0  0  0  0  0  0  0
    1.5622  -10.2679    2.8675 C   0  0  0  0  0  0  0  0  0  0  0  0
    0.2246   -9.8297    3.0771 C   0  0  0  0  0  0  0  0  0  0  0  0
    0.1778   -8.5774    2.5602 C   0  0  0  0  0  0  0  0  0  0  0  0
   -1.2096   -7.5729    2.5665 Cl  0  0  0  0  0  0  0  0  0  0  0  0
    1.3608   -8.1825    2.0323 O   0  0  0  0  0  0  0  0  0  0  0  0
    5.6480   -7.7843    2.2188 C   0  0  0  0  0  0  0  0  0  0  0  0
    6.0578   -6.2979    2.2789 C   0  0  2  0  0  0  0  0  0  0  0  0
    6.2425   -5.8206    3.7312 C   0  0  0  0  0  0  0  0  0  0  0  0
    7.6592   -6.2580    4.1211 C   0  0  0  0  0  0  0  0  0  0  0  0
    8.4642   -6.2708    2.8140 C   0  0  0  0  0  0  0  0  0  0  0  0
    7.4565   -6.0505    1.6746 C   0  0  2  0  0  0  0  0  0  0  0  0
    7.6144   -4.6993    1.2557 O   0  0  0  0  0  0  0  0  0  0  0  0
    3.1673   -3.3843   -2.5309 H   0  0  0  0  0  0  0  0  0  0  0  0
    6.5756   -2.3595   -2.4884 H   0  0  0  0  0  0  0  0  0  0  0  0
    8.1667   -3.0860   -0.7189 H   0  0  0  0  0  0  0  0  0  0  0  0
    3.4254   -4.5874   -0.5857 H   0  0  0  0  0  0  0  0  0  0  0  0
    4.3815   -4.9500    2.2490 H   0  0  0  0  0  0  0  0  0  0  0  0
    2.9052   -6.3888    1.1531 H   0  0  0  0  0  0  0  0  0  0  0  0
    4.1871   -7.0812    0.1411 H   0  0  0  0  0  0  0  0  0  0  0  0
    3.6214   -9.1698    0.6508 H   0  0  0  0  0  0  0  0  0  0  0  0
    4.2246   -9.8782    2.1226 H   0  0  0  0  0  0  0  0  0  0  0  0
    1.9831  -11.2287    3.1370 H   0  0  0  0  0  0  0  0  0  0  0  0
   -0.5976  -10.3443    3.5478 H   0  0  0  0  0  0  0  0  0  0  0  0
    5.9744   -8.3528    3.0893 H   0  0  0  0  0  0  0  0  0  0  0  0
    6.0577   -8.2613    1.3283 H   0  0  0  0  0  0  0  0  0  0  0  0
    6.1972   -4.7306    3.7486 H   0  0  0  0  0  0  0  0  0  0  0  0
    5.4780   -6.1816    4.4222 H   0  0  0  0  0  0  0  0  0  0  0  0
    8.1074   -5.6055    4.8735 H   0  0  0  0  0  0  0  0  0  0  0  0
    7.6343   -7.2667    4.5380 H   0  0  0  0  0  0  0  0  0  0  0  0
    9.2351   -5.4946    2.8152 H   0  0  0  0  0  0  0  0  0  0  0  0
    8.9830   -7.2234    2.7031 H   0  0  0  0  0  0  0  0  0  0  0  0
    7.6734   -6.7013    0.8285 H   0  0  0  0  0  0  0  0  0  0  0  0
  1  2  1  0
  1 25  1  0
  2  7  2  0
  2  3  1  0
  3  4  2  0
  3 26  1  0
  4  5  1  0
  4 27  1  0
  5 24  1  0
  5  6  2  0
  6  7  1  0
  6  8  1  0
  7 28  1  0
  8 19  1  0
  8  9  1  0
  8 29  1  1
  9 10  1  0
  9 30  1  0
  9 31  1  0
 10 11  1  0
 10 18  1  0
 11 12  1  0
 11 32  1  0
 11 33  1  0
 12 17  1  0
 12 13  2  0
 13 14  1  0
 13 34  1  0
 14 15  2  0
 14 35  1  0
 15 16  1  0
 15 17  1  0
 19 18  1  1
 18 36  1  0
 18 37  1  0
 19 23  1  0
 19 20  1  0
 20 21  1  0
 20 38  1  0
 20 39  1  0
 21 22  1  0
 21 40  1  0
 21 41  1  0
 22 23  1  0
 22 42  1  0
 22 43  1  0
 23 24  1  0
 23 44  1  6
M  END
>  <i_m_ct_stereo_status>  (426) 
1

>  <s_m_source_file>  (426) 
/var/tmp/pbs.5102264.sched01/tmps1u238za/138cwx3dj4e.sdf

>  <i_m_source_file_index>  (426) 
17

>  <i_lp_mmshare_version>  (426) 
48012

>  <i_f3d_flags>  (426) 
0

>  <s_epik_input>  (426) 
W0NIMl0xW0NIMl1bQ0gyXVtDQEBIXTJPYyhbY0hdW2NIXWMoW09IXSlbY0hdMyljM1tDQEhdKFtDQF0xMjQpW0NIMl1OKFtDSDJdNClbQ0gyXWM1W2NIXVtjSF1jKENsKW81

>  <s_epik_cmdline>  (426) 
J2VwaWtfcHl0aG9uJywgJy1waHQnLCAnMi4wJywgJy1waCcsICc3LjAnLCAnLXRuJywgJzgnLCAnLW1hJywgJzIwMCcsICctaW1hZScsICc8aW5maWxlLm1hZT4nLCAnLW9tYWUnLCAnPG91dGZpbGUubWFlPic=

>  <r_lp_tautomer_probability>  (426) 
1

>  <r_epik_Ionization_Penalty>  (426) 
2.46193

>  <r_epik_Ionization_Penalty_Charging>  (426) 
0

>  <r_epik_Ionization_Penalty_Neutral>  (426) 
2.46193

>  <r_epik_State_Penalty>  (426) 
2.62733

>  <r_epik_Charging_Adjusted_Penalty>  (426) 
2.62733

>  <i_epik_Tot_Q>  (426) 
0

>  <i_epik_Tot_abs_Q>  (426) 
0

>  <s_lp_Force_Field>  (426) 
OPLS3e

>  <r_lp_Energy>  (426) 
33.5376

>  <b_lp_Chiralities_Consistent>  (426) 
1

>  <s_lp_Variant>  (426) 
90:0-2

>  <s_i_glide_gridfile>  (426) 
pfpi4k_grid

>  <i_i_glide_lignum>  (426) 
17

>  <i_i_glide_rotatable_bonds>  (426) 
3

>  <r_i_docking_score>  (426) 
-3.61141

>  <r_i_glide_ligand_efficiency>  (426) 
-0.150475

>  <r_i_glide_ligand_efficiency_sa>  (426) 
-0.434046

>  <r_i_glide_ligand_efficiency_ln>  (426) 
-0.864375

>  <r_i_glide_gscore>  (426) 
-3.61141

>  <r_i_glide_lipo>  (426) 
-0.857331

>  <r_i_glide_hbond>  (426) 
0

>  <r_i_glide_metal>  (426) 
-0

>  <r_i_glide_rewards>  (426) 
-1.05123

>  <r_i_glide_evdw>  (426) 
-30.8323

>  <r_i_glide_ecoul>  (426) 
-3.19368

>  <r_i_glide_erotb>  (426) 
0.317824

>  <r_i_glide_esite>  (426) 
0

>  <r_i_glide_emodel>  (426) 
-40.9581

>  <r_i_glide_energy>  (426) 
-34.026

>  <r_i_glide_einternal>  (426) 
2.82599

>  <r_i_glide_intrahb_reward>  (426) 
-0

>  <i_i_glide_confnum>  (426) 
4

>  <i_i_glide_posenum>  (426) 
33

>  <r_i_glide_eff_state_penalty>  (426) 
0

>  <ligand_id>  (426) 
90

>  <original_smiles>  (426) 
Oc1ccc2c(c1)C1CN(Cc3ccc(Cl)o3)CC13CCCC3O2

>  <smiles>  (426) 
[H]Oc1c([H])c([H])c2c(c1[H])C1([H])C([H])([H])N(C([H])([H])c3oc(Cl)c([H])c3[H])C([H])([H])C13C([H])([H])C([H])([H])C([H])([H])C3([H])O2

$$$$
90:1:1
     RDKit          3D

 44 48  0  0  1  0  0  0  0  0999 V2000
    2.6152   -2.4822   -2.0094 O   0  0  0  0  0  0  0  0  0  0  0  0
    3.6885   -2.9526   -1.3067 C   0  0  0  0  0  0  0  0  0  0  0  0
    4.9681   -2.4440   -1.6002 C   0  0  0  0  0  0  0  0  0  0  0  0
    6.0888   -2.9047   -0.8888 C   0  0  0  0  0  0  0  0  0  0  0  0
    5.9322   -3.8889    0.1018 C   0  0  0  0  0  0  0  0  0  0  0  0
    4.6560   -4.4038    0.4099 C   0  0  0  0  0  0  0  0  0  0  0  0
    3.5319   -3.9289   -0.2988 C   0  0  0  0  0  0  0  0  0  0  0  0
    4.5282   -5.4269    1.5343 C   0  0  1  0  0  0  0  0  0  0  0  0
    3.5563   -6.5655    1.2357 C   0  0  0  0  0  0  0  0  0  0  0  0
    4.0547   -7.6883    2.0211 N   0  0  0  0  0  0  0  0  0  0  0  0
    3.4608   -8.9716    1.6297 C   0  0  0  0  0  0  0  0  0  0  0  0
    2.0981   -9.1905    2.2122 C   0  0  0  0  0  0  0  0  0  0  0  0
    1.5067  -10.2462    2.8619 C   0  0  0  0  0  0  0  0  0  0  0  0
    0.1834   -9.8396    3.1708 C   0  0  0  0  0  0  0  0  0  0  0  0
    0.0742   -8.5731    2.6884 C   0  0  0  0  0  0  0  0  0  0  0  0
   -1.3197   -7.5889    2.8197 Cl  0  0  0  0  0  0  0  0  0  0  0  0
    1.2086   -8.1577    2.0841 O   0  0  0  0  0  0  0  0  0  0  0  0
    5.4913   -7.6220    1.7959 C   0  0  0  0  0  0  0  0  0  0  0  0
    5.8440   -6.1260    1.9189 C   0  0  2  0  0  0  0  0  0  0  0  0
    6.3333   -5.7794    3.3368 C   0  0  0  0  0  0  0  0  0  0  0  0
    7.8167   -6.1609    3.3517 C   0  0  0  0  0  0  0  0  0  0  0  0
    8.2998   -5.9772    1.9071 C   0  0  0  0  0  0  0  0  0  0  0  0
    7.0530   -5.7215    1.0531 C   0  0  2  0  0  0  0  0  0  0  0  0
    7.0478   -4.3311    0.7573 O   0  0  0  0  0  0  0  0  0  0  0  0
    1.9531   -2.0188   -1.4991 H   0  0  0  0  0  0  0  0  0  0  0  0
    5.0825   -1.7033   -2.3759 H   0  0  0  0  0  0  0  0  0  0  0  0
    7.0747   -2.5152   -1.1032 H   0  0  0  0  0  0  0  0  0  0  0  0
    2.5494   -4.3176   -0.0845 H   0  0  0  0  0  0  0  0  0  0  0  0
    4.1468   -4.8949    2.4091 H   0  0  0  0  0  0  0  0  0  0  0  0
    2.5417   -6.2794    1.5100 H   0  0  0  0  0  0  0  0  0  0  0  0
    3.5834   -6.8127    0.1703 H   0  0  0  0  0  0  0  0  0  0  0  0
    3.3993   -9.0425    0.5419 H   0  0  0  0  0  0  0  0  0  0  0  0
    4.1103   -9.7965    1.9387 H   0  0  0  0  0  0  0  0  0  0  0  0
    1.9585  -11.2088    3.0870 H   0  0  0  0  0  0  0  0  0  0  0  0
   -0.6017  -10.3746    3.6819 H   0  0  0  0  0  0  0  0  0  0  0  0
    6.0370   -8.2505    2.5027 H   0  0  0  0  0  0  0  0  0  0  0  0
    5.7085   -7.9836    0.7907 H   0  0  0  0  0  0  0  0  0  0  0  0
    6.2426   -4.7019    3.4737 H   0  0  0  0  0  0  0  0  0  0  0  0
    5.7597   -6.2536    4.1378 H   0  0  0  0  0  0  0  0  0  0  0  0
    8.3977   -5.5572    4.0502 H   0  0  0  0  0  0  0  0  0  0  0  0
    7.9354   -7.2061    3.6440 H   0  0  0  0  0  0  0  0  0  0  0  0
    9.0159   -5.1546    1.8256 H   0  0  0  0  0  0  0  0  0  0  0  0
    8.8143   -6.8778    1.5756 H   0  0  0  0  0  0  0  0  0  0  0  0
    7.1018   -6.2619    0.1127 H   0  0  0  0  0  0  0  0  0  0  0  0
  1  2  1  0
  1 25  1  0
  2  7  2  0
  2  3  1  0
  3  4  2  0
  3 26  1  0
  4  5  1  0
  4 27  1  0
  5 24  1  0
  5  6  2  0
  6  7  1  0
  6  8  1  0
  7 28  1  0
  8 19  1  0
  8  9  1  0
  8 29  1  1
  9 10  1  0
  9 30  1  0
  9 31  1  0
 10 11  1  0
 10 18  1  0
 11 12  1  0
 11 32  1  0
 11 33  1  0
 12 17  1  0
 12 13  2  0
 13 14  1  0
 13 34  1  0
 14 15  2  0
 14 35  1  0
 15 16  1  0
 15 17  1  0
 19 18  1  1
 18 36  1  0
 18 37  1  0
 19 23  1  0
 19 20  1  0
 20 21  1  0
 20 38  1  0
 20 39  1  0
 21 22  1  0
 21 40  1  0
 21 41  1  0
 22 23  1  0
 22 42  1  0
 22 43  1  0
 23 24  1  0
 23 44  1  6
M  END
>  <i_m_ct_stereo_status>  (427) 
1

>  <s_m_source_file>  (427) 
/var/tmp/pbs.5102264.sched01/tmps1u238za/138cwx3dj4e.sdf

>  <i_m_source_file_index>  (427) 
17

>  <i_lp_mmshare_version>  (427) 
48012

>  <i_f3d_flags>  (427) 
0

>  <s_epik_input>  (427) 
W0NIMl0xW0NIMl1bQ0gyXVtDQEBIXTJPYyhbY0hdW2NIXWMoW09IXSlbY0hdMyljM1tDQEhdKFtDQF0xMjQpW0NIMl1OKFtDSDJdNClbQ0gyXWM1W2NIXVtjSF1jKENsKW81

>  <s_epik_cmdline>  (427) 
J2VwaWtfcHl0aG9uJywgJy1waHQnLCAnMi4wJywgJy1waCcsICc3LjAnLCAnLXRuJywgJzgnLCAnLW1hJywgJzIwMCcsICctaW1hZScsICc8aW5maWxlLm1hZT4nLCAnLW9tYWUnLCAnPG91dGZpbGUubWFlPic=

>  <r_lp_tautomer_probability>  (427) 
1

>  <r_epik_Ionization_Penalty>  (427) 
2.46193

>  <r_epik_Ionization_Penalty_Charging>  (427) 
0

>  <r_epik_Ionization_Penalty_Neutral>  (427) 
2.46193

>  <r_epik_State_Penalty>  (427) 
2.62733

>  <r_epik_Charging_Adjusted_Penalty>  (427) 
2.62733

>  <i_epik_Tot_Q>  (427) 
0

>  <i_epik_Tot_abs_Q>  (427) 
0

>  <s_lp_Force_Field>  (427) 
OPLS3e

>  <r_lp_Energy>  (427) 
33.5376

>  <b_lp_Chiralities_Consistent>  (427) 
1

>  <s_lp_Variant>  (427) 
90:0-2

>  <s_i_glide_gridfile>  (427) 
pfpi4k_grid

>  <i_i_glide_lignum>  (427) 
17

>  <i_i_glide_rotatable_bonds>  (427) 
3

>  <r_i_docking_score>  (427) 
-3.58663

>  <r_i_glide_ligand_efficiency>  (427) 
-0.149443

>  <r_i_glide_ligand_efficiency_sa>  (427) 
-0.431068

>  <r_i_glide_ligand_efficiency_ln>  (427) 
-0.858445

>  <r_i_glide_gscore>  (427) 
-3.58663

>  <r_i_glide_lipo>  (427) 
-0.615976

>  <r_i_glide_hbond>  (427) 
-0.16

>  <r_i_glide_metal>  (427) 
-0

>  <r_i_glide_rewards>  (427) 
-1.05123

>  <r_i_glide_evdw>  (427) 
-29.4669

>  <r_i_glide_ecoul>  (427) 
-4.026

>  <r_i_glide_erotb>  (427) 
0.317824

>  <r_i_glide_esite>  (427) 
0

>  <r_i_glide_emodel>  (427) 
-38.8063

>  <r_i_glide_energy>  (427) 
-33.4929

>  <r_i_glide_einternal>  (427) 
4.12449

>  <r_i_glide_intrahb_reward>  (427) 
-0

>  <i_i_glide_confnum>  (427) 
4

>  <i_i_glide_posenum>  (427) 
1

>  <r_i_glide_eff_state_penalty>  (427) 
0

>  <ligand_id>  (427) 
90

>  <original_smiles>  (427) 
Oc1ccc2c(c1)C1CN(Cc3ccc(Cl)o3)CC13CCCC3O2

>  <smiles>  (427) 
[H]Oc1c([H])c([H])c2c(c1[H])C1([H])C([H])([H])N(C([H])([H])c3oc(Cl)c([H])c3[H])C([H])([H])C13C([H])([H])C([H])([H])C([H])([H])C3([H])O2

$$$$
90:1:2
     RDKit          3D

 44 48  0  0  1  0  0  0  0  0999 V2000
   -1.3886    4.4155    2.8818 O   0  0  0  0  0  0  0  0  0  0  0  0
   -1.2571    3.3047    3.6607 C   0  0  0  0  0  0  0  0  0  0  0  0
   -1.9210    3.2446    4.9026 C   0  0  0  0  0  0  0  0  0  0  0  0
   -1.7858    2.1101    5.7221 C   0  0  0  0  0  0  0  0  0  0  0  0
   -0.9840    1.0317    5.3085 C   0  0  0  0  0  0  0  0  0  0  0  0
   -0.3246    1.0721    4.0600 C   0  0  0  0  0  0  0  0  0  0  0  0
   -0.4652    2.2114    3.2353 C   0  0  0  0  0  0  0  0  0  0  0  0
    0.4864   -0.1400    3.6186 C   0  0  1  0  0  0  0  0  0  0  0  0
    1.8071    0.2016    2.9153 C   0  0  0  0  0  0  0  0  0  0  0  0
    2.6638   -0.9433    3.2085 N   0  0  0  0  0  0  0  0  0  0  0  0
    4.0700   -0.6609    2.9072 C   0  0  0  0  0  0  0  0  0  0  0  0
    4.4423   -0.9789    1.4944 C   0  0  0  0  0  0  0  0  0  0  0  0
    3.8179   -0.8248    0.2886 C   0  0  0  0  0  0  0  0  0  0  0  0
    4.6884   -1.3666   -0.7024 C   0  0  0  0  0  0  0  0  0  0  0  0
    5.7669   -1.8093   -0.0070 C   0  0  0  0  0  0  0  0  0  0  0  0
    7.1247   -2.5822   -0.7247 Cl  0  0  0  0  0  0  0  0  0  0  0  0
    5.6616   -1.5836    1.3244 O   0  0  0  0  0  0  0  0  0  0  0  0
    2.4077   -1.1979    4.6219 C   0  0  0  0  0  0  0  0  0  0  0  0
    0.8730   -1.0937    4.7645 C   0  0  2  0  0  0  0  0  0  0  0  0
    0.1971   -2.4752    4.6811 C   0  0  0  0  0  0  0  0  0  0  0  0
    0.3234   -3.0788    6.0825 C   0  0  0  0  0  0  0  0  0  0  0  0
    0.3396   -1.8829    7.0417 C   0  0  0  0  0  0  0  0  0  0  0  0
    0.4406   -0.6209    6.1681 C   0  0  2  0  0  0  0  0  0  0  0  0
   -0.8607   -0.0447    6.1400 O   0  0  0  0  0  0  0  0  0  0  0  0
   -0.8032    4.4045    2.1171 H   0  0  0  0  0  0  0  0  0  0  0  0
   -2.5254    4.0735    5.2330 H   0  0  0  0  0  0  0  0  0  0  0  0
   -2.2927    2.0722    6.6750 H   0  0  0  0  0  0  0  0  0  0  0  0
    0.0265    2.2573    2.2755 H   0  0  0  0  0  0  0  0  0  0  0  0
   -0.1266   -0.6771    2.8973 H   0  0  0  0  0  0  0  0  0  0  0  0
    1.6770    0.3478    1.8434 H   0  0  0  0  0  0  0  0  0  0  0  0
    2.2435    1.1071    3.3423 H   0  0  0  0  0  0  0  0  0  0  0  0
    4.3066    0.3839    3.1202 H   0  0  0  0  0  0  0  0  0  0  0  0
    4.7080   -1.2478    3.5663 H   0  0  0  0  0  0  0  0  0  0  0  0
    2.8437   -0.3877    0.1227 H   0  0  0  0  0  0  0  0  0  0  0  0
    4.5372   -1.4309   -1.7670 H   0  0  0  0  0  0  0  0  0  0  0  0
    2.8009   -2.1695    4.9277 H   0  0  0  0  0  0  0  0  0  0  0  0
    2.9011   -0.4321    5.2241 H   0  0  0  0  0  0  0  0  0  0  0  0
   -0.8634   -2.3347    4.4683 H   0  0  0  0  0  0  0  0  0  0  0  0
    0.6028   -3.1215    3.9005 H   0  0  0  0  0  0  0  0  0  0  0  0
   -0.4829   -3.7782    6.3097 H   0  0  0  0  0  0  0  0  0  0  0  0
    1.2635   -3.6255    6.1694 H   0  0  0  0  0  0  0  0  0  0  0  0
   -0.5603   -1.8669    7.6580 H   0  0  0  0  0  0  0  0  0  0  0  0
    1.1860   -1.9566    7.7258 H   0  0  0  0  0  0  0  0  0  0  0  0
    1.1281    0.1060    6.5987 H   0  0  0  0  0  0  0  0  0  0  0  0
  1  2  1  0
  1 25  1  0
  2  7  2  0
  2  3  1  0
  3  4  2  0
  3 26  1  0
  4  5  1  0
  4 27  1  0
  5 24  1  0
  5  6  2  0
  6  7  1  0
  6  8  1  0
  7 28  1  0
  8 19  1  0
  8  9  1  0
  8 29  1  6
  9 10  1  0
  9 30  1  0
  9 31  1  0
 10 11  1  0
 10 18  1  0
 11 12  1  0
 11 32  1  0
 11 33  1  0
 12 17  1  0
 12 13  2  0
 13 14  1  0
 13 34  1  0
 14 15  2  0
 14 35  1  0
 15 16  1  0
 15 17  1  0
 19 18  1  1
 18 36  1  0
 18 37  1  0
 19 23  1  0
 19 20  1  0
 20 21  1  0
 20 38  1  0
 20 39  1  0
 21 22  1  0
 21 40  1  0
 21 41  1  0
 22 23  1  0
 22 42  1  0
 22 43  1  0
 23 24  1  0
 23 44  1  1
M  END
>  <i_m_ct_stereo_status>  (428) 
1

>  <s_m_source_file>  (428) 
/var/tmp/pbs.5102264.sched01/tmps1u238za/138cwx3dj4e.sdf

>  <i_m_source_file_index>  (428) 
17

>  <i_lp_mmshare_version>  (428) 
48012

>  <i_f3d_flags>  (428) 
0

>  <s_epik_input>  (428) 
W0NIMl0xW0NIMl1bQ0gyXVtDQEBIXTJPYyhbY0hdW2NIXWMoW09IXSlbY0hdMyljM1tDQEhdKFtDQF0xMjQpW0NIMl1OKFtDSDJdNClbQ0gyXWM1W2NIXVtjSF1jKENsKW81

>  <s_epik_cmdline>  (428) 
J2VwaWtfcHl0aG9uJywgJy1waHQnLCAnMi4wJywgJy1waCcsICc3LjAnLCAnLXRuJywgJzgnLCAnLW1hJywgJzIwMCcsICctaW1hZScsICc8aW5maWxlLm1hZT4nLCAnLW9tYWUnLCAnPG91dGZpbGUubWFlPic=

>  <r_lp_tautomer_probability>  (428) 
1

>  <r_epik_Ionization_Penalty>  (428) 
2.46193

>  <r_epik_Ionization_Penalty_Charging>  (428) 
0

>  <r_epik_Ionization_Penalty_Neutral>  (428) 
2.46193

>  <r_epik_State_Penalty>  (428) 
2.62733

>  <r_epik_Charging_Adjusted_Penalty>  (428) 
2.62733

>  <i_epik_Tot_Q>  (428) 
0

>  <i_epik_Tot_abs_Q>  (428) 
0

>  <s_lp_Force_Field>  (428) 
OPLS3e

>  <r_lp_Energy>  (428) 
33.5376

>  <b_lp_Chiralities_Consistent>  (428) 
1

>  <s_lp_Variant>  (428) 
90:0-2

>  <s_i_glide_gridfile>  (428) 
pfpi4k_grid

>  <i_i_glide_lignum>  (428) 
17

>  <i_i_glide_rotatable_bonds>  (428) 
3

>  <r_i_docking_score>  (428) 
-3.35478

>  <r_i_glide_ligand_efficiency>  (428) 
-0.139783

>  <r_i_glide_ligand_efficiency_sa>  (428) 
-0.403203

>  <r_i_glide_ligand_efficiency_ln>  (428) 
-0.802953

>  <r_i_glide_gscore>  (428) 
-3.35478

>  <r_i_glide_lipo>  (428) 
-0.131327

>  <r_i_glide_hbond>  (428) 
-0.171138

>  <r_i_glide_metal>  (428) 
-0

>  <r_i_glide_rewards>  (428) 
-1.05123

>  <r_i_glide_evdw>  (428) 
-24.6042

>  <r_i_glide_ecoul>  (428) 
-7.258

>  <r_i_glide_erotb>  (428) 
0.317824

>  <r_i_glide_esite>  (428) 
0

>  <r_i_glide_emodel>  (428) 
-38.4945

>  <r_i_glide_energy>  (428) 
-31.8622

>  <r_i_glide_einternal>  (428) 
2.20421

>  <r_i_glide_intrahb_reward>  (428) 
-0

>  <i_i_glide_confnum>  (428) 
3

>  <i_i_glide_posenum>  (428) 
28

>  <r_i_glide_eff_state_penalty>  (428) 
0

>  <ligand_id>  (428) 
90

>  <original_smiles>  (428) 
Oc1ccc2c(c1)C1CN(Cc3ccc(Cl)o3)CC13CCCC3O2

>  <smiles>  (428) 
[H]Oc1c([H])c([H])c2c(c1[H])C1([H])C([H])([H])N(C([H])([H])c3oc(Cl)c([H])c3[H])C([H])([H])C13C([H])([H])C([H])([H])C([H])([H])C3([H])O2

$$$$
91:0:0
     RDKit          3D

 45 48  0  0  1  0  0  0  0  0999 V2000
   -0.2733   -9.8440    3.1090 C   0  0  0  0  0  0  0  0  0  0  0  0
    0.2374   -8.5646    3.5921 N   0  0  0  0  0  0  0  0  0  0  0  0
   -0.3820   -7.3205    3.4894 C   0  0  0  0  0  0  0  0  0  0  0  0
   -1.5971   -7.2441    2.8814 O   0  0  0  0  0  0  0  0  0  0  0  0
    0.4088   -6.3573    4.0541 C   0  0  0  0  0  0  0  0  0  0  0  0
    1.5910   -7.0122    4.5370 C   0  0  0  0  0  0  0  0  0  0  0  0
    2.7765   -6.5885    5.1964 C   0  0  0  0  0  0  0  0  0  0  0  0
    2.9909   -5.1179    5.5389 C   0  0  0  0  0  0  0  0  0  0  0  0
    3.1506   -4.2067    4.3080 C   0  0  0  0  0  0  0  0  0  0  0  0
    4.3210   -4.6183    3.3967 C   0  0  0  0  0  0  0  0  0  0  0  0
    4.2659   -3.9595    2.0614 C   0  0  0  0  0  0  0  0  0  0  0  0
    3.6333   -4.4404    0.9824 N   0  0  0  0  0  0  0  0  0  0  0  0
    3.8565   -3.4627    0.0307 C   0  0  0  0  0  0  0  0  0  0  0  0
    3.4864   -3.3450   -1.3251 C   0  0  0  0  0  0  0  0  0  0  0  0
    3.8558   -2.2036   -2.0810 C   0  0  0  0  0  0  0  0  0  0  0  0
    3.4872   -2.0897   -3.5319 C   0  0  0  0  0  0  0  0  0  0  0  0
    2.3494   -2.6664   -3.9129 N   0  0  0  0  0  0  0  0  0  0  0  0
    4.1871   -1.4565   -4.3177 O   0  0  0  0  0  0  0  0  0  0  0  0
    4.6174   -1.1761   -1.4727 C   0  0  0  0  0  0  0  0  0  0  0  0
    4.9989   -1.2773   -0.1197 C   0  0  0  0  0  0  0  0  0  0  0  0
    4.6117   -2.4160    0.6026 C   0  0  0  0  0  0  0  0  0  0  0  0
    4.8627   -2.7356    1.9207 O   0  0  0  0  0  0  0  0  0  0  0  0
    3.7837   -7.5197    5.5303 C   0  0  0  0  0  0  0  0  0  0  0  0
    3.6356   -8.8852    5.2211 C   0  0  0  0  0  0  0  0  0  0  0  0
    2.4700   -9.3258    4.5720 C   0  0  0  0  0  0  0  0  0  0  0  0
    1.4627   -8.4018    4.2333 C   0  0  0  0  0  0  0  0  0  0  0  0
   -1.3230   -9.7847    2.8256 H   0  0  0  0  0  0  0  0  0  0  0  0
   -0.1816  -10.5960    3.8955 H   0  0  0  0  0  0  0  0  0  0  0  0
    0.3095  -10.1713    2.2473 H   0  0  0  0  0  0  0  0  0  0  0  0
   -1.8597   -8.1284    2.6715 H   0  0  0  0  0  0  0  0  0  0  0  0
    0.1929   -5.2989    4.1206 H   0  0  0  0  0  0  0  0  0  0  0  0
    2.1636   -4.7689    6.1604 H   0  0  0  0  0  0  0  0  0  0  0  0
    3.8840   -5.0215    6.1555 H   0  0  0  0  0  0  0  0  0  0  0  0
    2.2244   -4.2217    3.7353 H   0  0  0  0  0  0  0  0  0  0  0  0
    3.2836   -3.1696    4.6226 H   0  0  0  0  0  0  0  0  0  0  0  0
    5.2707   -4.3736    3.8763 H   0  0  0  0  0  0  0  0  0  0  0  0
    4.3221   -5.6946    3.2232 H   0  0  0  0  0  0  0  0  0  0  0  0
    2.9271   -4.1533   -1.7710 H   0  0  0  0  0  0  0  0  0  0  0  0
    1.7756   -3.1624   -3.2486 H   0  0  0  0  0  0  0  0  0  0  0  0
    2.0441   -2.5589   -4.8773 H   0  0  0  0  0  0  0  0  0  0  0  0
    4.8991   -0.3000   -2.0447 H   0  0  0  0  0  0  0  0  0  0  0  0
    5.5663   -0.4934    0.3600 H   0  0  0  0  0  0  0  0  0  0  0  0
    4.6885   -7.1875    6.0246 H   0  0  0  0  0  0  0  0  0  0  0  0
    4.4153   -9.5905    5.4807 H   0  0  0  0  0  0  0  0  0  0  0  0
    2.3494  -10.3728    4.3358 H   0  0  0  0  0  0  0  0  0  0  0  0
  1  2  1  0
  1 27  1  0
  1 28  1  0
  1 29  1  0
  2 26  1  0
  2  3  1  0
  3  4  1  0
  3  5  2  0
  4 30  1  0
  5  6  1  0
  5 31  1  0
  6 26  2  0
  6  7  1  0
  7  8  1  0
  7 23  2  0
  8  9  1  0
  8 32  1  0
  8 33  1  0
  9 10  1  0
  9 34  1  0
  9 35  1  0
 10 11  1  0
 10 36  1  0
 10 37  1  0
 11 22  1  0
 11 12  2  0
 12 13  1  0
 13 21  2  0
 13 14  1  0
 14 15  2  0
 14 38  1  0
 15 16  1  0
 15 19  1  0
 16 17  1  0
 16 18  2  0
 17 39  1  0
 17 40  1  0
 19 20  2  0
 19 41  1  0
 20 21  1  0
 20 42  1  0
 21 22  1  0
 23 24  1  0
 23 43  1  0
 24 25  2  0
 24 44  1  0
 25 26  1  0
 25 45  1  0
M  END
>  <i_m_ct_stereo_status>  (429) 
1

>  <s_m_source_file>  (429) 
/var/tmp/pbs.5102264.sched01/tmps1u238za/138cwx3dj4e.sdf

>  <i_m_source_file_index>  (429) 
18

>  <i_lp_mmshare_version>  (429) 
48012

>  <i_f3d_flags>  (429) 
0

>  <s_epik_input>  (429) 
W09IXWMoW2NIXTEpbihbQ0gzXSljKGMxMilbY0hdW2NIXVtjSF1jMltDSDJdW0NIMl1bQ0gyXWMobjMpb2MoYzM0KVtjSF1bY0hdYyhbY0hdNClDKD1PKVtOSDJd

>  <s_epik_cmdline>  (429) 
J2VwaWtfcHl0aG9uJywgJy1waHQnLCAnMi4wJywgJy1waCcsICc3LjAnLCAnLXRuJywgJzgnLCAnLW1hJywgJzIwMCcsICctaW1hZScsICc8aW5maWxlLm1hZT4nLCAnLW9tYWUnLCAnPG91dGZpbGUubWFlPic=

>  <r_epik_Ionization_Penalty>  (429) 
0.00197065

>  <r_epik_Ionization_Penalty_Charging>  (429) 
0

>  <r_epik_Ionization_Penalty_Neutral>  (429) 
0.00197065

>  <r_epik_State_Penalty>  (429) 
0.00134391

>  <r_epik_Charging_Adjusted_Penalty>  (429) 
0.00134391

>  <i_epik_Tot_Q>  (429) 
0

>  <i_epik_Tot_abs_Q>  (429) 
0

>  <s_lp_Force_Field>  (429) 
OPLS3e

>  <r_lp_Energy>  (429) 
21.9322

>  <b_lp_Chiralities_Consistent>  (429) 
1

>  <s_lp_Variant>  (429) 
91:0-1

>  <s_i_glide_gridfile>  (429) 
pfpi4k_grid

>  <i_i_glide_lignum>  (429) 
18

>  <i_i_glide_rotatable_bonds>  (429) 
6

>  <r_i_docking_score>  (429) 
-4.56713

>  <r_i_glide_ligand_efficiency>  (429) 
-0.175659

>  <r_i_glide_ligand_efficiency_sa>  (429) 
-0.520389

>  <r_i_glide_ligand_efficiency_ln>  (429) 
-1.07258

>  <r_i_glide_gscore>  (429) 
-4.56713

>  <r_i_glide_lipo>  (429) 
-0.0901813

>  <r_i_glide_hbond>  (429) 
-0.714985

>  <r_i_glide_metal>  (429) 
-0

>  <r_i_glide_rewards>  (429) 
-1.31404

>  <r_i_glide_evdw>  (429) 
-29.1882

>  <r_i_glide_ecoul>  (429) 
-10.5436

>  <r_i_glide_erotb>  (429) 
0.624176

>  <r_i_glide_esite>  (429) 
-0.0311559

>  <r_i_glide_emodel>  (429) 
-51.067

>  <r_i_glide_energy>  (429) 
-39.7318

>  <r_i_glide_einternal>  (429) 
1.47089

>  <r_i_glide_intrahb_reward>  (429) 
-0

>  <i_i_glide_confnum>  (429) 
3

>  <i_i_glide_posenum>  (429) 
29

>  <r_i_glide_eff_state_penalty>  (429) 
0

>  <ligand_id>  (429) 
91

>  <original_smiles>  (429) 
Cn1c(O)cc2c(CCCc3nc4cc(C(N)=O)ccc4o3)cccc21

>  <smiles>  (429) 
[H]Oc1c([H])c2c(C([H])([H])C([H])([H])C([H])([H])c3nc4c([H])c(C(=O)N([H])[H])c([H])c([H])c4o3)c([H])c([H])c([H])c2n1C([H])([H])[H]

$$$$
91:0:1
     RDKit          3D

 45 48  0  0  1  0  0  0  0  0999 V2000
   -1.0275   -9.2789    2.5828 C   0  0  0  0  0  0  0  0  0  0  0  0
   -0.3025   -8.0853    3.0084 N   0  0  0  0  0  0  0  0  0  0  0  0
    0.1109   -7.0287    2.2032 C   0  0  0  0  0  0  0  0  0  0  0  0
   -0.1813   -7.0625    0.8824 O   0  0  0  0  0  0  0  0  0  0  0  0
    0.7621   -6.0885    2.9584 C   0  0  0  0  0  0  0  0  0  0  0  0
    0.7713   -6.5734    4.3078 C   0  0  0  0  0  0  0  0  0  0  0  0
    1.2740   -6.0897    5.5465 C   0  0  0  0  0  0  0  0  0  0  0  0
    2.0090   -4.7570    5.6132 C   0  0  0  0  0  0  0  0  0  0  0  0
    1.0941   -3.5395    5.4067 C   0  0  0  0  0  0  0  0  0  0  0  0
    1.8449   -2.2026    5.5351 C   0  0  0  0  0  0  0  0  0  0  0  0
    0.9634   -1.0274    5.2646 C   0  0  0  0  0  0  0  0  0  0  0  0
    0.6111   -0.5782    4.0477 N   0  0  0  0  0  0  0  0  0  0  0  0
   -0.2238    0.4897    4.3333 C   0  0  0  0  0  0  0  0  0  0  0  0
   -0.9375    1.4052    3.5242 C   0  0  0  0  0  0  0  0  0  0  0  0
   -1.7188    2.4287    4.1156 C   0  0  0  0  0  0  0  0  0  0  0  0
   -2.4349    3.4206    3.2593 C   0  0  0  0  0  0  0  0  0  0  0  0
   -3.3969    2.9449    2.4812 N   0  0  0  0  0  0  0  0  0  0  0  0
   -2.1835    4.6192    3.3183 O   0  0  0  0  0  0  0  0  0  0  0  0
   -1.7961    2.5462    5.5231 C   0  0  0  0  0  0  0  0  0  0  0  0
   -1.1060    1.6342    6.3458 C   0  0  0  0  0  0  0  0  0  0  0  0
   -0.3364    0.6280    5.7383 C   0  0  0  0  0  0  0  0  0  0  0  0
    0.4134   -0.3708    6.3368 O   0  0  0  0  0  0  0  0  0  0  0  0
    1.1230   -6.8459    6.7304 C   0  0  0  0  0  0  0  0  0  0  0  0
    0.4661   -8.0906    6.7108 C   0  0  0  0  0  0  0  0  0  0  0  0
   -0.0551   -8.5771    5.4997 C   0  0  0  0  0  0  0  0  0  0  0  0
    0.0993   -7.8338    4.3153 C   0  0  0  0  0  0  0  0  0  0  0  0
   -1.4173   -9.1801    1.5705 H   0  0  0  0  0  0  0  0  0  0  0  0
   -1.8687   -9.4556    3.2554 H   0  0  0  0  0  0  0  0  0  0  0  0
   -0.3636  -10.1434    2.6235 H   0  0  0  0  0  0  0  0  0  0  0  0
   -0.2709   -7.9775    0.6312 H   0  0  0  0  0  0  0  0  0  0  0  0
    1.1922   -5.1597    2.6113 H   0  0  0  0  0  0  0  0  0  0  0  0
    2.4922   -4.6676    6.5854 H   0  0  0  0  0  0  0  0  0  0  0  0
    2.8202   -4.7547    4.8816 H   0  0  0  0  0  0  0  0  0  0  0  0
    0.6382   -3.5938    4.4188 H   0  0  0  0  0  0  0  0  0  0  0  0
    0.2774   -3.5678    6.1293 H   0  0  0  0  0  0  0  0  0  0  0  0
    2.2628   -2.0995    6.5392 H   0  0  0  0  0  0  0  0  0  0  0  0
    2.6831   -2.1634    4.8362 H   0  0  0  0  0  0  0  0  0  0  0  0
   -0.8469    1.3408    2.4480 H   0  0  0  0  0  0  0  0  0  0  0  0
   -3.5999    1.9435    2.4865 H   0  0  0  0  0  0  0  0  0  0  0  0
   -3.9305    3.5714    1.9039 H   0  0  0  0  0  0  0  0  0  0  0  0
   -2.3879    3.3350    5.9655 H   0  0  0  0  0  0  0  0  0  0  0  0
   -1.1515    1.7164    7.4206 H   0  0  0  0  0  0  0  0  0  0  0  0
    1.5250   -6.4741    7.6622 H   0  0  0  0  0  0  0  0  0  0  0  0
    0.3607   -8.6684    7.6182 H   0  0  0  0  0  0  0  0  0  0  0  0
   -0.5713   -9.5257    5.4743 H   0  0  0  0  0  0  0  0  0  0  0  0
  1  2  1  0
  1 27  1  0
  1 28  1  0
  1 29  1  0
  2 26  1  0
  2  3  1  0
  3  4  1  0
  3  5  2  0
  4 30  1  0
  5  6  1  0
  5 31  1  0
  6 26  2  0
  6  7  1  0
  7  8  1  0
  7 23  2  0
  8  9  1  0
  8 32  1  0
  8 33  1  0
  9 10  1  0
  9 34  1  0
  9 35  1  0
 10 11  1  0
 10 36  1  0
 10 37  1  0
 11 22  1  0
 11 12  2  0
 12 13  1  0
 13 21  2  0
 13 14  1  0
 14 15  2  0
 14 38  1  0
 15 16  1  0
 15 19  1  0
 16 17  1  0
 16 18  2  0
 17 39  1  0
 17 40  1  0
 19 20  2  0
 19 41  1  0
 20 21  1  0
 20 42  1  0
 21 22  1  0
 23 24  1  0
 23 43  1  0
 24 25  2  0
 24 44  1  0
 25 26  1  0
 25 45  1  0
M  END
>  <i_m_ct_stereo_status>  (430) 
1

>  <s_m_source_file>  (430) 
/var/tmp/pbs.5102264.sched01/tmps1u238za/138cwx3dj4e.sdf

>  <i_m_source_file_index>  (430) 
18

>  <i_lp_mmshare_version>  (430) 
48012

>  <i_f3d_flags>  (430) 
0

>  <s_epik_input>  (430) 
W09IXWMoW2NIXTEpbihbQ0gzXSljKGMxMilbY0hdW2NIXVtjSF1jMltDSDJdW0NIMl1bQ0gyXWMobjMpb2MoYzM0KVtjSF1bY0hdYyhbY0hdNClDKD1PKVtOSDJd

>  <s_epik_cmdline>  (430) 
J2VwaWtfcHl0aG9uJywgJy1waHQnLCAnMi4wJywgJy1waCcsICc3LjAnLCAnLXRuJywgJzgnLCAnLW1hJywgJzIwMCcsICctaW1hZScsICc8aW5maWxlLm1hZT4nLCAnLW9tYWUnLCAnPG91dGZpbGUubWFlPic=

>  <r_epik_Ionization_Penalty>  (430) 
0.00197065

>  <r_epik_Ionization_Penalty_Charging>  (430) 
0

>  <r_epik_Ionization_Penalty_Neutral>  (430) 
0.00197065

>  <r_epik_State_Penalty>  (430) 
0.00134391

>  <r_epik_Charging_Adjusted_Penalty>  (430) 
0.00134391

>  <i_epik_Tot_Q>  (430) 
0

>  <i_epik_Tot_abs_Q>  (430) 
0

>  <s_lp_Force_Field>  (430) 
OPLS3e

>  <r_lp_Energy>  (430) 
21.9322

>  <b_lp_Chiralities_Consistent>  (430) 
1

>  <s_lp_Variant>  (430) 
91:0-1

>  <s_i_glide_gridfile>  (430) 
pfpi4k_grid

>  <i_i_glide_lignum>  (430) 
18

>  <i_i_glide_rotatable_bonds>  (430) 
6

>  <r_i_docking_score>  (430) 
-4.54064

>  <r_i_glide_ligand_efficiency>  (430) 
-0.17464

>  <r_i_glide_ligand_efficiency_sa>  (430) 
-0.51737

>  <r_i_glide_ligand_efficiency_ln>  (430) 
-1.06635

>  <r_i_glide_gscore>  (430) 
-4.54064

>  <r_i_glide_lipo>  (430) 
-0.183854

>  <r_i_glide_hbond>  (430) 
-0.75571

>  <r_i_glide_metal>  (430) 
-0

>  <r_i_glide_rewards>  (430) 
-1.02693

>  <r_i_glide_evdw>  (430) 
-27.2077

>  <r_i_glide_ecoul>  (430) 
-11.5094

>  <r_i_glide_erotb>  (430) 
0.624176

>  <r_i_glide_esite>  (430) 
-0.111529

>  <r_i_glide_emodel>  (430) 
-48.6897

>  <r_i_glide_energy>  (430) 
-38.717

>  <r_i_glide_einternal>  (430) 
3.20281

>  <r_i_glide_intrahb_reward>  (430) 
-0

>  <i_i_glide_confnum>  (430) 
2

>  <i_i_glide_posenum>  (430) 
1

>  <r_i_glide_eff_state_penalty>  (430) 
0

>  <ligand_id>  (430) 
91

>  <original_smiles>  (430) 
Cn1c(O)cc2c(CCCc3nc4cc(C(N)=O)ccc4o3)cccc21

>  <smiles>  (430) 
[H]Oc1c([H])c2c(C([H])([H])C([H])([H])C([H])([H])c3nc4c([H])c(C(=O)N([H])[H])c([H])c([H])c4o3)c([H])c([H])c([H])c2n1C([H])([H])[H]

$$$$
91:0:2
     RDKit          3D

 45 48  0  0  1  0  0  0  0  0999 V2000
   -0.1938   -9.8704    2.8837 C   0  0  0  0  0  0  0  0  0  0  0  0
    0.3330   -8.6013    3.3745 N   0  0  0  0  0  0  0  0  0  0  0  0
   -0.2281   -7.3392    3.1914 C   0  0  0  0  0  0  0  0  0  0  0  0
   -1.3826   -7.2263    2.4793 O   0  0  0  0  0  0  0  0  0  0  0  0
    0.5473   -6.3909    3.8016 C   0  0  0  0  0  0  0  0  0  0  0  0
    1.6670   -7.0752    4.3838 C   0  0  0  0  0  0  0  0  0  0  0  0
    2.8173   -6.6776    5.1206 C   0  0  0  0  0  0  0  0  0  0  0  0
    3.0605   -5.2085    5.4443 C   0  0  0  0  0  0  0  0  0  0  0  0
    3.1717   -4.2960    4.2073 C   0  0  0  0  0  0  0  0  0  0  0  0
    4.3335   -4.6753    3.2773 C   0  0  0  0  0  0  0  0  0  0  0  0
    4.2944   -3.9316    1.9871 C   0  0  0  0  0  0  0  0  0  0  0  0
    3.7465   -4.3692    0.8413 N   0  0  0  0  0  0  0  0  0  0  0  0
    3.9522   -3.3129   -0.0267 C   0  0  0  0  0  0  0  0  0  0  0  0
    3.6532   -3.1145   -1.3954 C   0  0  0  0  0  0  0  0  0  0  0  0
    3.9772   -1.8954   -2.0397 C   0  0  0  0  0  0  0  0  0  0  0  0
    3.6770   -1.6967   -3.4966 C   0  0  0  0  0  0  0  0  0  0  0  0
    3.2531   -0.4826   -3.8466 N   0  0  0  0  0  0  0  0  0  0  0  0
    3.8024   -2.6060   -4.3103 O   0  0  0  0  0  0  0  0  0  0  0  0
    4.6247   -0.8732   -1.3103 C   0  0  0  0  0  0  0  0  0  0  0  0
    4.9423   -1.0496    0.0502 C   0  0  0  0  0  0  0  0  0  0  0  0
    4.6007   -2.2631    0.6609 C   0  0  0  0  0  0  0  0  0  0  0  0
    4.8109   -2.6622    1.9676 O   0  0  0  0  0  0  0  0  0  0  0  0
    3.7534   -7.6408    5.5626 C   0  0  0  0  0  0  0  0  0  0  0  0
    3.5696   -9.0080    5.2814 C   0  0  0  0  0  0  0  0  0  0  0  0
    2.4425   -9.4209    4.5506 C   0  0  0  0  0  0  0  0  0  0  0  0
    1.5059   -8.4671    4.1072 C   0  0  0  0  0  0  0  0  0  0  0  0
   -1.2171   -9.7788    2.5174 H   0  0  0  0  0  0  0  0  0  0  0  0
   -0.1862  -10.6005    3.6935 H   0  0  0  0  0  0  0  0  0  0  0  0
    0.4394  -10.2445    2.0783 H   0  0  0  0  0  0  0  0  0  0  0  0
   -1.6376   -8.1015    2.2245 H   0  0  0  0  0  0  0  0  0  0  0  0
    0.3492   -5.3296    3.8246 H   0  0  0  0  0  0  0  0  0  0  0  0
    2.2690   -4.8558    6.1071 H   0  0  0  0  0  0  0  0  0  0  0  0
    3.9860   -5.1188    6.0152 H   0  0  0  0  0  0  0  0  0  0  0  0
    2.2446   -4.3203    3.6396 H   0  0  0  0  0  0  0  0  0  0  0  0
    3.2801   -3.2575    4.5257 H   0  0  0  0  0  0  0  0  0  0  0  0
    5.2861   -4.4811    3.7751 H   0  0  0  0  0  0  0  0  0  0  0  0
    4.3064   -5.7422    3.0438 H   0  0  0  0  0  0  0  0  0  0  0  0
    3.1675   -3.9006   -1.9500 H   0  0  0  0  0  0  0  0  0  0  0  0
    3.0829    0.2223   -3.1413 H   0  0  0  0  0  0  0  0  0  0  0  0
    2.9960   -0.3071   -4.8048 H   0  0  0  0  0  0  0  0  0  0  0  0
    4.8770    0.0540   -1.8010 H   0  0  0  0  0  0  0  0  0  0  0  0
    5.4310   -0.2695    0.6130 H   0  0  0  0  0  0  0  0  0  0  0  0
    4.6251   -7.3316    6.1217 H   0  0  0  0  0  0  0  0  0  0  0  0
    4.2921   -9.7358    5.6233 H   0  0  0  0  0  0  0  0  0  0  0  0
    2.2954  -10.4685    4.3351 H   0  0  0  0  0  0  0  0  0  0  0  0
  1  2  1  0
  1 27  1  0
  1 28  1  0
  1 29  1  0
  2 26  1  0
  2  3  1  0
  3  4  1  0
  3  5  2  0
  4 30  1  0
  5  6  1  0
  5 31  1  0
  6 26  2  0
  6  7  1  0
  7  8  1  0
  7 23  2  0
  8  9  1  0
  8 32  1  0
  8 33  1  0
  9 10  1  0
  9 34  1  0
  9 35  1  0
 10 11  1  0
 10 36  1  0
 10 37  1  0
 11 22  1  0
 11 12  2  0
 12 13  1  0
 13 21  2  0
 13 14  1  0
 14 15  2  0
 14 38  1  0
 15 16  1  0
 15 19  1  0
 16 17  1  0
 16 18  2  0
 17 39  1  0
 17 40  1  0
 19 20  2  0
 19 41  1  0
 20 21  1  0
 20 42  1  0
 21 22  1  0
 23 24  1  0
 23 43  1  0
 24 25  2  0
 24 44  1  0
 25 26  1  0
 25 45  1  0
M  END
>  <i_m_ct_stereo_status>  (431) 
1

>  <s_m_source_file>  (431) 
/var/tmp/pbs.5102264.sched01/tmps1u238za/138cwx3dj4e.sdf

>  <i_m_source_file_index>  (431) 
18

>  <i_lp_mmshare_version>  (431) 
48012

>  <i_f3d_flags>  (431) 
0

>  <s_epik_input>  (431) 
W09IXWMoW2NIXTEpbihbQ0gzXSljKGMxMilbY0hdW2NIXVtjSF1jMltDSDJdW0NIMl1bQ0gyXWMobjMpb2MoYzM0KVtjSF1bY0hdYyhbY0hdNClDKD1PKVtOSDJd

>  <s_epik_cmdline>  (431) 
J2VwaWtfcHl0aG9uJywgJy1waHQnLCAnMi4wJywgJy1waCcsICc3LjAnLCAnLXRuJywgJzgnLCAnLW1hJywgJzIwMCcsICctaW1hZScsICc8aW5maWxlLm1hZT4nLCAnLW9tYWUnLCAnPG91dGZpbGUubWFlPic=

>  <r_epik_Ionization_Penalty>  (431) 
0.00197065

>  <r_epik_Ionization_Penalty_Charging>  (431) 
0

>  <r_epik_Ionization_Penalty_Neutral>  (431) 
0.00197065

>  <r_epik_State_Penalty>  (431) 
0.00134391

>  <r_epik_Charging_Adjusted_Penalty>  (431) 
0.00134391

>  <i_epik_Tot_Q>  (431) 
0

>  <i_epik_Tot_abs_Q>  (431) 
0

>  <s_lp_Force_Field>  (431) 
OPLS3e

>  <r_lp_Energy>  (431) 
21.9322

>  <b_lp_Chiralities_Consistent>  (431) 
1

>  <s_lp_Variant>  (431) 
91:0-1

>  <s_i_glide_gridfile>  (431) 
pfpi4k_grid

>  <i_i_glide_lignum>  (431) 
18

>  <i_i_glide_rotatable_bonds>  (431) 
6

>  <r_i_docking_score>  (431) 
-3.91028

>  <r_i_glide_ligand_efficiency>  (431) 
-0.150396

>  <r_i_glide_ligand_efficiency_sa>  (431) 
-0.445546

>  <r_i_glide_ligand_efficiency_ln>  (431) 
-0.918317

>  <r_i_glide_gscore>  (431) 
-3.91028

>  <r_i_glide_lipo>  (431) 
-0.0556323

>  <r_i_glide_hbond>  (431) 
-0.498006

>  <r_i_glide_metal>  (431) 
-0

>  <r_i_glide_rewards>  (431) 
-1.28886

>  <r_i_glide_evdw>  (431) 
-28.8682

>  <r_i_glide_ecoul>  (431) 
-8.13879

>  <r_i_glide_erotb>  (431) 
0.624176

>  <r_i_glide_esite>  (431) 
-0.0277408

>  <r_i_glide_emodel>  (431) 
-46.2128

>  <r_i_glide_energy>  (431) 
-37.007

>  <r_i_glide_einternal>  (431) 
2.01105

>  <r_i_glide_intrahb_reward>  (431) 
-0

>  <i_i_glide_confnum>  (431) 
3

>  <i_i_glide_posenum>  (431) 
3

>  <r_i_glide_eff_state_penalty>  (431) 
0

>  <ligand_id>  (431) 
91

>  <original_smiles>  (431) 
Cn1c(O)cc2c(CCCc3nc4cc(C(N)=O)ccc4o3)cccc21

>  <smiles>  (431) 
[H]Oc1c([H])c2c(C([H])([H])C([H])([H])C([H])([H])c3nc4c([H])c(C(=O)N([H])[H])c([H])c([H])c4o3)c([H])c([H])c([H])c2n1C([H])([H])[H]

$$$$
92:0:0
     RDKit          3D

 41 44  0  0  1  0  0  0  0  0999 V2000
    0.9211    0.1971    1.6797 N   0  0  0  0  0  0  0  0  0  0  0  0
    2.0077    0.3605    2.4594 C   0  0  0  0  0  0  0  0  0  0  0  0
    1.9537    1.0355    3.6246 N   0  0  0  0  0  0  0  0  0  0  0  0
    0.8126    1.6727    4.2913 C   0  0  2  0  0  0  0  0  0  0  0  0
    0.2786    2.8411    3.4325 C   0  0  0  0  0  0  0  0  0  0  0  0
   -0.9069    3.5080    4.1421 C   0  0  1  0  0  0  0  0  0  0  0  0
   -2.0198    2.4629    4.3719 C   0  0  0  0  0  0  0  0  0  0  0  0
   -1.4819    1.3251    5.2721 C   0  0  2  0  0  0  0  0  0  0  0  0
   -1.0112    1.8952    6.6241 C   0  0  0  0  0  0  0  0  0  0  0  0
    0.1029    2.9322    6.3743 C   0  0  2  0  0  0  0  0  0  0  0  0
   -0.4454    4.0782    5.4980 C   0  0  0  0  0  0  0  0  0  0  0  0
    1.2865    2.2515    5.6546 C   0  0  0  0  0  0  0  0  0  0  0  0
   -0.3058    0.6355    4.5716 C   0  0  0  0  0  0  0  0  0  0  0  0
    3.3074   -0.2018    2.0541 C   0  0  0  0  0  0  0  0  0  0  0  0
    4.3256   -0.4169    2.9204 C   0  0  0  0  0  0  0  0  0  0  0  0
    5.6954   -1.0994    2.0726 S   0  0  0  0  0  0  0  0  0  0  0  0
    4.8332   -1.0558    0.5437 C   0  0  0  0  0  0  0  0  0  0  0  0
    5.4211   -1.4941   -0.6879 N   0  0  0  0  0  0  0  0  0  0  0  0
    4.7341   -1.4477   -1.7051 O   0  0  0  0  0  0  0  0  0  0  0  0
    6.5843   -1.8656   -0.6808 O   0  0  0  0  0  0  0  0  0  0  0  0
    3.5749   -0.5614    0.7076 C   0  0  0  0  0  0  0  0  0  0  0  0
    0.0510    0.6507    1.9001 H   0  0  0  0  0  0  0  0  0  0  0  0
    0.9786   -0.2281    0.7217 H   0  0  0  0  0  0  0  0  0  0  0  0
    1.0679    3.5716    3.2432 H   0  0  0  0  0  0  0  0  0  0  0  0
   -0.0569    2.5115    2.4515 H   0  0  0  0  0  0  0  0  0  0  0  0
   -1.2817    4.3118    3.5080 H   0  0  0  0  0  0  0  0  0  0  0  0
   -2.8958    2.9285    4.8267 H   0  0  0  0  0  0  0  0  0  0  0  0
   -2.3431    2.0582    3.4117 H   0  0  0  0  0  0  0  0  0  0  0  0
   -2.2664    0.5883    5.4383 H   0  0  0  0  0  0  0  0  0  0  0  0
   -1.8449    2.3511    7.1610 H   0  0  0  0  0  0  0  0  0  0  0  0
   -0.6298    1.0887    7.2521 H   0  0  0  0  0  0  0  0  0  0  0  0
    0.4300    3.3400    7.3319 H   0  0  0  0  0  0  0  0  0  0  0  0
    0.3276    4.8317    5.3416 H   0  0  0  0  0  0  0  0  0  0  0  0
   -1.2756    4.5726    6.0038 H   0  0  0  0  0  0  0  0  0  0  0  0
    1.6997    1.4685    6.2931 H   0  0  0  0  0  0  0  0  0  0  0  0
    2.0876    2.9783    5.5116 H   0  0  0  0  0  0  0  0  0  0  0  0
   -0.6944    0.1803    3.6638 H   0  0  0  0  0  0  0  0  0  0  0  0
    0.0757   -0.1837    5.1843 H   0  0  0  0  0  0  0  0  0  0  0  0
    4.3813   -0.2398    3.9848 H   0  0  0  0  0  0  0  0  0  0  0  0
    2.8431   -0.4475   -0.0773 H   0  0  0  0  0  0  0  0  0  0  0  0
    2.8204    1.1194    4.1302 H   0  0  0  0  0  0  0  0  0  0  0  0
  1  2  1  0
  1 22  1  0
  1 23  1  0
  2  3  2  3
  2 14  1  0
  4  3  1  6
  3 41  1  0
  4 12  1  0
  4 13  1  0
  4  5  1  0
  5  6  1  0
  5 24  1  0
  5 25  1  0
  6 11  1  0
  6  7  1  0
  6 26  1  6
  7  8  1  0
  7 27  1  0
  7 28  1  0
  8  9  1  0
  8 13  1  0
  8 29  1  1
  9 10  1  0
  9 30  1  0
  9 31  1  0
 10 11  1  0
 10 12  1  0
 10 32  1  1
 11 33  1  0
 11 34  1  0
 12 35  1  0
 12 36  1  0
 13 37  1  0
 13 38  1  0
 14 21  1  0
 14 15  2  0
 15 16  1  0
 15 39  1  0
 16 17  1  0
 17 18  1  0
 17 21  2  0
 18 19  2  0
 18 20  1  0
 21 40  1  0
M  CHG  3   3   1  18   1  20  -1
M  END
>  <i_m_ct_stereo_status>  (432) 
1

>  <s_m_source_file>  (432) 
/var/tmp/pbs.5102264.sched01/tmps1u238za/138cwx3dj4e.sdf

>  <i_m_source_file_index>  (432) 
19

>  <i_lp_mmshare_version>  (432) 
48012

>  <i_f3d_flags>  (432) 
0

>  <s_epik_input>  (432) 
Tz1bTitdKFtPLV0pYyhbY0hdMSlzW2NIXWMxQyhcW05IMl0pPU5cQzIzW0NIMl1bQ0BASF00W0NIMl1bQ0BIXShbQ0gyXTMpW0NIMl1bQ0BASF0oW0NIMl00KVtDSDJdMg==

>  <s_epik_cmdline>  (432) 
J2VwaWtfcHl0aG9uJywgJy1waHQnLCAnMi4wJywgJy1waCcsICc3LjAnLCAnLXRuJywgJzgnLCAnLW1hJywgJzIwMCcsICctaW1hZScsICc8aW5maWxlLm1hZT4nLCAnLW9tYWUnLCAnPG91dGZpbGUubWFlPic=

>  <r_lp_tautomer_probability>  (432) 
1

>  <r_epik_Ionization_Penalty>  (432) 
5.94556e-05

>  <r_epik_Ionization_Penalty_Charging>  (432) 
5.94556e-05

>  <r_epik_Ionization_Penalty_Neutral>  (432) 
2.08915e-12

>  <r_epik_State_Penalty>  (432) 
-0

>  <r_epik_Charging_Adjusted_Penalty>  (432) 
5.94556e-05

>  <i_epik_Tot_Q>  (432) 
1

>  <i_epik_Tot_abs_Q>  (432) 
3

>  <s_epik_Chemistry_Notes>  (432) 
This compound has an imine and may undergo hydrolysis.

>  <s_lp_Force_Field>  (432) 
OPLS3e

>  <r_lp_Energy>  (432) 
14.3635

>  <b_lp_Chiralities_Consistent>  (432) 
1

>  <s_lp_Variant>  (432) 
92:0-1

>  <s_i_glide_gridfile>  (432) 
pfpi4k_grid

>  <i_i_glide_lignum>  (432) 
19

>  <i_i_glide_rotatable_bonds>  (432) 
3

>  <r_i_docking_score>  (432) 
-3.89256

>  <r_i_glide_ligand_efficiency>  (432) 
-0.18536

>  <r_i_glide_ligand_efficiency_sa>  (432) 
-0.511395

>  <r_i_glide_ligand_efficiency_ln>  (432) 
-0.962428

>  <r_i_glide_gscore>  (432) 
-3.89256

>  <r_i_glide_lipo>  (432) 
-0.25134

>  <r_i_glide_hbond>  (432) 
-0.2

>  <r_i_glide_metal>  (432) 
-0

>  <r_i_glide_rewards>  (432) 
-1.31997

>  <r_i_glide_evdw>  (432) 
-21.4139

>  <r_i_glide_ecoul>  (432) 
-7.73208

>  <r_i_glide_erotb>  (432) 
0.393499

>  <r_i_glide_esite>  (432) 
-0.284244

>  <r_i_glide_emodel>  (432) 
-37.5048

>  <r_i_glide_energy>  (432) 
-29.146

>  <r_i_glide_einternal>  (432) 
0.822777

>  <r_i_glide_intrahb_reward>  (432) 
-0

>  <i_i_glide_confnum>  (432) 
2

>  <i_i_glide_posenum>  (432) 
15

>  <r_i_glide_eff_state_penalty>  (432) 
0

>  <ligand_id>  (432) 
92

>  <original_smiles>  (432) 
NC(=NC12CC3CC(CC(C3)C1)C2)c1csc([N+](=O)[O-])c1

>  <smiles>  (432) 
[H]c1sc([N+](=O)[O-])c([H])c1C(N([H])[H])=[N+]([H])C12C([H])([H])C3([H])C([H])([H])C([H])(C([H])([H])C([H])(C3([H])[H])C1([H])[H])C2([H])[H]

$$$$
92:0:1
     RDKit          3D

 41 44  0  0  1  0  0  0  0  0999 V2000
    0.9152    0.1826    1.6767 N   0  0  0  0  0  0  0  0  0  0  0  0
    1.9283    0.5450    2.4561 C   0  0  0  0  0  0  0  0  0  0  0  0
    1.8113    1.4271    3.4756 N   0  0  0  0  0  0  0  0  0  0  0  0
    0.6621    2.1797    4.0243 C   0  0  2  0  0  0  0  0  0  0  0  0
    0.9399    3.6993    3.9184 C   0  0  0  0  0  0  0  0  0  0  0  0
   -0.2679    4.4840    4.4830 C   0  0  1  0  0  0  0  0  0  0  0  0
   -1.5487    4.1246    3.6922 C   0  0  0  0  0  0  0  0  0  0  0  0
   -1.8301    2.6245    3.8539 C   0  0  2  0  0  0  0  0  0  0  0  0
   -2.0080    2.2334    5.3309 C   0  0  0  0  0  0  0  0  0  0  0  0
   -0.7238    2.5996    6.1036 C   0  0  2  0  0  0  0  0  0  0  0  0
   -0.4687    4.1169    5.9712 C   0  0  0  0  0  0  0  0  0  0  0  0
    0.4834    1.8222    5.5254 C   0  0  0  0  0  0  0  0  0  0  0  0
   -0.6549    1.8658    3.2820 C   0  0  0  0  0  0  0  0  0  0  0  0
    3.2368   -0.0237    2.1877 C   0  0  0  0  0  0  0  0  0  0  0  0
    4.1882   -0.2560    3.1374 C   0  0  0  0  0  0  0  0  0  0  0  0
    5.5893   -1.0018    2.4149 S   0  0  0  0  0  0  0  0  0  0  0  0
    4.8592   -0.9581    0.8214 C   0  0  0  0  0  0  0  0  0  0  0  0
    5.5263   -1.4389   -0.3511 N   0  0  0  0  0  0  0  0  0  0  0  0
    4.9197   -1.3899   -1.4217 O   0  0  0  0  0  0  0  0  0  0  0  0
    6.6669   -1.8592   -0.2471 O   0  0  0  0  0  0  0  0  0  0  0  0
    3.6071   -0.4168    0.8720 C   0  0  0  0  0  0  0  0  0  0  0  0
    0.0363    0.6723    1.7711 H   0  0  0  0  0  0  0  0  0  0  0  0
    1.0480   -0.3205    0.7535 H   0  0  0  0  0  0  0  0  0  0  0  0
    1.8446    3.9728    4.4641 H   0  0  0  0  0  0  0  0  0  0  0  0
    1.1130    3.9816    2.8787 H   0  0  0  0  0  0  0  0  0  0  0  0
   -0.0723    5.5527    4.3880 H   0  0  0  0  0  0  0  0  0  0  0  0
   -2.4158    4.6904    4.0310 H   0  0  0  0  0  0  0  0  0  0  0  0
   -1.4075    4.3570    2.6352 H   0  0  0  0  0  0  0  0  0  0  0  0
   -2.7219    2.3552    3.2881 H   0  0  0  0  0  0  0  0  0  0  0  0
   -2.8858    2.7320    5.7547 H   0  0  0  0  0  0  0  0  0  0  0  0
   -2.1846    1.1568    5.3944 H   0  0  0  0  0  0  0  0  0  0  0  0
   -0.8613    2.3425    7.1548 H   0  0  0  0  0  0  0  0  0  0  0  0
    0.4101    4.4001    6.5524 H   0  0  0  0  0  0  0  0  0  0  0  0
   -1.3154    4.6667    6.3882 H   0  0  0  0  0  0  0  0  0  0  0  0
    0.3297    0.7497    5.6453 H   0  0  0  0  0  0  0  0  0  0  0  0
    1.3805    2.0665    6.0970 H   0  0  0  0  0  0  0  0  0  0  0  0
   -0.5975    2.1692    2.2331 H   0  0  0  0  0  0  0  0  0  0  0  0
   -0.9081    0.8071    3.3615 H   0  0  0  0  0  0  0  0  0  0  0  0
    4.1259   -0.0663    4.1956 H   0  0  0  0  0  0  0  0  0  0  0  0
    2.9423   -0.2961    0.0366 H   0  0  0  0  0  0  0  0  0  0  0  0
    2.6721    1.6229    3.9667 H   0  0  0  0  0  0  0  0  0  0  0  0
  1  2  1  0
  1 22  1  0
  1 23  1  0
  2  3  2  3
  2 14  1  0
  4  3  1  6
  3 41  1  0
  4 12  1  0
  4 13  1  0
  4  5  1  0
  5  6  1  0
  5 24  1  0
  5 25  1  0
  6 11  1  0
  6  7  1  0
  6 26  1  1
  7  8  1  0
  7 27  1  0
  7 28  1  0
  8  9  1  0
  8 13  1  0
  8 29  1  6
  9 10  1  0
  9 30  1  0
  9 31  1  0
 10 11  1  0
 10 12  1  0
 10 32  1  1
 11 33  1  0
 11 34  1  0
 12 35  1  0
 12 36  1  0
 13 37  1  0
 13 38  1  0
 14 21  1  0
 14 15  2  0
 15 16  1  0
 15 39  1  0
 16 17  1  0
 17 18  1  0
 17 21  2  0
 18 19  2  0
 18 20  1  0
 21 40  1  0
M  CHG  3   3   1  18   1  20  -1
M  END
>  <i_m_ct_stereo_status>  (433) 
1

>  <s_m_source_file>  (433) 
/var/tmp/pbs.5102264.sched01/tmps1u238za/138cwx3dj4e.sdf

>  <i_m_source_file_index>  (433) 
19

>  <i_lp_mmshare_version>  (433) 
48012

>  <i_f3d_flags>  (433) 
0

>  <s_epik_input>  (433) 
Tz1bTitdKFtPLV0pYyhbY0hdMSlzW2NIXWMxQyhcW05IMl0pPU5cQzIzW0NIMl1bQ0BASF00W0NIMl1bQ0BIXShbQ0gyXTMpW0NIMl1bQ0BASF0oW0NIMl00KVtDSDJdMg==

>  <s_epik_cmdline>  (433) 
J2VwaWtfcHl0aG9uJywgJy1waHQnLCAnMi4wJywgJy1waCcsICc3LjAnLCAnLXRuJywgJzgnLCAnLW1hJywgJzIwMCcsICctaW1hZScsICc8aW5maWxlLm1hZT4nLCAnLW9tYWUnLCAnPG91dGZpbGUubWFlPic=

>  <r_lp_tautomer_probability>  (433) 
1

>  <r_epik_Ionization_Penalty>  (433) 
5.94556e-05

>  <r_epik_Ionization_Penalty_Charging>  (433) 
5.94556e-05

>  <r_epik_Ionization_Penalty_Neutral>  (433) 
2.08915e-12

>  <r_epik_State_Penalty>  (433) 
-0

>  <r_epik_Charging_Adjusted_Penalty>  (433) 
5.94556e-05

>  <i_epik_Tot_Q>  (433) 
1

>  <i_epik_Tot_abs_Q>  (433) 
3

>  <s_epik_Chemistry_Notes>  (433) 
This compound has an imine and may undergo hydrolysis.

>  <s_lp_Force_Field>  (433) 
OPLS3e

>  <r_lp_Energy>  (433) 
14.3635

>  <b_lp_Chiralities_Consistent>  (433) 
1

>  <s_lp_Variant>  (433) 
92:0-1

>  <s_i_glide_gridfile>  (433) 
pfpi4k_grid

>  <i_i_glide_lignum>  (433) 
19

>  <i_i_glide_rotatable_bonds>  (433) 
3

>  <r_i_docking_score>  (433) 
-3.8381

>  <r_i_glide_ligand_efficiency>  (433) 
-0.182767

>  <r_i_glide_ligand_efficiency_sa>  (433) 
-0.504239

>  <r_i_glide_ligand_efficiency_ln>  (433) 
-0.948962

>  <r_i_glide_gscore>  (433) 
-3.8381

>  <r_i_glide_lipo>  (433) 
-0.245134

>  <r_i_glide_hbond>  (433) 
-0.2

>  <r_i_glide_metal>  (433) 
-0

>  <r_i_glide_rewards>  (433) 
-1.31997

>  <r_i_glide_evdw>  (433) 
-22.7434

>  <r_i_glide_ecoul>  (433) 
-7.20844

>  <r_i_glide_erotb>  (433) 
0.393499

>  <r_i_glide_esite>  (433) 
-0.248057

>  <r_i_glide_emodel>  (433) 
-34.6122

>  <r_i_glide_energy>  (433) 
-29.9518

>  <r_i_glide_einternal>  (433) 
5.90778

>  <r_i_glide_intrahb_reward>  (433) 
-0

>  <i_i_glide_confnum>  (433) 
5

>  <i_i_glide_posenum>  (433) 
1

>  <r_i_glide_eff_state_penalty>  (433) 
0

>  <ligand_id>  (433) 
92

>  <original_smiles>  (433) 
NC(=NC12CC3CC(CC(C3)C1)C2)c1csc([N+](=O)[O-])c1

>  <smiles>  (433) 
[H]c1sc([N+](=O)[O-])c([H])c1C(N([H])[H])=[N+]([H])C12C([H])([H])C3([H])C([H])([H])C([H])(C([H])([H])C([H])(C3([H])[H])C1([H])[H])C2([H])[H]

$$$$
92:0:2
     RDKit          3D

 41 44  0  0  1  0  0  0  0  0999 V2000
    3.0121    1.7463    2.5526 N   0  0  0  0  0  0  0  0  0  0  0  0
    2.4171    0.5400    2.6219 C   0  0  0  0  0  0  0  0  0  0  0  0
    1.2303    0.3543    3.2389 N   0  0  0  0  0  0  0  0  0  0  0  0
    0.3975    1.3346    3.9420 C   0  0  2  0  0  0  0  0  0  0  0  0
   -0.1371    2.3880    2.9501 C   0  0  0  0  0  0  0  0  0  0  0  0
   -1.0304    3.4003    3.6876 C   0  0  1  0  0  0  0  0  0  0  0  0
   -2.2299    2.6592    4.3045 C   0  0  0  0  0  0  0  0  0  0  0  0
   -1.7153    1.6075    5.3101 C   0  0  2  0  0  0  0  0  0  0  0  0
   -0.9116    2.2934    6.4320 C   0  0  0  0  0  0  0  0  0  0  0  0
    0.2841    3.0349    5.8119 C   0  0  2  0  0  0  0  0  0  0  0  0
   -0.2217    4.0947    4.8058 C   0  0  0  0  0  0  0  0  0  0  0  0
    1.1867    2.0232    5.0881 C   0  0  0  0  0  0  0  0  0  0  0  0
   -0.8156    0.5977    4.5683 C   0  0  0  0  0  0  0  0  0  0  0  0
    3.0552   -0.6364    2.0220 C   0  0  0  0  0  0  0  0  0  0  0  0
    2.9056   -1.8923    2.5134 C   0  0  0  0  0  0  0  0  0  0  0  0
    3.7904   -3.0305    1.5246 S   0  0  0  0  0  0  0  0  0  0  0  0
    4.3425   -1.7446    0.4620 C   0  0  0  0  0  0  0  0  0  0  0  0
    5.1948   -2.0022   -0.6638 N   0  0  0  0  0  0  0  0  0  0  0  0
    5.4251   -1.0754   -1.4360 O   0  0  0  0  0  0  0  0  0  0  0  0
    5.6664   -3.1213   -0.8021 O   0  0  0  0  0  0  0  0  0  0  0  0
    3.8683   -0.5297    0.8603 C   0  0  0  0  0  0  0  0  0  0  0  0
    2.5541    2.5511    2.9489 H   0  0  0  0  0  0  0  0  0  0  0  0
    3.9434    1.9140    2.1513 H   0  0  0  0  0  0  0  0  0  0  0  0
    0.6718    2.9436    2.4798 H   0  0  0  0  0  0  0  0  0  0  0  0
   -0.6923    1.9186    2.1338 H   0  0  0  0  0  0  0  0  0  0  0  0
   -1.3795    4.1465    2.9705 H   0  0  0  0  0  0  0  0  0  0  0  0
   -2.9083    3.3580    4.7958 H   0  0  0  0  0  0  0  0  0  0  0  0
   -2.7985    2.1685    3.5119 H   0  0  0  0  0  0  0  0  0  0  0  0
   -2.5616    1.0880    5.7594 H   0  0  0  0  0  0  0  0  0  0  0  0
   -1.5368    2.9908    6.9927 H   0  0  0  0  0  0  0  0  0  0  0  0
   -0.5508    1.5456    7.1408 H   0  0  0  0  0  0  0  0  0  0  0  0
    0.8561    3.5285    6.6000 H   0  0  0  0  0  0  0  0  0  0  0  0
    0.6210    4.6376    4.3736 H   0  0  0  0  0  0  0  0  0  0  0  0
   -0.8353    4.8355    5.3206 H   0  0  0  0  0  0  0  0  0  0  0  0
    1.5740    1.2784    5.7875 H   0  0  0  0  0  0  0  0  0  0  0  0
    2.0471    2.5871    4.7386 H   0  0  0  0  0  0  0  0  0  0  0  0
   -1.4047    0.0874    3.8028 H   0  0  0  0  0  0  0  0  0  0  0  0
   -0.4856   -0.1719    5.2679 H   0  0  0  0  0  0  0  0  0  0  0  0
    2.3515   -2.2246    3.3766 H   0  0  0  0  0  0  0  0  0  0  0  0
    4.0712    0.4122    0.3728 H   0  0  0  0  0  0  0  0  0  0  0  0
    0.8479   -0.5787    3.1986 H   0  0  0  0  0  0  0  0  0  0  0  0
  1  2  1  0
  1 22  1  0
  1 23  1  0
  2  3  2  3
  2 14  1  0
  4  3  1  6
  3 41  1  0
  4 12  1  0
  4 13  1  0
  4  5  1  0
  5  6  1  0
  5 24  1  0
  5 25  1  0
  6 11  1  0
  6  7  1  0
  6 26  1  6
  7  8  1  0
  7 27  1  0
  7 28  1  0
  8  9  1  0
  8 13  1  0
  8 29  1  1
  9 10  1  0
  9 30  1  0
  9 31  1  0
 10 11  1  0
 10 12  1  0
 10 32  1  1
 11 33  1  0
 11 34  1  0
 12 35  1  0
 12 36  1  0
 13 37  1  0
 13 38  1  0
 14 21  1  0
 14 15  2  0
 15 16  1  0
 15 39  1  0
 16 17  1  0
 17 18  1  0
 17 21  2  0
 18 19  2  0
 18 20  1  0
 21 40  1  0
M  CHG  3   3   1  18   1  20  -1
M  END
>  <i_m_ct_stereo_status>  (434) 
1

>  <s_m_source_file>  (434) 
/var/tmp/pbs.5102264.sched01/tmps1u238za/138cwx3dj4e.sdf

>  <i_m_source_file_index>  (434) 
19

>  <i_lp_mmshare_version>  (434) 
48012

>  <i_f3d_flags>  (434) 
0

>  <s_epik_input>  (434) 
Tz1bTitdKFtPLV0pYyhbY0hdMSlzW2NIXWMxQyhcW05IMl0pPU5cQzIzW0NIMl1bQ0BASF00W0NIMl1bQ0BIXShbQ0gyXTMpW0NIMl1bQ0BASF0oW0NIMl00KVtDSDJdMg==

>  <s_epik_cmdline>  (434) 
J2VwaWtfcHl0aG9uJywgJy1waHQnLCAnMi4wJywgJy1waCcsICc3LjAnLCAnLXRuJywgJzgnLCAnLW1hJywgJzIwMCcsICctaW1hZScsICc8aW5maWxlLm1hZT4nLCAnLW9tYWUnLCAnPG91dGZpbGUubWFlPic=

>  <r_lp_tautomer_probability>  (434) 
1

>  <r_epik_Ionization_Penalty>  (434) 
5.94556e-05

>  <r_epik_Ionization_Penalty_Charging>  (434) 
5.94556e-05

>  <r_epik_Ionization_Penalty_Neutral>  (434) 
2.08915e-12

>  <r_epik_State_Penalty>  (434) 
-0

>  <r_epik_Charging_Adjusted_Penalty>  (434) 
5.94556e-05

>  <i_epik_Tot_Q>  (434) 
1

>  <i_epik_Tot_abs_Q>  (434) 
3

>  <s_epik_Chemistry_Notes>  (434) 
This compound has an imine and may undergo hydrolysis.

>  <s_lp_Force_Field>  (434) 
OPLS3e

>  <r_lp_Energy>  (434) 
14.3635

>  <b_lp_Chiralities_Consistent>  (434) 
1

>  <s_lp_Variant>  (434) 
92:0-1

>  <s_i_glide_gridfile>  (434) 
pfpi4k_grid

>  <i_i_glide_lignum>  (434) 
19

>  <i_i_glide_rotatable_bonds>  (434) 
3

>  <r_i_docking_score>  (434) 
-3.21068

>  <r_i_glide_ligand_efficiency>  (434) 
-0.15289

>  <r_i_glide_ligand_efficiency_sa>  (434) 
-0.421811

>  <r_i_glide_ligand_efficiency_ln>  (434) 
-0.793835

>  <r_i_glide_gscore>  (434) 
-3.21068

>  <r_i_glide_lipo>  (434) 
-0.0193481

>  <r_i_glide_hbond>  (434) 
0

>  <r_i_glide_metal>  (434) 
-0

>  <r_i_glide_rewards>  (434) 
-1.31997

>  <r_i_glide_evdw>  (434) 
-20.7618

>  <r_i_glide_ecoul>  (434) 
-7.37952

>  <r_i_glide_erotb>  (434) 
0.393499

>  <r_i_glide_esite>  (434) 
-0.119847

>  <r_i_glide_emodel>  (434) 
-35.2473

>  <r_i_glide_energy>  (434) 
-28.1413

>  <r_i_glide_einternal>  (434) 
0.32741

>  <r_i_glide_intrahb_reward>  (434) 
-0

>  <i_i_glide_confnum>  (434) 
3

>  <i_i_glide_posenum>  (434) 
26

>  <r_i_glide_eff_state_penalty>  (434) 
0

>  <ligand_id>  (434) 
92

>  <original_smiles>  (434) 
NC(=NC12CC3CC(CC(C3)C1)C2)c1csc([N+](=O)[O-])c1

>  <smiles>  (434) 
[H]c1sc([N+](=O)[O-])c([H])c1C(N([H])[H])=[N+]([H])C12C([H])([H])C3([H])C([H])([H])C([H])(C([H])([H])C([H])(C3([H])[H])C1([H])[H])C2([H])[H]

$$$$
92:1:0
     RDKit          3D

 41 44  0  0  1  0  0  0  0  0999 V2000
    7.0522   -5.2502    0.8400 N   0  0  0  0  0  0  0  0  0  0  0  0
    6.2798   -4.2232    0.4107 C   0  0  0  0  0  0  0  0  0  0  0  0
    5.9491   -4.1883   -0.8779 N   0  0  0  0  0  0  0  0  0  0  0  0
    5.0165   -3.3420   -1.6480 C   0  0  1  0  0  0  0  0  0  0  0  0
    3.6137   -3.5131   -1.0346 C   0  0  0  0  0  0  0  0  0  0  0  0
    2.6257   -2.6985   -1.8709 C   0  0  2  0  0  0  0  0  0  0  0  0
    2.5486   -3.2008   -3.3034 C   0  0  0  0  0  0  0  0  0  0  0  0
    3.9217   -3.0478   -3.9325 C   0  0  1  0  0  0  0  0  0  0  0  0
    4.2742   -1.5535   -3.9512 C   0  0  0  0  0  0  0  0  0  0  0  0
    4.4053   -1.0581   -2.5010 C   0  0  1  0  0  0  0  0  0  0  0  0
    3.0361   -1.2226   -1.8665 C   0  0  0  0  0  0  0  0  0  0  0  0
    5.4240   -1.8591   -1.6732 C   0  0  0  0  0  0  0  0  0  0  0  0
    4.9718   -3.8559   -3.1294 C   0  0  0  0  0  0  0  0  0  0  0  0
    5.9056   -3.2144    1.4137 C   0  0  0  0  0  0  0  0  0  0  0  0
    6.1579   -1.9010    1.3458 C   0  0  0  0  0  0  0  0  0  0  0  0
    5.3476   -1.0232    2.6387 S   0  0  0  0  0  0  0  0  0  0  0  0
    4.9770   -2.5495    3.4341 C   0  0  0  0  0  0  0  0  0  0  0  0
    4.4230   -2.5688    4.7540 N   0  0  0  0  0  0  0  0  0  0  0  0
    4.1761   -3.6694    5.2413 O   0  0  0  0  0  0  0  0  0  0  0  0
    4.2610   -1.4791    5.3090 O   0  0  0  0  0  0  0  0  0  0  0  0
    5.2956   -3.6341    2.6599 C   0  0  0  0  0  0  0  0  0  0  0  0
    7.3543   -5.9960    0.2447 H   0  0  0  0  0  0  0  0  0  0  0  0
    7.2481   -5.3194    1.8231 H   0  0  0  0  0  0  0  0  0  0  0  0
    3.3064   -4.5671   -1.0016 H   0  0  0  0  0  0  0  0  0  0  0  0
    3.5981   -3.1705    0.0024 H   0  0  0  0  0  0  0  0  0  0  0  0
    1.6567   -2.8388   -1.4137 H   0  0  0  0  0  0  0  0  0  0  0  0
    2.2423   -4.2396   -3.3196 H   0  0  0  0  0  0  0  0  0  0  0  0
    1.8014   -2.6427   -3.8611 H   0  0  0  0  0  0  0  0  0  0  0  0
    3.8990   -3.4249   -4.9415 H   0  0  0  0  0  0  0  0  0  0  0  0
    5.2686   -1.4464   -4.3350 H   0  0  0  0  0  0  0  0  0  0  0  0
    3.5830   -0.9086   -4.5352 H   0  0  0  0  0  0  0  0  0  0  0  0
    4.6943    0.0028   -2.4730 H   0  0  0  0  0  0  0  0  0  0  0  0
    2.3137   -0.6072   -2.3872 H   0  0  0  0  0  0  0  0  0  0  0  0
    3.0678   -0.8716   -0.8392 H   0  0  0  0  0  0  0  0  0  0  0  0
    5.2561   -1.3659   -0.7534 H   0  0  0  0  0  0  0  0  0  0  0  0
    6.4318   -1.7495   -2.0718 H   0  0  0  0  0  0  0  0  0  0  0  0
    5.9640   -3.7605   -3.5774 H   0  0  0  0  0  0  0  0  0  0  0  0
    4.7218   -4.9205   -3.1797 H   0  0  0  0  0  0  0  0  0  0  0  0
    6.6917   -1.3338    0.5487 H   0  0  0  0  0  0  0  0  0  0  0  0
    5.1771   -4.6773    2.9465 H   0  0  0  0  0  0  0  0  0  0  0  0
    6.3941   -4.8649   -1.4823 H   0  0  0  0  0  0  0  0  0  0  0  0
  1  2  1  0
  1 22  1  0
  1 23  1  0
  2  3  2  3
  2 14  1  0
  4  3  1  1
  3 41  1  0
  4 12  1  0
  4 13  1  0
  4  5  1  0
  5  6  1  0
  5 24  1  0
  5 25  1  0
  6 11  1  0
  6  7  1  0
  6 26  1  1
  7  8  1  0
  7 27  1  0
  7 28  1  0
  8  9  1  0
  8 13  1  0
  8 29  1  6
  9 10  1  0
  9 30  1  0
  9 31  1  0
 10 11  1  0
 10 12  1  0
 10 32  1  6
 11 33  1  0
 11 34  1  0
 12 35  1  0
 12 36  1  0
 13 37  1  0
 13 38  1  0
 14 21  1  0
 14 15  2  0
 15 16  1  0
 15 39  1  0
 16 17  1  0
 17 18  1  0
 17 21  2  0
 18 19  2  0
 18 20  1  0
 21 40  1  0
M  CHG  3   3   1  18   1  20  -1
M  END
>  <i_m_ct_stereo_status>  (435) 
1

>  <s_m_source_file>  (435) 
/var/tmp/pbs.5102264.sched01/tmps1u238za/138cwx3dj4e.sdf

>  <i_m_source_file_index>  (435) 
20

>  <i_lp_mmshare_version>  (435) 
48012

>  <i_f3d_flags>  (435) 
0

>  <s_epik_input>  (435) 
Tz1bTitdKFtPLV0pYyhbY0hdMSlzW2NIXWMxQyhcW05IMl0pPU5cQzIzW0NIMl1bQ0BASF00W0NIMl1bQ0BIXShbQ0gyXTMpW0NIMl1bQ0BASF0oW0NIMl00KVtDSDJdMg==

>  <s_epik_cmdline>  (435) 
J2VwaWtfcHl0aG9uJywgJy1waHQnLCAnMi4wJywgJy1waCcsICc3LjAnLCAnLXRuJywgJzgnLCAnLW1hJywgJzIwMCcsICctaW1hZScsICc8aW5maWxlLm1hZT4nLCAnLW9tYWUnLCAnPG91dGZpbGUubWFlPic=

>  <r_lp_tautomer_probability>  (435) 
1

>  <r_epik_Ionization_Penalty>  (435) 
5.94556e-05

>  <r_epik_Ionization_Penalty_Charging>  (435) 
5.94556e-05

>  <r_epik_Ionization_Penalty_Neutral>  (435) 
2.08915e-12

>  <r_epik_State_Penalty>  (435) 
-0

>  <r_epik_Charging_Adjusted_Penalty>  (435) 
5.94556e-05

>  <i_epik_Tot_Q>  (435) 
1

>  <i_epik_Tot_abs_Q>  (435) 
3

>  <s_epik_Chemistry_Notes>  (435) 
This compound has an imine and may undergo hydrolysis.

>  <s_lp_Force_Field>  (435) 
OPLS3e

>  <r_lp_Energy>  (435) 
16.1184

>  <b_lp_Chiralities_Consistent>  (435) 
1

>  <s_lp_Variant>  (435) 
92:0-2

>  <s_i_glide_gridfile>  (435) 
pfpi4k_grid

>  <i_i_glide_lignum>  (435) 
20

>  <i_i_glide_rotatable_bonds>  (435) 
3

>  <r_i_docking_score>  (435) 
-2.57436

>  <r_i_glide_ligand_efficiency>  (435) 
-0.122589

>  <r_i_glide_ligand_efficiency_sa>  (435) 
-0.338213

>  <r_i_glide_ligand_efficiency_ln>  (435) 
-0.636506

>  <r_i_glide_gscore>  (435) 
-2.57436

>  <r_i_glide_lipo>  (435) 
-0.851569

>  <r_i_glide_hbond>  (435) 
0

>  <r_i_glide_metal>  (435) 
-0

>  <r_i_glide_rewards>  (435) 
-1.47778

>  <r_i_glide_evdw>  (435) 
-12.3168

>  <r_i_glide_ecoul>  (435) 
-0.151162

>  <r_i_glide_erotb>  (435) 
0.393499

>  <r_i_glide_esite>  (435) 
0

>  <r_i_glide_emodel>  (435) 
-10.4626

>  <r_i_glide_energy>  (435) 
-12.468

>  <r_i_glide_einternal>  (435) 
0.110809

>  <r_i_glide_intrahb_reward>  (435) 
-0

>  <i_i_glide_confnum>  (435) 
3

>  <i_i_glide_posenum>  (435) 
1

>  <r_i_glide_eff_state_penalty>  (435) 
0

>  <ligand_id>  (435) 
92

>  <original_smiles>  (435) 
NC(=NC12CC3CC(CC(C3)C1)C2)c1csc([N+](=O)[O-])c1

>  <smiles>  (435) 
[H]c1sc([N+](=O)[O-])c([H])c1C(N([H])[H])=[N+]([H])C12C([H])([H])C3([H])C([H])([H])C([H])(C([H])([H])C([H])(C3([H])[H])C1([H])[H])C2([H])[H]

$$$$
93:0:0
     RDKit          3D

 38 42  0  0  1  0  0  0  0  0999 V2000
    6.8701   -4.4484    0.6153 O   0  0  0  0  0  0  0  0  0  0  0  0
    5.8638   -5.1616    0.7047 C   0  0  0  0  0  0  0  0  0  0  0  0
    5.9737   -6.5237    1.3424 C   0  0  0  0  0  0  0  0  0  0  0  0
    7.2285   -6.9500    1.6455 N   0  0  0  0  0  0  0  0  0  0  0  0
    7.3733   -8.2097    2.1252 C   0  0  0  0  0  0  0  0  0  0  0  0
    6.2944   -9.0735    2.3317 C   0  0  0  0  0  0  0  0  0  0  0  0
    5.0079   -8.5942    2.1164 C   0  0  0  0  0  0  0  0  0  0  0  0
    4.7984   -7.2897    1.5731 C   0  0  0  0  0  0  0  0  0  0  0  0
    3.5225   -6.7253    1.2155 N   0  0  0  0  0  0  0  0  0  0  0  0
    2.2078   -7.0540    1.4310 C   0  0  0  0  0  0  0  0  0  0  0  0
    1.5882   -8.1813    2.1659 C   0  0  0  0  0  0  0  0  0  0  0  0
    2.0375   -9.5121    2.0084 C   0  0  0  0  0  0  0  0  0  0  0  0
    1.5833  -10.5153    2.8808 C   0  0  0  0  0  0  0  0  0  0  0  0
    0.4748  -10.2160    3.6899 C   0  0  0  0  0  0  0  0  0  0  0  0
   -0.0491   -8.9068    3.6447 C   0  0  0  0  0  0  0  0  0  0  0  0
    0.5227   -7.8866    2.9614 N   0  0  0  0  0  0  0  0  0  0  0  0
    1.4050   -6.1547    0.8260 N   0  0  0  0  0  0  0  0  0  0  0  0
    2.2100   -5.1720    0.2709 N   0  0  0  0  0  0  0  0  0  0  0  0
    3.4538   -5.5499    0.5546 C   0  0  0  0  0  0  0  0  0  0  0  0
    4.6376   -4.7971    0.2748 N   0  0  0  0  0  0  0  0  0  0  0  0
    4.4626   -3.5819   -0.4237 C   0  0  0  0  0  0  0  0  0  0  0  0
    4.7973   -3.5138   -1.7940 C   0  0  0  0  0  0  0  0  0  0  0  0
    4.6283   -2.2995   -2.4907 C   0  0  0  0  0  0  0  0  0  0  0  0
    4.1418   -1.1614   -1.8116 C   0  0  0  0  0  0  0  0  0  0  0  0
    3.8188   -1.2363   -0.4378 C   0  0  0  0  0  0  0  0  0  0  0  0
    3.9791   -2.4489    0.2608 C   0  0  0  0  0  0  0  0  0  0  0  0
    8.3577   -8.5714    2.3848 H   0  0  0  0  0  0  0  0  0  0  0  0
    6.3724  -10.0859    2.7146 H   0  0  0  0  0  0  0  0  0  0  0  0
    4.2945   -9.3225    2.4279 H   0  0  0  0  0  0  0  0  0  0  0  0
    2.7825   -9.7779    1.2668 H   0  0  0  0  0  0  0  0  0  0  0  0
    2.0353  -11.5024    2.8664 H   0  0  0  0  0  0  0  0  0  0  0  0
    0.0011  -11.0069    4.2652 H   0  0  0  0  0  0  0  0  0  0  0  0
   -0.9348   -8.6747    4.2112 H   0  0  0  0  0  0  0  0  0  0  0  0
    5.1655   -4.3906   -2.3152 H   0  0  0  0  0  0  0  0  0  0  0  0
    4.8708   -2.2447   -3.5437 H   0  0  0  0  0  0  0  0  0  0  0  0
    4.0019   -0.2309   -2.3458 H   0  0  0  0  0  0  0  0  0  0  0  0
    3.4336   -0.3710    0.0857 H   0  0  0  0  0  0  0  0  0  0  0  0
    3.7305   -2.5084    1.3137 H   0  0  0  0  0  0  0  0  0  0  0  0
  1  2  2  0
  2 20  1  0
  2  3  1  0
  3  8  2  0
  3  4  1  0
  4  5  2  0
  5  6  1  0
  5 27  1  0
  6  7  2  0
  6 28  1  0
  7  8  1  0
  7 29  1  0
  8  9  1  0
  9 19  1  0
  9 10  1  0
 10 11  1  0
 10 17  2  0
 11 16  1  0
 11 12  2  0
 12 13  1  0
 12 30  1  0
 13 14  2  0
 13 31  1  0
 14 15  1  0
 14 32  1  0
 15 16  2  0
 15 33  1  0
 17 18  1  0
 18 19  2  0
 19 20  1  0
 20 21  1  0
 21 26  1  0
 21 22  2  0
 22 23  1  0
 22 34  1  0
 23 24  2  0
 23 35  1  0
 24 25  1  0
 24 36  1  0
 25 26  2  0
 25 37  1  0
 26 38  1  0
M  END
>  <i_m_ct_stereo_status>  (436) 
1

>  <s_m_source_file>  (436) 
/var/tmp/pbs.5102264.sched01/tmps1u238za/138cwx3dj4e.sdf

>  <i_m_source_file_index>  (436) 
21

>  <i_lp_mmshare_version>  (436) 
48012

>  <i_f3d_flags>  (436) 
0

>  <s_epik_input>  (436) 
W2NIXTFbY0hdW2NIXVtjSF1bY0hdYzEtbihjMj1PKWMobjNjKGMyNClbY0hdW2NIXVtjSF1uNClubmMzLWM1W2NIXVtjSF1bY0hdW2NIXW41

>  <s_epik_cmdline>  (436) 
J2VwaWtfcHl0aG9uJywgJy1waHQnLCAnMi4wJywgJy1waCcsICc3LjAnLCAnLXRuJywgJzgnLCAnLW1hJywgJzIwMCcsICctaW1hZScsICc8aW5maWxlLm1hZT4nLCAnLW9tYWUnLCAnPG91dGZpbGUubWFlPic=

>  <r_epik_Ionization_Penalty>  (436) 
0.000768327

>  <r_epik_Ionization_Penalty_Charging>  (436) 
5.45638e-12

>  <r_epik_Ionization_Penalty_Neutral>  (436) 
0.000768327

>  <r_epik_State_Penalty>  (436) 
0.000492004

>  <r_epik_Charging_Adjusted_Penalty>  (436) 
0.000492004

>  <i_epik_Tot_Q>  (436) 
0

>  <i_epik_Tot_abs_Q>  (436) 
0

>  <s_lp_Force_Field>  (436) 
OPLS3e

>  <r_lp_Energy>  (436) 
62.4096

>  <b_lp_Chiralities_Consistent>  (436) 
1

>  <s_lp_Variant>  (436) 
93:0-1

>  <s_i_glide_gridfile>  (436) 
pfpi4k_grid

>  <i_i_glide_lignum>  (436) 
21

>  <i_i_glide_rotatable_bonds>  (436) 
2

>  <r_i_docking_score>  (436) 
-3.85511

>  <r_i_glide_ligand_efficiency>  (436) 
-0.148274

>  <r_i_glide_ligand_efficiency_sa>  (436) 
-0.43926

>  <r_i_glide_ligand_efficiency_ln>  (436) 
-0.90536

>  <r_i_glide_gscore>  (436) 
-3.85511

>  <r_i_glide_lipo>  (436) 
-0.685488

>  <r_i_glide_hbond>  (436) 
0

>  <r_i_glide_metal>  (436) 
-0

>  <r_i_glide_rewards>  (436) 
-1.23135

>  <r_i_glide_evdw>  (436) 
-32.697

>  <r_i_glide_ecoul>  (436) 
-3.0449

>  <r_i_glide_erotb>  (436) 
0.326963

>  <r_i_glide_esite>  (436) 
-0.173656

>  <r_i_glide_emodel>  (436) 
-41.8319

>  <r_i_glide_energy>  (436) 
-35.7419

>  <r_i_glide_einternal>  (436) 
1.94376

>  <r_i_glide_intrahb_reward>  (436) 
-0

>  <i_i_glide_confnum>  (436) 
5

>  <i_i_glide_posenum>  (436) 
21

>  <r_i_glide_eff_state_penalty>  (436) 
0

>  <ligand_id>  (436) 
93

>  <original_smiles>  (436) 
O=c1c2ncccc2n2c(-c3ccccn3)nnc2n1-c1ccccc1

>  <smiles>  (436) 
[H]c1nc(-c2nnc3n(-c4c([H])c([H])c([H])c([H])c4[H])c(=O)c4nc([H])c([H])c([H])c4n23)c([H])c([H])c1[H]

$$$$
93:0:1
     RDKit          3D

 38 42  0  0  1  0  0  0  0  0999 V2000
    6.9572   -4.3937    0.4549 O   0  0  0  0  0  0  0  0  0  0  0  0
    5.9280   -5.0567    0.6037 C   0  0  0  0  0  0  0  0  0  0  0  0
    5.9717   -6.3983    1.2921 C   0  0  0  0  0  0  0  0  0  0  0  0
    7.1982   -6.8891    1.5877 N   0  0  0  0  0  0  0  0  0  0  0  0
    7.2989   -8.1206    2.1228 C   0  0  0  0  0  0  0  0  0  0  0  0
    6.1813   -8.9401    2.3282 C   0  0  0  0  0  0  0  0  0  0  0  0
    4.9079   -8.4618    1.9744 C   0  0  0  0  0  0  0  0  0  0  0  0
    4.7736   -7.1240    1.5231 C   0  0  0  0  0  0  0  0  0  0  0  0
    3.5271   -6.4981    1.1887 N   0  0  0  0  0  0  0  0  0  0  0  0
    2.2165   -6.7577    1.4606 C   0  0  0  0  0  0  0  0  0  0  0  0
    1.5967   -7.7525    2.3471 C   0  0  0  0  0  0  0  0  0  0  0  0
    0.2796   -8.2234    2.1107 C   0  0  0  0  0  0  0  0  0  0  0  0
   -0.2439   -9.2481    2.9291 C   0  0  0  0  0  0  0  0  0  0  0  0
    0.5753   -9.7811    3.9434 C   0  0  0  0  0  0  0  0  0  0  0  0
    1.8581   -9.2358    4.1141 C   0  0  0  0  0  0  0  0  0  0  0  0
    2.3388   -8.2207    3.3711 N   0  0  0  0  0  0  0  0  0  0  0  0
    1.4361   -5.8974    0.7743 N   0  0  0  0  0  0  0  0  0  0  0  0
    2.2668   -4.9568    0.1827 N   0  0  0  0  0  0  0  0  0  0  0  0
    3.5042   -5.3611    0.4824 C   0  0  0  0  0  0  0  0  0  0  0  0
    4.7112   -4.6569    0.1587 N   0  0  0  0  0  0  0  0  0  0  0  0
    4.5788   -3.4544   -0.5880 C   0  0  0  0  0  0  0  0  0  0  0  0
    4.6005   -3.4938   -1.9991 C   0  0  0  0  0  0  0  0  0  0  0  0
    4.4761   -2.3041   -2.7410 C   0  0  0  0  0  0  0  0  0  0  0  0
    4.3355   -1.0729   -2.0703 C   0  0  0  0  0  0  0  0  0  0  0  0
    4.3259   -1.0355   -0.6608 C   0  0  0  0  0  0  0  0  0  0  0  0
    4.4448   -2.2217    0.0835 C   0  0  0  0  0  0  0  0  0  0  0  0
    8.2888   -8.4857    2.3537 H   0  0  0  0  0  0  0  0  0  0  0  0
    6.2692   -9.9366    2.7346 H   0  0  0  0  0  0  0  0  0  0  0  0
    4.0845   -9.1589    2.0399 H   0  0  0  0  0  0  0  0  0  0  0  0
   -0.3115   -7.8545    1.2830 H   0  0  0  0  0  0  0  0  0  0  0  0
   -1.2511   -9.6230    2.7845 H   0  0  0  0  0  0  0  0  0  0  0  0
    0.2263  -10.5825    4.5757 H   0  0  0  0  0  0  0  0  0  0  0  0
    2.5417   -9.6416    4.8436 H   0  0  0  0  0  0  0  0  0  0  0  0
    4.7030   -4.4431   -2.5062 H   0  0  0  0  0  0  0  0  0  0  0  0
    4.4748   -2.3449   -3.8188 H   0  0  0  0  0  0  0  0  0  0  0  0
    4.2251   -0.1580   -2.6319 H   0  0  0  0  0  0  0  0  0  0  0  0
    4.2159   -0.0943   -0.1437 H   0  0  0  0  0  0  0  0  0  0  0  0
    4.4366   -2.1879    1.1639 H   0  0  0  0  0  0  0  0  0  0  0  0
  1  2  2  0
  2 20  1  0
  2  3  1  0
  3  8  2  0
  3  4  1  0
  4  5  2  0
  5  6  1  0
  5 27  1  0
  6  7  2  0
  6 28  1  0
  7  8  1  0
  7 29  1  0
  8  9  1  0
  9 19  1  0
  9 10  1  0
 10 11  1  0
 10 17  2  0
 11 16  1  0
 11 12  2  0
 12 13  1  0
 12 30  1  0
 13 14  2  0
 13 31  1  0
 14 15  1  0
 14 32  1  0
 15 16  2  0
 15 33  1  0
 17 18  1  0
 18 19  2  0
 19 20  1  0
 20 21  1  0
 21 26  1  0
 21 22  2  0
 22 23  1  0
 22 34  1  0
 23 24  2  0
 23 35  1  0
 24 25  1  0
 24 36  1  0
 25 26  2  0
 25 37  1  0
 26 38  1  0
M  END
>  <i_m_ct_stereo_status>  (437) 
1

>  <s_m_source_file>  (437) 
/var/tmp/pbs.5102264.sched01/tmps1u238za/138cwx3dj4e.sdf

>  <i_m_source_file_index>  (437) 
21

>  <i_lp_mmshare_version>  (437) 
48012

>  <i_f3d_flags>  (437) 
0

>  <s_epik_input>  (437) 
W2NIXTFbY0hdW2NIXVtjSF1bY0hdYzEtbihjMj1PKWMobjNjKGMyNClbY0hdW2NIXVtjSF1uNClubmMzLWM1W2NIXVtjSF1bY0hdW2NIXW41

>  <s_epik_cmdline>  (437) 
J2VwaWtfcHl0aG9uJywgJy1waHQnLCAnMi4wJywgJy1waCcsICc3LjAnLCAnLXRuJywgJzgnLCAnLW1hJywgJzIwMCcsICctaW1hZScsICc8aW5maWxlLm1hZT4nLCAnLW9tYWUnLCAnPG91dGZpbGUubWFlPic=

>  <r_epik_Ionization_Penalty>  (437) 
0.000768327

>  <r_epik_Ionization_Penalty_Charging>  (437) 
5.45638e-12

>  <r_epik_Ionization_Penalty_Neutral>  (437) 
0.000768327

>  <r_epik_State_Penalty>  (437) 
0.000492004

>  <r_epik_Charging_Adjusted_Penalty>  (437) 
0.000492004

>  <i_epik_Tot_Q>  (437) 
0

>  <i_epik_Tot_abs_Q>  (437) 
0

>  <s_lp_Force_Field>  (437) 
OPLS3e

>  <r_lp_Energy>  (437) 
62.4096

>  <b_lp_Chiralities_Consistent>  (437) 
1

>  <s_lp_Variant>  (437) 
93:0-1

>  <s_i_glide_gridfile>  (437) 
pfpi4k_grid

>  <i_i_glide_lignum>  (437) 
21

>  <i_i_glide_rotatable_bonds>  (437) 
2

>  <r_i_docking_score>  (437) 
-3.61654

>  <r_i_glide_ligand_efficiency>  (437) 
-0.139098

>  <r_i_glide_ligand_efficiency_sa>  (437) 
-0.412077

>  <r_i_glide_ligand_efficiency_ln>  (437) 
-0.849333

>  <r_i_glide_gscore>  (437) 
-3.61654

>  <r_i_glide_lipo>  (437) 
-0.503035

>  <r_i_glide_hbond>  (437) 
0

>  <r_i_glide_metal>  (437) 
-0

>  <r_i_glide_rewards>  (437) 
-1.20939

>  <r_i_glide_evdw>  (437) 
-32.2126

>  <r_i_glide_ecoul>  (437) 
-2.86378

>  <r_i_glide_erotb>  (437) 
0.326963

>  <r_i_glide_esite>  (437) 
-0.190889

>  <r_i_glide_emodel>  (437) 
-43.787

>  <r_i_glide_energy>  (437) 
-35.0764

>  <r_i_glide_einternal>  (437) 
0.700364

>  <r_i_glide_intrahb_reward>  (437) 
-0

>  <i_i_glide_confnum>  (437) 
1

>  <i_i_glide_posenum>  (437) 
29

>  <r_i_glide_eff_state_penalty>  (437) 
0

>  <ligand_id>  (437) 
93

>  <original_smiles>  (437) 
O=c1c2ncccc2n2c(-c3ccccn3)nnc2n1-c1ccccc1

>  <smiles>  (437) 
[H]c1nc(-c2nnc3n(-c4c([H])c([H])c([H])c([H])c4[H])c(=O)c4nc([H])c([H])c([H])c4n23)c([H])c([H])c1[H]

$$$$
93:0:2
     RDKit          3D

 38 42  0  0  1  0  0  0  0  0999 V2000
    5.8986   -3.4455    1.6617 O   0  0  0  0  0  0  0  0  0  0  0  0
    4.9926   -4.2750    1.7323 C   0  0  0  0  0  0  0  0  0  0  0  0
    4.8480   -5.1308    2.9711 C   0  0  0  0  0  0  0  0  0  0  0  0
    5.8484   -5.0534    3.8784 N   0  0  0  0  0  0  0  0  0  0  0  0
    5.8200   -5.8513    4.9609 C   0  0  0  0  0  0  0  0  0  0  0  0
    4.8122   -6.8035    5.1539 C   0  0  0  0  0  0  0  0  0  0  0  0
    3.7931   -6.9270    4.1928 C   0  0  0  0  0  0  0  0  0  0  0  0
    3.7531   -6.0155    3.1031 C   0  0  0  0  0  0  0  0  0  0  0  0
    2.7458   -6.0000    2.0914 N   0  0  0  0  0  0  0  0  0  0  0  0
    1.4946   -6.5147    1.9785 C   0  0  0  0  0  0  0  0  0  0  0  0
    0.6540   -7.2016    2.9618 C   0  0  0  0  0  0  0  0  0  0  0  0
   -0.3338   -8.1280    2.5426 C   0  0  0  0  0  0  0  0  0  0  0  0
   -1.0755   -8.8098    3.5263 C   0  0  0  0  0  0  0  0  0  0  0  0
   -0.7802   -8.5531    4.8749 C   0  0  0  0  0  0  0  0  0  0  0  0
    0.2007   -7.6065    5.1933 C   0  0  0  0  0  0  0  0  0  0  0  0
    0.8641   -6.9072    4.2601 N   0  0  0  0  0  0  0  0  0  0  0  0
    1.0015   -6.2746    0.7531 N   0  0  0  0  0  0  0  0  0  0  0  0
    1.9116   -5.4813    0.0985 N   0  0  0  0  0  0  0  0  0  0  0  0
    2.9253   -5.3198    0.9469 C   0  0  0  0  0  0  0  0  0  0  0  0
    4.0788   -4.4853    0.7457 N   0  0  0  0  0  0  0  0  0  0  0  0
    4.1814   -3.7819   -0.5043 C   0  0  0  0  0  0  0  0  0  0  0  0
    5.3711   -3.8512   -1.2631 C   0  0  0  0  0  0  0  0  0  0  0  0
    5.4770   -3.1793   -2.4973 C   0  0  0  0  0  0  0  0  0  0  0  0
    4.3860   -2.4340   -2.9881 C   0  0  0  0  0  0  0  0  0  0  0  0
    3.2000   -2.3537   -2.2346 C   0  0  0  0  0  0  0  0  0  0  0  0
    3.1042   -3.0115   -0.9953 C   0  0  0  0  0  0  0  0  0  0  0  0
    6.6410   -5.7638    5.6593 H   0  0  0  0  0  0  0  0  0  0  0  0
    4.8121   -7.4629    6.0092 H   0  0  0  0  0  0  0  0  0  0  0  0
    3.0946   -7.7403    4.3043 H   0  0  0  0  0  0  0  0  0  0  0  0
   -0.5087   -8.3443    1.4950 H   0  0  0  0  0  0  0  0  0  0  0  0
   -1.8495   -9.5176    3.2547 H   0  0  0  0  0  0  0  0  0  0  0  0
   -1.2997   -9.0767    5.6602 H   0  0  0  0  0  0  0  0  0  0  0  0
    0.4898   -7.4247    6.2141 H   0  0  0  0  0  0  0  0  0  0  0  0
    6.2048   -4.4261   -0.8886 H   0  0  0  0  0  0  0  0  0  0  0  0
    6.3936   -3.2546   -3.0626 H   0  0  0  0  0  0  0  0  0  0  0  0
    4.4565   -1.9199   -3.9311 H   0  0  0  0  0  0  0  0  0  0  0  0
    2.3476   -1.7895   -2.5837 H   0  0  0  0  0  0  0  0  0  0  0  0
    2.1947   -2.9131   -0.4231 H   0  0  0  0  0  0  0  0  0  0  0  0
  1  2  2  0
  2 20  1  0
  2  3  1  0
  3  8  2  0
  3  4  1  0
  4  5  2  0
  5  6  1  0
  5 27  1  0
  6  7  2  0
  6 28  1  0
  7  8  1  0
  7 29  1  0
  8  9  1  0
  9 19  1  0
  9 10  1  0
 10 11  1  0
 10 17  2  0
 11 16  1  0
 11 12  2  0
 12 13  1  0
 12 30  1  0
 13 14  2  0
 13 31  1  0
 14 15  1  0
 14 32  1  0
 15 16  2  0
 15 33  1  0
 17 18  1  0
 18 19  2  0
 19 20  1  0
 20 21  1  0
 21 26  1  0
 21 22  2  0
 22 23  1  0
 22 34  1  0
 23 24  2  0
 23 35  1  0
 24 25  1  0
 24 36  1  0
 25 26  2  0
 25 37  1  0
 26 38  1  0
M  END
>  <i_m_ct_stereo_status>  (438) 
1

>  <s_m_source_file>  (438) 
/var/tmp/pbs.5102264.sched01/tmps1u238za/138cwx3dj4e.sdf

>  <i_m_source_file_index>  (438) 
21

>  <i_lp_mmshare_version>  (438) 
48012

>  <i_f3d_flags>  (438) 
0

>  <s_epik_input>  (438) 
W2NIXTFbY0hdW2NIXVtjSF1bY0hdYzEtbihjMj1PKWMobjNjKGMyNClbY0hdW2NIXVtjSF1uNClubmMzLWM1W2NIXVtjSF1bY0hdW2NIXW41

>  <s_epik_cmdline>  (438) 
J2VwaWtfcHl0aG9uJywgJy1waHQnLCAnMi4wJywgJy1waCcsICc3LjAnLCAnLXRuJywgJzgnLCAnLW1hJywgJzIwMCcsICctaW1hZScsICc8aW5maWxlLm1hZT4nLCAnLW9tYWUnLCAnPG91dGZpbGUubWFlPic=

>  <r_epik_Ionization_Penalty>  (438) 
0.000768327

>  <r_epik_Ionization_Penalty_Charging>  (438) 
5.45638e-12

>  <r_epik_Ionization_Penalty_Neutral>  (438) 
0.000768327

>  <r_epik_State_Penalty>  (438) 
0.000492004

>  <r_epik_Charging_Adjusted_Penalty>  (438) 
0.000492004

>  <i_epik_Tot_Q>  (438) 
0

>  <i_epik_Tot_abs_Q>  (438) 
0

>  <s_lp_Force_Field>  (438) 
OPLS3e

>  <r_lp_Energy>  (438) 
62.4096

>  <b_lp_Chiralities_Consistent>  (438) 
1

>  <s_lp_Variant>  (438) 
93:0-1

>  <s_i_glide_gridfile>  (438) 
pfpi4k_grid

>  <i_i_glide_lignum>  (438) 
21

>  <i_i_glide_rotatable_bonds>  (438) 
2

>  <r_i_docking_score>  (438) 
-3.31725

>  <r_i_glide_ligand_efficiency>  (438) 
-0.127587

>  <r_i_glide_ligand_efficiency_sa>  (438) 
-0.377975

>  <r_i_glide_ligand_efficiency_ln>  (438) 
-0.779046

>  <r_i_glide_gscore>  (438) 
-3.31725

>  <r_i_glide_lipo>  (438) 
-0.399748

>  <r_i_glide_hbond>  (438) 
0

>  <r_i_glide_metal>  (438) 
-0

>  <r_i_glide_rewards>  (438) 
-1.12178

>  <r_i_glide_evdw>  (438) 
-26.8368

>  <r_i_glide_ecoul>  (438) 
-3.49094

>  <r_i_glide_erotb>  (438) 
0.326963

>  <r_i_glide_esite>  (438) 
-0.257208

>  <r_i_glide_emodel>  (438) 
-38.3095

>  <r_i_glide_energy>  (438) 
-30.3277

>  <r_i_glide_einternal>  (438) 
0.503669

>  <r_i_glide_intrahb_reward>  (438) 
-0

>  <i_i_glide_confnum>  (438) 
1

>  <i_i_glide_posenum>  (438) 
35

>  <r_i_glide_eff_state_penalty>  (438) 
0

>  <ligand_id>  (438) 
93

>  <original_smiles>  (438) 
O=c1c2ncccc2n2c(-c3ccccn3)nnc2n1-c1ccccc1

>  <smiles>  (438) 
[H]c1nc(-c2nnc3n(-c4c([H])c([H])c([H])c([H])c4[H])c(=O)c4nc([H])c([H])c([H])c4n23)c([H])c([H])c1[H]

$$$$
94:0:0
     RDKit          3D

 23 24  0  0  1  0  0  0  0  0999 V2000
    3.5811   -0.8197   -4.3049 C   0  0  0  0  0  0  0  0  0  0  0  0
    3.6996   -2.1402   -3.6978 N   0  0  0  0  0  0  0  0  0  0  0  0
    2.4870   -2.9519   -3.7154 C   0  0  0  0  0  0  0  0  0  0  0  0
    4.3749   -2.1896   -2.4580 C   0  0  0  0  0  0  0  0  0  0  0  0
    4.6272   -1.0195   -1.6977 C   0  0  0  0  0  0  0  0  0  0  0  0
    5.2815   -1.0731   -0.4548 C   0  0  0  0  0  0  0  0  0  0  0  0
    5.6967   -2.3116    0.0726 C   0  0  0  0  0  0  0  0  0  0  0  0
    6.3468   -2.6039    1.2609 N   0  0  0  0  0  0  0  0  0  0  0  0
    6.4686   -3.9244    1.1910 C   0  0  0  0  0  0  0  0  0  0  0  0
    5.9653   -4.5056    0.0904 N   0  0  0  0  0  0  0  0  0  0  0  0
    5.4455   -3.4849   -0.6883 C   0  0  0  0  0  0  0  0  0  0  0  0
    4.8006   -3.4368   -1.9352 C   0  0  0  0  0  0  0  0  0  0  0  0
    4.5501   -0.3273   -4.3205 H   0  0  0  0  0  0  0  0  0  0  0  0
    2.8870   -0.2107   -3.7306 H   0  0  0  0  0  0  0  0  0  0  0  0
    3.2185   -0.8615   -5.3304 H   0  0  0  0  0  0  0  0  0  0  0  0
    2.6485   -3.9672   -3.3616 H   0  0  0  0  0  0  0  0  0  0  0  0
    2.0806   -3.0443   -4.7174 H   0  0  0  0  0  0  0  0  0  0  0  0
    1.7270   -2.4981   -3.0793 H   0  0  0  0  0  0  0  0  0  0  0  0
    4.3129   -0.0412   -2.0225 H   0  0  0  0  0  0  0  0  0  0  0  0
    5.4407   -0.1587    0.0984 H   0  0  0  0  0  0  0  0  0  0  0  0
    6.9476   -4.4832    1.9798 H   0  0  0  0  0  0  0  0  0  0  0  0
    4.6362   -4.3560   -2.4744 H   0  0  0  0  0  0  0  0  0  0  0  0
    5.9708   -5.4964   -0.1059 H   0  0  0  0  0  0  0  0  0  0  0  0
  1  2  1  0
  1 13  1  0
  1 14  1  0
  1 15  1  0
  2  3  1  0
  2  4  1  0
  3 16  1  0
  3 17  1  0
  3 18  1  0
  4 12  2  0
  4  5  1  0
  5  6  2  0
  5 19  1  0
  6  7  1  0
  6 20  1  0
  7 11  2  0
  7  8  1  0
  8  9  2  0
  9 10  1  0
  9 21  1  0
 10 11  1  0
 10 23  1  0
 11 12  1  0
 12 22  1  0
M  END
>  <i_m_ct_stereo_status>  (439) 
1

>  <s_m_source_file>  (439) 
/var/tmp/pbs.5102264.sched01/tmps1u238za/138cwx3dj4e.sdf

>  <i_m_source_file_index>  (439) 
22

>  <i_lp_mmshare_version>  (439) 
48012

>  <i_f3d_flags>  (439) 
0

>  <s_epik_input>  (439) 
W0NIM11OKFtDSDNdKWMoW2NIXVtjSF0xKVtjSF1jKGMxMiluW2NIXVtuSF0y

>  <s_epik_cmdline>  (439) 
J2VwaWtfcHl0aG9uJywgJy1waHQnLCAnMi4wJywgJy1waCcsICc3LjAnLCAnLXRuJywgJzgnLCAnLW1hJywgJzIwMCcsICctaW1hZScsICc8aW5maWxlLm1hZT4nLCAnLW9tYWUnLCAnPG91dGZpbGUubWFlPic=

>  <r_epik_Ionization_Penalty>  (439) 
0.0718331

>  <r_epik_Ionization_Penalty_Charging>  (439) 
0

>  <r_epik_Ionization_Penalty_Neutral>  (439) 
0.0718331

>  <r_epik_State_Penalty>  (439) 
0.182526

>  <r_epik_Charging_Adjusted_Penalty>  (439) 
0.182526

>  <i_epik_Tot_Q>  (439) 
0

>  <i_epik_Tot_abs_Q>  (439) 
0

>  <s_lp_Force_Field>  (439) 
OPLS3e

>  <r_lp_Energy>  (439) 
30.2394

>  <b_lp_Chiralities_Consistent>  (439) 
1

>  <s_lp_Variant>  (439) 
94:0-1

>  <s_i_glide_gridfile>  (439) 
pfpi4k_grid

>  <i_i_glide_lignum>  (439) 
22

>  <i_i_glide_rotatable_bonds>  (439) 
1

>  <r_i_docking_score>  (439) 
-4.62424

>  <r_i_glide_ligand_efficiency>  (439) 
-0.385354

>  <r_i_glide_ligand_efficiency_sa>  (439) 
-0.88224

>  <r_i_glide_ligand_efficiency_ln>  (439) 
-1.32694

>  <r_i_glide_gscore>  (439) 
-4.62424

>  <r_i_glide_lipo>  (439) 
-0.533961

>  <r_i_glide_hbond>  (439) 
0

>  <r_i_glide_metal>  (439) 
-0

>  <r_i_glide_rewards>  (439) 
-2.62753

>  <r_i_glide_evdw>  (439) 
-19.465

>  <r_i_glide_ecoul>  (439) 
-3.26337

>  <r_i_glide_erotb>  (439) 
0

>  <r_i_glide_esite>  (439) 
0

>  <r_i_glide_emodel>  (439) 
-29.1964

>  <r_i_glide_energy>  (439) 
-22.7284

>  <r_i_glide_einternal>  (439) 
0.0347683

>  <r_i_glide_intrahb_reward>  (439) 
-0

>  <i_i_glide_confnum>  (439) 
3

>  <i_i_glide_posenum>  (439) 
13

>  <r_i_glide_eff_state_penalty>  (439) 
0

>  <ligand_id>  (439) 
94

>  <original_smiles>  (439) 
CN(C)c1ccc2[nH]cnc2c1

>  <smiles>  (439) 
[H]c1c(N(C([H])([H])[H])C([H])([H])[H])c([H])c2c(nc([H])n2[H])c1[H]

$$$$
94:0:1
     RDKit          3D

 23 24  0  0  1  0  0  0  0  0999 V2000
    1.7226    0.4446   -5.0855 C   0  0  0  0  0  0  0  0  0  0  0  0
    3.1062    0.1538   -4.7620 N   0  0  0  0  0  0  0  0  0  0  0  0
    3.9078    1.3339   -4.9274 C   0  0  0  0  0  0  0  0  0  0  0  0
    3.3941   -0.6817   -3.6647 C   0  0  0  0  0  0  0  0  0  0  0  0
    4.3892   -0.3348   -2.7061 C   0  0  0  0  0  0  0  0  0  0  0  0
    4.6498   -1.1183   -1.5737 C   0  0  0  0  0  0  0  0  0  0  0  0
    3.8902   -2.2750   -1.3545 C   0  0  0  0  0  0  0  0  0  0  0  0
    3.9558   -3.1978   -0.3245 N   0  0  0  0  0  0  0  0  0  0  0  0
    2.9789   -4.0344   -0.6288 C   0  0  0  0  0  0  0  0  0  0  0  0
    2.3028   -3.7421   -1.7515 N   0  0  0  0  0  0  0  0  0  0  0  0
    2.8837   -2.6194   -2.2943 C   0  0  0  0  0  0  0  0  0  0  0  0
    2.6632   -1.8700   -3.4601 C   0  0  0  0  0  0  0  0  0  0  0  0
    1.6970    1.1916   -5.8903 H   0  0  0  0  0  0  0  0  0  0  0  0
    1.2497    0.9539   -4.2397 H   0  0  0  0  0  0  0  0  0  0  0  0
    1.1406   -0.4377   -5.3394 H   0  0  0  0  0  0  0  0  0  0  0  0
    3.5622    1.8639   -5.8078 H   0  0  0  0  0  0  0  0  0  0  0  0
    4.9160    0.9807   -5.1178 H   0  0  0  0  0  0  0  0  0  0  0  0
    3.8185    2.0149   -4.0750 H   0  0  0  0  0  0  0  0  0  0  0  0
    4.9394    0.5797   -2.7358 H   0  0  0  0  0  0  0  0  0  0  0  0
    5.3919   -0.8060   -0.8485 H   0  0  0  0  0  0  0  0  0  0  0  0
    2.8313   -4.9721   -0.0990 H   0  0  0  0  0  0  0  0  0  0  0  0
    1.9166   -2.2131   -4.1566 H   0  0  0  0  0  0  0  0  0  0  0  0
    1.6580   -4.3476   -2.2220 H   0  0  0  0  0  0  0  0  0  0  0  0
  1  2  1  0
  1 13  1  0
  1 14  1  0
  1 15  1  0
  2  3  1  0
  2  4  1  0
  3 16  1  0
  3 17  1  0
  3 18  1  0
  4 12  2  0
  4  5  1  0
  5  6  2  0
  5 19  1  0
  6  7  1  0
  6 20  1  0
  7 11  2  0
  7  8  1  0
  8  9  2  0
  9 10  1  0
  9 21  1  0
 10 11  1  0
 10 23  1  0
 11 12  1  0
 12 22  1  0
M  END
>  <i_m_ct_stereo_status>  (440) 
1

>  <s_m_source_file>  (440) 
/var/tmp/pbs.5102264.sched01/tmps1u238za/138cwx3dj4e.sdf

>  <i_m_source_file_index>  (440) 
22

>  <i_lp_mmshare_version>  (440) 
48012

>  <i_f3d_flags>  (440) 
0

>  <s_epik_input>  (440) 
W0NIM11OKFtDSDNdKWMoW2NIXVtjSF0xKVtjSF1jKGMxMiluW2NIXVtuSF0y

>  <s_epik_cmdline>  (440) 
J2VwaWtfcHl0aG9uJywgJy1waHQnLCAnMi4wJywgJy1waCcsICc3LjAnLCAnLXRuJywgJzgnLCAnLW1hJywgJzIwMCcsICctaW1hZScsICc8aW5maWxlLm1hZT4nLCAnLW9tYWUnLCAnPG91dGZpbGUubWFlPic=

>  <r_epik_Ionization_Penalty>  (440) 
0.0718331

>  <r_epik_Ionization_Penalty_Charging>  (440) 
0

>  <r_epik_Ionization_Penalty_Neutral>  (440) 
0.0718331

>  <r_epik_State_Penalty>  (440) 
0.182526

>  <r_epik_Charging_Adjusted_Penalty>  (440) 
0.182526

>  <i_epik_Tot_Q>  (440) 
0

>  <i_epik_Tot_abs_Q>  (440) 
0

>  <s_lp_Force_Field>  (440) 
OPLS3e

>  <r_lp_Energy>  (440) 
30.2394

>  <b_lp_Chiralities_Consistent>  (440) 
1

>  <s_lp_Variant>  (440) 
94:0-1

>  <s_i_glide_gridfile>  (440) 
pfpi4k_grid

>  <i_i_glide_lignum>  (440) 
22

>  <i_i_glide_rotatable_bonds>  (440) 
1

>  <r_i_docking_score>  (440) 
-3.76653

>  <r_i_glide_ligand_efficiency>  (440) 
-0.313877

>  <r_i_glide_ligand_efficiency_sa>  (440) 
-0.718599

>  <r_i_glide_ligand_efficiency_ln>  (440) 
-1.08081

>  <r_i_glide_gscore>  (440) 
-3.76653

>  <r_i_glide_lipo>  (440) 
-0.509884

>  <r_i_glide_hbond>  (440) 
-0.0307811

>  <r_i_glide_metal>  (440) 
-0

>  <r_i_glide_rewards>  (440) 
-2.36619

>  <r_i_glide_evdw>  (440) 
-8.12677

>  <r_i_glide_ecoul>  (440) 
-2.807

>  <r_i_glide_erotb>  (440) 
0

>  <r_i_glide_esite>  (440) 
-0.0322847

>  <r_i_glide_emodel>  (440) 
-14.7394

>  <r_i_glide_energy>  (440) 
-10.9338

>  <r_i_glide_einternal>  (440) 
0.369979

>  <r_i_glide_intrahb_reward>  (440) 
-0

>  <i_i_glide_confnum>  (440) 
4

>  <i_i_glide_posenum>  (440) 
19

>  <r_i_glide_eff_state_penalty>  (440) 
0

>  <ligand_id>  (440) 
94

>  <original_smiles>  (440) 
CN(C)c1ccc2[nH]cnc2c1

>  <smiles>  (440) 
[H]c1c(N(C([H])([H])[H])C([H])([H])[H])c([H])c2c(nc([H])n2[H])c1[H]

$$$$
94:0:2
     RDKit          3D

 23 24  0  0  1  0  0  0  0  0999 V2000
    4.6636   -3.6011   -3.8009 C   0  0  0  0  0  0  0  0  0  0  0  0
    3.8097   -2.5258   -3.3129 N   0  0  0  0  0  0  0  0  0  0  0  0
    3.6821   -1.3440   -4.1549 C   0  0  0  0  0  0  0  0  0  0  0  0
    3.9500   -2.2848   -1.9359 C   0  0  0  0  0  0  0  0  0  0  0  0
    4.4612   -1.0537   -1.4526 C   0  0  0  0  0  0  0  0  0  0  0  0
    4.6171   -0.8167   -0.0783 C   0  0  0  0  0  0  0  0  0  0  0  0
    4.2652   -1.8097    0.8572 C   0  0  0  0  0  0  0  0  0  0  0  0
    4.3438   -1.7982    2.2368 N   0  0  0  0  0  0  0  0  0  0  0  0
    3.8753   -3.0024    2.5539 C   0  0  0  0  0  0  0  0  0  0  0  0
    3.5134   -3.7790    1.5227 N   0  0  0  0  0  0  0  0  0  0  0  0
    3.7494   -3.0430    0.3674 C   0  0  0  0  0  0  0  0  0  0  0  0
    3.5925   -3.2872   -1.0066 C   0  0  0  0  0  0  0  0  0  0  0  0
    4.6106   -4.5002   -3.1871 H   0  0  0  0  0  0  0  0  0  0  0  0
    5.7008   -3.2695   -3.7949 H   0  0  0  0  0  0  0  0  0  0  0  0
    4.3937   -3.8853   -4.8175 H   0  0  0  0  0  0  0  0  0  0  0  0
    2.9365   -0.6627   -3.7471 H   0  0  0  0  0  0  0  0  0  0  0  0
    3.3816   -1.5919   -5.1646 H   0  0  0  0  0  0  0  0  0  0  0  0
    4.6330   -0.8236   -4.2248 H   0  0  0  0  0  0  0  0  0  0  0  0
    4.7406   -0.2475   -2.1158 H   0  0  0  0  0  0  0  0  0  0  0  0
    5.0035    0.1383    0.2536 H   0  0  0  0  0  0  0  0  0  0  0  0
    3.8055   -3.3216    3.5845 H   0  0  0  0  0  0  0  0  0  0  0  0
    3.1943   -4.2330   -1.3406 H   0  0  0  0  0  0  0  0  0  0  0  0
    3.1590   -4.7206    1.5952 H   0  0  0  0  0  0  0  0  0  0  0  0
  1  2  1  0
  1 13  1  0
  1 14  1  0
  1 15  1  0
  2  3  1  0
  2  4  1  0
  3 16  1  0
  3 17  1  0
  3 18  1  0
  4 12  2  0
  4  5  1  0
  5  6  2  0
  5 19  1  0
  6  7  1  0
  6 20  1  0
  7 11  2  0
  7  8  1  0
  8  9  2  0
  9 10  1  0
  9 21  1  0
 10 11  1  0
 10 23  1  0
 11 12  1  0
 12 22  1  0
M  END
>  <i_m_ct_stereo_status>  (441) 
1

>  <s_m_source_file>  (441) 
/var/tmp/pbs.5102264.sched01/tmps1u238za/138cwx3dj4e.sdf

>  <i_m_source_file_index>  (441) 
22

>  <i_lp_mmshare_version>  (441) 
48012

>  <i_f3d_flags>  (441) 
0

>  <s_epik_input>  (441) 
W0NIM11OKFtDSDNdKWMoW2NIXVtjSF0xKVtjSF1jKGMxMiluW2NIXVtuSF0y

>  <s_epik_cmdline>  (441) 
J2VwaWtfcHl0aG9uJywgJy1waHQnLCAnMi4wJywgJy1waCcsICc3LjAnLCAnLXRuJywgJzgnLCAnLW1hJywgJzIwMCcsICctaW1hZScsICc8aW5maWxlLm1hZT4nLCAnLW9tYWUnLCAnPG91dGZpbGUubWFlPic=

>  <r_epik_Ionization_Penalty>  (441) 
0.0718331

>  <r_epik_Ionization_Penalty_Charging>  (441) 
0

>  <r_epik_Ionization_Penalty_Neutral>  (441) 
0.0718331

>  <r_epik_State_Penalty>  (441) 
0.182526

>  <r_epik_Charging_Adjusted_Penalty>  (441) 
0.182526

>  <i_epik_Tot_Q>  (441) 
0

>  <i_epik_Tot_abs_Q>  (441) 
0

>  <s_lp_Force_Field>  (441) 
OPLS3e

>  <r_lp_Energy>  (441) 
30.2394

>  <b_lp_Chiralities_Consistent>  (441) 
1

>  <s_lp_Variant>  (441) 
94:0-1

>  <s_i_glide_gridfile>  (441) 
pfpi4k_grid

>  <i_i_glide_lignum>  (441) 
22

>  <i_i_glide_rotatable_bonds>  (441) 
1

>  <r_i_docking_score>  (441) 
-3.52049

>  <r_i_glide_ligand_efficiency>  (441) 
-0.293375

>  <r_i_glide_ligand_efficiency_sa>  (441) 
-0.67166

>  <r_i_glide_ligand_efficiency_ln>  (441) 
-1.01021

>  <r_i_glide_gscore>  (441) 
-3.52049

>  <r_i_glide_lipo>  (441) 
-0.138267

>  <r_i_glide_hbond>  (441) 
0

>  <r_i_glide_metal>  (441) 
-0

>  <r_i_glide_rewards>  (441) 
-2.46851

>  <r_i_glide_evdw>  (441) 
-17.4923

>  <r_i_glide_ecoul>  (441) 
-0.260682

>  <r_i_glide_erotb>  (441) 
0

>  <r_i_glide_esite>  (441) 
0

>  <r_i_glide_emodel>  (441) 
-22.6452

>  <r_i_glide_energy>  (441) 
-17.753

>  <r_i_glide_einternal>  (441) 
0.0438203

>  <r_i_glide_intrahb_reward>  (441) 
-0

>  <i_i_glide_confnum>  (441) 
3

>  <i_i_glide_posenum>  (441) 
1

>  <r_i_glide_eff_state_penalty>  (441) 
0

>  <ligand_id>  (441) 
94

>  <original_smiles>  (441) 
CN(C)c1ccc2[nH]cnc2c1

>  <smiles>  (441) 
[H]c1c(N(C([H])([H])[H])C([H])([H])[H])c([H])c2c(nc([H])n2[H])c1[H]

$$$$
94:1:0
     RDKit          3D

 23 24  0  0  1  0  0  0  0  0999 V2000
   -7.4322   -4.0841   -5.5705 C   0  0  0  0  0  0  0  0  0  0  0  0
   -7.3297   -5.3975   -4.9531 N   0  0  0  0  0  0  0  0  0  0  0  0
   -6.5202   -5.4390   -3.7429 C   0  0  0  0  0  0  0  0  0  0  0  0
   -7.1957   -6.4796   -5.8489 C   0  0  0  0  0  0  0  0  0  0  0  0
   -6.2840   -7.5503   -5.6099 C   0  0  0  0  0  0  0  0  0  0  0  0
   -6.1495   -8.6157   -6.5157 C   0  0  0  0  0  0  0  0  0  0  0  0
   -6.9150   -8.6127   -7.6802 C   0  0  0  0  0  0  0  0  0  0  0  0
   -7.0320   -9.4607   -8.7642 N   0  0  0  0  0  0  0  0  0  0  0  0
   -7.9384   -8.9187   -9.5891 C   0  0  0  0  0  0  0  0  0  0  0  0
   -8.4774   -7.7690   -9.1857 N   0  0  0  0  0  0  0  0  0  0  0  0
   -7.8407   -7.5697   -7.9711 C   0  0  0  0  0  0  0  0  0  0  0  0
   -7.9787   -6.5208   -7.0335 C   0  0  0  0  0  0  0  0  0  0  0  0
   -6.5244  -10.3187   -8.9224 H   0  0  0  0  0  0  0  0  0  0  0  0
   -8.1813   -3.9976   -6.3567 H   0  0  0  0  0  0  0  0  0  0  0  0
   -6.4617   -3.8507   -6.0005 H   0  0  0  0  0  0  0  0  0  0  0  0
   -7.6770   -3.3362   -4.8191 H   0  0  0  0  0  0  0  0  0  0  0  0
   -6.5814   -6.3851   -3.2113 H   0  0  0  0  0  0  0  0  0  0  0  0
   -6.7940   -4.6582   -3.0365 H   0  0  0  0  0  0  0  0  0  0  0  0
   -5.4821   -5.2910   -4.0181 H   0  0  0  0  0  0  0  0  0  0  0  0
   -5.6619   -7.6075   -4.7291 H   0  0  0  0  0  0  0  0  0  0  0  0
   -5.4538   -9.4154   -6.3064 H   0  0  0  0  0  0  0  0  0  0  0  0
   -8.2178   -9.3720  -10.5310 H   0  0  0  0  0  0  0  0  0  0  0  0
   -8.7285   -5.7747   -7.2653 H   0  0  0  0  0  0  0  0  0  0  0  0
  1  2  1  0
  1 14  1  0
  1 15  1  0
  1 16  1  0
  2  3  1  0
  2  4  1  0
  3 17  1  0
  3 18  1  0
  3 19  1  0
  4 12  2  0
  4  5  1  0
  5  6  2  0
  5 20  1  0
  6  7  1  0
  6 21  1  0
  7 11  2  0
  7  8  1  0
  8 13  1  0
  8  9  1  0
  9 10  2  0
  9 22  1  0
 10 11  1  0
 11 12  1  0
 12 23  1  0
M  END
>  <i_m_ct_stereo_status>  (442) 
1

>  <s_m_source_file>  (442) 
/var/tmp/pbs.5102264.sched01/tmps1u238za/138cwx3dj4e.sdf

>  <i_m_source_file_index>  (442) 
23

>  <i_lp_mmshare_version>  (442) 
48012

>  <i_f3d_flags>  (442) 
0

>  <s_epik_input>  (442) 
W0NIM11OKFtDSDNdKWMoW2NIXVtjSF0xKVtjSF1jKGMxMiluW2NIXVtuSF0y

>  <s_epik_cmdline>  (442) 
J2VwaWtfcHl0aG9uJywgJy1waHQnLCAnMi4wJywgJy1waCcsICc3LjAnLCAnLXRuJywgJzgnLCAnLW1hJywgJzIwMCcsICctaW1hZScsICc8aW5maWxlLm1hZT4nLCAnLW9tYWUnLCAnPG91dGZpbGUubWFlPic=

>  <r_epik_Ionization_Penalty>  (442) 
0.230411

>  <r_epik_Ionization_Penalty_Charging>  (442) 
0

>  <r_epik_Ionization_Penalty_Neutral>  (442) 
0.230411

>  <r_epik_State_Penalty>  (442) 
1.00757

>  <r_epik_Charging_Adjusted_Penalty>  (442) 
1.00757

>  <i_epik_Tot_Q>  (442) 
0

>  <i_epik_Tot_abs_Q>  (442) 
0

>  <s_lp_Force_Field>  (442) 
OPLS3e

>  <r_lp_Energy>  (442) 
28.9236

>  <b_lp_Chiralities_Consistent>  (442) 
1

>  <s_lp_Variant>  (442) 
94:0-2

>  <s_i_glide_gridfile>  (442) 
pfpi4k_grid

>  <i_i_glide_lignum>  (442) 
23

>  <i_i_glide_rotatable_bonds>  (442) 
1

>  <r_i_docking_score>  (442) 
-5.5176

>  <r_i_glide_ligand_efficiency>  (442) 
-0.4598

>  <r_i_glide_ligand_efficiency_sa>  (442) 
-1.05268

>  <r_i_glide_ligand_efficiency_ln>  (442) 
-1.58329

>  <r_i_glide_gscore>  (442) 
-5.5176

>  <r_i_glide_lipo>  (442) 
-1.78146

>  <r_i_glide_hbond>  (442) 
0

>  <r_i_glide_metal>  (442) 
-0

>  <r_i_glide_rewards>  (442) 
-2.94059

>  <r_i_glide_evdw>  (442) 
-17.6814

>  <r_i_glide_ecoul>  (442) 
0.590089

>  <r_i_glide_erotb>  (442) 
0

>  <r_i_glide_esite>  (442) 
0

>  <r_i_glide_emodel>  (442) 
-24.9849

>  <r_i_glide_energy>  (442) 
-17.0913

>  <r_i_glide_einternal>  (442) 
1.35655

>  <r_i_glide_intrahb_reward>  (442) 
-0

>  <i_i_glide_confnum>  (442) 
1

>  <i_i_glide_posenum>  (442) 
18

>  <r_i_glide_eff_state_penalty>  (442) 
0

>  <ligand_id>  (442) 
94

>  <original_smiles>  (442) 
CN(C)c1ccc2[nH]cnc2c1

>  <smiles>  (442) 
[H]c1c(N(C([H])([H])[H])C([H])([H])[H])c([H])c2nc([H])n([H])c2c1[H]

$$$$
94:1:1
     RDKit          3D

 23 24  0  0  1  0  0  0  0  0999 V2000
   -7.3534   -4.9641   -4.4749 C   0  0  0  0  0  0  0  0  0  0  0  0
   -6.8298   -6.2967   -4.7730 N   0  0  0  0  0  0  0  0  0  0  0  0
   -5.4762   -6.5508   -4.3119 C   0  0  0  0  0  0  0  0  0  0  0  0
   -7.1258   -6.8373   -6.0334 C   0  0  0  0  0  0  0  0  0  0  0  0
   -6.8907   -8.2065   -6.3143 C   0  0  0  0  0  0  0  0  0  0  0  0
   -7.1350   -8.7478   -7.5868 C   0  0  0  0  0  0  0  0  0  0  0  0
   -7.6318   -7.9008   -8.5930 C   0  0  0  0  0  0  0  0  0  0  0  0
   -7.9651   -8.0508   -9.9323 N   0  0  0  0  0  0  0  0  0  0  0  0
   -8.3713   -6.8451  -10.3745 C   0  0  0  0  0  0  0  0  0  0  0  0
   -8.3614   -5.8797   -9.4620 N   0  0  0  0  0  0  0  0  0  0  0  0
   -7.9034   -6.5348   -8.3333 C   0  0  0  0  0  0  0  0  0  0  0  0
   -7.6533   -6.0056   -7.0566 C   0  0  0  0  0  0  0  0  0  0  0  0
   -7.9172   -8.8851  -10.4919 H   0  0  0  0  0  0  0  0  0  0  0  0
   -8.4125   -4.8976   -4.7281 H   0  0  0  0  0  0  0  0  0  0  0  0
   -6.8103   -4.2122   -5.0501 H   0  0  0  0  0  0  0  0  0  0  0  0
   -7.2647   -4.6958   -3.4259 H   0  0  0  0  0  0  0  0  0  0  0  0
   -5.1806   -7.5938   -4.3564 H   0  0  0  0  0  0  0  0  0  0  0  0
   -5.4174   -6.2720   -3.2621 H   0  0  0  0  0  0  0  0  0  0  0  0
   -4.7673   -5.9532   -4.8858 H   0  0  0  0  0  0  0  0  0  0  0  0
   -6.5171   -8.8591   -5.5365 H   0  0  0  0  0  0  0  0  0  0  0  0
   -6.9448   -9.7849   -7.7908 H   0  0  0  0  0  0  0  0  0  0  0  0
   -8.6962   -6.6584  -11.3971 H   0  0  0  0  0  0  0  0  0  0  0  0
   -7.8291   -4.9519   -6.9097 H   0  0  0  0  0  0  0  0  0  0  0  0
  1  2  1  0
  1 14  1  0
  1 15  1  0
  1 16  1  0
  2  3  1  0
  2  4  1  0
  3 17  1  0
  3 18  1  0
  3 19  1  0
  4 12  2  0
  4  5  1  0
  5  6  2  0
  5 20  1  0
  6  7  1  0
  6 21  1  0
  7 11  2  0
  7  8  1  0
  8 13  1  0
  8  9  1  0
  9 10  2  0
  9 22  1  0
 10 11  1  0
 11 12  1  0
 12 23  1  0
M  END
>  <i_m_ct_stereo_status>  (443) 
1

>  <s_m_source_file>  (443) 
/var/tmp/pbs.5102264.sched01/tmps1u238za/138cwx3dj4e.sdf

>  <i_m_source_file_index>  (443) 
23

>  <i_lp_mmshare_version>  (443) 
48012

>  <i_f3d_flags>  (443) 
0

>  <s_epik_input>  (443) 
W0NIM11OKFtDSDNdKWMoW2NIXVtjSF0xKVtjSF1jKGMxMiluW2NIXVtuSF0y

>  <s_epik_cmdline>  (443) 
J2VwaWtfcHl0aG9uJywgJy1waHQnLCAnMi4wJywgJy1waCcsICc3LjAnLCAnLXRuJywgJzgnLCAnLW1hJywgJzIwMCcsICctaW1hZScsICc8aW5maWxlLm1hZT4nLCAnLW9tYWUnLCAnPG91dGZpbGUubWFlPic=

>  <r_epik_Ionization_Penalty>  (443) 
0.230411

>  <r_epik_Ionization_Penalty_Charging>  (443) 
0

>  <r_epik_Ionization_Penalty_Neutral>  (443) 
0.230411

>  <r_epik_State_Penalty>  (443) 
1.00757

>  <r_epik_Charging_Adjusted_Penalty>  (443) 
1.00757

>  <i_epik_Tot_Q>  (443) 
0

>  <i_epik_Tot_abs_Q>  (443) 
0

>  <s_lp_Force_Field>  (443) 
OPLS3e

>  <r_lp_Energy>  (443) 
28.9236

>  <b_lp_Chiralities_Consistent>  (443) 
1

>  <s_lp_Variant>  (443) 
94:0-2

>  <s_i_glide_gridfile>  (443) 
pfpi4k_grid

>  <i_i_glide_lignum>  (443) 
23

>  <i_i_glide_rotatable_bonds>  (443) 
1

>  <r_i_docking_score>  (443) 
-5.51483

>  <r_i_glide_ligand_efficiency>  (443) 
-0.459569

>  <r_i_glide_ligand_efficiency_sa>  (443) 
-1.05215

>  <r_i_glide_ligand_efficiency_ln>  (443) 
-1.58249

>  <r_i_glide_gscore>  (443) 
-5.51483

>  <r_i_glide_lipo>  (443) 
-1.62557

>  <r_i_glide_hbond>  (443) 
0

>  <r_i_glide_metal>  (443) 
-0

>  <r_i_glide_rewards>  (443) 
-3.01014

>  <r_i_glide_evdw>  (443) 
-17.0175

>  <r_i_glide_ecoul>  (443) 
-0.188306

>  <r_i_glide_erotb>  (443) 
0

>  <r_i_glide_esite>  (443) 
0

>  <r_i_glide_emodel>  (443) 
-24.8617

>  <r_i_glide_energy>  (443) 
-17.2058

>  <r_i_glide_einternal>  (443) 
1.92725

>  <r_i_glide_intrahb_reward>  (443) 
-0

>  <i_i_glide_confnum>  (443) 
3

>  <i_i_glide_posenum>  (443) 
15

>  <r_i_glide_eff_state_penalty>  (443) 
0

>  <ligand_id>  (443) 
94

>  <original_smiles>  (443) 
CN(C)c1ccc2[nH]cnc2c1

>  <smiles>  (443) 
[H]c1c(N(C([H])([H])[H])C([H])([H])[H])c([H])c2nc([H])n([H])c2c1[H]

$$$$
94:1:2
     RDKit          3D

 23 24  0  0  1  0  0  0  0  0999 V2000
   -2.6448    2.4691    8.4129 C   0  0  0  0  0  0  0  0  0  0  0  0
   -1.7772    1.5171    7.7280 N   0  0  0  0  0  0  0  0  0  0  0  0
   -0.6418    1.0302    8.5040 C   0  0  0  0  0  0  0  0  0  0  0  0
   -1.4291    1.8658    6.4093 C   0  0  0  0  0  0  0  0  0  0  0  0
   -1.4946    3.2072    5.9488 C   0  0  0  0  0  0  0  0  0  0  0  0
   -1.1283    3.5325    4.6340 C   0  0  0  0  0  0  0  0  0  0  0  0
   -0.6956    2.5139    3.7815 C   0  0  0  0  0  0  0  0  0  0  0  0
   -0.2639    2.4935    2.4815 N   0  0  0  0  0  0  0  0  0  0  0  0
    0.0199    1.2084    2.1872 C   0  0  0  0  0  0  0  0  0  0  0  0
   -0.1549    0.3337    3.1760 N   0  0  0  0  0  0  0  0  0  0  0  0
   -0.6125    1.1535    4.1995 C   0  0  0  0  0  0  0  0  0  0  0  0
   -0.9833    0.8495    5.5291 C   0  0  0  0  0  0  0  0  0  0  0  0
   -0.1549    3.2716    1.8025 H   0  0  0  0  0  0  0  0  0  0  0  0
   -3.4983    2.7186    7.7809 H   0  0  0  0  0  0  0  0  0  0  0  0
   -2.0991    3.3841    8.6377 H   0  0  0  0  0  0  0  0  0  0  0  0
   -3.0188    2.0813    9.3587 H   0  0  0  0  0  0  0  0  0  0  0  0
   -0.0845    0.2462    7.9895 H   0  0  0  0  0  0  0  0  0  0  0  0
   -0.9777    0.6293    9.4592 H   0  0  0  0  0  0  0  0  0  0  0  0
    0.0459    1.8501    8.7113 H   0  0  0  0  0  0  0  0  0  0  0  0
   -1.7987    4.0218    6.5772 H   0  0  0  0  0  0  0  0  0  0  0  0
   -1.1569    4.5439    4.2834 H   0  0  0  0  0  0  0  0  0  0  0  0
    0.3725    0.9018    1.2070 H   0  0  0  0  0  0  0  0  0  0  0  0
   -0.9140   -0.1798    5.8450 H   0  0  0  0  0  0  0  0  0  0  0  0
  1  2  1  0
  1 14  1  0
  1 15  1  0
  1 16  1  0
  2  3  1  0
  2  4  1  0
  3 17  1  0
  3 18  1  0
  3 19  1  0
  4 12  2  0
  4  5  1  0
  5  6  2  0
  5 20  1  0
  6  7  1  0
  6 21  1  0
  7 11  2  0
  7  8  1  0
  8 13  1  0
  8  9  1  0
  9 10  2  0
  9 22  1  0
 10 11  1  0
 11 12  1  0
 12 23  1  0
M  END
>  <i_m_ct_stereo_status>  (444) 
1

>  <s_m_source_file>  (444) 
/var/tmp/pbs.5102264.sched01/tmps1u238za/138cwx3dj4e.sdf

>  <i_m_source_file_index>  (444) 
23

>  <i_lp_mmshare_version>  (444) 
48012

>  <i_f3d_flags>  (444) 
0

>  <s_epik_input>  (444) 
W0NIM11OKFtDSDNdKWMoW2NIXVtjSF0xKVtjSF1jKGMxMiluW2NIXVtuSF0y

>  <s_epik_cmdline>  (444) 
J2VwaWtfcHl0aG9uJywgJy1waHQnLCAnMi4wJywgJy1waCcsICc3LjAnLCAnLXRuJywgJzgnLCAnLW1hJywgJzIwMCcsICctaW1hZScsICc8aW5maWxlLm1hZT4nLCAnLW9tYWUnLCAnPG91dGZpbGUubWFlPic=

>  <r_epik_Ionization_Penalty>  (444) 
0.230411

>  <r_epik_Ionization_Penalty_Charging>  (444) 
0

>  <r_epik_Ionization_Penalty_Neutral>  (444) 
0.230411

>  <r_epik_State_Penalty>  (444) 
1.00757

>  <r_epik_Charging_Adjusted_Penalty>  (444) 
1.00757

>  <i_epik_Tot_Q>  (444) 
0

>  <i_epik_Tot_abs_Q>  (444) 
0

>  <s_lp_Force_Field>  (444) 
OPLS3e

>  <r_lp_Energy>  (444) 
28.9236

>  <b_lp_Chiralities_Consistent>  (444) 
1

>  <s_lp_Variant>  (444) 
94:0-2

>  <s_i_glide_gridfile>  (444) 
pfpi4k_grid

>  <i_i_glide_lignum>  (444) 
23

>  <i_i_glide_rotatable_bonds>  (444) 
1

>  <r_i_docking_score>  (444) 
-4.20176

>  <r_i_glide_ligand_efficiency>  (444) 
-0.350146

>  <r_i_glide_ligand_efficiency_sa>  (444) 
-0.801635

>  <r_i_glide_ligand_efficiency_ln>  (444) 
-1.2057

>  <r_i_glide_gscore>  (444) 
-4.20176

>  <r_i_glide_lipo>  (444) 
-0.0368833

>  <r_i_glide_hbond>  (444) 
-0.149689

>  <r_i_glide_metal>  (444) 
-0

>  <r_i_glide_rewards>  (444) 
-2.25

>  <r_i_glide_evdw>  (444) 
-10.5228

>  <r_i_glide_ecoul>  (444) 
-6.73439

>  <r_i_glide_erotb>  (444) 
0

>  <r_i_glide_esite>  (444) 
-0.228884

>  <r_i_glide_emodel>  (444) 
-23.8011

>  <r_i_glide_energy>  (444) 
-17.2572

>  <r_i_glide_einternal>  (444) 
0.034585

>  <r_i_glide_intrahb_reward>  (444) 
-0

>  <i_i_glide_confnum>  (444) 
3

>  <i_i_glide_posenum>  (444) 
10

>  <r_i_glide_eff_state_penalty>  (444) 
0

>  <ligand_id>  (444) 
94

>  <original_smiles>  (444) 
CN(C)c1ccc2[nH]cnc2c1

>  <smiles>  (444) 
[H]c1c(N(C([H])([H])[H])C([H])([H])[H])c([H])c2nc([H])n([H])c2c1[H]

$$$$
94:2:0
     RDKit          3D

 24 25  0  0  1  0  0  0  0  0999 V2000
    3.6173   -0.8726   -4.2397 C   0  0  0  0  0  0  0  0  0  0  0  0
    3.7072   -2.1939   -3.6294 N   0  0  0  0  0  0  0  0  0  0  0  0
    2.4901   -2.9923   -3.6992 C   0  0  0  0  0  0  0  0  0  0  0  0
    4.3636   -2.2691   -2.3802 C   0  0  0  0  0  0  0  0  0  0  0  0
    4.5847   -1.1113   -1.5862 C   0  0  0  0  0  0  0  0  0  0  0  0
    5.2147   -1.1581   -0.3274 C   0  0  0  0  0  0  0  0  0  0  0  0
    5.6124   -2.4126    0.1140 C   0  0  0  0  0  0  0  0  0  0  0  0
    6.2450   -2.8051    1.2864 N   0  0  0  0  0  0  0  0  0  0  0  0
    6.4310   -4.1557    1.2626 C   0  0  0  0  0  0  0  0  0  0  0  0
    5.9200   -4.6324    0.0894 N   0  0  0  0  0  0  0  0  0  0  0  0
    5.4092   -3.5702   -0.6542 C   0  0  0  0  0  0  0  0  0  0  0  0
    4.7988   -3.5313   -1.9023 C   0  0  0  0  0  0  0  0  0  0  0  0
    6.5235   -2.1923    2.0453 H   0  0  0  0  0  0  0  0  0  0  0  0
    4.5856   -0.3782   -4.2397 H   0  0  0  0  0  0  0  0  0  0  0  0
    2.9080   -0.2483   -3.6965 H   0  0  0  0  0  0  0  0  0  0  0  0
    3.2776   -0.9146   -5.2718 H   0  0  0  0  0  0  0  0  0  0  0  0
    2.6360   -4.0115   -3.3558 H   0  0  0  0  0  0  0  0  0  0  0  0
    2.1159   -3.0525   -4.7172 H   0  0  0  0  0  0  0  0  0  0  0  0
    1.7147   -2.5443   -3.0739 H   0  0  0  0  0  0  0  0  0  0  0  0
    4.2443   -0.1482   -1.9220 H   0  0  0  0  0  0  0  0  0  0  0  0
    5.3509   -0.2620    0.2657 H   0  0  0  0  0  0  0  0  0  0  0  0
    6.9024   -4.7424    2.0359 H   0  0  0  0  0  0  0  0  0  0  0  0
    4.6572   -4.4253   -2.4846 H   0  0  0  0  0  0  0  0  0  0  0  0
    5.9177   -5.6075   -0.1839 H   0  0  0  0  0  0  0  0  0  0  0  0
  1  2  1  0
  1 14  1  0
  1 15  1  0
  1 16  1  0
  2  3  1  0
  2  4  1  0
  3 17  1  0
  3 18  1  0
  3 19  1  0
  4 12  2  0
  4  5  1  0
  5  6  2  0
  5 20  1  0
  6  7  1  0
  6 21  1  0
  7 11  2  0
  7  8  1  0
  8 13  1  0
  8  9  1  0
  9 10  2  0
  9 22  1  0
 10 11  1  0
 10 24  1  0
 11 12  1  0
 12 23  1  0
M  CHG  1  10   1
M  END
>  <i_m_ct_stereo_status>  (445) 
1

>  <s_m_source_file>  (445) 
/var/tmp/pbs.5102264.sched01/tmpspb9n5yc/161wrz3epul.sdf

>  <i_m_source_file_index>  (445) 
1

>  <i_lp_mmshare_version>  (445) 
48012

>  <i_f3d_flags>  (445) 
0

>  <s_epik_input>  (445) 
W0NIM11OKFtDSDNdKWMoW2NIXVtjSF0xKVtjSF1jKGMxMiluW2NIXVtuSF0y

>  <s_epik_cmdline>  (445) 
J2VwaWtfcHl0aG9uJywgJy1waHQnLCAnMi4wJywgJy1waCcsICc3LjAnLCAnLXRuJywgJzgnLCAnLW1hJywgJzIwMCcsICctaW1hZScsICc8aW5maWxlLm1hZT4nLCAnLW9tYWUnLCAnPG91dGZpbGUubWFlPic=

>  <r_epik_Ionization_Penalty>  (445) 
1.95679

>  <r_epik_Ionization_Penalty_Charging>  (445) 
1.95679

>  <r_epik_Ionization_Penalty_Neutral>  (445) 
1.75314e-09

>  <r_epik_State_Penalty>  (445) 
1.47782

>  <r_epik_Charging_Adjusted_Penalty>  (445) 
3.43461

>  <i_epik_Tot_Q>  (445) 
1

>  <i_epik_Tot_abs_Q>  (445) 
1

>  <s_lp_Force_Field>  (445) 
OPLS3e

>  <r_lp_Energy>  (445) 
35.0695

>  <b_lp_Chiralities_Consistent>  (445) 
1

>  <s_lp_Variant>  (445) 
94:0-3

>  <s_i_glide_gridfile>  (445) 
pfpi4k_grid

>  <i_i_glide_lignum>  (445) 
1

>  <i_i_glide_rotatable_bonds>  (445) 
1

>  <r_i_docking_score>  (445) 
-4.70296

>  <r_i_glide_ligand_efficiency>  (445) 
-0.391913

>  <r_i_glide_ligand_efficiency_sa>  (445) 
-0.897257

>  <r_i_glide_ligand_efficiency_ln>  (445) 
-1.34952

>  <r_i_glide_gscore>  (445) 
-4.70296

>  <r_i_glide_lipo>  (445) 
-0.508914

>  <r_i_glide_hbond>  (445) 
0

>  <r_i_glide_metal>  (445) 
-0

>  <r_i_glide_rewards>  (445) 
-2.68212

>  <r_i_glide_evdw>  (445) 
-17.0827

>  <r_i_glide_ecoul>  (445) 
-4.38525

>  <r_i_glide_erotb>  (445) 
0

>  <r_i_glide_esite>  (445) 
0

>  <r_i_glide_emodel>  (445) 
-27.9109

>  <r_i_glide_energy>  (445) 
-21.468

>  <r_i_glide_einternal>  (445) 
7.4248e-05

>  <r_i_glide_intrahb_reward>  (445) 
-0

>  <i_i_glide_confnum>  (445) 
3

>  <i_i_glide_posenum>  (445) 
30

>  <r_i_glide_eff_state_penalty>  (445) 
0

>  <ligand_id>  (445) 
94

>  <original_smiles>  (445) 
CN(C)c1ccc2[nH]cnc2c1

>  <smiles>  (445) 
[H]c1c(N(C([H])([H])[H])C([H])([H])[H])c([H])c2c(c1[H])n([H])c([H])[n+]2[H]

$$$$
94:2:1
     RDKit          3D

 24 25  0  0  1  0  0  0  0  0999 V2000
    1.7197    0.4191   -5.0712 C   0  0  0  0  0  0  0  0  0  0  0  0
    3.0848    0.0727   -4.7162 N   0  0  0  0  0  0  0  0  0  0  0  0
    3.9192    1.2452   -4.8798 C   0  0  0  0  0  0  0  0  0  0  0  0
    3.3332   -0.7925   -3.6182 C   0  0  0  0  0  0  0  0  0  0  0  0
    4.2636   -0.4273   -2.6191 C   0  0  0  0  0  0  0  0  0  0  0  0
    4.4724   -1.1703   -1.4439 C   0  0  0  0  0  0  0  0  0  0  0  0
    3.6953   -2.3015   -1.2910 C   0  0  0  0  0  0  0  0  0  0  0  0
    3.6227   -3.2534   -0.2787 N   0  0  0  0  0  0  0  0  0  0  0  0
    2.6534   -4.1674   -0.5980 C   0  0  0  0  0  0  0  0  0  0  0  0
    2.1089   -3.8035   -1.7994 N   0  0  0  0  0  0  0  0  0  0  0  0
    2.7638   -2.6895   -2.2805 C   0  0  0  0  0  0  0  0  0  0  0  0
    2.6111   -2.0007   -3.4814 C   0  0  0  0  0  0  0  0  0  0  0  0
    4.2165   -3.2949    0.5334 H   0  0  0  0  0  0  0  0  0  0  0  0
    1.7722    1.1349   -5.8808 H   0  0  0  0  0  0  0  0  0  0  0  0
    1.2491    0.9489   -4.2396 H   0  0  0  0  0  0  0  0  0  0  0  0
    1.1069   -0.4681   -5.2343 H   0  0  0  0  0  0  0  0  0  0  0  0
    3.6371    1.7568   -5.8004 H   0  0  0  0  0  0  0  0  0  0  0  0
    4.9252    0.9157   -5.0902 H   0  0  0  0  0  0  0  0  0  0  0  0
    3.8571    1.9528   -4.0459 H   0  0  0  0  0  0  0  0  0  0  0  0
    4.7838    0.5134   -2.7423 H   0  0  0  0  0  0  0  0  0  0  0  0
    5.1582   -0.8494   -0.6527 H   0  0  0  0  0  0  0  0  0  0  0  0
    2.4722   -5.0946   -0.0819 H   0  0  0  0  0  0  0  0  0  0  0  0
    1.8909   -2.3494   -4.2110 H   0  0  0  0  0  0  0  0  0  0  0  0
    1.4670   -4.3611   -2.3503 H   0  0  0  0  0  0  0  0  0  0  0  0
  1  2  1  0
  1 14  1  0
  1 15  1  0
  1 16  1  0
  2  3  1  0
  2  4  1  0
  3 17  1  0
  3 18  1  0
  3 19  1  0
  4 12  2  0
  4  5  1  0
  5  6  2  0
  5 20  1  0
  6  7  1  0
  6 21  1  0
  7 11  2  0
  7  8  1  0
  8 13  1  0
  8  9  1  0
  9 10  2  0
  9 22  1  0
 10 11  1  0
 10 24  1  0
 11 12  1  0
 12 23  1  0
M  CHG  1  10   1
M  END
>  <i_m_ct_stereo_status>  (446) 
1

>  <s_m_source_file>  (446) 
/var/tmp/pbs.5102264.sched01/tmpspb9n5yc/161wrz3epul.sdf

>  <i_m_source_file_index>  (446) 
1

>  <i_lp_mmshare_version>  (446) 
48012

>  <i_f3d_flags>  (446) 
0

>  <s_epik_input>  (446) 
W0NIM11OKFtDSDNdKWMoW2NIXVtjSF0xKVtjSF1jKGMxMiluW2NIXVtuSF0y

>  <s_epik_cmdline>  (446) 
J2VwaWtfcHl0aG9uJywgJy1waHQnLCAnMi4wJywgJy1waCcsICc3LjAnLCAnLXRuJywgJzgnLCAnLW1hJywgJzIwMCcsICctaW1hZScsICc8aW5maWxlLm1hZT4nLCAnLW9tYWUnLCAnPG91dGZpbGUubWFlPic=

>  <r_epik_Ionization_Penalty>  (446) 
1.95679

>  <r_epik_Ionization_Penalty_Charging>  (446) 
1.95679

>  <r_epik_Ionization_Penalty_Neutral>  (446) 
1.75314e-09

>  <r_epik_State_Penalty>  (446) 
1.47782

>  <r_epik_Charging_Adjusted_Penalty>  (446) 
3.43461

>  <i_epik_Tot_Q>  (446) 
1

>  <i_epik_Tot_abs_Q>  (446) 
1

>  <s_lp_Force_Field>  (446) 
OPLS3e

>  <r_lp_Energy>  (446) 
35.0695

>  <b_lp_Chiralities_Consistent>  (446) 
1

>  <s_lp_Variant>  (446) 
94:0-3

>  <s_i_glide_gridfile>  (446) 
pfpi4k_grid

>  <i_i_glide_lignum>  (446) 
1

>  <i_i_glide_rotatable_bonds>  (446) 
1

>  <r_i_docking_score>  (446) 
-3.91254

>  <r_i_glide_ligand_efficiency>  (446) 
-0.326045

>  <r_i_glide_ligand_efficiency_sa>  (446) 
-0.746458

>  <r_i_glide_ligand_efficiency_ln>  (446) 
-1.12271

>  <r_i_glide_gscore>  (446) 
-3.91254

>  <r_i_glide_lipo>  (446) 
-0.559429

>  <r_i_glide_hbond>  (446) 
0

>  <r_i_glide_metal>  (446) 
-0

>  <r_i_glide_rewards>  (446) 
-2.40831

>  <r_i_glide_evdw>  (446) 
-7.93452

>  <r_i_glide_ecoul>  (446) 
-3.29818

>  <r_i_glide_erotb>  (446) 
0

>  <r_i_glide_esite>  (446) 
-0.0533502

>  <r_i_glide_emodel>  (446) 
-15.3335

>  <r_i_glide_energy>  (446) 
-11.2327

>  <r_i_glide_einternal>  (446) 
0.194482

>  <r_i_glide_intrahb_reward>  (446) 
-0

>  <i_i_glide_confnum>  (446) 
2

>  <i_i_glide_posenum>  (446) 
17

>  <r_i_glide_eff_state_penalty>  (446) 
0

>  <ligand_id>  (446) 
94

>  <original_smiles>  (446) 
CN(C)c1ccc2[nH]cnc2c1

>  <smiles>  (446) 
[H]c1c(N(C([H])([H])[H])C([H])([H])[H])c([H])c2c(c1[H])n([H])c([H])[n+]2[H]

$$$$
94:2:2
     RDKit          3D

 24 25  0  0  1  0  0  0  0  0999 V2000
    4.0973   -1.6888   -4.6277 C   0  0  0  0  0  0  0  0  0  0  0  0
    3.3555   -1.3949   -3.4311 N   0  0  0  0  0  0  0  0  0  0  0  0
    2.7653   -0.0737   -3.4111 C   0  0  0  0  0  0  0  0  0  0  0  0
    3.9849   -1.8238   -2.2535 C   0  0  0  0  0  0  0  0  0  0  0  0
    4.6651   -0.9107   -1.4283 C   0  0  0  0  0  0  0  0  0  0  0  0
    5.3327   -1.2993   -0.2409 C   0  0  0  0  0  0  0  0  0  0  0  0
    5.2629   -2.6516    0.0735 C   0  0  0  0  0  0  0  0  0  0  0  0
    5.7863   -3.3629    1.1519 N   0  0  0  0  0  0  0  0  0  0  0  0
    5.4439   -4.6762    1.0245 C   0  0  0  0  0  0  0  0  0  0  0  0
    4.7072   -4.8115   -0.1218 N   0  0  0  0  0  0  0  0  0  0  0  0
    4.5765   -3.5734   -0.7371 C   0  0  0  0  0  0  0  0  0  0  0  0
    3.9273   -3.1839   -1.9085 C   0  0  0  0  0  0  0  0  0  0  0  0
    6.3283   -2.9767    1.9167 H   0  0  0  0  0  0  0  0  0  0  0  0
    4.3890   -2.7397   -4.6592 H   0  0  0  0  0  0  0  0  0  0  0  0
    4.9825   -1.0574   -4.6767 H   0  0  0  0  0  0  0  0  0  0  0  0
    3.4672   -1.4394   -5.4792 H   0  0  0  0  0  0  0  0  0  0  0  0
    2.1576   -0.0006   -2.5156 H   0  0  0  0  0  0  0  0  0  0  0  0
    2.1486    0.1298   -4.2846 H   0  0  0  0  0  0  0  0  0  0  0  0
    3.5339    0.6931   -3.3949 H   0  0  0  0  0  0  0  0  0  0  0  0
    4.6523    0.1257   -1.7228 H   0  0  0  0  0  0  0  0  0  0  0  0
    5.8383   -0.5716    0.3854 H   0  0  0  0  0  0  0  0  0  0  0  0
    5.7149   -5.4700    1.7173 H   0  0  0  0  0  0  0  0  0  0  0  0
    3.3667   -3.8415   -2.5413 H   0  0  0  0  0  0  0  0  0  0  0  0
    4.3233   -5.6827   -0.4684 H   0  0  0  0  0  0  0  0  0  0  0  0
  1  2  1  0
  1 14  1  0
  1 15  1  0
  1 16  1  0
  2  3  1  0
  2  4  1  0
  3 17  1  0
  3 18  1  0
  3 19  1  0
  4 12  2  0
  4  5  1  0
  5  6  2  0
  5 20  1  0
  6  7  1  0
  6 21  1  0
  7 11  2  0
  7  8  1  0
  8 13  1  0
  8  9  1  0
  9 10  2  0
  9 22  1  0
 10 11  1  0
 10 24  1  0
 11 12  1  0
 12 23  1  0
M  CHG  1  10   1
M  END
>  <i_m_ct_stereo_status>  (447) 
1

>  <s_m_source_file>  (447) 
/var/tmp/pbs.5102264.sched01/tmpspb9n5yc/161wrz3epul.sdf

>  <i_m_source_file_index>  (447) 
1

>  <i_lp_mmshare_version>  (447) 
48012

>  <i_f3d_flags>  (447) 
0

>  <s_epik_input>  (447) 
W0NIM11OKFtDSDNdKWMoW2NIXVtjSF0xKVtjSF1jKGMxMiluW2NIXVtuSF0y

>  <s_epik_cmdline>  (447) 
J2VwaWtfcHl0aG9uJywgJy1waHQnLCAnMi4wJywgJy1waCcsICc3LjAnLCAnLXRuJywgJzgnLCAnLW1hJywgJzIwMCcsICctaW1hZScsICc8aW5maWxlLm1hZT4nLCAnLW9tYWUnLCAnPG91dGZpbGUubWFlPic=

>  <r_epik_Ionization_Penalty>  (447) 
1.95679

>  <r_epik_Ionization_Penalty_Charging>  (447) 
1.95679

>  <r_epik_Ionization_Penalty_Neutral>  (447) 
1.75314e-09

>  <r_epik_State_Penalty>  (447) 
1.47782

>  <r_epik_Charging_Adjusted_Penalty>  (447) 
3.43461

>  <i_epik_Tot_Q>  (447) 
1

>  <i_epik_Tot_abs_Q>  (447) 
1

>  <s_lp_Force_Field>  (447) 
OPLS3e

>  <r_lp_Energy>  (447) 
35.0695

>  <b_lp_Chiralities_Consistent>  (447) 
1

>  <s_lp_Variant>  (447) 
94:0-3

>  <s_i_glide_gridfile>  (447) 
pfpi4k_grid

>  <i_i_glide_lignum>  (447) 
1

>  <i_i_glide_rotatable_bonds>  (447) 
1

>  <r_i_docking_score>  (447) 
-3.40523

>  <r_i_glide_ligand_efficiency>  (447) 
-0.283769

>  <r_i_glide_ligand_efficiency_sa>  (447) 
-0.649669

>  <r_i_glide_ligand_efficiency_ln>  (447) 
-0.977137

>  <r_i_glide_gscore>  (447) 
-3.40523

>  <r_i_glide_lipo>  (447) 
-0.0814369

>  <r_i_glide_hbond>  (447) 
0

>  <r_i_glide_metal>  (447) 
-0

>  <r_i_glide_rewards>  (447) 
-2.54712

>  <r_i_glide_evdw>  (447) 
-8.93489

>  <r_i_glide_ecoul>  (447) 
-2.19142

>  <r_i_glide_erotb>  (447) 
0

>  <r_i_glide_esite>  (447) 
-0.00121951

>  <r_i_glide_emodel>  (447) 
-15.4692

>  <r_i_glide_energy>  (447) 
-11.1263

>  <r_i_glide_einternal>  (447) 
0.420758

>  <r_i_glide_intrahb_reward>  (447) 
-0

>  <i_i_glide_confnum>  (447) 
3

>  <i_i_glide_posenum>  (447) 
1

>  <r_i_glide_eff_state_penalty>  (447) 
0

>  <ligand_id>  (447) 
94

>  <original_smiles>  (447) 
CN(C)c1ccc2[nH]cnc2c1

>  <smiles>  (447) 
[H]c1c(N(C([H])([H])[H])C([H])([H])[H])c([H])c2c(c1[H])n([H])c([H])[n+]2[H]

$$$$
95:0:0
     RDKit          3D

 30 31  0  0  1  0  0  0  0  0999 V2000
    3.2713   -0.9033   -3.2096 C   0  0  0  0  0  0  0  0  0  0  0  0
    3.5425   -1.8463   -2.2915 C   0  0  0  0  0  0  0  0  0  0  0  0
    3.7435   -1.5481   -0.8028 C   0  0  0  0  0  0  0  0  0  0  0  0
    4.9339   -2.3488   -0.2166 C   0  0  2  0  0  0  0  0  0  0  0  0
    6.2084   -2.0746   -1.0209 C   0  0  0  0  0  0  0  0  0  0  0  0
    6.1968   -3.1260   -2.1497 C   0  0  0  0  0  0  0  0  0  0  0  0
    4.9063   -3.9441   -1.9127 C   0  0  2  0  0  0  0  0  0  0  0  0
    3.6952   -3.3144   -2.6434 C   0  0  0  0  0  0  0  0  0  0  0  0
    4.7325   -3.7743   -0.4668 N   0  0  0  0  0  0  0  0  0  0  0  0
    3.7052   -4.7536    0.5289 S   0  0  0  0  0  0  0  0  0  0  0  0
    4.0687   -4.4994    1.9326 O   0  0  0  0  0  0  0  0  0  0  0  0
    2.3056   -4.6525    0.0844 O   0  0  0  0  0  0  0  0  0  0  0  0
    4.2762   -6.3149    0.0971 N   0  0  0  0  0  0  0  0  0  0  0  0
    3.8379   -7.4525    0.9189 C   0  0  0  0  0  0  0  0  0  0  0  0
    3.1170   -1.1601   -4.2478 H   0  0  0  0  0  0  0  0  0  0  0  0
    3.1502    0.1345   -2.9351 H   0  0  0  0  0  0  0  0  0  0  0  0
    3.9020   -0.4794   -0.6679 H   0  0  0  0  0  0  0  0  0  0  0  0
    2.8320   -1.8111   -0.2698 H   0  0  0  0  0  0  0  0  0  0  0  0
    5.0712   -2.1486    0.8480 H   0  0  0  0  0  0  0  0  0  0  0  0
    6.1987   -1.0537   -1.3968 H   0  0  0  0  0  0  0  0  0  0  0  0
    7.0856   -2.2175   -0.3874 H   0  0  0  0  0  0  0  0  0  0  0  0
    6.2363   -2.6800   -3.1396 H   0  0  0  0  0  0  0  0  0  0  0  0
    7.0751   -3.7617   -2.0495 H   0  0  0  0  0  0  0  0  0  0  0  0
    5.0171   -4.9951   -2.1736 H   0  0  0  0  0  0  0  0  0  0  0  0
    2.7769   -3.8241   -2.3558 H   0  0  0  0  0  0  0  0  0  0  0  0
    3.8021   -3.4183   -3.7220 H   0  0  0  0  0  0  0  0  0  0  0  0
    4.0823   -6.4737   -0.8934 H   0  0  0  0  0  0  0  0  0  0  0  0
    4.2616   -8.3899    0.5500 H   0  0  0  0  0  0  0  0  0  0  0  0
    2.7495   -7.5266    0.9040 H   0  0  0  0  0  0  0  0  0  0  0  0
    4.1484   -7.3132    1.9557 H   0  0  0  0  0  0  0  0  0  0  0  0
  1  2  2  0
  1 15  1  0
  1 16  1  0
  2  8  1  0
  2  3  1  0
  3  4  1  0
  3 17  1  0
  3 18  1  0
  4  9  1  0
  4  5  1  0
  4 19  1  1
  5  6  1  0
  5 20  1  0
  5 21  1  0
  6  7  1  0
  6 22  1  0
  6 23  1  0
  7  8  1  0
  7  9  1  0
  7 24  1  1
  8 25  1  0
  8 26  1  0
  9 10  1  0
 10 11  2  0
 10 12  2  0
 10 13  1  0
 13 14  1  0
 13 27  1  0
 14 28  1  0
 14 29  1  0
 14 30  1  0
M  END
>  <i_m_ct_stereo_status>  (448) 
1

>  <s_m_source_file>  (448) 
/var/tmp/pbs.5102264.sched01/tmpspb9n5yc/161wrz3epul.sdf

>  <i_m_source_file_index>  (448) 
2

>  <i_lp_mmshare_version>  (448) 
48012

>  <i_f3d_flags>  (448) 
0

>  <s_epik_input>  (448) 
W0NIXTEyW0NIMl1DKD1bQ0gyXSlbQ0gyXVtDQEBIXShbQ0gyXVtDSDJdMSlOMlMoPU8pKD1PKVtOSF1bQ0gzXQ==

>  <s_epik_cmdline>  (448) 
J2VwaWtfcHl0aG9uJywgJy1waHQnLCAnMi4wJywgJy1waCcsICc3LjAnLCAnLXRuJywgJzgnLCAnLW1hJywgJzIwMCcsICctaW1hZScsICc8aW5maWxlLm1hZT4nLCAnLW9tYWUnLCAnPG91dGZpbGUubWFlPic=

>  <r_epik_Ionization_Penalty>  (448) 
0.0031582

>  <r_epik_Ionization_Penalty_Charging>  (448) 
0

>  <r_epik_Ionization_Penalty_Neutral>  (448) 
0.0031582

>  <r_epik_State_Penalty>  (448) 
0.00222519

>  <r_epik_Charging_Adjusted_Penalty>  (448) 
0.00222519

>  <i_epik_Tot_Q>  (448) 
0

>  <i_epik_Tot_abs_Q>  (448) 
0

>  <s_lp_Force_Field>  (448) 
OPLS3e

>  <r_lp_Energy>  (448) 
19.5123

>  <b_lp_Chiralities_Consistent>  (448) 
1

>  <s_lp_Variant>  (448) 
95:0-1

>  <s_i_glide_gridfile>  (448) 
pfpi4k_grid

>  <i_i_glide_lignum>  (448) 
2

>  <i_i_glide_rotatable_bonds>  (448) 
2

>  <r_i_docking_score>  (448) 
-3.58762

>  <r_i_glide_ligand_efficiency>  (448) 
-0.256258

>  <r_i_glide_ligand_efficiency_sa>  (448) 
-0.617619

>  <r_i_glide_ligand_efficiency_ln>  (448) 
-0.985864

>  <r_i_glide_gscore>  (448) 
-3.58762

>  <r_i_glide_lipo>  (448) 
-0.32549

>  <r_i_glide_hbond>  (448) 
-0.31127

>  <r_i_glide_metal>  (448) 
-0

>  <r_i_glide_rewards>  (448) 
-1.97843

>  <r_i_glide_evdw>  (448) 
-18.2987

>  <r_i_glide_ecoul>  (448) 
-2.3651

>  <r_i_glide_erotb>  (448) 
0.358101

>  <r_i_glide_esite>  (448) 
-0.0608322

>  <r_i_glide_emodel>  (448) 
-24.1272

>  <r_i_glide_energy>  (448) 
-20.6638

>  <r_i_glide_einternal>  (448) 
1.76055

>  <r_i_glide_intrahb_reward>  (448) 
-0

>  <i_i_glide_confnum>  (448) 
6

>  <i_i_glide_posenum>  (448) 
11

>  <r_i_glide_eff_state_penalty>  (448) 
0

>  <ligand_id>  (448) 
95

>  <original_smiles>  (448) 
C=C1CC2CCC(C1)N2S(=O)(=O)NC

>  <smiles>  (448) 
[H]C([H])=C1C([H])([H])C2([H])N(S(=O)(=O)N([H])C([H])([H])[H])C([H])(C1([H])[H])C([H])([H])C2([H])[H]

$$$$
95:0:1
     RDKit          3D

 30 31  0  0  1  0  0  0  0  0999 V2000
    4.7001   -2.5869    1.6395 C   0  0  0  0  0  0  0  0  0  0  0  0
    4.5372   -2.3552    0.3243 C   0  0  0  0  0  0  0  0  0  0  0  0
    4.0299   -3.4088   -0.6568 C   0  0  0  0  0  0  0  0  0  0  0  0
    4.8423   -3.3833   -1.9786 C   0  0  2  0  0  0  0  0  0  0  0  0
    6.3371   -3.5149   -1.6990 C   0  0  0  0  0  0  0  0  0  0  0  0
    6.8539   -2.0981   -1.4805 C   0  0  0  0  0  0  0  0  0  0  0  0
    5.6021   -1.2143   -1.6771 C   0  0  2  0  0  0  0  0  0  0  0  0
    4.8611   -1.0189   -0.3281 C   0  0  0  0  0  0  0  0  0  0  0  0
    4.8076   -2.0468   -2.5671 N   0  0  0  0  0  0  0  0  0  0  0  0
    3.4747   -1.5046   -3.5065 S   0  0  0  0  0  0  0  0  0  0  0  0
    2.9721   -2.6470   -4.2823 O   0  0  0  0  0  0  0  0  0  0  0  0
    2.6165   -0.6805   -2.6809 O   0  0  0  0  0  0  0  0  0  0  0  0
    4.2037   -0.4160   -4.5796 N   0  0  0  0  0  0  0  0  0  0  0  0
    3.4014    0.2211   -5.6165 C   0  0  0  0  0  0  0  0  0  0  0  0
    5.0572   -1.8107    2.3000 H   0  0  0  0  0  0  0  0  0  0  0  0
    4.4636   -3.5433    2.0795 H   0  0  0  0  0  0  0  0  0  0  0  0
    4.1047   -4.3894   -0.1881 H   0  0  0  0  0  0  0  0  0  0  0  0
    2.9800   -3.2176   -0.8606 H   0  0  0  0  0  0  0  0  0  0  0  0
    4.4945   -4.1347   -2.6860 H   0  0  0  0  0  0  0  0  0  0  0  0
    6.5755   -4.2007   -0.8836 H   0  0  0  0  0  0  0  0  0  0  0  0
    6.8089   -3.8491   -2.6226 H   0  0  0  0  0  0  0  0  0  0  0  0
    7.3507   -1.9759   -0.5208 H   0  0  0  0  0  0  0  0  0  0  0  0
    7.5958   -1.9820   -2.2691 H   0  0  0  0  0  0  0  0  0  0  0  0
    5.8000   -0.2542   -2.1514 H   0  0  0  0  0  0  0  0  0  0  0  0
    3.9236   -0.4951   -0.4738 H   0  0  0  0  0  0  0  0  0  0  0  0
    5.4575   -0.4219    0.3554 H   0  0  0  0  0  0  0  0  0  0  0  0
    4.6553    0.3240   -4.0151 H   0  0  0  0  0  0  0  0  0  0  0  0
    4.0099    0.8948   -6.2112 H   0  0  0  0  0  0  0  0  0  0  0  0
    2.5554    0.7859   -5.2115 H   0  0  0  0  0  0  0  0  0  0  0  0
    3.0313   -0.5405   -6.2808 H   0  0  0  0  0  0  0  0  0  0  0  0
  1  2  2  0
  1 15  1  0
  1 16  1  0
  2  8  1  0
  2  3  1  0
  3  4  1  0
  3 17  1  0
  3 18  1  0
  4  9  1  0
  4  5  1  0
  4 19  1  6
  5  6  1  0
  5 20  1  0
  5 21  1  0
  6  7  1  0
  6 22  1  0
  6 23  1  0
  7  8  1  0
  7  9  1  0
  7 24  1  6
  8 25  1  0
  8 26  1  0
  9 10  1  0
 10 11  2  0
 10 12  2  0
 10 13  1  0
 13 14  1  0
 13 27  1  0
 14 28  1  0
 14 29  1  0
 14 30  1  0
M  END
>  <i_m_ct_stereo_status>  (449) 
1

>  <s_m_source_file>  (449) 
/var/tmp/pbs.5102264.sched01/tmpspb9n5yc/161wrz3epul.sdf

>  <i_m_source_file_index>  (449) 
2

>  <i_lp_mmshare_version>  (449) 
48012

>  <i_f3d_flags>  (449) 
0

>  <s_epik_input>  (449) 
W0NIXTEyW0NIMl1DKD1bQ0gyXSlbQ0gyXVtDQEBIXShbQ0gyXVtDSDJdMSlOMlMoPU8pKD1PKVtOSF1bQ0gzXQ==

>  <s_epik_cmdline>  (449) 
J2VwaWtfcHl0aG9uJywgJy1waHQnLCAnMi4wJywgJy1waCcsICc3LjAnLCAnLXRuJywgJzgnLCAnLW1hJywgJzIwMCcsICctaW1hZScsICc8aW5maWxlLm1hZT4nLCAnLW9tYWUnLCAnPG91dGZpbGUubWFlPic=

>  <r_epik_Ionization_Penalty>  (449) 
0.0031582

>  <r_epik_Ionization_Penalty_Charging>  (449) 
0

>  <r_epik_Ionization_Penalty_Neutral>  (449) 
0.0031582

>  <r_epik_State_Penalty>  (449) 
0.00222519

>  <r_epik_Charging_Adjusted_Penalty>  (449) 
0.00222519

>  <i_epik_Tot_Q>  (449) 
0

>  <i_epik_Tot_abs_Q>  (449) 
0

>  <s_lp_Force_Field>  (449) 
OPLS3e

>  <r_lp_Energy>  (449) 
19.5123

>  <b_lp_Chiralities_Consistent>  (449) 
1

>  <s_lp_Variant>  (449) 
95:0-1

>  <s_i_glide_gridfile>  (449) 
pfpi4k_grid

>  <i_i_glide_lignum>  (449) 
2

>  <i_i_glide_rotatable_bonds>  (449) 
2

>  <r_i_docking_score>  (449) 
-3.17299

>  <r_i_glide_ligand_efficiency>  (449) 
-0.226642

>  <r_i_glide_ligand_efficiency_sa>  (449) 
-0.54624

>  <r_i_glide_ligand_efficiency_ln>  (449) 
-0.871927

>  <r_i_glide_gscore>  (449) 
-3.17299

>  <r_i_glide_lipo>  (449) 
-0.418865

>  <r_i_glide_hbond>  (449) 
0

>  <r_i_glide_metal>  (449) 
-0

>  <r_i_glide_rewards>  (449) 
-2.27901

>  <r_i_glide_evdw>  (449) 
-16.6779

>  <r_i_glide_ecoul>  (449) 
0.386997

>  <r_i_glide_erotb>  (449) 
0.358101

>  <r_i_glide_esite>  (449) 
-0.0573692

>  <r_i_glide_emodel>  (449) 
-18.5425

>  <r_i_glide_energy>  (449) 
-16.2909

>  <r_i_glide_einternal>  (449) 
1.95729

>  <r_i_glide_intrahb_reward>  (449) 
-0

>  <i_i_glide_confnum>  (449) 
3

>  <i_i_glide_posenum>  (449) 
33

>  <r_i_glide_eff_state_penalty>  (449) 
0

>  <ligand_id>  (449) 
95

>  <original_smiles>  (449) 
C=C1CC2CCC(C1)N2S(=O)(=O)NC

>  <smiles>  (449) 
[H]C([H])=C1C([H])([H])C2([H])N(S(=O)(=O)N([H])C([H])([H])[H])C([H])(C1([H])[H])C([H])([H])C2([H])[H]

$$$$
95:0:2
     RDKit          3D

 30 31  0  0  1  0  0  0  0  0999 V2000
    3.7716   -0.0147   -3.8055 C   0  0  0  0  0  0  0  0  0  0  0  0
    3.7101   -1.0450   -2.9544 C   0  0  0  0  0  0  0  0  0  0  0  0
    4.6715   -1.2631   -1.7881 C   0  0  0  0  0  0  0  0  0  0  0  0
    5.0646   -2.7623   -1.6311 C   0  0  2  0  0  0  0  0  0  0  0  0
    5.6282   -3.3466   -2.9446 C   0  0  0  0  0  0  0  0  0  0  0  0
    4.4038   -3.8206   -3.7456 C   0  0  0  0  0  0  0  0  0  0  0  0
    3.2139   -3.5132   -2.8245 C   0  0  2  0  0  0  0  0  0  0  0  0
    2.6399   -2.1144   -3.0774 C   0  0  0  0  0  0  0  0  0  0  0  0
    3.8490   -3.5498   -1.4977 N   0  0  0  0  0  0  0  0  0  0  0  0
    2.9539   -3.7677   -0.0342 S   0  0  0  0  0  0  0  0  0  0  0  0
    2.7306   -2.4749    0.6260 O   0  0  0  0  0  0  0  0  0  0  0  0
    1.8393   -4.6832   -0.3148 O   0  0  0  0  0  0  0  0  0  0  0  0
    4.0735   -4.6419    0.9255 N   0  0  0  0  0  0  0  0  0  0  0  0
    3.6189   -5.0678    2.2574 C   0  0  0  0  0  0  0  0  0  0  0  0
    3.0621    0.0758   -4.6211 H   0  0  0  0  0  0  0  0  0  0  0  0
    4.4825    0.7830   -3.6663 H   0  0  0  0  0  0  0  0  0  0  0  0
    5.5577   -0.6472   -1.9353 H   0  0  0  0  0  0  0  0  0  0  0  0
    4.1850   -0.9092   -0.8801 H   0  0  0  0  0  0  0  0  0  0  0  0
    5.7301   -2.9326   -0.7862 H   0  0  0  0  0  0  0  0  0  0  0  0
    6.2475   -2.6614   -3.5141 H   0  0  0  0  0  0  0  0  0  0  0  0
    6.2422   -4.2094   -2.7094 H   0  0  0  0  0  0  0  0  0  0  0  0
    4.3133   -3.3294   -4.7139 H   0  0  0  0  0  0  0  0  0  0  0  0
    4.4940   -4.8882   -3.9271 H   0  0  0  0  0  0  0  0  0  0  0  0
    2.3946   -4.2318   -2.9221 H   0  0  0  0  0  0  0  0  0  0  0  0
    1.8755   -1.9255   -2.3286 H   0  0  0  0  0  0  0  0  0  0  0  0
    2.1620   -2.0634   -4.0593 H   0  0  0  0  0  0  0  0  0  0  0  0
    4.4846   -5.4069    0.3934 H   0  0  0  0  0  0  0  0  0  0  0  0
    4.4175   -5.5699    2.8083 H   0  0  0  0  0  0  0  0  0  0  0  0
    2.7713   -5.7538    2.1697 H   0  0  0  0  0  0  0  0  0  0  0  0
    3.2843   -4.2039    2.8409 H   0  0  0  0  0  0  0  0  0  0  0  0
  1  2  2  0
  1 15  1  0
  1 16  1  0
  2  8  1  0
  2  3  1  0
  3  4  1  0
  3 17  1  0
  3 18  1  0
  4  9  1  0
  4  5  1  0
  4 19  1  1
  5  6  1  0
  5 20  1  0
  5 21  1  0
  6  7  1  0
  6 22  1  0
  6 23  1  0
  7  8  1  0
  7  9  1  0
  7 24  1  1
  8 25  1  0
  8 26  1  0
  9 10  1  0
 10 11  2  0
 10 12  2  0
 10 13  1  0
 13 14  1  0
 13 27  1  0
 14 28  1  0
 14 29  1  0
 14 30  1  0
M  END
>  <i_m_ct_stereo_status>  (450) 
1

>  <s_m_source_file>  (450) 
/var/tmp/pbs.5102264.sched01/tmpspb9n5yc/161wrz3epul.sdf

>  <i_m_source_file_index>  (450) 
2

>  <i_lp_mmshare_version>  (450) 
48012

>  <i_f3d_flags>  (450) 
0

>  <s_epik_input>  (450) 
W0NIXTEyW0NIMl1DKD1bQ0gyXSlbQ0gyXVtDQEBIXShbQ0gyXVtDSDJdMSlOMlMoPU8pKD1PKVtOSF1bQ0gzXQ==

>  <s_epik_cmdline>  (450) 
J2VwaWtfcHl0aG9uJywgJy1waHQnLCAnMi4wJywgJy1waCcsICc3LjAnLCAnLXRuJywgJzgnLCAnLW1hJywgJzIwMCcsICctaW1hZScsICc8aW5maWxlLm1hZT4nLCAnLW9tYWUnLCAnPG91dGZpbGUubWFlPic=

>  <r_epik_Ionization_Penalty>  (450) 
0.0031582

>  <r_epik_Ionization_Penalty_Charging>  (450) 
0

>  <r_epik_Ionization_Penalty_Neutral>  (450) 
0.0031582

>  <r_epik_State_Penalty>  (450) 
0.00222519

>  <r_epik_Charging_Adjusted_Penalty>  (450) 
0.00222519

>  <i_epik_Tot_Q>  (450) 
0

>  <i_epik_Tot_abs_Q>  (450) 
0

>  <s_lp_Force_Field>  (450) 
OPLS3e

>  <r_lp_Energy>  (450) 
19.5123

>  <b_lp_Chiralities_Consistent>  (450) 
1

>  <s_lp_Variant>  (450) 
95:0-1

>  <s_i_glide_gridfile>  (450) 
pfpi4k_grid

>  <i_i_glide_lignum>  (450) 
2

>  <i_i_glide_rotatable_bonds>  (450) 
2

>  <r_i_docking_score>  (450) 
-2.79404

>  <r_i_glide_ligand_efficiency>  (450) 
-0.199574

>  <r_i_glide_ligand_efficiency_sa>  (450) 
-0.481002

>  <r_i_glide_ligand_efficiency_ln>  (450) 
-0.767792

>  <r_i_glide_gscore>  (450) 
-2.79404

>  <r_i_glide_lipo>  (450) 
-0.359101

>  <r_i_glide_hbond>  (450) 
0

>  <r_i_glide_metal>  (450) 
-0

>  <r_i_glide_rewards>  (450) 
-1.93431

>  <r_i_glide_evdw>  (450) 
-15.0412

>  <r_i_glide_ecoul>  (450) 
0.392419

>  <r_i_glide_erotb>  (450) 
0.358101

>  <r_i_glide_esite>  (450) 
-0.165534

>  <r_i_glide_emodel>  (450) 
-16.9355

>  <r_i_glide_energy>  (450) 
-14.6488

>  <r_i_glide_einternal>  (450) 
1.75775

>  <r_i_glide_intrahb_reward>  (450) 
-0

>  <i_i_glide_confnum>  (450) 
3

>  <i_i_glide_posenum>  (450) 
31

>  <r_i_glide_eff_state_penalty>  (450) 
0

>  <ligand_id>  (450) 
95

>  <original_smiles>  (450) 
C=C1CC2CCC(C1)N2S(=O)(=O)NC

>  <smiles>  (450) 
[H]C([H])=C1C([H])([H])C2([H])N(S(=O)(=O)N([H])C([H])([H])[H])C([H])(C1([H])[H])C([H])([H])C2([H])[H]

$$$$
96:0:0
     RDKit          3D

 54 56  0  0  1  0  0  0  0  0999 V2000
    1.3283   -0.1984    8.0590 C   0  0  0  0  0  0  0  0  0  0  0  0
    1.0606   -0.3256    6.7421 C   0  0  0  0  0  0  0  0  0  0  0  0
    0.3511   -1.5310    6.1470 C   0  0  1  0  0  0  0  0  0  0  0  0
   -0.1932   -2.3530    7.1578 O   0  0  0  0  0  0  0  0  0  0  0  0
   -0.7656   -1.1056    5.1591 C   0  0  1  0  0  0  0  0  0  0  0  0
   -1.7209   -0.0932    5.8008 C   0  0  0  0  0  0  0  0  0  0  0  0
   -1.1666    1.3117    5.4677 C   0  0  1  0  0  0  0  0  0  0  0  0
   -1.1731    2.2978    6.6622 C   0  0  0  0  0  0  0  0  0  0  0  0
   -2.5541    2.5454    7.2506 C   0  0  0  0  0  0  0  0  0  0  0  0
   -2.8429    2.9467    8.5019 C   0  0  0  0  0  0  0  0  0  0  0  0
   -1.8203    3.2499    9.5842 C   0  0  0  0  0  0  0  0  0  0  0  0
   -4.2739    3.1786    8.9398 C   0  0  0  0  0  0  0  0  0  0  0  0
    0.1989    1.0522    4.7497 C   0  0  2  0  0  0  0  0  0  0  0  0
    1.3451    0.8221    5.7836 C   0  0  2  0  0  0  0  0  0  0  0  0
    2.7264    0.6987    5.1236 C   0  0  0  0  0  0  0  0  0  0  0  0
    3.0318    1.9706    4.3124 C   0  0  0  0  0  0  0  0  0  0  0  0
    1.9842    2.2515    3.2146 C   0  0  1  0  0  0  0  0  0  0  0  0
    2.3786    3.5849    2.5579 C   0  0  0  0  0  0  0  0  0  0  0  0
    2.0976    1.2449    2.2385 O   0  0  0  0  0  0  0  0  0  0  0  0
    0.5651    2.2523    3.8312 C   0  0  1  0  0  0  0  0  0  0  0  0
   -0.4243    2.3755    2.8286 O   0  0  0  0  0  0  0  0  0  0  0  0
   -1.0132    3.6912    2.8944 O   0  0  0  0  0  0  0  0  0  0  0  0
   -0.1925   -0.2647    4.0127 C   0  0  1  0  0  0  0  0  0  0  0  0
    0.7985   -0.9851    3.3114 O   0  0  0  0  0  0  0  0  0  0  0  0
    1.7862    0.6998    8.4415 H   0  0  0  0  0  0  0  0  0  0  0  0
    1.0922   -0.9686    8.7733 H   0  0  0  0  0  0  0  0  0  0  0  0
    1.0962   -2.1100    5.6055 H   0  0  0  0  0  0  0  0  0  0  0  0
    0.5348   -2.7207    7.6438 H   0  0  0  0  0  0  0  0  0  0  0  0
   -1.2976   -1.9850    4.7847 H   0  0  0  0  0  0  0  0  0  0  0  0
   -2.7181   -0.2290    5.3735 H   0  0  0  0  0  0  0  0  0  0  0  0
   -1.7697   -0.2176    6.8772 H   0  0  0  0  0  0  0  0  0  0  0  0
   -1.8531    1.7214    4.7267 H   0  0  0  0  0  0  0  0  0  0  0  0
   -0.5232    1.9454    7.4591 H   0  0  0  0  0  0  0  0  0  0  0  0
   -0.7921    3.2623    6.3281 H   0  0  0  0  0  0  0  0  0  0  0  0
   -3.3781    2.3989    6.5675 H   0  0  0  0  0  0  0  0  0  0  0  0
   -1.8288    4.3159    9.8123 H   0  0  0  0  0  0  0  0  0  0  0  0
   -0.8038    2.9801    9.3117 H   0  0  0  0  0  0  0  0  0  0  0  0
   -2.0762    2.7246   10.5071 H   0  0  0  0  0  0  0  0  0  0  0  0
   -4.4140    4.2189    9.2187 H   0  0  0  0  0  0  0  0  0  0  0  0
   -4.5060    2.5637    9.8054 H   0  0  0  0  0  0  0  0  0  0  0  0
   -4.9853    2.9421    8.1479 H   0  0  0  0  0  0  0  0  0  0  0  0
    1.4226    1.7199    6.3919 H   0  0  0  0  0  0  0  0  0  0  0  0
    3.4916    0.5753    5.8899 H   0  0  0  0  0  0  0  0  0  0  0  0
    2.8138   -0.1862    4.4922 H   0  0  0  0  0  0  0  0  0  0  0  0
    3.0648    2.8180    5.0079 H   0  0  0  0  0  0  0  0  0  0  0  0
    4.0339    1.8766    3.8916 H   0  0  0  0  0  0  0  0  0  0  0  0
    2.2079    4.4535    3.1902 H   0  0  0  0  0  0  0  0  0  0  0  0
    1.9135    3.7339    1.6028 H   0  0  0  0  0  0  0  0  0  0  0  0
    3.4162    3.6062    2.3006 H   0  0  0  0  0  0  0  0  0  0  0  0
    1.5047    1.4724    1.5345 H   0  0  0  0  0  0  0  0  0  0  0  0
    0.5543    3.1257    4.4770 H   0  0  0  0  0  0  0  0  0  0  0  0
   -0.5718    4.1068    2.1434 H   0  0  0  0  0  0  0  0  0  0  0  0
   -0.9863   -0.0595    3.2922 H   0  0  0  0  0  0  0  0  0  0  0  0
    1.1820   -0.4006    2.6658 H   0  0  0  0  0  0  0  0  0  0  0  0
  1  2  2  0
  1 25  1  0
  1 26  1  0
  2 14  1  0
  2  3  1  0
  3  4  1  0
  3  5  1  0
  3 27  1  6
  4 28  1  0
  5 23  1  0
  5  6  1  0
  5 29  1  6
  6  7  1  0
  6 30  1  0
  6 31  1  0
  7  8  1  0
 13  7  1  1
  7 32  1  6
  8  9  1  0
  8 33  1  0
  8 34  1  0
  9 10  2  3
  9 35  1  0
 10 11  1  0
 10 12  1  0
 11 36  1  0
 11 37  1  0
 11 38  1  0
 12 39  1  0
 12 40  1  0
 12 41  1  0
 13 20  1  0
 13 14  1  0
 13 23  1  0
 14 15  1  0
 14 42  1  1
 15 16  1  0
 15 43  1  0
 15 44  1  0
 16 17  1  0
 16 45  1  0
 16 46  1  0
 17 18  1  0
 17 19  1  6
 17 20  1  0
 18 47  1  0
 18 48  1  0
 18 49  1  0
 19 50  1  0
 20 21  1  0
 20 51  1  1
 21 22  1  0
 22 52  1  0
 23 24  1  0
 23 53  1  6
 24 54  1  0
M  END
>  <i_m_ct_stereo_status>  (451) 
1

>  <s_m_source_file>  (451) 
/var/tmp/pbs.5102264.sched01/tmpspb9n5yc/161wrz3epul.sdf

>  <i_m_source_file_index>  (451) 
3

>  <i_lp_mmshare_version>  (451) 
48012

>  <i_f3d_flags>  (451) 
0

>  <s_epik_input>  (451) 
W09IXU9bQ0BASF0xW0NAXShbQ0gzXSkoW09IXSlbQ0gyXVtDSDJdW0NAQEhdKFtDQF0xMjMpQyg9W0NIMl0pW0NAQEhdKFtPSF0pW0NASF0oW0NAQEhdM1tPSF0pW0NIMl1bQ0BIXTJbQ0gyXVtDSF09QyhbQ0gzXSlbQ0gzXQ==

>  <s_epik_cmdline>  (451) 
J2VwaWtfcHl0aG9uJywgJy1waHQnLCAnMi4wJywgJy1waCcsICc3LjAnLCAnLXRuJywgJzgnLCAnLW1hJywgJzIwMCcsICctaW1hZScsICc8aW5maWxlLm1hZT4nLCAnLW9tYWUnLCAnPG91dGZpbGUubWFlPic=

>  <r_lp_tautomer_probability>  (451) 
1

>  <r_epik_Ionization_Penalty>  (451) 
6.09637e-06

>  <r_epik_Ionization_Penalty_Charging>  (451) 
0

>  <r_epik_Ionization_Penalty_Neutral>  (451) 
6.09637e-06

>  <r_epik_State_Penalty>  (451) 
-0

>  <r_epik_Charging_Adjusted_Penalty>  (451) 
0

>  <i_epik_Tot_Q>  (451) 
0

>  <i_epik_Tot_abs_Q>  (451) 
0

>  <s_lp_Force_Field>  (451) 
OPLS3e

>  <r_lp_Energy>  (451) 
29.7282

>  <b_lp_Chiralities_Consistent>  (451) 
1

>  <s_lp_Variant>  (451) 
96:0-1

>  <s_i_glide_gridfile>  (451) 
pfpi4k_grid

>  <i_i_glide_lignum>  (451) 
3

>  <i_i_glide_rotatable_bonds>  (451) 
7

>  <r_i_docking_score>  (451) 
-2.99054

>  <r_i_glide_ligand_efficiency>  (451) 
-0.124606

>  <r_i_glide_ligand_efficiency_sa>  (451) 
-0.359426

>  <r_i_glide_ligand_efficiency_ln>  (451) 
-0.715774

>  <r_i_glide_gscore>  (451) 
-2.99054

>  <r_i_glide_lipo>  (451) 
-0.196405

>  <r_i_glide_hbond>  (451) 
0

>  <r_i_glide_metal>  (451) 
-0

>  <r_i_glide_rewards>  (451) 
-1.60156

>  <r_i_glide_evdw>  (451) 
-14.9018

>  <r_i_glide_ecoul>  (451) 
-6.28552

>  <r_i_glide_erotb>  (451) 
0.495335

>  <r_i_glide_esite>  (451) 
0

>  <r_i_glide_emodel>  (451) 
-29.7715

>  <r_i_glide_energy>  (451) 
-21.1873

>  <r_i_glide_einternal>  (451) 
3.88487

>  <r_i_glide_intrahb_reward>  (451) 
-0.5

>  <i_i_glide_confnum>  (451) 
5

>  <i_i_glide_posenum>  (451) 
30

>  <r_i_glide_eff_state_penalty>  (451) 
0

>  <ligand_id>  (451) 
96

>  <original_smiles>  (451) 
C=C1C(O)C2CC(CC=C(C)C)C3(C1CCC(C)(O)C3OO)C2O

>  <smiles>  (451) 
[H]OOC1([H])C(O[H])(C([H])([H])[H])C([H])([H])C([H])([H])C2([H])C(=C([H])[H])C([H])(O[H])C3([H])C([H])([H])C([H])(C([H])([H])C([H])=C(C([H])([H])[H])C([H])([H])[H])C12C3([H])O[H]

$$$$
96:0:1
     RDKit          3D

 54 56  0  0  1  0  0  0  0  0999 V2000
    4.0900  -12.4051    3.5930 C   0  0  0  0  0  0  0  0  0  0  0  0
    3.4694  -11.4879    4.3641 C   0  0  0  0  0  0  0  0  0  0  0  0
    3.8198  -11.2460    5.8309 C   0  0  1  0  0  0  0  0  0  0  0  0
    5.0012  -11.9235    6.2153 O   0  0  0  0  0  0  0  0  0  0  0  0
    3.9521   -9.7293    6.1354 C   0  0  1  0  0  0  0  0  0  0  0  0
    4.9090   -9.0301    5.1525 C   0  0  0  0  0  0  0  0  0  0  0  0
    4.0115   -8.5216    3.9920 C   0  0  1  0  0  0  0  0  0  0  0  0
    4.5947   -8.7741    2.5775 C   0  0  0  0  0  0  0  0  0  0  0  0
    5.8899   -8.0124    2.3182 C   0  0  0  0  0  0  0  0  0  0  0  0
    6.0887   -6.9643    1.4962 C   0  0  0  0  0  0  0  0  0  0  0  0
    5.0112   -6.3026    0.6499 C   0  0  0  0  0  0  0  0  0  0  0  0
    7.4593   -6.3195    1.3529 C   0  0  0  0  0  0  0  0  0  0  0  0
    2.5679   -9.0639    4.2882 C   0  0  2  0  0  0  0  0  0  0  0  0
    2.4297  -10.5377    3.7698 C   0  0  2  0  0  0  0  0  0  0  0  0
    0.9980  -11.0771    3.9068 C   0  0  0  0  0  0  0  0  0  0  0  0
    0.0317  -10.1784    3.1228 C   0  0  0  0  0  0  0  0  0  0  0  0
    0.0143   -8.7090    3.5868 C   0  0  1  0  0  0  0  0  0  0  0  0
   -0.9550   -7.9284    2.6718 C   0  0  0  0  0  0  0  0  0  0  0  0
   -0.5864   -8.6715    4.8617 O   0  0  0  0  0  0  0  0  0  0  0  0
    1.4787   -8.1484    3.6134 C   0  0  1  0  0  0  0  0  0  0  0  0
    1.5394   -6.8222    4.1399 O   0  0  0  0  0  0  0  0  0  0  0  0
    1.1331   -5.8587    3.1138 O   0  0  0  0  0  0  0  0  0  0  0  0
    2.6277   -9.0133    5.8428 C   0  0  1  0  0  0  0  0  0  0  0  0
    1.5632   -9.5266    6.6259 O   0  0  0  0  0  0  0  0  0  0  0  0
    3.8284  -12.5139    2.5501 H   0  0  0  0  0  0  0  0  0  0  0  0
    4.8561  -13.0545    3.9851 H   0  0  0  0  0  0  0  0  0  0  0  0
    3.0222  -11.6655    6.4362 H   0  0  0  0  0  0  0  0  0  0  0  0
    4.7660  -12.8290    6.3665 H   0  0  0  0  0  0  0  0  0  0  0  0
    4.2622   -9.5804    7.1703 H   0  0  0  0  0  0  0  0  0  0  0  0
    5.3842   -8.1787    5.6423 H   0  0  0  0  0  0  0  0  0  0  0  0
    5.7067   -9.6969    4.8174 H   0  0  0  0  0  0  0  0  0  0  0  0
    3.9650   -7.4393    4.1080 H   0  0  0  0  0  0  0  0  0  0  0  0
    4.8286   -9.8305    2.4305 H   0  0  0  0  0  0  0  0  0  0  0  0
    3.8431   -8.5412    1.8297 H   0  0  0  0  0  0  0  0  0  0  0  0
    6.7369   -8.3842    2.8799 H   0  0  0  0  0  0  0  0  0  0  0  0
    4.8277   -5.2957    1.0213 H   0  0  0  0  0  0  0  0  0  0  0  0
    4.0626   -6.8349    0.6370 H   0  0  0  0  0  0  0  0  0  0  0  0
    5.3514   -6.2192   -0.3815 H   0  0  0  0  0  0  0  0  0  0  0  0
    7.4117   -5.2747    1.6553 H   0  0  0  0  0  0  0  0  0  0  0  0
    7.7948   -6.3562    0.3161 H   0  0  0  0  0  0  0  0  0  0  0  0
    8.2150   -6.8157    1.9641 H   0  0  0  0  0  0  0  0  0  0  0  0
    2.6190  -10.5361    2.6956 H   0  0  0  0  0  0  0  0  0  0  0  0
    0.9468  -12.0866    3.4984 H   0  0  0  0  0  0  0  0  0  0  0  0
    0.6812  -11.1599    4.9446 H   0  0  0  0  0  0  0  0  0  0  0  0
    0.3177  -10.2176    2.0706 H   0  0  0  0  0  0  0  0  0  0  0  0
   -0.9741  -10.5778    3.1866 H   0  0  0  0  0  0  0  0  0  0  0  0
   -0.5617   -7.8321    1.6598 H   0  0  0  0  0  0  0  0  0  0  0  0
   -1.1549   -6.9346    3.0666 H   0  0  0  0  0  0  0  0  0  0  0  0
   -1.9218   -8.4318    2.6030 H   0  0  0  0  0  0  0  0  0  0  0  0
   -1.1619   -9.4286    4.9457 H   0  0  0  0  0  0  0  0  0  0  0  0
    1.7747   -8.0884    2.5662 H   0  0  0  0  0  0  0  0  0  0  0  0
    1.9703   -5.6503    2.7220 H   0  0  0  0  0  0  0  0  0  0  0  0
    2.7212   -7.9702    6.1452 H   0  0  0  0  0  0  0  0  0  0  0  0
    1.5970  -10.4779    6.6440 H   0  0  0  0  0  0  0  0  0  0  0  0
  1  2  2  0
  1 25  1  0
  1 26  1  0
  2 14  1  0
  2  3  1  0
  3  4  1  0
  3  5  1  0
  3 27  1  1
  4 28  1  0
  5 23  1  0
  5  6  1  0
  5 29  1  1
  6  7  1  0
  6 30  1  0
  6 31  1  0
  7  8  1  0
 13  7  1  6
  7 32  1  1
  8  9  1  0
  8 33  1  0
  8 34  1  0
  9 10  2  3
  9 35  1  0
 10 11  1  0
 10 12  1  0
 11 36  1  0
 11 37  1  0
 11 38  1  0
 12 39  1  0
 12 40  1  0
 12 41  1  0
 13 20  1  0
 13 14  1  0
 13 23  1  0
 14 15  1  0
 14 42  1  6
 15 16  1  0
 15 43  1  0
 15 44  1  0
 16 17  1  0
 16 45  1  0
 16 46  1  0
 17 18  1  0
 17 19  1  1
 17 20  1  0
 18 47  1  0
 18 48  1  0
 18 49  1  0
 19 50  1  0
 20 21  1  0
 20 51  1  6
 21 22  1  0
 22 52  1  0
 23 24  1  0
 23 53  1  6
 24 54  1  0
M  END
>  <i_m_ct_stereo_status>  (452) 
1

>  <s_m_source_file>  (452) 
/var/tmp/pbs.5102264.sched01/tmpspb9n5yc/161wrz3epul.sdf

>  <i_m_source_file_index>  (452) 
3

>  <i_lp_mmshare_version>  (452) 
48012

>  <i_f3d_flags>  (452) 
0

>  <s_epik_input>  (452) 
W09IXU9bQ0BASF0xW0NAXShbQ0gzXSkoW09IXSlbQ0gyXVtDSDJdW0NAQEhdKFtDQF0xMjMpQyg9W0NIMl0pW0NAQEhdKFtPSF0pW0NASF0oW0NAQEhdM1tPSF0pW0NIMl1bQ0BIXTJbQ0gyXVtDSF09QyhbQ0gzXSlbQ0gzXQ==

>  <s_epik_cmdline>  (452) 
J2VwaWtfcHl0aG9uJywgJy1waHQnLCAnMi4wJywgJy1waCcsICc3LjAnLCAnLXRuJywgJzgnLCAnLW1hJywgJzIwMCcsICctaW1hZScsICc8aW5maWxlLm1hZT4nLCAnLW9tYWUnLCAnPG91dGZpbGUubWFlPic=

>  <r_lp_tautomer_probability>  (452) 
1

>  <r_epik_Ionization_Penalty>  (452) 
6.09637e-06

>  <r_epik_Ionization_Penalty_Charging>  (452) 
0

>  <r_epik_Ionization_Penalty_Neutral>  (452) 
6.09637e-06

>  <r_epik_State_Penalty>  (452) 
-0

>  <r_epik_Charging_Adjusted_Penalty>  (452) 
0

>  <i_epik_Tot_Q>  (452) 
0

>  <i_epik_Tot_abs_Q>  (452) 
0

>  <s_lp_Force_Field>  (452) 
OPLS3e

>  <r_lp_Energy>  (452) 
29.7282

>  <b_lp_Chiralities_Consistent>  (452) 
1

>  <s_lp_Variant>  (452) 
96:0-1

>  <s_i_glide_gridfile>  (452) 
pfpi4k_grid

>  <i_i_glide_lignum>  (452) 
3

>  <i_i_glide_rotatable_bonds>  (452) 
7

>  <r_i_docking_score>  (452) 
-2.96561

>  <r_i_glide_ligand_efficiency>  (452) 
-0.123567

>  <r_i_glide_ligand_efficiency_sa>  (452) 
-0.35643

>  <r_i_glide_ligand_efficiency_ln>  (452) 
-0.709807

>  <r_i_glide_gscore>  (452) 
-2.96561

>  <r_i_glide_lipo>  (452) 
-0.399946

>  <r_i_glide_hbond>  (452) 
0

>  <r_i_glide_metal>  (452) 
-0

>  <r_i_glide_rewards>  (452) 
-1.10156

>  <r_i_glide_evdw>  (452) 
-17.7361

>  <r_i_glide_ecoul>  (452) 
-7.15096

>  <r_i_glide_erotb>  (452) 
0.495335

>  <r_i_glide_esite>  (452) 
0

>  <r_i_glide_emodel>  (452) 
-29.4068

>  <r_i_glide_energy>  (452) 
-24.887

>  <r_i_glide_einternal>  (452) 
1.78544

>  <r_i_glide_intrahb_reward>  (452) 
-0

>  <i_i_glide_confnum>  (452) 
4

>  <i_i_glide_posenum>  (452) 
1

>  <r_i_glide_eff_state_penalty>  (452) 
0

>  <ligand_id>  (452) 
96

>  <original_smiles>  (452) 
C=C1C(O)C2CC(CC=C(C)C)C3(C1CCC(C)(O)C3OO)C2O

>  <smiles>  (452) 
[H]OOC1([H])C(O[H])(C([H])([H])[H])C([H])([H])C([H])([H])C2([H])C(=C([H])[H])C([H])(O[H])C3([H])C([H])([H])C([H])(C([H])([H])C([H])=C(C([H])([H])[H])C([H])([H])[H])C12C3([H])O[H]

$$$$
96:0:2
     RDKit          3D

 54 56  0  0  1  0  0  0  0  0999 V2000
    4.2134  -10.6796    6.7351 C   0  0  0  0  0  0  0  0  0  0  0  0
    4.4647  -10.6057    5.4149 C   0  0  0  0  0  0  0  0  0  0  0  0
    4.4420  -11.8170    4.4840 C   0  0  1  0  0  0  0  0  0  0  0  0
    3.9495  -12.9838    5.1169 O   0  0  0  0  0  0  0  0  0  0  0  0
    3.6424  -11.5047    3.1925 C   0  0  1  0  0  0  0  0  0  0  0  0
    2.2459  -10.9337    3.4899 C   0  0  0  0  0  0  0  0  0  0  0  0
    2.4255   -9.3925    3.5097 C   0  0  1  0  0  0  0  0  0  0  0  0
    1.7116   -8.6927    4.6868 C   0  0  0  0  0  0  0  0  0  0  0  0
    0.2205   -8.5073    4.4498 C   0  0  0  0  0  0  0  0  0  0  0  0
   -0.4279   -7.3637    4.1632 C   0  0  0  0  0  0  0  0  0  0  0  0
    0.2331   -5.9998    4.0060 C   0  0  0  0  0  0  0  0  0  0  0  0
   -1.9327   -7.3440    3.9532 C   0  0  0  0  0  0  0  0  0  0  0  0
    3.9596   -9.1304    3.3549 C   0  0  2  0  0  0  0  0  0  0  0  0
    4.6895   -9.2532    4.7381 C   0  0  2  0  0  0  0  0  0  0  0  0
    6.1768   -8.8746    4.6634 C   0  0  0  0  0  0  0  0  0  0  0  0
    6.3245   -7.4358    4.1467 C   0  0  0  0  0  0  0  0  0  0  0  0
    5.7144   -7.2193    2.7461 C   0  0  1  0  0  0  0  0  0  0  0  0
    5.8874   -5.7273    2.3754 C   0  0  0  0  0  0  0  0  0  0  0  0
    6.5049   -7.9601    1.8419 O   0  0  0  0  0  0  0  0  0  0  0  0
    4.2293   -7.7180    2.7220 C   0  0  1  0  0  0  0  0  0  0  0  0
    3.6585   -7.6798    1.4136 O   0  0  0  0  0  0  0  0  0  0  0  0
    3.2426   -6.3129    1.0960 O   0  0  0  0  0  0  0  0  0  0  0  0
    4.2872  -10.3323    2.4398 C   0  0  1  0  0  0  0  0  0  0  0  0
    5.6266  -10.5827    2.0807 O   0  0  0  0  0  0  0  0  0  0  0  0
    4.2089   -9.7884    7.3440 H   0  0  0  0  0  0  0  0  0  0  0  0
    4.0084  -11.6210    7.2190 H   0  0  0  0  0  0  0  0  0  0  0  0
    5.4749  -12.0371    4.2116 H   0  0  0  0  0  0  0  0  0  0  0  0
    3.1142  -12.7988    5.5387 H   0  0  0  0  0  0  0  0  0  0  0  0
    3.5855  -12.3956    2.5646 H   0  0  0  0  0  0  0  0  0  0  0  0
    1.5540  -11.2095    2.6939 H   0  0  0  0  0  0  0  0  0  0  0  0
    1.8372  -11.3350    4.4173 H   0  0  0  0  0  0  0  0  0  0  0  0
    1.9608   -9.0303    2.5929 H   0  0  0  0  0  0  0  0  0  0  0  0
    1.8320   -9.2649    5.6076 H   0  0  0  0  0  0  0  0  0  0  0  0
    2.1851   -7.7369    4.8884 H   0  0  0  0  0  0  0  0  0  0  0  0
   -0.3557   -9.4228    4.5216 H   0  0  0  0  0  0  0  0  0  0  0  0
    0.1873   -5.6859    2.9658 H   0  0  0  0  0  0  0  0  0  0  0  0
    1.2811   -5.9756    4.2936 H   0  0  0  0  0  0  0  0  0  0  0  0
   -0.2867   -5.2611    4.6166 H   0  0  0  0  0  0  0  0  0  0  0  0
   -2.1685   -7.0136    2.9439 H   0  0  0  0  0  0  0  0  0  0  0  0
   -2.4079   -6.6632    4.6594 H   0  0  0  0  0  0  0  0  0  0  0  0
   -2.3673   -8.3382    4.0798 H   0  0  0  0  0  0  0  0  0  0  0  0
    4.2521   -8.5111    5.4073 H   0  0  0  0  0  0  0  0  0  0  0  0
    6.6240   -8.9394    5.6555 H   0  0  0  0  0  0  0  0  0  0  0  0
    6.7493   -9.5611    4.0397 H   0  0  0  0  0  0  0  0  0  0  0  0
    5.8413   -6.7594    4.8579 H   0  0  0  0  0  0  0  0  0  0  0  0
    7.3808   -7.1627    4.1375 H   0  0  0  0  0  0  0  0  0  0  0  0
    5.2469   -5.0914    2.9887 H   0  0  0  0  0  0  0  0  0  0  0  0
    5.6625   -5.5313    1.3289 H   0  0  0  0  0  0  0  0  0  0  0  0
    6.9169   -5.4018    2.5363 H   0  0  0  0  0  0  0  0  0  0  0  0
    6.3381   -8.8884    1.9994 H   0  0  0  0  0  0  0  0  0  0  0  0
    3.6653   -7.0178    3.3393 H   0  0  0  0  0  0  0  0  0  0  0  0
    4.0215   -6.0003    0.6496 H   0  0  0  0  0  0  0  0  0  0  0  0
    3.7741  -10.2142    1.4844 H   0  0  0  0  0  0  0  0  0  0  0  0
    5.5798  -11.3045    1.4590 H   0  0  0  0  0  0  0  0  0  0  0  0
  1  2  2  0
  1 25  1  0
  1 26  1  0
  2 14  1  0
  2  3  1  0
  3  4  1  0
  3  5  1  0
  3 27  1  6
  4 28  1  0
  5 23  1  0
  5  6  1  0
  5 29  1  6
  6  7  1  0
  6 30  1  0
  6 31  1  0
  7  8  1  0
 13  7  1  1
  7 32  1  6
  8  9  1  0
  8 33  1  0
  8 34  1  0
  9 10  2  3
  9 35  1  0
 10 11  1  0
 10 12  1  0
 11 36  1  0
 11 37  1  0
 11 38  1  0
 12 39  1  0
 12 40  1  0
 12 41  1  0
 13 20  1  0
 13 14  1  0
 13 23  1  0
 14 15  1  0
 14 42  1  1
 15 16  1  0
 15 43  1  0
 15 44  1  0
 16 17  1  0
 16 45  1  0
 16 46  1  0
 17 18  1  0
 17 19  1  6
 17 20  1  0
 18 47  1  0
 18 48  1  0
 18 49  1  0
 19 50  1  0
 20 21  1  0
 20 51  1  1
 21 22  1  0
 22 52  1  0
 23 24  1  0
 23 53  1  6
 24 54  1  0
M  END
>  <i_m_ct_stereo_status>  (453) 
1

>  <s_m_source_file>  (453) 
/var/tmp/pbs.5102264.sched01/tmpspb9n5yc/161wrz3epul.sdf

>  <i_m_source_file_index>  (453) 
3

>  <i_lp_mmshare_version>  (453) 
48012

>  <i_f3d_flags>  (453) 
0

>  <s_epik_input>  (453) 
W09IXU9bQ0BASF0xW0NAXShbQ0gzXSkoW09IXSlbQ0gyXVtDSDJdW0NAQEhdKFtDQF0xMjMpQyg9W0NIMl0pW0NAQEhdKFtPSF0pW0NASF0oW0NAQEhdM1tPSF0pW0NIMl1bQ0BIXTJbQ0gyXVtDSF09QyhbQ0gzXSlbQ0gzXQ==

>  <s_epik_cmdline>  (453) 
J2VwaWtfcHl0aG9uJywgJy1waHQnLCAnMi4wJywgJy1waCcsICc3LjAnLCAnLXRuJywgJzgnLCAnLW1hJywgJzIwMCcsICctaW1hZScsICc8aW5maWxlLm1hZT4nLCAnLW9tYWUnLCAnPG91dGZpbGUubWFlPic=

>  <r_lp_tautomer_probability>  (453) 
1

>  <r_epik_Ionization_Penalty>  (453) 
6.09637e-06

>  <r_epik_Ionization_Penalty_Charging>  (453) 
0

>  <r_epik_Ionization_Penalty_Neutral>  (453) 
6.09637e-06

>  <r_epik_State_Penalty>  (453) 
-0

>  <r_epik_Charging_Adjusted_Penalty>  (453) 
0

>  <i_epik_Tot_Q>  (453) 
0

>  <i_epik_Tot_abs_Q>  (453) 
0

>  <s_lp_Force_Field>  (453) 
OPLS3e

>  <r_lp_Energy>  (453) 
29.7282

>  <b_lp_Chiralities_Consistent>  (453) 
1

>  <s_lp_Variant>  (453) 
96:0-1

>  <s_i_glide_gridfile>  (453) 
pfpi4k_grid

>  <i_i_glide_lignum>  (453) 
3

>  <i_i_glide_rotatable_bonds>  (453) 
7

>  <r_i_docking_score>  (453) 
-2.7559

>  <r_i_glide_ligand_efficiency>  (453) 
-0.114829

>  <r_i_glide_ligand_efficiency_sa>  (453) 
-0.331225

>  <r_i_glide_ligand_efficiency_ln>  (453) 
-0.659614

>  <r_i_glide_gscore>  (453) 
-2.7559

>  <r_i_glide_lipo>  (453) 
-0.0816165

>  <r_i_glide_hbond>  (453) 
-0.0207343

>  <r_i_glide_metal>  (453) 
-0

>  <r_i_glide_rewards>  (453) 
-1.60156

>  <r_i_glide_evdw>  (453) 
-16.7573

>  <r_i_glide_ecoul>  (453) 
-4.72977

>  <r_i_glide_erotb>  (453) 
0.495335

>  <r_i_glide_esite>  (453) 
0

>  <r_i_glide_emodel>  (453) 
-30.8799

>  <r_i_glide_energy>  (453) 
-21.4871

>  <r_i_glide_einternal>  (453) 
1.65984

>  <r_i_glide_intrahb_reward>  (453) 
-0.5

>  <i_i_glide_confnum>  (453) 
4

>  <i_i_glide_posenum>  (453) 
13

>  <r_i_glide_eff_state_penalty>  (453) 
0

>  <ligand_id>  (453) 
96

>  <original_smiles>  (453) 
C=C1C(O)C2CC(CC=C(C)C)C3(C1CCC(C)(O)C3OO)C2O

>  <smiles>  (453) 
[H]OOC1([H])C(O[H])(C([H])([H])[H])C([H])([H])C([H])([H])C2([H])C(=C([H])[H])C([H])(O[H])C3([H])C([H])([H])C([H])(C([H])([H])C([H])=C(C([H])([H])[H])C([H])([H])[H])C12C3([H])O[H]

$$$$
97:0:0
     RDKit          3D

 17 18  0  0  1  0  0  0  0  0999 V2000
   -1.6584    3.1920    6.5678 C   0  0  0  0  0  0  0  0  0  0  0  0
   -1.1972    2.5127    5.5462 C   0  0  0  0  0  0  0  0  0  0  0  0
   -1.5790    1.1194    5.7604 C   0  0  0  0  0  0  0  0  0  0  0  0
   -1.2751   -0.2406    4.6007 S   0  0  0  0  0  0  0  0  0  0  0  0
   -0.4798    0.5453    3.2339 C   0  0  0  0  0  0  0  0  0  0  0  0
    0.7162    0.1005    2.7598 N   0  0  0  0  0  0  0  0  0  0  0  0
    0.9585    1.1140    1.9450 C   0  0  0  0  0  0  0  0  0  0  0  0
    0.0770    2.1216    2.0513 N   0  0  0  0  0  0  0  0  0  0  0  0
   -0.9888    1.6643    2.7273 N   0  0  0  0  0  0  0  0  0  0  0  0
   -2.1862    0.9517    6.8729 N   0  0  0  0  0  0  0  0  0  0  0  0
   -2.3009    2.2603    7.5467 C   0  0  0  0  0  0  0  0  0  0  0  0
    0.1055    3.0377    1.5170 H   0  0  0  0  0  0  0  0  0  0  0  0
   -1.5114    4.2571    6.6501 H   0  0  0  0  0  0  0  0  0  0  0  0
   -0.6482    2.9073    4.7121 H   0  0  0  0  0  0  0  0  0  0  0  0
    1.7860    1.1167    1.2495 H   0  0  0  0  0  0  0  0  0  0  0  0
   -1.7195    2.2944    8.4716 H   0  0  0  0  0  0  0  0  0  0  0  0
   -3.3395    2.5606    7.6920 H   0  0  0  0  0  0  0  0  0  0  0  0
  1 11  1  0
  1  2  2  0
  1 13  1  0
  2  3  1  0
  2 14  1  0
  3  4  1  0
  3 10  2  0
  4  5  1  0
  5  9  2  0
  5  6  1  0
  6  7  2  0
  7  8  1  0
  7 15  1  0
  8 12  1  0
  8  9  1  0
 10 11  1  0
 11 16  1  0
 11 17  1  0
M  END
>  <i_m_ct_stereo_status>  (454) 
1

>  <s_m_source_file>  (454) 
/var/tmp/pbs.5102264.sched01/tmpspb9n5yc/161wrz3epul.sdf

>  <i_m_source_file_index>  (454) 
4

>  <i_lp_mmshare_version>  (454) 
48012

>  <i_f3d_flags>  (454) 
0

>  <s_epik_input>  (454) 
W0NIXTE9W0NIXVtDSDJdTj1DMVNjMm5bY0hdW25IXW4y

>  <s_epik_cmdline>  (454) 
J2VwaWtfcHl0aG9uJywgJy1waHQnLCAnMi4wJywgJy1waCcsICc3LjAnLCAnLXRuJywgJzgnLCAnLW1hJywgJzIwMCcsICctaW1hZScsICc8aW5maWxlLm1hZT4nLCAnLW9tYWUnLCAnPG91dGZpbGUubWFlPic=

>  <r_lp_tautomer_probability>  (454) 
0.948284

>  <r_epik_Ionization_Penalty>  (454) 
0.00257077

>  <r_epik_Ionization_Penalty_Charging>  (454) 
0

>  <r_epik_Ionization_Penalty_Neutral>  (454) 
0.00257077

>  <r_epik_State_Penalty>  (454) 
0.0260046

>  <r_epik_Charging_Adjusted_Penalty>  (454) 
0.0260046

>  <i_epik_Tot_Q>  (454) 
0

>  <i_epik_Tot_abs_Q>  (454) 
0

>  <s_epik_Chemistry_Notes>  (454) 
This compound has an imine and may undergo hydrolysis.

>  <s_lp_Force_Field>  (454) 
OPLS3e

>  <r_lp_Energy>  (454) 
-0.625434

>  <b_lp_Chiralities_Consistent>  (454) 
1

>  <s_lp_Variant>  (454) 
97:0-1

>  <s_i_glide_gridfile>  (454) 
pfpi4k_grid

>  <i_i_glide_lignum>  (454) 
4

>  <i_i_glide_rotatable_bonds>  (454) 
2

>  <r_i_docking_score>  (454) 
-3.70178

>  <r_i_glide_ligand_efficiency>  (454) 
-0.336525

>  <r_i_glide_ligand_efficiency_sa>  (454) 
-0.748426

>  <r_i_glide_ligand_efficiency_ln>  (454) 
-1.08943

>  <r_i_glide_gscore>  (454) 
-3.70178

>  <r_i_glide_lipo>  (454) 
-0.0530612

>  <r_i_glide_hbond>  (454) 
-0.304406

>  <r_i_glide_metal>  (454) 
-0

>  <r_i_glide_rewards>  (454) 
-2.25

>  <r_i_glide_evdw>  (454) 
-13.2413

>  <r_i_glide_ecoul>  (454) 
-8.79148

>  <r_i_glide_erotb>  (454) 
1.10748

>  <r_i_glide_esite>  (454) 
-0.221006

>  <r_i_glide_emodel>  (454) 
-24.2663

>  <r_i_glide_energy>  (454) 
-22.0328

>  <r_i_glide_einternal>  (454) 
3.15618

>  <r_i_glide_intrahb_reward>  (454) 
-0

>  <i_i_glide_confnum>  (454) 
4

>  <i_i_glide_posenum>  (454) 
15

>  <r_i_glide_eff_state_penalty>  (454) 
0

>  <ligand_id>  (454) 
97

>  <original_smiles>  (454) 
C1=CC(Sc2nc[nH]n2)=NC1

>  <smiles>  (454) 
[H]C1=C([H])C([H])([H])N=C1Sc1nc([H])n([H])n1

$$$$
97:0:1
     RDKit          3D

 17 18  0  0  1  0  0  0  0  0999 V2000
   -2.1881    3.1145    6.0987 C   0  0  0  0  0  0  0  0  0  0  0  0
   -1.4437    2.4439    5.2455 C   0  0  0  0  0  0  0  0  0  0  0  0
   -1.3528    1.0904    5.7846 C   0  0  0  0  0  0  0  0  0  0  0  0
   -0.4262   -0.2544    5.0172 S   0  0  0  0  0  0  0  0  0  0  0  0
    0.2066    0.4894    3.5424 C   0  0  0  0  0  0  0  0  0  0  0  0
    1.3259    1.2770    3.5909 N   0  0  0  0  0  0  0  0  0  0  0  0
    1.2181    1.7736    2.3516 C   0  0  0  0  0  0  0  0  0  0  0  0
    0.1524    1.3420    1.6768 N   0  0  0  0  0  0  0  0  0  0  0  0
   -0.5864    0.5486    2.4729 N   0  0  0  0  0  0  0  0  0  0  0  0
   -2.0007    0.9502    6.8796 N   0  0  0  0  0  0  0  0  0  0  0  0
   -2.6162    2.2331    7.2308 C   0  0  0  0  0  0  0  0  0  0  0  0
   -0.1179    1.5250    0.7106 H   0  0  0  0  0  0  0  0  0  0  0  0
   -2.4548    4.1456    5.9924 H   0  0  0  0  0  0  0  0  0  0  0  0
   -0.9746    2.7914    4.3326 H   0  0  0  0  0  0  0  0  0  0  0  0
    1.9364    2.4649    1.9360 H   0  0  0  0  0  0  0  0  0  0  0  0
   -2.2486    2.6245    8.1823 H   0  0  0  0  0  0  0  0  0  0  0  0
   -3.7066    2.1756    7.2637 H   0  0  0  0  0  0  0  0  0  0  0  0
  1 11  1  0
  1  2  2  0
  1 13  1  0
  2  3  1  0
  2 14  1  0
  3  4  1  0
  3 10  2  0
  4  5  1  0
  5  9  2  0
  5  6  1  0
  6  7  2  0
  7  8  1  0
  7 15  1  0
  8 12  1  0
  8  9  1  0
 10 11  1  0
 11 16  1  0
 11 17  1  0
M  END
>  <i_m_ct_stereo_status>  (455) 
1

>  <s_m_source_file>  (455) 
/var/tmp/pbs.5102264.sched01/tmpspb9n5yc/161wrz3epul.sdf

>  <i_m_source_file_index>  (455) 
4

>  <i_lp_mmshare_version>  (455) 
48012

>  <i_f3d_flags>  (455) 
0

>  <s_epik_input>  (455) 
W0NIXTE9W0NIXVtDSDJdTj1DMVNjMm5bY0hdW25IXW4y

>  <s_epik_cmdline>  (455) 
J2VwaWtfcHl0aG9uJywgJy1waHQnLCAnMi4wJywgJy1waCcsICc3LjAnLCAnLXRuJywgJzgnLCAnLW1hJywgJzIwMCcsICctaW1hZScsICc8aW5maWxlLm1hZT4nLCAnLW9tYWUnLCAnPG91dGZpbGUubWFlPic=

>  <r_lp_tautomer_probability>  (455) 
0.948284

>  <r_epik_Ionization_Penalty>  (455) 
0.00257077

>  <r_epik_Ionization_Penalty_Charging>  (455) 
0

>  <r_epik_Ionization_Penalty_Neutral>  (455) 
0.00257077

>  <r_epik_State_Penalty>  (455) 
0.0260046

>  <r_epik_Charging_Adjusted_Penalty>  (455) 
0.0260046

>  <i_epik_Tot_Q>  (455) 
0

>  <i_epik_Tot_abs_Q>  (455) 
0

>  <s_epik_Chemistry_Notes>  (455) 
This compound has an imine and may undergo hydrolysis.

>  <s_lp_Force_Field>  (455) 
OPLS3e

>  <r_lp_Energy>  (455) 
-0.625434

>  <b_lp_Chiralities_Consistent>  (455) 
1

>  <s_lp_Variant>  (455) 
97:0-1

>  <s_i_glide_gridfile>  (455) 
pfpi4k_grid

>  <i_i_glide_lignum>  (455) 
4

>  <i_i_glide_rotatable_bonds>  (455) 
2

>  <r_i_docking_score>  (455) 
-3.14944

>  <r_i_glide_ligand_efficiency>  (455) 
-0.286313

>  <r_i_glide_ligand_efficiency_sa>  (455) 
-0.636754

>  <r_i_glide_ligand_efficiency_ln>  (455) 
-0.92688

>  <r_i_glide_gscore>  (455) 
-3.14944

>  <r_i_glide_lipo>  (455) 
-0.100034

>  <r_i_glide_hbond>  (455) 
-0.236098

>  <r_i_glide_metal>  (455) 
-0

>  <r_i_glide_rewards>  (455) 
-2.25

>  <r_i_glide_evdw>  (455) 
-15.0155

>  <r_i_glide_ecoul>  (455) 
-4.85904

>  <r_i_glide_erotb>  (455) 
1.10748

>  <r_i_glide_esite>  (455) 
-0.191164

>  <r_i_glide_emodel>  (455) 
-24.7132

>  <r_i_glide_energy>  (455) 
-19.8745

>  <r_i_glide_einternal>  (455) 
1.92469

>  <r_i_glide_intrahb_reward>  (455) 
-0

>  <i_i_glide_confnum>  (455) 
4

>  <i_i_glide_posenum>  (455) 
30

>  <r_i_glide_eff_state_penalty>  (455) 
0

>  <ligand_id>  (455) 
97

>  <original_smiles>  (455) 
C1=CC(Sc2nc[nH]n2)=NC1

>  <smiles>  (455) 
[H]C1=C([H])C([H])([H])N=C1Sc1nc([H])n([H])n1

$$$$
97:0:2
     RDKit          3D

 17 18  0  0  1  0  0  0  0  0999 V2000
   -2.8373    3.3853   10.1364 C   0  0  0  0  0  0  0  0  0  0  0  0
   -1.5747    3.3553    9.7312 C   0  0  0  0  0  0  0  0  0  0  0  0
   -1.6447    3.3377    8.2791 C   0  0  0  0  0  0  0  0  0  0  0  0
   -0.2018    3.2741    7.2025 S   0  0  0  0  0  0  0  0  0  0  0  0
   -0.8972    3.0052    5.6087 C   0  0  0  0  0  0  0  0  0  0  0  0
   -1.2475    1.7393    5.2357 N   0  0  0  0  0  0  0  0  0  0  0  0
   -1.7782    2.0552    4.0582 C   0  0  0  0  0  0  0  0  0  0  0  0
   -1.7523    3.3623    3.7736 N   0  0  0  0  0  0  0  0  0  0  0  0
   -1.1867    4.0311    4.8100 N   0  0  0  0  0  0  0  0  0  0  0  0
   -2.8368    3.3541    7.8424 N   0  0  0  0  0  0  0  0  0  0  0  0
   -3.7713    3.4135    8.9547 C   0  0  0  0  0  0  0  0  0  0  0  0
   -2.0496    3.8072    2.9104 H   0  0  0  0  0  0  0  0  0  0  0  0
   -3.1784    3.3787   11.1653 H   0  0  0  0  0  0  0  0  0  0  0  0
   -0.6474    3.3201   10.2915 H   0  0  0  0  0  0  0  0  0  0  0  0
   -2.1818    1.3112    3.3873 H   0  0  0  0  0  0  0  0  0  0  0  0
   -4.4515    2.5616    8.9631 H   0  0  0  0  0  0  0  0  0  0  0  0
   -4.3586    4.3351    8.9295 H   0  0  0  0  0  0  0  0  0  0  0  0
  1 11  1  0
  1  2  2  0
  1 13  1  0
  2  3  1  0
  2 14  1  0
  3  4  1  0
  3 10  2  0
  4  5  1  0
  5  9  2  0
  5  6  1  0
  6  7  2  0
  7  8  1  0
  7 15  1  0
  8 12  1  0
  8  9  1  0
 10 11  1  0
 11 16  1  0
 11 17  1  0
M  END
>  <i_m_ct_stereo_status>  (456) 
1

>  <s_m_source_file>  (456) 
/var/tmp/pbs.5102264.sched01/tmpspb9n5yc/161wrz3epul.sdf

>  <i_m_source_file_index>  (456) 
4

>  <i_lp_mmshare_version>  (456) 
48012

>  <i_f3d_flags>  (456) 
0

>  <s_epik_input>  (456) 
W0NIXTE9W0NIXVtDSDJdTj1DMVNjMm5bY0hdW25IXW4y

>  <s_epik_cmdline>  (456) 
J2VwaWtfcHl0aG9uJywgJy1waHQnLCAnMi4wJywgJy1waCcsICc3LjAnLCAnLXRuJywgJzgnLCAnLW1hJywgJzIwMCcsICctaW1hZScsICc8aW5maWxlLm1hZT4nLCAnLW9tYWUnLCAnPG91dGZpbGUubWFlPic=

>  <r_lp_tautomer_probability>  (456) 
0.948284

>  <r_epik_Ionization_Penalty>  (456) 
0.00257077

>  <r_epik_Ionization_Penalty_Charging>  (456) 
0

>  <r_epik_Ionization_Penalty_Neutral>  (456) 
0.00257077

>  <r_epik_State_Penalty>  (456) 
0.0260046

>  <r_epik_Charging_Adjusted_Penalty>  (456) 
0.0260046

>  <i_epik_Tot_Q>  (456) 
0

>  <i_epik_Tot_abs_Q>  (456) 
0

>  <s_epik_Chemistry_Notes>  (456) 
This compound has an imine and may undergo hydrolysis.

>  <s_lp_Force_Field>  (456) 
OPLS3e

>  <r_lp_Energy>  (456) 
-0.625434

>  <b_lp_Chiralities_Consistent>  (456) 
1

>  <s_lp_Variant>  (456) 
97:0-1

>  <s_i_glide_gridfile>  (456) 
pfpi4k_grid

>  <i_i_glide_lignum>  (456) 
4

>  <i_i_glide_rotatable_bonds>  (456) 
2

>  <r_i_docking_score>  (456) 
-2.65967

>  <r_i_glide_ligand_efficiency>  (456) 
-0.241789

>  <r_i_glide_ligand_efficiency_sa>  (456) 
-0.537733

>  <r_i_glide_ligand_efficiency_ln>  (456) 
-0.782742

>  <r_i_glide_gscore>  (456) 
-2.65967

>  <r_i_glide_lipo>  (456) 
-0.0707659

>  <r_i_glide_hbond>  (456) 
0

>  <r_i_glide_metal>  (456) 
-0

>  <r_i_glide_rewards>  (456) 
-2.25

>  <r_i_glide_evdw>  (456) 
-15.2516

>  <r_i_glide_ecoul>  (456) 
-3.94844

>  <r_i_glide_erotb>  (456) 
1.10748

>  <r_i_glide_esite>  (456) 
-0.0915445

>  <r_i_glide_emodel>  (456) 
-24.0944

>  <r_i_glide_energy>  (456) 
-19.2001

>  <r_i_glide_einternal>  (456) 
0.212509

>  <r_i_glide_intrahb_reward>  (456) 
-0

>  <i_i_glide_confnum>  (456) 
1

>  <i_i_glide_posenum>  (456) 
38

>  <r_i_glide_eff_state_penalty>  (456) 
0

>  <ligand_id>  (456) 
97

>  <original_smiles>  (456) 
C1=CC(Sc2nc[nH]n2)=NC1

>  <smiles>  (456) 
[H]C1=C([H])C([H])([H])N=C1Sc1nc([H])n([H])n1

$$$$
97:1:0
     RDKit          3D

 17 18  0  0  1  0  0  0  0  0999 V2000
    4.4240   -0.3072    1.4041 C   0  0  0  0  0  0  0  0  0  0  0  0
    3.9070   -0.9367    0.3603 C   0  0  0  0  0  0  0  0  0  0  0  0
    4.6403   -2.2000    0.2438 C   0  0  0  0  0  0  0  0  0  0  0  0
    4.3983   -3.4022   -1.0850 S   0  0  0  0  0  0  0  0  0  0  0  0
    3.9425   -2.4056   -2.4709 C   0  0  0  0  0  0  0  0  0  0  0  0
    2.9508   -1.5156   -2.4670 N   0  0  0  0  0  0  0  0  0  0  0  0
    3.0720   -0.8759   -3.6047 C   0  0  0  0  0  0  0  0  0  0  0  0
    4.0705   -1.3417   -4.3753 N   0  0  0  0  0  0  0  0  0  0  0  0
    4.5921   -2.4068   -3.6481 N   0  0  0  0  0  0  0  0  0  0  0  0
    5.4793   -2.3504    1.1871 N   0  0  0  0  0  0  0  0  0  0  0  0
    5.4706   -1.1647    2.0413 C   0  0  0  0  0  0  0  0  0  0  0  0
    2.2867   -1.3333   -1.7038 H   0  0  0  0  0  0  0  0  0  0  0  0
    4.1354    0.6597    1.7874 H   0  0  0  0  0  0  0  0  0  0  0  0
    3.0884   -0.5883   -0.2474 H   0  0  0  0  0  0  0  0  0  0  0  0
    2.4656   -0.0089   -3.8828 H   0  0  0  0  0  0  0  0  0  0  0  0
    6.4517   -0.6865    2.0482 H   0  0  0  0  0  0  0  0  0  0  0  0
    5.1946   -1.4159    3.0679 H   0  0  0  0  0  0  0  0  0  0  0  0
  1 11  1  0
  1  2  2  0
  1 13  1  0
  2  3  1  0
  2 14  1  0
  3  4  1  0
  3 10  2  0
  4  5  1  0
  5  9  2  0
  5  6  1  0
  6 12  1  0
  6  7  1  0
  7 15  1  0
  7  8  2  0
  8  9  1  0
 10 11  1  0
 11 16  1  0
 11 17  1  0
M  END
>  <i_m_ct_stereo_status>  (457) 
1

>  <s_m_source_file>  (457) 
/var/tmp/pbs.5102264.sched01/tmpspb9n5yc/161wrz3epul.sdf

>  <i_m_source_file_index>  (457) 
5

>  <i_lp_mmshare_version>  (457) 
48012

>  <i_f3d_flags>  (457) 
0

>  <s_epik_input>  (457) 
W0NIXTE9W0NIXVtDSDJdTj1DMVNjMm5bY0hdW25IXW4y

>  <s_epik_cmdline>  (457) 
J2VwaWtfcHl0aG9uJywgJy1waHQnLCAnMi4wJywgJy1waCcsICc3LjAnLCAnLXRuJywgJzgnLCAnLW1hJywgJzIwMCcsICctaW1hZScsICc8aW5maWxlLm1hZT4nLCAnLW9tYWUnLCAnPG91dGZpbGUubWFlPic=

>  <r_lp_tautomer_probability>  (457) 
0.0517155

>  <r_epik_Ionization_Penalty>  (457) 
4.02255

>  <r_epik_Ionization_Penalty_Charging>  (457) 
0

>  <r_epik_Ionization_Penalty_Neutral>  (457) 
4.02255

>  <r_epik_State_Penalty>  (457) 
1.8651

>  <r_epik_Charging_Adjusted_Penalty>  (457) 
1.8651

>  <i_epik_Tot_Q>  (457) 
0

>  <i_epik_Tot_abs_Q>  (457) 
0

>  <s_epik_Chemistry_Notes>  (457) 
This compound has an imine and may undergo hydrolysis.

>  <s_lp_Force_Field>  (457) 
OPLS3e

>  <r_lp_Energy>  (457) 
-3.52715

>  <b_lp_Chiralities_Consistent>  (457) 
1

>  <s_lp_Variant>  (457) 
97:0-2

>  <s_i_glide_gridfile>  (457) 
pfpi4k_grid

>  <i_i_glide_lignum>  (457) 
5

>  <i_i_glide_rotatable_bonds>  (457) 
2

>  <r_i_docking_score>  (457) 
-4.1531

>  <r_i_glide_ligand_efficiency>  (457) 
-0.377555

>  <r_i_glide_ligand_efficiency_sa>  (457) 
-0.839675

>  <r_i_glide_ligand_efficiency_ln>  (457) 
-1.22226

>  <r_i_glide_gscore>  (457) 
-4.1531

>  <r_i_glide_lipo>  (457) 
-0.251353

>  <r_i_glide_hbond>  (457) 
-0.16

>  <r_i_glide_metal>  (457) 
-0

>  <r_i_glide_rewards>  (457) 
-2.61249

>  <r_i_glide_evdw>  (457) 
-18.0667

>  <r_i_glide_ecoul>  (457) 
-8.0757

>  <r_i_glide_erotb>  (457) 
1.10748

>  <r_i_glide_esite>  (457) 
-0.122054

>  <r_i_glide_emodel>  (457) 
-31.9542

>  <r_i_glide_energy>  (457) 
-26.1424

>  <r_i_glide_einternal>  (457) 
3.07209

>  <r_i_glide_intrahb_reward>  (457) 
-0

>  <i_i_glide_confnum>  (457) 
4

>  <i_i_glide_posenum>  (457) 
29

>  <r_i_glide_eff_state_penalty>  (457) 
0

>  <ligand_id>  (457) 
97

>  <original_smiles>  (457) 
C1=CC(Sc2nc[nH]n2)=NC1

>  <smiles>  (457) 
[H]C1=C([H])C([H])([H])N=C1Sc1nnc([H])n1[H]

$$$$
97:1:1
     RDKit          3D

 17 18  0  0  1  0  0  0  0  0999 V2000
    3.9663   -3.4125   -3.8859 C   0  0  0  0  0  0  0  0  0  0  0  0
    5.0768   -3.2019   -3.1729 C   0  0  0  0  0  0  0  0  0  0  0  0
    4.6654   -2.3870   -2.0328 C   0  0  0  0  0  0  0  0  0  0  0  0
    5.7695   -1.8529   -0.6923 S   0  0  0  0  0  0  0  0  0  0  0  0
    4.7550   -1.1029    0.5703 C   0  0  0  0  0  0  0  0  0  0  0  0
    3.4247   -0.9635    0.4096 N   0  0  0  0  0  0  0  0  0  0  0  0
    3.0082   -0.4097    1.5450 C   0  0  0  0  0  0  0  0  0  0  0  0
    3.9972   -0.2087    2.4048 N   0  0  0  0  0  0  0  0  0  0  0  0
    5.1487   -0.6495    1.7564 N   0  0  0  0  0  0  0  0  0  0  0  0
    3.4265   -2.1040   -2.0837 N   0  0  0  0  0  0  0  0  0  0  0  0
    2.8095   -2.7184   -3.2222 C   0  0  0  0  0  0  0  0  0  0  0  0
    2.8735   -1.2256   -0.3926 H   0  0  0  0  0  0  0  0  0  0  0  0
    3.8705   -3.9963   -4.7912 H   0  0  0  0  0  0  0  0  0  0  0  0
    6.0968   -3.5572   -3.3645 H   0  0  0  0  0  0  0  0  0  0  0  0
    1.9669   -0.1706    1.7229 H   0  0  0  0  0  0  0  0  0  0  0  0
    2.3194   -1.9950   -3.8609 H   0  0  0  0  0  0  0  0  0  0  0  0
    2.0441   -3.4144   -2.9188 H   0  0  0  0  0  0  0  0  0  0  0  0
  1 11  1  0
  1  2  2  0
  1 13  1  0
  2  3  1  0
  2 14  1  0
  3  4  1  0
  3 10  2  0
  4  5  1  0
  5  9  2  0
  5  6  1  0
  6 12  1  0
  6  7  1  0
  7 15  1  0
  7  8  2  0
  8  9  1  0
 10 11  1  0
 11 16  1  0
 11 17  1  0
M  END
>  <i_m_ct_stereo_status>  (458) 
1

>  <s_m_source_file>  (458) 
/var/tmp/pbs.5102264.sched01/tmpspb9n5yc/161wrz3epul.sdf

>  <i_m_source_file_index>  (458) 
5

>  <i_lp_mmshare_version>  (458) 
48012

>  <i_f3d_flags>  (458) 
0

>  <s_epik_input>  (458) 
W0NIXTE9W0NIXVtDSDJdTj1DMVNjMm5bY0hdW25IXW4y

>  <s_epik_cmdline>  (458) 
J2VwaWtfcHl0aG9uJywgJy1waHQnLCAnMi4wJywgJy1waCcsICc3LjAnLCAnLXRuJywgJzgnLCAnLW1hJywgJzIwMCcsICctaW1hZScsICc8aW5maWxlLm1hZT4nLCAnLW9tYWUnLCAnPG91dGZpbGUubWFlPic=

>  <r_lp_tautomer_probability>  (458) 
0.0517155

>  <r_epik_Ionization_Penalty>  (458) 
4.02255

>  <r_epik_Ionization_Penalty_Charging>  (458) 
0

>  <r_epik_Ionization_Penalty_Neutral>  (458) 
4.02255

>  <r_epik_State_Penalty>  (458) 
1.8651

>  <r_epik_Charging_Adjusted_Penalty>  (458) 
1.8651

>  <i_epik_Tot_Q>  (458) 
0

>  <i_epik_Tot_abs_Q>  (458) 
0

>  <s_epik_Chemistry_Notes>  (458) 
This compound has an imine and may undergo hydrolysis.

>  <s_lp_Force_Field>  (458) 
OPLS3e

>  <r_lp_Energy>  (458) 
-3.52715

>  <b_lp_Chiralities_Consistent>  (458) 
1

>  <s_lp_Variant>  (458) 
97:0-2

>  <s_i_glide_gridfile>  (458) 
pfpi4k_grid

>  <i_i_glide_lignum>  (458) 
5

>  <i_i_glide_rotatable_bonds>  (458) 
2

>  <r_i_docking_score>  (458) 
-3.67876

>  <r_i_glide_ligand_efficiency>  (458) 
-0.334433

>  <r_i_glide_ligand_efficiency_sa>  (458) 
-0.743772

>  <r_i_glide_ligand_efficiency_ln>  (458) 
-1.08266

>  <r_i_glide_gscore>  (458) 
-3.67876

>  <r_i_glide_lipo>  (458) 
-0.409721

>  <r_i_glide_hbond>  (458) 
-0.0579583

>  <r_i_glide_metal>  (458) 
-0

>  <r_i_glide_rewards>  (458) 
-2.85245

>  <r_i_glide_evdw>  (458) 
-21.4413

>  <r_i_glide_ecoul>  (458) 
-1.94606

>  <r_i_glide_erotb>  (458) 
1.10748

>  <r_i_glide_esite>  (458) 
-0.102143

>  <r_i_glide_emodel>  (458) 
-33.9137

>  <r_i_glide_energy>  (458) 
-23.3873

>  <r_i_glide_einternal>  (458) 
1.8782

>  <r_i_glide_intrahb_reward>  (458) 
-0.5

>  <i_i_glide_confnum>  (458) 
3

>  <i_i_glide_posenum>  (458) 
3

>  <r_i_glide_eff_state_penalty>  (458) 
0

>  <ligand_id>  (458) 
97

>  <original_smiles>  (458) 
C1=CC(Sc2nc[nH]n2)=NC1

>  <smiles>  (458) 
[H]C1=C([H])C([H])([H])N=C1Sc1nnc([H])n1[H]

$$$$
97:1:2
     RDKit          3D

 17 18  0  0  1  0  0  0  0  0999 V2000
    3.9456   -0.3013   -3.2608 C   0  0  0  0  0  0  0  0  0  0  0  0
    4.2146   -0.8700   -2.0976 C   0  0  0  0  0  0  0  0  0  0  0  0
    4.1503   -2.3108   -2.3227 C   0  0  0  0  0  0  0  0  0  0  0  0
    4.2563   -3.5321   -1.0062 S   0  0  0  0  0  0  0  0  0  0  0  0
    4.0365   -2.5599    0.4579 C   0  0  0  0  0  0  0  0  0  0  0  0
    2.9973   -1.7204    0.5645 N   0  0  0  0  0  0  0  0  0  0  0  0
    3.2145   -1.1021    1.7226 C   0  0  0  0  0  0  0  0  0  0  0  0
    4.3280   -1.5126    2.3369 N   0  0  0  0  0  0  0  0  0  0  0  0
    4.8617   -2.4949    1.5047 N   0  0  0  0  0  0  0  0  0  0  0  0
    3.9675   -2.6003   -3.5511 N   0  0  0  0  0  0  0  0  0  0  0  0
    3.7856   -1.3590   -4.3009 C   0  0  0  0  0  0  0  0  0  0  0  0
    2.2478   -1.5329   -0.1120 H   0  0  0  0  0  0  0  0  0  0  0  0
    3.8561    0.7571   -3.4529 H   0  0  0  0  0  0  0  0  0  0  0  0
    4.3908   -0.3842   -1.1488 H   0  0  0  0  0  0  0  0  0  0  0  0
    2.5640   -0.3089    2.0789 H   0  0  0  0  0  0  0  0  0  0  0  0
    2.7871   -1.2967   -4.7310 H   0  0  0  0  0  0  0  0  0  0  0  0
    4.5435   -1.2287   -5.0742 H   0  0  0  0  0  0  0  0  0  0  0  0
  1 11  1  0
  1  2  2  0
  1 13  1  0
  2  3  1  0
  2 14  1  0
  3  4  1  0
  3 10  2  0
  4  5  1  0
  5  9  2  0
  5  6  1  0
  6 12  1  0
  6  7  1  0
  7 15  1  0
  7  8  2  0
  8  9  1  0
 10 11  1  0
 11 16  1  0
 11 17  1  0
M  END
>  <i_m_ct_stereo_status>  (459) 
1

>  <s_m_source_file>  (459) 
/var/tmp/pbs.5102264.sched01/tmpspb9n5yc/161wrz3epul.sdf

>  <i_m_source_file_index>  (459) 
5

>  <i_lp_mmshare_version>  (459) 
48012

>  <i_f3d_flags>  (459) 
0

>  <s_epik_input>  (459) 
W0NIXTE9W0NIXVtDSDJdTj1DMVNjMm5bY0hdW25IXW4y

>  <s_epik_cmdline>  (459) 
J2VwaWtfcHl0aG9uJywgJy1waHQnLCAnMi4wJywgJy1waCcsICc3LjAnLCAnLXRuJywgJzgnLCAnLW1hJywgJzIwMCcsICctaW1hZScsICc8aW5maWxlLm1hZT4nLCAnLW9tYWUnLCAnPG91dGZpbGUubWFlPic=

>  <r_lp_tautomer_probability>  (459) 
0.0517155

>  <r_epik_Ionization_Penalty>  (459) 
4.02255

>  <r_epik_Ionization_Penalty_Charging>  (459) 
0

>  <r_epik_Ionization_Penalty_Neutral>  (459) 
4.02255

>  <r_epik_State_Penalty>  (459) 
1.8651

>  <r_epik_Charging_Adjusted_Penalty>  (459) 
1.8651

>  <i_epik_Tot_Q>  (459) 
0

>  <i_epik_Tot_abs_Q>  (459) 
0

>  <s_epik_Chemistry_Notes>  (459) 
This compound has an imine and may undergo hydrolysis.

>  <s_lp_Force_Field>  (459) 
OPLS3e

>  <r_lp_Energy>  (459) 
-3.52715

>  <b_lp_Chiralities_Consistent>  (459) 
1

>  <s_lp_Variant>  (459) 
97:0-2

>  <s_i_glide_gridfile>  (459) 
pfpi4k_grid

>  <i_i_glide_lignum>  (459) 
5

>  <i_i_glide_rotatable_bonds>  (459) 
2

>  <r_i_docking_score>  (459) 
-3.29947

>  <r_i_glide_ligand_efficiency>  (459) 
-0.299952

>  <r_i_glide_ligand_efficiency_sa>  (459) 
-0.667088

>  <r_i_glide_ligand_efficiency_ln>  (459) 
-0.971035

>  <r_i_glide_gscore>  (459) 
-3.29947

>  <r_i_glide_lipo>  (459) 
-0.20344

>  <r_i_glide_hbond>  (459) 
-0.16

>  <r_i_glide_metal>  (459) 
-0

>  <r_i_glide_rewards>  (459) 
-2.31852

>  <r_i_glide_evdw>  (459) 
-18.2171

>  <r_i_glide_ecoul>  (459) 
-4.76833

>  <r_i_glide_erotb>  (459) 
1.10748

>  <r_i_glide_esite>  (459) 
-0.0988999

>  <r_i_glide_emodel>  (459) 
-27.516

>  <r_i_glide_energy>  (459) 
-22.9854

>  <r_i_glide_einternal>  (459) 
2.57595

>  <r_i_glide_intrahb_reward>  (459) 
-0

>  <i_i_glide_confnum>  (459) 
4

>  <i_i_glide_posenum>  (459) 
30

>  <r_i_glide_eff_state_penalty>  (459) 
0

>  <ligand_id>  (459) 
97

>  <original_smiles>  (459) 
C1=CC(Sc2nc[nH]n2)=NC1

>  <smiles>  (459) 
[H]C1=C([H])C([H])([H])N=C1Sc1nnc([H])n1[H]

$$$$
98:0:0
     RDKit          3D

 12 13  0  0  1  0  0  0  0  0999 V2000
   -8.9553   -6.7040   -8.2840 Cl  0  0  0  0  0  0  0  0  0  0  0  0
   -8.1105   -6.0857   -6.9091 C   0  0  0  0  0  0  0  0  0  0  0  0
   -8.5278   -4.8915   -6.2843 C   0  0  0  0  0  0  0  0  0  0  0  0
   -7.8310   -4.3701   -5.1717 C   0  0  0  0  0  0  0  0  0  0  0  0
   -6.6954   -5.0247   -4.6524 C   0  0  0  0  0  0  0  0  0  0  0  0
   -6.2584   -6.2159   -5.2593 C   0  0  0  0  0  0  0  0  0  0  0  0
   -4.9797   -7.4128   -5.1059 S   0  0  0  0  0  0  0  0  0  0  0  0
   -6.0434   -8.2032   -6.7474 S   0  0  0  0  0  0  0  0  0  0  0  0
   -6.9886   -6.7638   -6.4067 C   0  0  0  0  0  0  0  0  0  0  0  0
   -9.3944   -4.3704   -6.6647 H   0  0  0  0  0  0  0  0  0  0  0  0
   -8.1729   -3.4532   -4.7210 H   0  0  0  0  0  0  0  0  0  0  0  0
   -6.1734   -4.6121   -3.8008 H   0  0  0  0  0  0  0  0  0  0  0  0
  1  2  1  0
  2  9  2  0
  2  3  1  0
  3  4  2  0
  3 10  1  0
  4  5  1  0
  4 11  1  0
  5  6  2  0
  5 12  1  0
  6  9  1  0
  6  7  1  0
  7  8  1  0
  8  9  1  0
M  END
>  <i_m_ct_stereo_status>  (460) 
1

>  <s_m_source_file>  (460) 
/var/tmp/pbs.5102264.sched01/tmpspb9n5yc/161wrz3epul.sdf

>  <i_m_source_file_index>  (460) 
6

>  <i_lp_mmshare_version>  (460) 
48012

>  <i_f3d_flags>  (460) 
0

>  <s_epik_input>  (460) 
czFzYyhjMTIpYyhDbClbY0hdW2NIXVtjSF0y

>  <s_epik_cmdline>  (460) 
J2VwaWtfcHl0aG9uJywgJy1waHQnLCAnMi4wJywgJy1waCcsICc3LjAnLCAnLXRuJywgJzgnLCAnLW1hJywgJzIwMCcsICctaW1hZScsICc8aW5maWxlLm1hZT4nLCAnLW9tYWUnLCAnPG91dGZpbGUubWFlPic=

>  <r_lp_tautomer_probability>  (460) 
1

>  <r_epik_Ionization_Penalty>  (460) 
0

>  <r_epik_Ionization_Penalty_Charging>  (460) 
0

>  <r_epik_Ionization_Penalty_Neutral>  (460) 
0

>  <r_epik_State_Penalty>  (460) 
-0

>  <r_epik_Charging_Adjusted_Penalty>  (460) 
0

>  <i_epik_Tot_Q>  (460) 
0

>  <i_epik_Tot_abs_Q>  (460) 
0

>  <s_lp_Force_Field>  (460) 
OPLS3e

>  <r_lp_Energy>  (460) 
12.9822

>  <b_lp_Chiralities_Consistent>  (460) 
1

>  <s_lp_Variant>  (460) 
98:0-1

>  <s_i_glide_gridfile>  (460) 
pfpi4k_grid

>  <i_i_glide_lignum>  (460) 
6

>  <i_i_glide_rotatable_bonds>  (460) 
0

>  <r_i_docking_score>  (460) 
-6.48874

>  <r_i_glide_ligand_efficiency>  (460) 
-0.720971

>  <r_i_glide_ligand_efficiency_sa>  (460) 
-1.49968

>  <r_i_glide_ligand_efficiency_ln>  (460) 
-2.02949

>  <r_i_glide_gscore>  (460) 
-6.48874

>  <r_i_glide_lipo>  (460) 
-2.37285

>  <r_i_glide_hbond>  (460) 
0

>  <r_i_glide_metal>  (460) 
-0

>  <r_i_glide_rewards>  (460) 
-3.00981

>  <r_i_glide_evdw>  (460) 
-22.2087

>  <r_i_glide_ecoul>  (460) 
0.0290205

>  <r_i_glide_erotb>  (460) 
0

>  <r_i_glide_esite>  (460) 
0

>  <r_i_glide_emodel>  (460) 
-31.3851

>  <r_i_glide_energy>  (460) 
-22.1797

>  <r_i_glide_einternal>  (460) 
0

>  <r_i_glide_intrahb_reward>  (460) 
-0

>  <i_i_glide_confnum>  (460) 
1

>  <i_i_glide_posenum>  (460) 
1

>  <r_i_glide_eff_state_penalty>  (460) 
0

>  <ligand_id>  (460) 
98

>  <original_smiles>  (460) 
Clc1cccc2ssc12

>  <smiles>  (460) 
[H]c1c([H])c(Cl)c2ssc2c1[H]

$$$$
98:0:1
     RDKit          3D

 12 13  0  0  1  0  0  0  0  0999 V2000
   -9.6829   -4.5461   -7.2180 Cl  0  0  0  0  0  0  0  0  0  0  0  0
   -8.3619   -5.0542   -6.2294 C   0  0  0  0  0  0  0  0  0  0  0  0
   -7.9488   -4.2610   -5.1403 C   0  0  0  0  0  0  0  0  0  0  0  0
   -6.8700   -4.6555   -4.3183 C   0  0  0  0  0  0  0  0  0  0  0  0
   -6.1779   -5.8588   -4.5593 C   0  0  0  0  0  0  0  0  0  0  0  0
   -6.5689   -6.6685   -5.6379 C   0  0  0  0  0  0  0  0  0  0  0  0
   -6.1138   -8.1862   -6.3954 S   0  0  0  0  0  0  0  0  0  0  0  0
   -7.7266   -7.5966   -7.6311 S   0  0  0  0  0  0  0  0  0  0  0  0
   -7.6852   -6.2569   -6.4938 C   0  0  0  0  0  0  0  0  0  0  0  0
   -8.4675   -3.3388   -4.9305 H   0  0  0  0  0  0  0  0  0  0  0  0
   -6.5808   -4.0289   -3.4878 H   0  0  0  0  0  0  0  0  0  0  0  0
   -5.3586   -6.1566   -3.9213 H   0  0  0  0  0  0  0  0  0  0  0  0
  1  2  1  0
  2  9  2  0
  2  3  1  0
  3  4  2  0
  3 10  1  0
  4  5  1  0
  4 11  1  0
  5  6  2  0
  5 12  1  0
  6  9  1  0
  6  7  1  0
  7  8  1  0
  8  9  1  0
M  END
>  <i_m_ct_stereo_status>  (461) 
1

>  <s_m_source_file>  (461) 
/var/tmp/pbs.5102264.sched01/tmpspb9n5yc/161wrz3epul.sdf

>  <i_m_source_file_index>  (461) 
6

>  <i_lp_mmshare_version>  (461) 
48012

>  <i_f3d_flags>  (461) 
0

>  <s_epik_input>  (461) 
czFzYyhjMTIpYyhDbClbY0hdW2NIXVtjSF0y

>  <s_epik_cmdline>  (461) 
J2VwaWtfcHl0aG9uJywgJy1waHQnLCAnMi4wJywgJy1waCcsICc3LjAnLCAnLXRuJywgJzgnLCAnLW1hJywgJzIwMCcsICctaW1hZScsICc8aW5maWxlLm1hZT4nLCAnLW9tYWUnLCAnPG91dGZpbGUubWFlPic=

>  <r_lp_tautomer_probability>  (461) 
1

>  <r_epik_Ionization_Penalty>  (461) 
0

>  <r_epik_Ionization_Penalty_Charging>  (461) 
0

>  <r_epik_Ionization_Penalty_Neutral>  (461) 
0

>  <r_epik_State_Penalty>  (461) 
-0

>  <r_epik_Charging_Adjusted_Penalty>  (461) 
0

>  <i_epik_Tot_Q>  (461) 
0

>  <i_epik_Tot_abs_Q>  (461) 
0

>  <s_lp_Force_Field>  (461) 
OPLS3e

>  <r_lp_Energy>  (461) 
12.9822

>  <b_lp_Chiralities_Consistent>  (461) 
1

>  <s_lp_Variant>  (461) 
98:0-1

>  <s_i_glide_gridfile>  (461) 
pfpi4k_grid

>  <i_i_glide_lignum>  (461) 
6

>  <i_i_glide_rotatable_bonds>  (461) 
0

>  <r_i_docking_score>  (461) 
-6.21561

>  <r_i_glide_ligand_efficiency>  (461) 
-0.690623

>  <r_i_glide_ligand_efficiency_sa>  (461) 
-1.43655

>  <r_i_glide_ligand_efficiency_ln>  (461) 
-1.94406

>  <r_i_glide_gscore>  (461) 
-6.21561

>  <r_i_glide_lipo>  (461) 
-2.35019

>  <r_i_glide_hbond>  (461) 
0

>  <r_i_glide_metal>  (461) 
-0

>  <r_i_glide_rewards>  (461) 
-2.7026

>  <r_i_glide_evdw>  (461) 
-22.2424

>  <r_i_glide_ecoul>  (461) 
-0.338015

>  <r_i_glide_erotb>  (461) 
0

>  <r_i_glide_esite>  (461) 
0

>  <r_i_glide_emodel>  (461) 
-31.3994

>  <r_i_glide_energy>  (461) 
-22.5804

>  <r_i_glide_einternal>  (461) 
0

>  <r_i_glide_intrahb_reward>  (461) 
-0

>  <i_i_glide_confnum>  (461) 
2

>  <i_i_glide_posenum>  (461) 
5

>  <r_i_glide_eff_state_penalty>  (461) 
0

>  <ligand_id>  (461) 
98

>  <original_smiles>  (461) 
Clc1cccc2ssc12

>  <smiles>  (461) 
[H]c1c([H])c(Cl)c2ssc2c1[H]

$$$$
98:0:2
     RDKit          3D

 12 13  0  0  1  0  0  0  0  0999 V2000
   -8.1957   -7.5175   -8.2846 Cl  0  0  0  0  0  0  0  0  0  0  0  0
   -8.5715   -6.1368   -7.3206 C   0  0  0  0  0  0  0  0  0  0  0  0
   -9.7270   -5.3673   -7.5691 C   0  0  0  0  0  0  0  0  0  0  0  0
  -10.0377   -4.2409   -6.7726 C   0  0  0  0  0  0  0  0  0  0  0  0
   -9.1907   -3.8492   -5.7146 C   0  0  0  0  0  0  0  0  0  0  0  0
   -8.0367   -4.6021   -5.4396 C   0  0  0  0  0  0  0  0  0  0  0  0
   -6.6822   -4.6298   -4.3196 S   0  0  0  0  0  0  0  0  0  0  0  0
   -6.2549   -6.3398   -5.4790 S   0  0  0  0  0  0  0  0  0  0  0  0
   -7.7292   -5.7791   -6.2555 C   0  0  0  0  0  0  0  0  0  0  0  0
  -10.3891   -5.6570   -8.3701 H   0  0  0  0  0  0  0  0  0  0  0  0
  -10.9378   -3.6706   -6.9661 H   0  0  0  0  0  0  0  0  0  0  0  0
   -9.4373   -2.9831   -5.1172 H   0  0  0  0  0  0  0  0  0  0  0  0
  1  2  1  0
  2  9  2  0
  2  3  1  0
  3  4  2  0
  3 10  1  0
  4  5  1  0
  4 11  1  0
  5  6  2  0
  5 12  1  0
  6  9  1  0
  6  7  1  0
  7  8  1  0
  8  9  1  0
M  END
>  <i_m_ct_stereo_status>  (462) 
1

>  <s_m_source_file>  (462) 
/var/tmp/pbs.5102264.sched01/tmpspb9n5yc/161wrz3epul.sdf

>  <i_m_source_file_index>  (462) 
6

>  <i_lp_mmshare_version>  (462) 
48012

>  <i_f3d_flags>  (462) 
0

>  <s_epik_input>  (462) 
czFzYyhjMTIpYyhDbClbY0hdW2NIXVtjSF0y

>  <s_epik_cmdline>  (462) 
J2VwaWtfcHl0aG9uJywgJy1waHQnLCAnMi4wJywgJy1waCcsICc3LjAnLCAnLXRuJywgJzgnLCAnLW1hJywgJzIwMCcsICctaW1hZScsICc8aW5maWxlLm1hZT4nLCAnLW9tYWUnLCAnPG91dGZpbGUubWFlPic=

>  <r_lp_tautomer_probability>  (462) 
1

>  <r_epik_Ionization_Penalty>  (462) 
0

>  <r_epik_Ionization_Penalty_Charging>  (462) 
0

>  <r_epik_Ionization_Penalty_Neutral>  (462) 
0

>  <r_epik_State_Penalty>  (462) 
-0

>  <r_epik_Charging_Adjusted_Penalty>  (462) 
0

>  <i_epik_Tot_Q>  (462) 
0

>  <i_epik_Tot_abs_Q>  (462) 
0

>  <s_lp_Force_Field>  (462) 
OPLS3e

>  <r_lp_Energy>  (462) 
12.9822

>  <b_lp_Chiralities_Consistent>  (462) 
1

>  <s_lp_Variant>  (462) 
98:0-1

>  <s_i_glide_gridfile>  (462) 
pfpi4k_grid

>  <i_i_glide_lignum>  (462) 
6

>  <i_i_glide_rotatable_bonds>  (462) 
0

>  <r_i_docking_score>  (462) 
-5.95928

>  <r_i_glide_ligand_efficiency>  (462) 
-0.662142

>  <r_i_glide_ligand_efficiency_sa>  (462) 
-1.37731

>  <r_i_glide_ligand_efficiency_ln>  (462) 
-1.86389

>  <r_i_glide_gscore>  (462) 
-5.95928

>  <r_i_glide_lipo>  (462) 
-2.22375

>  <r_i_glide_hbond>  (462) 
0

>  <r_i_glide_metal>  (462) 
-0

>  <r_i_glide_rewards>  (462) 
-2.65981

>  <r_i_glide_evdw>  (462) 
-22.9555

>  <r_i_glide_ecoul>  (462) 
0.480324

>  <r_i_glide_erotb>  (462) 
0

>  <r_i_glide_esite>  (462) 
0

>  <r_i_glide_emodel>  (462) 
-30.9264

>  <r_i_glide_energy>  (462) 
-22.4751

>  <r_i_glide_einternal>  (462) 
0

>  <r_i_glide_intrahb_reward>  (462) 
-0

>  <i_i_glide_confnum>  (462) 
2

>  <i_i_glide_posenum>  (462) 
21

>  <r_i_glide_eff_state_penalty>  (462) 
0

>  <ligand_id>  (462) 
98

>  <original_smiles>  (462) 
Clc1cccc2ssc12

>  <smiles>  (462) 
[H]c1c([H])c(Cl)c2ssc2c1[H]

$$$$
99:0:0
     RDKit          3D

 32 34  0  0  1  0  0  0  0  0999 V2000
    2.3980   -2.7520   -3.6091 C   0  0  0  0  0  0  0  0  0  0  0  0
    3.3873   -1.6910   -3.1353 C   0  0  0  0  0  0  0  0  0  0  0  0
    3.6789   -0.6730   -4.2337 C   0  0  0  0  0  0  0  0  0  0  0  0
    3.9232   -1.6896   -1.8879 C   0  0  0  0  0  0  0  0  0  0  0  0
    4.8819   -0.6665   -1.4366 C   0  0  0  0  0  0  0  0  0  0  0  0
    5.4018   -0.6731   -0.1882 C   0  0  0  0  0  0  0  0  0  0  0  0
    4.9932   -1.7195    0.7293 C   0  0  0  0  0  0  0  0  0  0  0  0
    5.3535   -1.9443    1.9988 C   0  0  0  0  0  0  0  0  0  0  0  0
    4.6633   -3.1777    2.5749 C   0  0  0  0  0  0  0  0  0  0  0  0
    3.8534   -3.5647    1.3361 C   0  0  0  0  0  0  0  0  0  0  0  0
    2.9819   -4.6765    1.2624 N   0  0  0  0  0  0  0  0  0  0  0  0
    2.7947   -5.5073    2.3670 C   0  0  0  0  0  0  0  0  0  0  0  0
    1.8875   -6.4659    1.9656 C   0  0  0  0  0  0  0  0  0  0  0  0
    1.4781   -6.2130    0.6552 N   0  0  0  0  0  0  0  0  0  0  0  0
    2.2120   -5.1693    0.2876 C   0  0  0  0  0  0  0  0  0  0  0  0
    4.0619   -2.7190    0.3084 C   0  0  0  0  0  0  0  0  0  0  0  0
    3.5525   -2.6884   -0.9829 N   0  0  0  0  0  0  0  0  0  0  0  0
    2.7974   -3.2661   -4.4807 H   0  0  0  0  0  0  0  0  0  0  0  0
    1.4692   -2.2778   -3.9197 H   0  0  0  0  0  0  0  0  0  0  0  0
    2.1428   -3.5075   -2.8685 H   0  0  0  0  0  0  0  0  0  0  0  0
    2.7522   -0.1985   -4.5538 H   0  0  0  0  0  0  0  0  0  0  0  0
    4.0987   -1.1738   -5.1037 H   0  0  0  0  0  0  0  0  0  0  0  0
    4.3586    0.1278   -3.9624 H   0  0  0  0  0  0  0  0  0  0  0  0
    5.1789    0.1244   -2.1022 H   0  0  0  0  0  0  0  0  0  0  0  0
    6.0916    0.0988    0.1307 H   0  0  0  0  0  0  0  0  0  0  0  0
    6.0507   -1.3362    2.5570 H   0  0  0  0  0  0  0  0  0  0  0  0
    5.3905   -3.9378    2.8552 H   0  0  0  0  0  0  0  0  0  0  0  0
    4.0431   -2.9190    3.4324 H   0  0  0  0  0  0  0  0  0  0  0  0
    3.2872   -5.3795    3.3212 H   0  0  0  0  0  0  0  0  0  0  0  0
    1.4847   -7.3107    2.5054 H   0  0  0  0  0  0  0  0  0  0  0  0
    2.1225   -4.7650   -0.7069 H   0  0  0  0  0  0  0  0  0  0  0  0
    2.8792   -3.3784   -1.2851 H   0  0  0  0  0  0  0  0  0  0  0  0
  1  2  1  0
  1 18  1  0
  1 19  1  0
  1 20  1  0
  2  3  1  0
  2  4  2  3
  3 21  1  0
  3 22  1  0
  3 23  1  0
  4 17  1  0
  4  5  1  0
  5  6  2  0
  5 24  1  0
  6  7  1  0
  6 25  1  0
  7 16  1  0
  7  8  2  0
  8  9  1  0
  8 26  1  0
  9 10  1  0
  9 27  1  0
  9 28  1  0
 10 11  1  0
 10 16  2  0
 11 15  1  0
 11 12  1  0
 12 13  2  0
 12 29  1  0
 13 14  1  0
 13 30  1  0
 14 15  2  0
 15 31  1  0
 16 17  1  0
 17 32  1  0
M  END
>  <i_m_ct_stereo_status>  (463) 
1

>  <s_m_source_file>  (463) 
/var/tmp/pbs.5102264.sched01/tmpspb9n5yc/161wrz3epul.sdf

>  <i_m_source_file_index>  (463) 
7

>  <i_lp_mmshare_version>  (463) 
48012

>  <i_f3d_flags>  (463) 
0

>  <s_epik_input>  (463) 
W0NIM11DKFtDSDNdKT1DKFtDSF09W0NIXTEpW05IXUMoQzE9Mik9QyhbQ0gyXVtDSF0yKW4zW2NIXVtjSF1uW2NIXTM=

>  <s_epik_cmdline>  (463) 
J2VwaWtfcHl0aG9uJywgJy1waHQnLCAnMi4wJywgJy1waCcsICc3LjAnLCAnLXRuJywgJzgnLCAnLW1hJywgJzIwMCcsICctaW1hZScsICc8aW5maWxlLm1hZT4nLCAnLW9tYWUnLCAnPG91dGZpbGUubWFlPic=

>  <r_epik_Ionization_Penalty>  (463) 
0.0169016

>  <r_epik_Ionization_Penalty_Charging>  (463) 
0.0168989

>  <r_epik_Ionization_Penalty_Neutral>  (463) 
2.63976e-06

>  <r_epik_State_Penalty>  (463) 
0.0133644

>  <r_epik_Charging_Adjusted_Penalty>  (463) 
0.0302633

>  <i_epik_Tot_Q>  (463) 
0

>  <i_epik_Tot_abs_Q>  (463) 
0

>  <s_epik_Chemistry_Notes>  (463) 
This compound has an imine and may undergo hydrolysis.

>  <s_lp_Force_Field>  (463) 
OPLS3e

>  <r_lp_Energy>  (463) 
10.8737

>  <b_lp_Chiralities_Consistent>  (463) 
1

>  <s_lp_Variant>  (463) 
99:0-1

>  <s_i_glide_gridfile>  (463) 
pfpi4k_grid

>  <i_i_glide_lignum>  (463) 
7

>  <i_i_glide_rotatable_bonds>  (463) 
1

>  <r_i_docking_score>  (463) 
-3.95662

>  <r_i_glide_ligand_efficiency>  (463) 
-0.232743

>  <r_i_glide_ligand_efficiency_sa>  (463) 
-0.598447

>  <r_i_glide_ligand_efficiency_ln>  (463) 
-1.0322

>  <r_i_glide_gscore>  (463) 
-3.95662

>  <r_i_glide_lipo>  (463) 
-0.675151

>  <r_i_glide_hbond>  (463) 
-0.0915943

>  <r_i_glide_metal>  (463) 
-0

>  <r_i_glide_rewards>  (463) 
-1.87303

>  <r_i_glide_evdw>  (463) 
-20.7384

>  <r_i_glide_ecoul>  (463) 
-3.41744

>  <r_i_glide_erotb>  (463) 
0.334316

>  <r_i_glide_esite>  (463) 
-0.101628

>  <r_i_glide_emodel>  (463) 
-29.7062

>  <r_i_glide_energy>  (463) 
-24.1559

>  <r_i_glide_einternal>  (463) 
0.194081

>  <r_i_glide_intrahb_reward>  (463) 
-0

>  <i_i_glide_confnum>  (463) 
2

>  <i_i_glide_posenum>  (463) 
9

>  <r_i_glide_eff_state_penalty>  (463) 
0

>  <ligand_id>  (463) 
99

>  <original_smiles>  (463) 
CC(C)=C1C=CC2=CCC(n3ccnc3)=C2N1

>  <smiles>  (463) 
[H]C1=C([H])C(=C(C([H])([H])[H])C([H])([H])[H])N([H])C2=C(n3c([H])nc([H])c3[H])C([H])([H])C([H])=C12

$$$$
99:0:1
     RDKit          3D

 32 34  0  0  1  0  0  0  0  0999 V2000
    2.2713   -3.0906   -2.7482 C   0  0  0  0  0  0  0  0  0  0  0  0
    3.7454   -2.7700   -2.5650 C   0  0  0  0  0  0  0  0  0  0  0  0
    4.1971   -1.7482   -3.5908 C   0  0  0  0  0  0  0  0  0  0  0  0
    4.5240   -3.3268   -1.5999 C   0  0  0  0  0  0  0  0  0  0  0  0
    5.9590   -3.0170   -1.4424 C   0  0  0  0  0  0  0  0  0  0  0  0
    6.7121   -3.5946   -0.4803 C   0  0  0  0  0  0  0  0  0  0  0  0
    6.0872   -4.5519    0.4152 C   0  0  0  0  0  0  0  0  0  0  0  0
    6.6068   -5.2598    1.4254 C   0  0  0  0  0  0  0  0  0  0  0  0
    5.5645   -6.1607    2.0808 C   0  0  0  0  0  0  0  0  0  0  0  0
    4.3735   -5.7843    1.2020 C   0  0  0  0  0  0  0  0  0  0  0  0
    3.0654   -6.2958    1.3627 N   0  0  0  0  0  0  0  0  0  0  0  0
    2.8161   -7.3635    2.2237 C   0  0  0  0  0  0  0  0  0  0  0  0
    1.4616   -7.6051    2.1283 C   0  0  0  0  0  0  0  0  0  0  0  0
    0.8667   -6.6861    1.2604 N   0  0  0  0  0  0  0  0  0  0  0  0
    1.8872   -5.9585    0.8318 C   0  0  0  0  0  0  0  0  0  0  0  0
    4.6996   -4.8651    0.2736 C   0  0  0  0  0  0  0  0  0  0  0  0
    3.9493   -4.2384   -0.7108 N   0  0  0  0  0  0  0  0  0  0  0  0
    2.0936   -3.4684   -3.7564 H   0  0  0  0  0  0  0  0  0  0  0  0
    1.6968   -2.1789   -2.6374 H   0  0  0  0  0  0  0  0  0  0  0  0
    1.8728   -3.8177   -2.0418 H   0  0  0  0  0  0  0  0  0  0  0  0
    3.6166   -0.8290   -3.4982 H   0  0  0  0  0  0  0  0  0  0  0  0
    4.0435   -2.1344   -4.5980 H   0  0  0  0  0  0  0  0  0  0  0  0
    5.2338   -1.4777   -3.4864 H   0  0  0  0  0  0  0  0  0  0  0  0
    6.4524   -2.3270   -2.1026 H   0  0  0  0  0  0  0  0  0  0  0  0
    7.7655   -3.3573   -0.3892 H   0  0  0  0  0  0  0  0  0  0  0  0
    7.6357   -5.2152    1.7454 H   0  0  0  0  0  0  0  0  0  0  0  0
    5.8383   -7.2110    2.0067 H   0  0  0  0  0  0  0  0  0  0  0  0
    5.4198   -5.8918    3.1254 H   0  0  0  0  0  0  0  0  0  0  0  0
    3.5702   -7.8667    2.8123 H   0  0  0  0  0  0  0  0  0  0  0  0
    0.8648   -8.3648    2.6152 H   0  0  0  0  0  0  0  0  0  0  0  0
    1.7369   -5.1592    0.1278 H   0  0  0  0  0  0  0  0  0  0  0  0
    2.9952   -4.5171   -0.8770 H   0  0  0  0  0  0  0  0  0  0  0  0
  1  2  1  0
  1 18  1  0
  1 19  1  0
  1 20  1  0
  2  3  1  0
  2  4  2  3
  3 21  1  0
  3 22  1  0
  3 23  1  0
  4 17  1  0
  4  5  1  0
  5  6  2  0
  5 24  1  0
  6  7  1  0
  6 25  1  0
  7 16  1  0
  7  8  2  0
  8  9  1  0
  8 26  1  0
  9 10  1  0
  9 27  1  0
  9 28  1  0
 10 11  1  0
 10 16  2  0
 11 15  1  0
 11 12  1  0
 12 13  2  0
 12 29  1  0
 13 14  1  0
 13 30  1  0
 14 15  2  0
 15 31  1  0
 16 17  1  0
 17 32  1  0
M  END
>  <i_m_ct_stereo_status>  (464) 
1

>  <s_m_source_file>  (464) 
/var/tmp/pbs.5102264.sched01/tmpspb9n5yc/161wrz3epul.sdf

>  <i_m_source_file_index>  (464) 
7

>  <i_lp_mmshare_version>  (464) 
48012

>  <i_f3d_flags>  (464) 
0

>  <s_epik_input>  (464) 
W0NIM11DKFtDSDNdKT1DKFtDSF09W0NIXTEpW05IXUMoQzE9Mik9QyhbQ0gyXVtDSF0yKW4zW2NIXVtjSF1uW2NIXTM=

>  <s_epik_cmdline>  (464) 
J2VwaWtfcHl0aG9uJywgJy1waHQnLCAnMi4wJywgJy1waCcsICc3LjAnLCAnLXRuJywgJzgnLCAnLW1hJywgJzIwMCcsICctaW1hZScsICc8aW5maWxlLm1hZT4nLCAnLW9tYWUnLCAnPG91dGZpbGUubWFlPic=

>  <r_epik_Ionization_Penalty>  (464) 
0.0169016

>  <r_epik_Ionization_Penalty_Charging>  (464) 
0.0168989

>  <r_epik_Ionization_Penalty_Neutral>  (464) 
2.63976e-06

>  <r_epik_State_Penalty>  (464) 
0.0133644

>  <r_epik_Charging_Adjusted_Penalty>  (464) 
0.0302633

>  <i_epik_Tot_Q>  (464) 
0

>  <i_epik_Tot_abs_Q>  (464) 
0

>  <s_epik_Chemistry_Notes>  (464) 
This compound has an imine and may undergo hydrolysis.

>  <s_lp_Force_Field>  (464) 
OPLS3e

>  <r_lp_Energy>  (464) 
10.8737

>  <b_lp_Chiralities_Consistent>  (464) 
1

>  <s_lp_Variant>  (464) 
99:0-1

>  <s_i_glide_gridfile>  (464) 
pfpi4k_grid

>  <i_i_glide_lignum>  (464) 
7

>  <i_i_glide_rotatable_bonds>  (464) 
1

>  <r_i_docking_score>  (464) 
-3.81479

>  <r_i_glide_ligand_efficiency>  (464) 
-0.224399

>  <r_i_glide_ligand_efficiency_sa>  (464) 
-0.576993

>  <r_i_glide_ligand_efficiency_ln>  (464) 
-0.995193

>  <r_i_glide_gscore>  (464) 
-3.81479

>  <r_i_glide_lipo>  (464) 
-0.822485

>  <r_i_glide_hbond>  (464) 
-0.0626861

>  <r_i_glide_metal>  (464) 
-0

>  <r_i_glide_rewards>  (464) 
-1.93051

>  <r_i_glide_evdw>  (464) 
-18.8236

>  <r_i_glide_ecoul>  (464) 
-2.02115

>  <r_i_glide_erotb>  (464) 
0.334316

>  <r_i_glide_esite>  (464) 
-0.0890649

>  <r_i_glide_emodel>  (464) 
-26.032

>  <r_i_glide_energy>  (464) 
-20.8448

>  <r_i_glide_einternal>  (464) 
0.446579

>  <r_i_glide_intrahb_reward>  (464) 
-0

>  <i_i_glide_confnum>  (464) 
4

>  <i_i_glide_posenum>  (464) 
15

>  <r_i_glide_eff_state_penalty>  (464) 
0

>  <ligand_id>  (464) 
99

>  <original_smiles>  (464) 
CC(C)=C1C=CC2=CCC(n3ccnc3)=C2N1

>  <smiles>  (464) 
[H]C1=C([H])C(=C(C([H])([H])[H])C([H])([H])[H])N([H])C2=C(n3c([H])nc([H])c3[H])C([H])([H])C([H])=C12

$$$$
99:0:2
     RDKit          3D

 32 34  0  0  1  0  0  0  0  0999 V2000
    3.0658   -2.9797   -1.8665 C   0  0  0  0  0  0  0  0  0  0  0  0
    4.5403   -3.1669   -1.5218 C   0  0  0  0  0  0  0  0  0  0  0  0
    5.4162   -2.1996   -2.3057 C   0  0  0  0  0  0  0  0  0  0  0  0
    4.9881   -4.0805   -0.6226 C   0  0  0  0  0  0  0  0  0  0  0  0
    6.4187   -4.2549   -0.3060 C   0  0  0  0  0  0  0  0  0  0  0  0
    6.8431   -5.1848    0.5784 C   0  0  0  0  0  0  0  0  0  0  0  0
    5.8594   -6.0305    1.2305 C   0  0  0  0  0  0  0  0  0  0  0  0
    6.0221   -7.0090    2.1265 C   0  0  0  0  0  0  0  0  0  0  0  0
    4.6904   -7.6306    2.5340 C   0  0  0  0  0  0  0  0  0  0  0  0
    3.7789   -6.7729    1.6589 C   0  0  0  0  0  0  0  0  0  0  0  0
    2.3726   -6.8956    1.6120 N   0  0  0  0  0  0  0  0  0  0  0  0
    1.7129   -7.8576    2.3736 C   0  0  0  0  0  0  0  0  0  0  0  0
    0.3705   -7.6969    2.0950 C   0  0  0  0  0  0  0  0  0  0  0  0
    0.1903   -6.6535    1.1915 N   0  0  0  0  0  0  0  0  0  0  0  0
    1.4233   -6.2409    0.9400 C   0  0  0  0  0  0  0  0  0  0  0  0
    4.4690   -5.8706    0.9376 C   0  0  0  0  0  0  0  0  0  0  0  0
    4.0626   -4.8966    0.0379 N   0  0  0  0  0  0  0  0  0  0  0  0
    2.9114   -3.1274   -2.9350 H   0  0  0  0  0  0  0  0  0  0  0  0
    2.7612   -1.9606   -1.6298 H   0  0  0  0  0  0  0  0  0  0  0  0
    2.3873   -3.6533   -1.3459 H   0  0  0  0  0  0  0  0  0  0  0  0
    5.1101   -1.1766   -2.0869 H   0  0  0  0  0  0  0  0  0  0  0  0
    5.2691   -2.3562   -3.3737 H   0  0  0  0  0  0  0  0  0  0  0  0
    6.4805   -2.2671   -2.1136 H   0  0  0  0  0  0  0  0  0  0  0  0
    7.1724   -3.6489   -0.7773 H   0  0  0  0  0  0  0  0  0  0  0  0
    7.8985   -5.2992    0.7947 H   0  0  0  0  0  0  0  0  0  0  0  0
    6.9733   -7.3285    2.5217 H   0  0  0  0  0  0  0  0  0  0  0  0
    4.6509   -8.6902    2.2808 H   0  0  0  0  0  0  0  0  0  0  0  0
    4.5032   -7.4999    3.6004 H   0  0  0  0  0  0  0  0  0  0  0  0
    2.2058   -8.5652    3.0272 H   0  0  0  0  0  0  0  0  0  0  0  0
   -0.4831   -8.2469    2.4675 H   0  0  0  0  0  0  0  0  0  0  0  0
    1.5973   -5.4187    0.2649 H   0  0  0  0  0  0  0  0  0  0  0  0
    3.0935   -4.8198   -0.2280 H   0  0  0  0  0  0  0  0  0  0  0  0
  1  2  1  0
  1 18  1  0
  1 19  1  0
  1 20  1  0
  2  3  1  0
  2  4  2  3
  3 21  1  0
  3 22  1  0
  3 23  1  0
  4 17  1  0
  4  5  1  0
  5  6  2  0
  5 24  1  0
  6  7  1  0
  6 25  1  0
  7 16  1  0
  7  8  2  0
  8  9  1  0
  8 26  1  0
  9 10  1  0
  9 27  1  0
  9 28  1  0
 10 11  1  0
 10 16  2  0
 11 15  1  0
 11 12  1  0
 12 13  2  0
 12 29  1  0
 13 14  1  0
 13 30  1  0
 14 15  2  0
 15 31  1  0
 16 17  1  0
 17 32  1  0
M  END
>  <i_m_ct_stereo_status>  (465) 
1

>  <s_m_source_file>  (465) 
/var/tmp/pbs.5102264.sched01/tmpspb9n5yc/161wrz3epul.sdf

>  <i_m_source_file_index>  (465) 
7

>  <i_lp_mmshare_version>  (465) 
48012

>  <i_f3d_flags>  (465) 
0

>  <s_epik_input>  (465) 
W0NIM11DKFtDSDNdKT1DKFtDSF09W0NIXTEpW05IXUMoQzE9Mik9QyhbQ0gyXVtDSF0yKW4zW2NIXVtjSF1uW2NIXTM=

>  <s_epik_cmdline>  (465) 
J2VwaWtfcHl0aG9uJywgJy1waHQnLCAnMi4wJywgJy1waCcsICc3LjAnLCAnLXRuJywgJzgnLCAnLW1hJywgJzIwMCcsICctaW1hZScsICc8aW5maWxlLm1hZT4nLCAnLW9tYWUnLCAnPG91dGZpbGUubWFlPic=

>  <r_epik_Ionization_Penalty>  (465) 
0.0169016

>  <r_epik_Ionization_Penalty_Charging>  (465) 
0.0168989

>  <r_epik_Ionization_Penalty_Neutral>  (465) 
2.63976e-06

>  <r_epik_State_Penalty>  (465) 
0.0133644

>  <r_epik_Charging_Adjusted_Penalty>  (465) 
0.0302633

>  <i_epik_Tot_Q>  (465) 
0

>  <i_epik_Tot_abs_Q>  (465) 
0

>  <s_epik_Chemistry_Notes>  (465) 
This compound has an imine and may undergo hydrolysis.

>  <s_lp_Force_Field>  (465) 
OPLS3e

>  <r_lp_Energy>  (465) 
10.8737

>  <b_lp_Chiralities_Consistent>  (465) 
1

>  <s_lp_Variant>  (465) 
99:0-1

>  <s_i_glide_gridfile>  (465) 
pfpi4k_grid

>  <i_i_glide_lignum>  (465) 
7

>  <i_i_glide_rotatable_bonds>  (465) 
1

>  <r_i_docking_score>  (465) 
-3.61649

>  <r_i_glide_ligand_efficiency>  (465) 
-0.212735

>  <r_i_glide_ligand_efficiency_sa>  (465) 
-0.547001

>  <r_i_glide_ligand_efficiency_ln>  (465) 
-0.943462

>  <r_i_glide_gscore>  (465) 
-3.61649

>  <r_i_glide_lipo>  (465) 
-0.472411

>  <r_i_glide_hbond>  (465) 
-0.145661

>  <r_i_glide_metal>  (465) 
-0

>  <r_i_glide_rewards>  (465) 
-1.87303

>  <r_i_glide_evdw>  (465) 
-18.9809

>  <r_i_glide_ecoul>  (465) 
-2.76177

>  <r_i_glide_erotb>  (465) 
0.334316

>  <r_i_glide_esite>  (465) 
-0.0963967

>  <r_i_glide_emodel>  (465) 
-26.8077

>  <r_i_glide_energy>  (465) 
-21.7426

>  <r_i_glide_einternal>  (465) 
0.199011

>  <r_i_glide_intrahb_reward>  (465) 
-0

>  <i_i_glide_confnum>  (465) 
2

>  <i_i_glide_posenum>  (465) 
28

>  <r_i_glide_eff_state_penalty>  (465) 
0

>  <ligand_id>  (465) 
99

>  <original_smiles>  (465) 
CC(C)=C1C=CC2=CCC(n3ccnc3)=C2N1

>  <smiles>  (465) 
[H]C1=C([H])C(=C(C([H])([H])[H])C([H])([H])[H])N([H])C2=C(n3c([H])nc([H])c3[H])C([H])([H])C([H])=C12

$$$$
99:1:0
     RDKit          3D

 33 35  0  0  1  0  0  0  0  0999 V2000
    2.8634   -2.1597   -2.6883 C   0  0  0  0  0  0  0  0  0  0  0  0
    4.2556   -2.4441   -2.1882 C   0  0  0  0  0  0  0  0  0  0  0  0
    5.0131   -3.2784   -3.1983 C   0  0  0  0  0  0  0  0  0  0  0  0
    4.7217   -1.9961   -0.9885 C   0  0  0  0  0  0  0  0  0  0  0  0
    6.1017   -2.2997   -0.5616 C   0  0  0  0  0  0  0  0  0  0  0  0
    6.5840   -1.8664    0.6243 C   0  0  0  0  0  0  0  0  0  0  0  0
    5.7036   -1.1009    1.4745 C   0  0  0  0  0  0  0  0  0  0  0  0
    5.9418   -0.5804    2.6810 C   0  0  0  0  0  0  0  0  0  0  0  0
    4.7581    0.1294    3.2872 C   0  0  0  0  0  0  0  0  0  0  0  0
    3.8517   -0.0367    2.0668 C   0  0  0  0  0  0  0  0  0  0  0  0
    2.5417    0.4156    2.1093 N   0  0  0  0  0  0  0  0  0  0  0  0
    1.4147   -0.2298    1.7067 C   0  0  0  0  0  0  0  0  0  0  0  0
    0.3897    0.6483    1.9290 C   0  0  0  0  0  0  0  0  0  0  0  0
    0.9497    1.7839    2.4458 N   0  0  0  0  0  0  0  0  0  0  0  0
    2.2766    1.6380    2.5671 C   0  0  0  0  0  0  0  0  0  0  0  0
    4.3795   -0.7755    1.0706 C   0  0  0  0  0  0  0  0  0  0  0  0
    3.8766   -1.2320   -0.1550 N   0  0  0  0  0  0  0  0  0  0  0  0
    2.3138   -3.0861   -2.8488 H   0  0  0  0  0  0  0  0  0  0  0  0
    2.8855   -1.5850   -3.6144 H   0  0  0  0  0  0  0  0  0  0  0  0
    2.3018   -1.5867   -1.9724 H   0  0  0  0  0  0  0  0  0  0  0  0
    4.9811   -2.7401   -4.1407 H   0  0  0  0  0  0  0  0  0  0  0  0
    4.4789   -4.2162   -3.3619 H   0  0  0  0  0  0  0  0  0  0  0  0
    6.0569   -3.5025   -2.9850 H   0  0  0  0  0  0  0  0  0  0  0  0
    6.7685   -2.8957   -1.1644 H   0  0  0  0  0  0  0  0  0  0  0  0
    7.5937   -2.1142    0.9308 H   0  0  0  0  0  0  0  0  0  0  0  0
    6.8943   -0.6294    3.1521 H   0  0  0  0  0  0  0  0  0  0  0  0
    4.3943   -0.3691    4.1846 H   0  0  0  0  0  0  0  0  0  0  0  0
    4.9895    1.1488    3.5969 H   0  0  0  0  0  0  0  0  0  0  0  0
    1.3833   -1.2252    1.2935 H   0  0  0  0  0  0  0  0  0  0  0  0
   -0.6586    0.5778    1.6909 H   0  0  0  0  0  0  0  0  0  0  0  0
    2.9729    2.3982    2.9132 H   0  0  0  0  0  0  0  0  0  0  0  0
    2.9188   -1.0296   -0.4388 H   0  0  0  0  0  0  0  0  0  0  0  0
    0.4521    2.6610    2.5773 H   0  0  0  0  0  0  0  0  0  0  0  0
  1  2  1  0
  1 18  1  0
  1 19  1  0
  1 20  1  0
  2  3  1  0
  2  4  2  3
  3 21  1  0
  3 22  1  0
  3 23  1  0
  4 17  1  0
  4  5  1  0
  5  6  2  0
  5 24  1  0
  6  7  1  0
  6 25  1  0
  7 16  1  0
  7  8  2  0
  8  9  1  0
  8 26  1  0
  9 10  1  0
  9 27  1  0
  9 28  1  0
 10 11  1  0
 10 16  2  0
 11 15  1  0
 11 12  1  0
 12 13  2  0
 12 29  1  0
 13 14  1  0
 13 30  1  0
 14 15  2  0
 14 33  1  0
 15 31  1  0
 16 17  1  0
 17 32  1  0
M  CHG  1  14   1
M  END
>  <i_m_ct_stereo_status>  (466) 
1

>  <s_m_source_file>  (466) 
/var/tmp/pbs.5102264.sched01/tmpspb9n5yc/161wrz3epul.sdf

>  <i_m_source_file_index>  (466) 
8

>  <i_lp_mmshare_version>  (466) 
48012

>  <i_f3d_flags>  (466) 
0

>  <s_epik_input>  (466) 
W0NIM11DKFtDSDNdKT1DKFtDSF09W0NIXTEpW05IXUMoQzE9Mik9QyhbQ0gyXVtDSF0yKW4zW2NIXVtjSF1uW2NIXTM=

>  <s_epik_cmdline>  (466) 
J2VwaWtfcHl0aG9uJywgJy1waHQnLCAnMi4wJywgJy1waCcsICc3LjAnLCAnLXRuJywgJzgnLCAnLW1hJywgJzIwMCcsICctaW1hZScsICc8aW5maWxlLm1hZT4nLCAnLW9tYWUnLCAnPG91dGZpbGUubWFlPic=

>  <r_epik_Ionization_Penalty>  (466) 
2.11595

>  <r_epik_Ionization_Penalty_Charging>  (466) 
0

>  <r_epik_Ionization_Penalty_Neutral>  (466) 
2.11595

>  <r_epik_State_Penalty>  (466) 
2.25322

>  <r_epik_Charging_Adjusted_Penalty>  (466) 
2.25322

>  <i_epik_Tot_Q>  (466) 
1

>  <i_epik_Tot_abs_Q>  (466) 
1

>  <s_epik_Chemistry_Notes>  (466) 
This compound has an imine and may undergo hydrolysis.

>  <s_lp_Force_Field>  (466) 
OPLS3e

>  <r_lp_Energy>  (466) 
17.6564

>  <b_lp_Chiralities_Consistent>  (466) 
1

>  <s_lp_Variant>  (466) 
99:0-2

>  <s_i_glide_gridfile>  (466) 
pfpi4k_grid

>  <i_i_glide_lignum>  (466) 
8

>  <i_i_glide_rotatable_bonds>  (466) 
1

>  <r_i_docking_score>  (466) 
-4.31465

>  <r_i_glide_ligand_efficiency>  (466) 
-0.253803

>  <r_i_glide_ligand_efficiency_sa>  (466) 
-0.652598

>  <r_i_glide_ligand_efficiency_ln>  (466) 
-1.1256

>  <r_i_glide_gscore>  (466) 
-4.31465

>  <r_i_glide_lipo>  (466) 
-0.653426

>  <r_i_glide_hbond>  (466) 
-0.0839983

>  <r_i_glide_metal>  (466) 
-0

>  <r_i_glide_rewards>  (466) 
-1.93806

>  <r_i_glide_evdw>  (466) 
-15.178

>  <r_i_glide_ecoul>  (466) 
-7.2919

>  <r_i_glide_erotb>  (466) 
0.331798

>  <r_i_glide_esite>  (466) 
-0.118275

>  <r_i_glide_emodel>  (466) 
-27.2668

>  <r_i_glide_energy>  (466) 
-22.4699

>  <r_i_glide_einternal>  (466) 
4.50643

>  <r_i_glide_intrahb_reward>  (466) 
-0

>  <i_i_glide_confnum>  (466) 
4

>  <i_i_glide_posenum>  (466) 
3

>  <r_i_glide_eff_state_penalty>  (466) 
0

>  <ligand_id>  (466) 
99

>  <original_smiles>  (466) 
CC(C)=C1C=CC2=CCC(n3ccnc3)=C2N1

>  <smiles>  (466) 
[H]C1=C([H])C(=C(C([H])([H])[H])C([H])([H])[H])N([H])C2=C(n3c([H])c([H])[n+]([H])c3[H])C([H])([H])C([H])=C12

$$$$
99:1:1
     RDKit          3D

 33 35  0  0  1  0  0  0  0  0999 V2000
   -2.6951    3.0519    6.9186 C   0  0  0  0  0  0  0  0  0  0  0  0
   -2.0998    2.2571    8.0723 C   0  0  0  0  0  0  0  0  0  0  0  0
   -2.6927    2.6896    9.4101 C   0  0  0  0  0  0  0  0  0  0  0  0
   -1.1580    1.2949    7.8963 C   0  0  0  0  0  0  0  0  0  0  0  0
   -0.5744    0.5429    9.0194 C   0  0  0  0  0  0  0  0  0  0  0  0
    0.3617   -0.4081    8.8239 C   0  0  0  0  0  0  0  0  0  0  0  0
    0.8065   -0.6898    7.4699 C   0  0  0  0  0  0  0  0  0  0  0  0
    1.7132   -1.5654    7.0317 C   0  0  0  0  0  0  0  0  0  0  0  0
    1.8653   -1.5159    5.5204 C   0  0  0  0  0  0  0  0  0  0  0  0
    0.8416   -0.4167    5.2313 C   0  0  0  0  0  0  0  0  0  0  0  0
    0.5821    0.0767    3.9270 N   0  0  0  0  0  0  0  0  0  0  0  0
   -0.1302    1.1896    3.5335 C   0  0  0  0  0  0  0  0  0  0  0  0
   -0.0888    1.2201    2.1626 C   0  0  0  0  0  0  0  0  0  0  0  0
    0.6445    0.1336    1.7631 N   0  0  0  0  0  0  0  0  0  0  0  0
    1.0616   -0.5621    2.8405 C   0  0  0  0  0  0  0  0  0  0  0  0
    0.2537    0.0333    6.3644 C   0  0  0  0  0  0  0  0  0  0  0  0
   -0.7207    0.9974    6.5967 N   0  0  0  0  0  0  0  0  0  0  0  0
   -2.5192    4.1141    7.0835 H   0  0  0  0  0  0  0  0  0  0  0  0
   -3.7743    2.8983    6.8870 H   0  0  0  0  0  0  0  0  0  0  0  0
   -2.2950    2.8037    5.9361 H   0  0  0  0  0  0  0  0  0  0  0  0
   -3.7754    2.5667    9.3878 H   0  0  0  0  0  0  0  0  0  0  0  0
   -2.4967    3.7482    9.5854 H   0  0  0  0  0  0  0  0  0  0  0  0
   -2.3408    2.1489   10.2883 H   0  0  0  0  0  0  0  0  0  0  0  0
   -0.8716    0.7336   10.0349 H   0  0  0  0  0  0  0  0  0  0  0  0
    0.7751   -0.9410    9.6672 H   0  0  0  0  0  0  0  0  0  0  0  0
    2.2772   -2.2300    7.6645 H   0  0  0  0  0  0  0  0  0  0  0  0
    2.8797   -1.2327    5.2470 H   0  0  0  0  0  0  0  0  0  0  0  0
    1.6174   -2.4785    5.0734 H   0  0  0  0  0  0  0  0  0  0  0  0
   -0.6060    1.8903    4.2005 H   0  0  0  0  0  0  0  0  0  0  0  0
   -0.5205    1.9219    1.4654 H   0  0  0  0  0  0  0  0  0  0  0  0
    1.6502   -1.4678    2.8025 H   0  0  0  0  0  0  0  0  0  0  0  0
   -1.1021    1.5349    5.8352 H   0  0  0  0  0  0  0  0  0  0  0  0
    0.7880   -0.1387    0.7829 H   0  0  0  0  0  0  0  0  0  0  0  0
  1  2  1  0
  1 18  1  0
  1 19  1  0
  1 20  1  0
  2  3  1  0
  2  4  2  3
  3 21  1  0
  3 22  1  0
  3 23  1  0
  4 17  1  0
  4  5  1  0
  5  6  2  0
  5 24  1  0
  6  7  1  0
  6 25  1  0
  7 16  1  0
  7  8  2  0
  8  9  1  0
  8 26  1  0
  9 10  1  0
  9 27  1  0
  9 28  1  0
 10 11  1  0
 10 16  2  0
 11 15  1  0
 11 12  1  0
 12 13  2  0
 12 29  1  0
 13 14  1  0
 13 30  1  0
 14 15  2  0
 14 33  1  0
 15 31  1  0
 16 17  1  0
 17 32  1  0
M  CHG  1  14   1
M  END
>  <i_m_ct_stereo_status>  (467) 
1

>  <s_m_source_file>  (467) 
/var/tmp/pbs.5102264.sched01/tmpspb9n5yc/161wrz3epul.sdf

>  <i_m_source_file_index>  (467) 
8

>  <i_lp_mmshare_version>  (467) 
48012

>  <i_f3d_flags>  (467) 
0

>  <s_epik_input>  (467) 
W0NIM11DKFtDSDNdKT1DKFtDSF09W0NIXTEpW05IXUMoQzE9Mik9QyhbQ0gyXVtDSF0yKW4zW2NIXVtjSF1uW2NIXTM=

>  <s_epik_cmdline>  (467) 
J2VwaWtfcHl0aG9uJywgJy1waHQnLCAnMi4wJywgJy1waCcsICc3LjAnLCAnLXRuJywgJzgnLCAnLW1hJywgJzIwMCcsICctaW1hZScsICc8aW5maWxlLm1hZT4nLCAnLW9tYWUnLCAnPG91dGZpbGUubWFlPic=

>  <r_epik_Ionization_Penalty>  (467) 
2.11595

>  <r_epik_Ionization_Penalty_Charging>  (467) 
0

>  <r_epik_Ionization_Penalty_Neutral>  (467) 
2.11595

>  <r_epik_State_Penalty>  (467) 
2.25322

>  <r_epik_Charging_Adjusted_Penalty>  (467) 
2.25322

>  <i_epik_Tot_Q>  (467) 
1

>  <i_epik_Tot_abs_Q>  (467) 
1

>  <s_epik_Chemistry_Notes>  (467) 
This compound has an imine and may undergo hydrolysis.

>  <s_lp_Force_Field>  (467) 
OPLS3e

>  <r_lp_Energy>  (467) 
17.6564

>  <b_lp_Chiralities_Consistent>  (467) 
1

>  <s_lp_Variant>  (467) 
99:0-2

>  <s_i_glide_gridfile>  (467) 
pfpi4k_grid

>  <i_i_glide_lignum>  (467) 
8

>  <i_i_glide_rotatable_bonds>  (467) 
1

>  <r_i_docking_score>  (467) 
-3.69387

>  <r_i_glide_ligand_efficiency>  (467) 
-0.217286

>  <r_i_glide_ligand_efficiency_sa>  (467) 
-0.558704

>  <r_i_glide_ligand_efficiency_ln>  (467) 
-0.963648

>  <r_i_glide_gscore>  (467) 
-3.69387

>  <r_i_glide_lipo>  (467) 
-0.15293

>  <r_i_glide_hbond>  (467) 
-0.2

>  <r_i_glide_metal>  (467) 
-0

>  <r_i_glide_rewards>  (467) 
-1.86616

>  <r_i_glide_evdw>  (467) 
-13.5421

>  <r_i_glide_ecoul>  (467) 
-6.39118

>  <r_i_glide_erotb>  (467) 
0.331798

>  <r_i_glide_esite>  (467) 
-0.170796

>  <r_i_glide_emodel>  (467) 
-26.1347

>  <r_i_glide_energy>  (467) 
-19.9333

>  <r_i_glide_einternal>  (467) 
0.563223

>  <r_i_glide_intrahb_reward>  (467) 
-0

>  <i_i_glide_confnum>  (467) 
4

>  <i_i_glide_posenum>  (467) 
26

>  <r_i_glide_eff_state_penalty>  (467) 
0

>  <ligand_id>  (467) 
99

>  <original_smiles>  (467) 
CC(C)=C1C=CC2=CCC(n3ccnc3)=C2N1

>  <smiles>  (467) 
[H]C1=C([H])C(=C(C([H])([H])[H])C([H])([H])[H])N([H])C2=C(n3c([H])c([H])[n+]([H])c3[H])C([H])([H])C([H])=C12

$$$$
99:1:2
     RDKit          3D

 33 35  0  0  1  0  0  0  0  0999 V2000
   -2.1361    3.6673    7.2758 C   0  0  0  0  0  0  0  0  0  0  0  0
   -1.7446    2.6161    8.3031 C   0  0  0  0  0  0  0  0  0  0  0  0
   -2.3259    2.9329    9.6783 C   0  0  0  0  0  0  0  0  0  0  0  0
   -0.9641    1.5481    7.9991 C   0  0  0  0  0  0  0  0  0  0  0  0
   -0.5707    0.5473    9.0056 C   0  0  0  0  0  0  0  0  0  0  0  0
    0.2102   -0.5060    8.6883 C   0  0  0  0  0  0  0  0  0  0  0  0
    0.6712   -0.6382    7.3226 C   0  0  0  0  0  0  0  0  0  0  0  0
    1.4279   -1.5888    6.7722 C   0  0  0  0  0  0  0  0  0  0  0  0
    1.6598   -1.3350    5.2974 C   0  0  0  0  0  0  0  0  0  0  0  0
    0.8684   -0.0364    5.1603 C   0  0  0  0  0  0  0  0  0  0  0  0
    0.7555    0.5896    3.8939 N   0  0  0  0  0  0  0  0  0  0  0  0
    1.0231    0.0126    2.6756 C   0  0  0  0  0  0  0  0  0  0  0  0
    0.8032    0.9824    1.7306 C   0  0  0  0  0  0  0  0  0  0  0  0
    0.4299    2.1200    2.4030 N   0  0  0  0  0  0  0  0  0  0  0  0
    0.4005    1.8799    3.7245 C   0  0  0  0  0  0  0  0  0  0  0  0
    0.3131    0.3358    6.3316 C   0  0  0  0  0  0  0  0  0  0  0  0
   -0.5105    1.3960    6.6821 N   0  0  0  0  0  0  0  0  0  0  0  0
   -1.7880    4.6452    7.6087 H   0  0  0  0  0  0  0  0  0  0  0  0
   -3.2213    3.7022    7.1922 H   0  0  0  0  0  0  0  0  0  0  0  0
   -1.7352    3.5032    6.2764 H   0  0  0  0  0  0  0  0  0  0  0  0
   -3.4128    3.0019    9.6082 H   0  0  0  0  0  0  0  0  0  0  0  0
   -1.9591    3.9034   10.0191 H   0  0  0  0  0  0  0  0  0  0  0  0
   -2.1058    2.2130   10.4650 H   0  0  0  0  0  0  0  0  0  0  0  0
   -0.8799    0.6265   10.0360 H   0  0  0  0  0  0  0  0  0  0  0  0
    0.4908   -1.2278    9.4425 H   0  0  0  0  0  0  0  0  0  0  0  0
    1.8374   -2.4407    7.2865 H   0  0  0  0  0  0  0  0  0  0  0  0
    2.7192   -1.1985    5.0880 H   0  0  0  0  0  0  0  0  0  0  0  0
    1.2612   -2.1493    4.6946 H   0  0  0  0  0  0  0  0  0  0  0  0
    1.3419   -1.0157    2.5492 H   0  0  0  0  0  0  0  0  0  0  0  0
    0.8875    0.9340    0.6523 H   0  0  0  0  0  0  0  0  0  0  0  0
    0.1617    2.6137    4.4705 H   0  0  0  0  0  0  0  0  0  0  0  0
   -0.7819    2.0856    6.0021 H   0  0  0  0  0  0  0  0  0  0  0  0
    0.2320    3.0146    1.9380 H   0  0  0  0  0  0  0  0  0  0  0  0
  1  2  1  0
  1 18  1  0
  1 19  1  0
  1 20  1  0
  2  3  1  0
  2  4  2  3
  3 21  1  0
  3 22  1  0
  3 23  1  0
  4 17  1  0
  4  5  1  0
  5  6  2  0
  5 24  1  0
  6  7  1  0
  6 25  1  0
  7 16  1  0
  7  8  2  0
  8  9  1  0
  8 26  1  0
  9 10  1  0
  9 27  1  0
  9 28  1  0
 10 11  1  0
 10 16  2  0
 11 15  1  0
 11 12  1  0
 12 13  2  0
 12 29  1  0
 13 14  1  0
 13 30  1  0
 14 15  2  0
 14 33  1  0
 15 31  1  0
 16 17  1  0
 17 32  1  0
M  CHG  1  14   1
M  END
>  <i_m_ct_stereo_status>  (468) 
1

>  <s_m_source_file>  (468) 
/var/tmp/pbs.5102264.sched01/tmpspb9n5yc/161wrz3epul.sdf

>  <i_m_source_file_index>  (468) 
8

>  <i_lp_mmshare_version>  (468) 
48012

>  <i_f3d_flags>  (468) 
0

>  <s_epik_input>  (468) 
W0NIM11DKFtDSDNdKT1DKFtDSF09W0NIXTEpW05IXUMoQzE9Mik9QyhbQ0gyXVtDSF0yKW4zW2NIXVtjSF1uW2NIXTM=

>  <s_epik_cmdline>  (468) 
J2VwaWtfcHl0aG9uJywgJy1waHQnLCAnMi4wJywgJy1waCcsICc3LjAnLCAnLXRuJywgJzgnLCAnLW1hJywgJzIwMCcsICctaW1hZScsICc8aW5maWxlLm1hZT4nLCAnLW9tYWUnLCAnPG91dGZpbGUubWFlPic=

>  <r_epik_Ionization_Penalty>  (468) 
2.11595

>  <r_epik_Ionization_Penalty_Charging>  (468) 
0

>  <r_epik_Ionization_Penalty_Neutral>  (468) 
2.11595

>  <r_epik_State_Penalty>  (468) 
2.25322

>  <r_epik_Charging_Adjusted_Penalty>  (468) 
2.25322

>  <i_epik_Tot_Q>  (468) 
1

>  <i_epik_Tot_abs_Q>  (468) 
1

>  <s_epik_Chemistry_Notes>  (468) 
This compound has an imine and may undergo hydrolysis.

>  <s_lp_Force_Field>  (468) 
OPLS3e

>  <r_lp_Energy>  (468) 
17.6564

>  <b_lp_Chiralities_Consistent>  (468) 
1

>  <s_lp_Variant>  (468) 
99:0-2

>  <s_i_glide_gridfile>  (468) 
pfpi4k_grid

>  <i_i_glide_lignum>  (468) 
8

>  <i_i_glide_rotatable_bonds>  (468) 
1

>  <r_i_docking_score>  (468) 
-3.54103

>  <r_i_glide_ligand_efficiency>  (468) 
-0.208296

>  <r_i_glide_ligand_efficiency_sa>  (468) 
-0.535587

>  <r_i_glide_ligand_efficiency_ln>  (468) 
-0.923775

>  <r_i_glide_gscore>  (468) 
-3.54103

>  <r_i_glide_lipo>  (468) 
-0.0753329

>  <r_i_glide_hbond>  (468) 
-0.2

>  <r_i_glide_metal>  (468) 
-0

>  <r_i_glide_rewards>  (468) 
-1.86616

>  <r_i_glide_evdw>  (468) 
-12.2148

>  <r_i_glide_ecoul>  (468) 
-6.42101

>  <r_i_glide_erotb>  (468) 
0.331798

>  <r_i_glide_esite>  (468) 
-0.157443

>  <r_i_glide_emodel>  (468) 
-24.2662

>  <r_i_glide_energy>  (468) 
-18.6358

>  <r_i_glide_einternal>  (468) 
1.07644

>  <r_i_glide_intrahb_reward>  (468) 
-0

>  <i_i_glide_confnum>  (468) 
3

>  <i_i_glide_posenum>  (468) 
7

>  <r_i_glide_eff_state_penalty>  (468) 
0

>  <ligand_id>  (468) 
99

>  <original_smiles>  (468) 
CC(C)=C1C=CC2=CCC(n3ccnc3)=C2N1

>  <smiles>  (468) 
[H]C1=C([H])C(=C(C([H])([H])[H])C([H])([H])[H])N([H])C2=C(n3c([H])c([H])[n+]([H])c3[H])C([H])([H])C([H])=C12

$$$$
100:0:0
     RDKit          3D

 25 26  0  0  1  0  0  0  0  0999 V2000
    6.6104   -5.4940    0.6961 C   0  0  0  0  0  0  0  0  0  0  0  0
    5.1223   -5.7347    0.3949 C   0  0  0  0  0  0  0  0  0  0  0  0
    4.0497   -4.4647    1.1912 S   0  0  0  0  0  0  0  0  0  0  0  0
    2.6441   -4.7324    0.8385 O   0  0  0  0  0  0  0  0  0  0  0  0
    4.4550   -4.3134    2.5961 O   0  0  0  0  0  0  0  0  0  0  0  0
    4.5321   -2.9422    0.3781 C   0  0  0  0  0  0  0  0  0  0  0  0
    5.4204   -2.0661    0.8591 N   0  0  0  0  0  0  0  0  0  0  0  0
    5.5631   -1.0404   -0.0602 N   0  0  0  0  0  0  0  0  0  0  0  0
    4.7792   -1.3253   -1.1013 C   0  0  0  0  0  0  0  0  0  0  0  0
    4.5266   -0.6703   -2.3345 C   0  0  0  0  0  0  0  0  0  0  0  0
    3.6812   -1.2442   -3.2547 C   0  0  0  0  0  0  0  0  0  0  0  0
    3.0727   -2.4926   -2.9839 C   0  0  0  0  0  0  0  0  0  0  0  0
    2.2706   -3.0764   -3.9242 N   0  0  0  0  0  0  0  0  0  0  0  0
    3.2922   -3.1230   -1.7831 C   0  0  0  0  0  0  0  0  0  0  0  0
    4.1237   -2.5491   -0.8667 N   0  0  0  0  0  0  0  0  0  0  0  0
    7.2354   -6.2609    0.2338 H   0  0  0  0  0  0  0  0  0  0  0  0
    6.8088   -5.5170    1.7694 H   0  0  0  0  0  0  0  0  0  0  0  0
    6.9415   -4.5319    0.3072 H   0  0  0  0  0  0  0  0  0  0  0  0
    4.9206   -5.7406   -0.6779 H   0  0  0  0  0  0  0  0  0  0  0  0
    4.8162   -6.6994    0.7954 H   0  0  0  0  0  0  0  0  0  0  0  0
    4.9988    0.2796   -2.5459 H   0  0  0  0  0  0  0  0  0  0  0  0
    3.4919   -0.7333   -4.1913 H   0  0  0  0  0  0  0  0  0  0  0  0
    1.7219   -3.9016   -3.6972 H   0  0  0  0  0  0  0  0  0  0  0  0
    2.0270   -2.5798   -4.7785 H   0  0  0  0  0  0  0  0  0  0  0  0
    2.8527   -4.0808   -1.5265 H   0  0  0  0  0  0  0  0  0  0  0  0
  1  2  1  0
  1 16  1  0
  1 17  1  0
  1 18  1  0
  2  3  1  0
  2 19  1  0
  2 20  1  0
  3  4  2  0
  3  5  2  0
  3  6  1  0
  6 15  1  0
  6  7  2  0
  7  8  1  0
  8  9  2  0
  9 15  1  0
  9 10  1  0
 10 11  2  0
 10 21  1  0
 11 12  1  0
 11 22  1  0
 12 13  1  0
 12 14  2  0
 13 23  1  0
 13 24  1  0
 14 15  1  0
 14 25  1  0
M  END
>  <i_m_ct_stereo_status>  (469) 
1

>  <s_m_source_file>  (469) 
/var/tmp/pbs.5102264.sched01/tmpspb9n5yc/161wrz3epul.sdf

>  <i_m_source_file_index>  (469) 
9

>  <i_lp_mmshare_version>  (469) 
48012

>  <i_f3d_flags>  (469) 
0

>  <s_epik_input>  (469) 
W0NIM11bQ0gyXVMoPU8pKD1PKWMobm4xKW4oYzEyKVtjSF1jKFtOSDJdKVtjSF1bY0hdMg==

>  <s_epik_cmdline>  (469) 
J2VwaWtfcHl0aG9uJywgJy1waHQnLCAnMi4wJywgJy1waCcsICc3LjAnLCAnLXRuJywgJzgnLCAnLW1hJywgJzIwMCcsICctaW1hZScsICc8aW5maWxlLm1hZT4nLCAnLW9tYWUnLCAnPG91dGZpbGUubWFlPic=

>  <r_lp_tautomer_probability>  (469) 
1

>  <r_epik_Ionization_Penalty>  (469) 
6.99894e-07

>  <r_epik_Ionization_Penalty_Charging>  (469) 
0

>  <r_epik_Ionization_Penalty_Neutral>  (469) 
6.99894e-07

>  <r_epik_State_Penalty>  (469) 
-0

>  <r_epik_Charging_Adjusted_Penalty>  (469) 
0

>  <i_epik_Tot_Q>  (469) 
0

>  <i_epik_Tot_abs_Q>  (469) 
0

>  <s_lp_Force_Field>  (469) 
OPLS3e

>  <r_lp_Energy>  (469) 
6.13886

>  <b_lp_Chiralities_Consistent>  (469) 
1

>  <s_lp_Variant>  (469) 
100:0-1

>  <s_i_glide_gridfile>  (469) 
pfpi4k_grid

>  <i_i_glide_lignum>  (469) 
9

>  <i_i_glide_rotatable_bonds>  (469) 
2

>  <r_i_docking_score>  (469) 
-4.48709

>  <r_i_glide_ligand_efficiency>  (469) 
-0.299139

>  <r_i_glide_ligand_efficiency_sa>  (469) 
-0.737741

>  <r_i_glide_ligand_efficiency_ln>  (469) 
-1.21009

>  <r_i_glide_gscore>  (469) 
-4.48709

>  <r_i_glide_lipo>  (469) 
-0.324884

>  <r_i_glide_hbond>  (469) 
-0.586472

>  <r_i_glide_metal>  (469) 
-0

>  <r_i_glide_rewards>  (469) 
-1.90806

>  <r_i_glide_evdw>  (469) 
-21.5733

>  <r_i_glide_ecoul>  (469) 
-5.51584

>  <r_i_glide_erotb>  (469) 
0.331899

>  <r_i_glide_esite>  (469) 
-0.0935338

>  <r_i_glide_emodel>  (469) 
-34.6668

>  <r_i_glide_energy>  (469) 
-27.0891

>  <r_i_glide_einternal>  (469) 
0.0547876

>  <r_i_glide_intrahb_reward>  (469) 
-0

>  <i_i_glide_confnum>  (469) 
2

>  <i_i_glide_posenum>  (469) 
16

>  <r_i_glide_eff_state_penalty>  (469) 
0

>  <ligand_id>  (469) 
100

>  <original_smiles>  (469) 
CCS(=O)(=O)c1nnc2ccc(N)cn12

>  <smiles>  (469) 
[H]c1c(N([H])[H])c([H])n2c(S(=O)(=O)C([H])([H])C([H])([H])[H])nnc2c1[H]

$$$$
100:0:1
     RDKit          3D

 25 26  0  0  1  0  0  0  0  0999 V2000
    3.7746   -3.1542    3.2751 C   0  0  0  0  0  0  0  0  0  0  0  0
    4.7603   -4.2120    2.7635 C   0  0  0  0  0  0  0  0  0  0  0  0
    4.4991   -4.5743    0.9753 S   0  0  0  0  0  0  0  0  0  0  0  0
    5.5277   -5.5201    0.5253 O   0  0  0  0  0  0  0  0  0  0  0  0
    3.0673   -4.8445    0.7543 O   0  0  0  0  0  0  0  0  0  0  0  0
    4.8717   -3.0124    0.1772 C   0  0  0  0  0  0  0  0  0  0  0  0
    5.7907   -2.1341    0.5937 N   0  0  0  0  0  0  0  0  0  0  0  0
    5.8137   -1.0698   -0.2925 N   0  0  0  0  0  0  0  0  0  0  0  0
    4.9438   -1.3471   -1.2692 C   0  0  0  0  0  0  0  0  0  0  0  0
    4.5691   -0.6631   -2.4532 C   0  0  0  0  0  0  0  0  0  0  0  0
    3.6635   -1.2329   -3.3154 C   0  0  0  0  0  0  0  0  0  0  0  0
    3.1163   -2.5042   -3.0341 C   0  0  0  0  0  0  0  0  0  0  0  0
    2.2450   -3.0766   -3.9197 N   0  0  0  0  0  0  0  0  0  0  0  0
    3.4524   -3.1660   -1.8723 C   0  0  0  0  0  0  0  0  0  0  0  0
    4.3435   -2.5936   -1.0124 N   0  0  0  0  0  0  0  0  0  0  0  0
    3.9281   -2.9575    4.3375 H   0  0  0  0  0  0  0  0  0  0  0  0
    2.7435   -3.4820    3.1402 H   0  0  0  0  0  0  0  0  0  0  0  0
    3.9013   -2.2111    2.7453 H   0  0  0  0  0  0  0  0  0  0  0  0
    5.7951   -3.8977    2.9059 H   0  0  0  0  0  0  0  0  0  0  0  0
    4.6241   -5.1467    3.3054 H   0  0  0  0  0  0  0  0  0  0  0  0
    4.9963    0.3057   -2.6748 H   0  0  0  0  0  0  0  0  0  0  0  0
    3.3775   -0.6979   -4.2154 H   0  0  0  0  0  0  0  0  0  0  0  0
    1.7399   -3.9223   -3.6835 H   0  0  0  0  0  0  0  0  0  0  0  0
    1.9339   -2.5620   -4.7387 H   0  0  0  0  0  0  0  0  0  0  0  0
    3.0628   -4.1437   -1.6145 H   0  0  0  0  0  0  0  0  0  0  0  0
  1  2  1  0
  1 16  1  0
  1 17  1  0
  1 18  1  0
  2  3  1  0
  2 19  1  0
  2 20  1  0
  3  4  2  0
  3  5  2  0
  3  6  1  0
  6 15  1  0
  6  7  2  0
  7  8  1  0
  8  9  2  0
  9 15  1  0
  9 10  1  0
 10 11  2  0
 10 21  1  0
 11 12  1  0
 11 22  1  0
 12 13  1  0
 12 14  2  0
 13 23  1  0
 13 24  1  0
 14 15  1  0
 14 25  1  0
M  END
>  <i_m_ct_stereo_status>  (470) 
1

>  <s_m_source_file>  (470) 
/var/tmp/pbs.5102264.sched01/tmpspb9n5yc/161wrz3epul.sdf

>  <i_m_source_file_index>  (470) 
9

>  <i_lp_mmshare_version>  (470) 
48012

>  <i_f3d_flags>  (470) 
0

>  <s_epik_input>  (470) 
W0NIM11bQ0gyXVMoPU8pKD1PKWMobm4xKW4oYzEyKVtjSF1jKFtOSDJdKVtjSF1bY0hdMg==

>  <s_epik_cmdline>  (470) 
J2VwaWtfcHl0aG9uJywgJy1waHQnLCAnMi4wJywgJy1waCcsICc3LjAnLCAnLXRuJywgJzgnLCAnLW1hJywgJzIwMCcsICctaW1hZScsICc8aW5maWxlLm1hZT4nLCAnLW9tYWUnLCAnPG91dGZpbGUubWFlPic=

>  <r_lp_tautomer_probability>  (470) 
1

>  <r_epik_Ionization_Penalty>  (470) 
6.99894e-07

>  <r_epik_Ionization_Penalty_Charging>  (470) 
0

>  <r_epik_Ionization_Penalty_Neutral>  (470) 
6.99894e-07

>  <r_epik_State_Penalty>  (470) 
-0

>  <r_epik_Charging_Adjusted_Penalty>  (470) 
0

>  <i_epik_Tot_Q>  (470) 
0

>  <i_epik_Tot_abs_Q>  (470) 
0

>  <s_lp_Force_Field>  (470) 
OPLS3e

>  <r_lp_Energy>  (470) 
6.13886

>  <b_lp_Chiralities_Consistent>  (470) 
1

>  <s_lp_Variant>  (470) 
100:0-1

>  <s_i_glide_gridfile>  (470) 
pfpi4k_grid

>  <i_i_glide_lignum>  (470) 
9

>  <i_i_glide_rotatable_bonds>  (470) 
2

>  <r_i_docking_score>  (470) 
-4.28525

>  <r_i_glide_ligand_efficiency>  (470) 
-0.285684

>  <r_i_glide_ligand_efficiency_sa>  (470) 
-0.704556

>  <r_i_glide_ligand_efficiency_ln>  (470) 
-1.15566

>  <r_i_glide_gscore>  (470) 
-4.28525

>  <r_i_glide_lipo>  (470) 
-0.16186

>  <r_i_glide_hbond>  (470) 
-0.567304

>  <r_i_glide_metal>  (470) 
-0

>  <r_i_glide_rewards>  (470) 
-1.9421

>  <r_i_glide_evdw>  (470) 
-20.5633

>  <r_i_glide_ecoul>  (470) 
-5.41679

>  <r_i_glide_erotb>  (470) 
0.331899

>  <r_i_glide_esite>  (470) 
-0.105205

>  <r_i_glide_emodel>  (470) 
-32.3901

>  <r_i_glide_energy>  (470) 
-25.98

>  <r_i_glide_einternal>  (470) 
1.79302

>  <r_i_glide_intrahb_reward>  (470) 
-0

>  <i_i_glide_confnum>  (470) 
2

>  <i_i_glide_posenum>  (470) 
5

>  <r_i_glide_eff_state_penalty>  (470) 
0

>  <ligand_id>  (470) 
100

>  <original_smiles>  (470) 
CCS(=O)(=O)c1nnc2ccc(N)cn12

>  <smiles>  (470) 
[H]c1c(N([H])[H])c([H])n2c(S(=O)(=O)C([H])([H])C([H])([H])[H])nnc2c1[H]

$$$$
100:0:2
     RDKit          3D

 25 26  0  0  1  0  0  0  0  0999 V2000
    5.2597   -4.1145    3.5919 C   0  0  0  0  0  0  0  0  0  0  0  0
    3.8434   -4.3452    3.0176 C   0  0  0  0  0  0  0  0  0  0  0  0
    3.8236   -4.7090    1.2041 S   0  0  0  0  0  0  0  0  0  0  0  0
    4.8554   -5.7093    0.9106 O   0  0  0  0  0  0  0  0  0  0  0  0
    2.4250   -4.9368    0.7910 O   0  0  0  0  0  0  0  0  0  0  0  0
    4.3939   -3.1797    0.4397 C   0  0  0  0  0  0  0  0  0  0  0  0
    5.3246   -2.3625    0.9431 N   0  0  0  0  0  0  0  0  0  0  0  0
    5.5301   -1.3147    0.0698 N   0  0  0  0  0  0  0  0  0  0  0  0
    4.7655   -1.5423   -0.9906 C   0  0  0  0  0  0  0  0  0  0  0  0
    4.5843   -0.8404   -2.2070 C   0  0  0  0  0  0  0  0  0  0  0  0
    3.7453   -1.3455   -3.1662 C   0  0  0  0  0  0  0  0  0  0  0  0
    3.0671   -2.5761   -2.9494 C   0  0  0  0  0  0  0  0  0  0  0  0
    2.2662   -3.0817   -3.9262 N   0  0  0  0  0  0  0  0  0  0  0  0
    3.2164   -3.2508   -1.7622 C   0  0  0  0  0  0  0  0  0  0  0  0
    4.0433   -2.7407   -0.8045 N   0  0  0  0  0  0  0  0  0  0  0  0
    5.2131   -3.9384    4.6712 H   0  0  0  0  0  0  0  0  0  0  0  0
    5.7519   -3.2299    3.1917 H   0  0  0  0  0  0  0  0  0  0  0  0
    5.9072   -4.9732    3.3964 H   0  0  0  0  0  0  0  0  0  0  0  0
    3.3999   -5.2131    3.5049 H   0  0  0  0  0  0  0  0  0  0  0  0
    3.1825   -3.4949    3.1908 H   0  0  0  0  0  0  0  0  0  0  0  0
    5.1058    0.1068   -2.3378 H   0  0  0  0  0  0  0  0  0  0  0  0
    3.6059   -0.7878   -4.0883 H   0  0  0  0  0  0  0  0  0  0  0  0
    1.6833   -3.8965   -3.7467 H   0  0  0  0  0  0  0  0  0  0  0  0
    2.0797   -2.5452   -4.7761 H   0  0  0  0  0  0  0  0  0  0  0  0
    2.7340   -4.2023   -1.5450 H   0  0  0  0  0  0  0  0  0  0  0  0
  1  2  1  0
  1 16  1  0
  1 17  1  0
  1 18  1  0
  2  3  1  0
  2 19  1  0
  2 20  1  0
  3  4  2  0
  3  5  2  0
  3  6  1  0
  6 15  1  0
  6  7  2  0
  7  8  1  0
  8  9  2  0
  9 15  1  0
  9 10  1  0
 10 11  2  0
 10 21  1  0
 11 12  1  0
 11 22  1  0
 12 13  1  0
 12 14  2  0
 13 23  1  0
 13 24  1  0
 14 15  1  0
 14 25  1  0
M  END
>  <i_m_ct_stereo_status>  (471) 
1

>  <s_m_source_file>  (471) 
/var/tmp/pbs.5102264.sched01/tmpspb9n5yc/161wrz3epul.sdf

>  <i_m_source_file_index>  (471) 
9

>  <i_lp_mmshare_version>  (471) 
48012

>  <i_f3d_flags>  (471) 
0

>  <s_epik_input>  (471) 
W0NIM11bQ0gyXVMoPU8pKD1PKWMobm4xKW4oYzEyKVtjSF1jKFtOSDJdKVtjSF1bY0hdMg==

>  <s_epik_cmdline>  (471) 
J2VwaWtfcHl0aG9uJywgJy1waHQnLCAnMi4wJywgJy1waCcsICc3LjAnLCAnLXRuJywgJzgnLCAnLW1hJywgJzIwMCcsICctaW1hZScsICc8aW5maWxlLm1hZT4nLCAnLW9tYWUnLCAnPG91dGZpbGUubWFlPic=

>  <r_lp_tautomer_probability>  (471) 
1

>  <r_epik_Ionization_Penalty>  (471) 
6.99894e-07

>  <r_epik_Ionization_Penalty_Charging>  (471) 
0

>  <r_epik_Ionization_Penalty_Neutral>  (471) 
6.99894e-07

>  <r_epik_State_Penalty>  (471) 
-0

>  <r_epik_Charging_Adjusted_Penalty>  (471) 
0

>  <i_epik_Tot_Q>  (471) 
0

>  <i_epik_Tot_abs_Q>  (471) 
0

>  <s_lp_Force_Field>  (471) 
OPLS3e

>  <r_lp_Energy>  (471) 
6.13886

>  <b_lp_Chiralities_Consistent>  (471) 
1

>  <s_lp_Variant>  (471) 
100:0-1

>  <s_i_glide_gridfile>  (471) 
pfpi4k_grid

>  <i_i_glide_lignum>  (471) 
9

>  <i_i_glide_rotatable_bonds>  (471) 
2

>  <r_i_docking_score>  (471) 
-4.27023

>  <r_i_glide_ligand_efficiency>  (471) 
-0.284682

>  <r_i_glide_ligand_efficiency_sa>  (471) 
-0.702087

>  <r_i_glide_ligand_efficiency_ln>  (471) 
-1.15161

>  <r_i_glide_gscore>  (471) 
-4.27023

>  <r_i_glide_lipo>  (471) 
-0.113795

>  <r_i_glide_hbond>  (471) 
-0.608

>  <r_i_glide_metal>  (471) 
-0

>  <r_i_glide_rewards>  (471) 
-1.90807

>  <r_i_glide_evdw>  (471) 
-20.2486

>  <r_i_glide_ecoul>  (471) 
-5.80038

>  <r_i_glide_erotb>  (471) 
0.331899

>  <r_i_glide_esite>  (471) 
-0.0897826

>  <r_i_glide_emodel>  (471) 
-32.1465

>  <r_i_glide_energy>  (471) 
-26.049

>  <r_i_glide_einternal>  (471) 
1.76316

>  <r_i_glide_intrahb_reward>  (471) 
-0

>  <i_i_glide_confnum>  (471) 
2

>  <i_i_glide_posenum>  (471) 
2

>  <r_i_glide_eff_state_penalty>  (471) 
0

>  <ligand_id>  (471) 
100

>  <original_smiles>  (471) 
CCS(=O)(=O)c1nnc2ccc(N)cn12

>  <smiles>  (471) 
[H]c1c(N([H])[H])c([H])n2c(S(=O)(=O)C([H])([H])C([H])([H])[H])nnc2c1[H]

$$$$
101:0:0
     RDKit          3D

 41 42  0  0  1  0  0  0  0  0999 V2000
   -3.3526    2.9578    2.8682 C   0  0  0  0  0  0  0  0  0  0  0  0
   -2.3975    3.9707    3.5500 C   0  0  2  0  0  0  0  0  0  0  0  0
   -2.0489    4.9798    2.6155 O   0  0  0  0  0  0  0  0  0  0  0  0
   -1.2063    3.2403    4.1916 C   0  0  1  0  0  0  0  0  0  0  0  0
   -1.7499    2.3677    5.1540 O   0  0  0  0  0  0  0  0  0  0  0  0
   -0.3684    2.4561    3.1890 C   0  0  0  0  0  0  0  0  0  0  0  0
    1.0764    2.6911    3.6257 C   0  0  1  0  0  0  0  0  0  0  0  0
    1.8034    3.2902    2.5448 O   0  0  0  0  0  0  0  0  0  0  0  0
    0.9715    3.5210    4.9328 C   0  0  1  0  0  0  0  0  0  0  0  0
    0.9583    2.6635    6.2296 C   0  0  0  0  0  0  0  0  0  0  0  0
    2.1022    4.5477    5.0582 C   0  0  0  0  0  0  0  0  0  0  0  0
    1.6652    5.8375    4.9860 O   0  0  0  0  0  0  0  0  0  0  0  0
    2.5363    6.8953    5.0964 C   0  0  0  0  0  0  0  0  0  0  0  0
    1.8316    8.2494    4.9997 C   0  0  0  0  0  0  0  0  0  0  0  0
    0.4459    8.1029    4.9390 O   0  0  0  0  0  0  0  0  0  0  0  0
    2.3198    9.0148    3.9219 O   0  0  0  0  0  0  0  0  0  0  0  0
    3.8702    6.7033    5.3484 C   0  0  0  0  0  0  0  0  0  0  0  0
    4.7397    7.7141    5.5192 O   0  0  0  0  0  0  0  0  0  0  0  0
    4.3929    5.3444    5.4572 C   0  0  0  0  0  0  0  0  0  0  0  0
    5.5871    5.1113    5.6990 O   0  0  0  0  0  0  0  0  0  0  0  0
    3.4310    4.2521    5.2711 C   0  0  0  0  0  0  0  0  0  0  0  0
    3.9038    3.0034    5.3313 O   0  0  0  0  0  0  0  0  0  0  0  0
   -0.3170    4.1442    4.7995 O   0  0  0  0  0  0  0  0  0  0  0  0
   -3.6881    2.2268    3.5906 H   0  0  0  0  0  0  0  0  0  0  0  0
   -2.8726    2.4546    2.0335 H   0  0  0  0  0  0  0  0  0  0  0  0
   -4.2568    3.4615    2.4854 H   0  0  0  0  0  0  0  0  0  0  0  0
   -2.9131    4.4455    4.3731 H   0  0  0  0  0  0  0  0  0  0  0  0
   -1.4150    4.6363    1.9895 H   0  0  0  0  0  0  0  0  0  0  0  0
   -2.0905    1.6213    4.7009 H   0  0  0  0  0  0  0  0  0  0  0  0
   -0.6536    1.4023    3.1603 H   0  0  0  0  0  0  0  0  0  0  0  0
   -0.5352    2.8917    2.2068 H   0  0  0  0  0  0  0  0  0  0  0  0
    1.5772    1.7539    3.8449 H   0  0  0  0  0  0  0  0  0  0  0  0
    1.2015    3.7583    1.9575 H   0  0  0  0  0  0  0  0  0  0  0  0
    1.9012    2.1418    6.4087 H   0  0  0  0  0  0  0  0  0  0  0  0
    0.2056    1.8802    6.2515 H   0  0  0  0  0  0  0  0  0  0  0  0
    0.8060    3.3077    7.1005 H   0  0  0  0  0  0  0  0  0  0  0  0
    2.0400    8.7928    5.9261 H   0  0  0  0  0  0  0  0  0  0  0  0
    0.2232    8.1013    3.9837 H   0  0  0  0  0  0  0  0  0  0  0  0
    1.7259    8.8851    3.1821 H   0  0  0  0  0  0  0  0  0  0  0  0
    4.2807    8.5328    5.3906 H   0  0  0  0  0  0  0  0  0  0  0  0
    3.1767    2.4085    5.1939 H   0  0  0  0  0  0  0  0  0  0  0  0
  1  2  1  0
  1 24  1  0
  1 25  1  0
  1 26  1  0
  2  3  1  0
  2  4  1  0
  2 27  1  1
  3 28  1  0
  4 23  1  0
  4  5  1  1
  4  6  1  0
  5 29  1  0
  6  7  1  0
  6 30  1  0
  6 31  1  0
  7  8  1  0
  7  9  1  0
  7 32  1  1
  8 33  1  0
  9 10  1  1
  9 11  1  0
  9 23  1  0
 10 34  1  0
 10 35  1  0
 10 36  1  0
 11 21  2  0
 11 12  1  0
 12 13  1  0
 13 14  1  0
 13 17  2  0
 14 15  1  0
 14 16  1  0
 14 37  1  0
 15 38  1  0
 16 39  1  0
 17 18  1  0
 17 19  1  0
 18 40  1  0
 19 20  2  0
 19 21  1  0
 21 22  1  0
 22 41  1  0
M  END
>  <i_m_ct_stereo_status>  (472) 
1

>  <s_m_source_file>  (472) 
/var/tmp/pbs.5102264.sched01/tmpspb9n5yc/161wrz3epul.sdf

>  <i_m_source_file_index>  (472) 
10

>  <i_lp_mmshare_version>  (472) 
48012

>  <i_f3d_flags>  (472) 
0

>  <s_epik_input>  (472) 
W0NIM11bQ0BIXShbT0hdKVtDQEBdMShbT0hdKVtDSDJdW0NAQEhdKFtPSF0pW0NAQF0oTzEpKFtDSDNdKWMyb2MoW0NIXShbT0hdKVtPSF0pYyhbT0hdKWMoPU8pYzJbT0hd

>  <s_epik_cmdline>  (472) 
J2VwaWtfcHl0aG9uJywgJy1waHQnLCAnMi4wJywgJy1waCcsICc3LjAnLCAnLXRuJywgJzgnLCAnLW1hJywgJzIwMCcsICctaW1hZScsICc8aW5maWxlLm1hZT4nLCAnLW9tYWUnLCAnPG91dGZpbGUubWFlPic=

>  <r_epik_Ionization_Penalty>  (472) 
0.00895777

>  <r_epik_Ionization_Penalty_Charging>  (472) 
0

>  <r_epik_Ionization_Penalty_Neutral>  (472) 
0.00895777

>  <r_epik_State_Penalty>  (472) 
0.00644292

>  <r_epik_Charging_Adjusted_Penalty>  (472) 
0.00644292

>  <i_epik_Tot_Q>  (472) 
0

>  <i_epik_Tot_abs_Q>  (472) 
0

>  <s_epik_Chemistry_Notes>  (472) 
This compound contains an acetal/aminal-like group ( X-CH(R)-Y where X, Y are N, S, or O) that may be acid/base labile, releasing an aldehyde.

>  <s_lp_Force_Field>  (472) 
OPLS3e

>  <r_lp_Energy>  (472) 
18.3429

>  <b_lp_Chiralities_Consistent>  (472) 
1

>  <s_lp_Variant>  (472) 
101:0-1

>  <s_i_glide_gridfile>  (472) 
pfpi4k_grid

>  <i_i_glide_lignum>  (472) 
10

>  <i_i_glide_rotatable_bonds>  (472) 
10

>  <r_i_docking_score>  (472) 
-4.09507

>  <r_i_glide_ligand_efficiency>  (472) 
-0.178047

>  <r_i_glide_ligand_efficiency_sa>  (472) 
-0.506341

>  <r_i_glide_ligand_efficiency_ln>  (472) 
-0.990225

>  <r_i_glide_gscore>  (472) 
-4.09507

>  <r_i_glide_lipo>  (472) 
-0.00445226

>  <r_i_glide_hbond>  (472) 
0

>  <r_i_glide_metal>  (472) 
-0

>  <r_i_glide_rewards>  (472) 
-1.12994

>  <r_i_glide_evdw>  (472) 
-13.0513

>  <r_i_glide_ecoul>  (472) 
-18.1895

>  <r_i_glide_erotb>  (472) 
0.50631

>  <r_i_glide_esite>  (472) 
-0.0859974

>  <r_i_glide_emodel>  (472) 
-37.3989

>  <r_i_glide_energy>  (472) 
-31.2408

>  <r_i_glide_einternal>  (472) 
7.10471

>  <r_i_glide_intrahb_reward>  (472) 
-0

>  <i_i_glide_confnum>  (472) 
4

>  <i_i_glide_posenum>  (472) 
3

>  <r_i_glide_eff_state_penalty>  (472) 
0

>  <ligand_id>  (472) 
101

>  <original_smiles>  (472) 
CC(O)C1(O)CC(O)C(C)(c2oc(C(O)O)c(O)c(=O)c2O)O1

>  <smiles>  (472) 
[H]Oc1c(C([H])(O[H])O[H])oc(C2(C([H])([H])[H])OC(O[H])(C([H])(O[H])C([H])([H])[H])C([H])([H])C2([H])O[H])c(O[H])c1=O

$$$$
101:0:1
     RDKit          3D

 41 42  0  0  1  0  0  0  0  0999 V2000
    3.9593   -1.4994   -1.9524 C   0  0  0  0  0  0  0  0  0  0  0  0
    4.8974   -1.2677   -0.7444 C   0  0  2  0  0  0  0  0  0  0  0  0
    6.1998   -1.5927   -1.1794 O   0  0  0  0  0  0  0  0  0  0  0  0
    4.4948   -2.1764    0.4545 C   0  0  1  0  0  0  0  0  0  0  0  0
    4.6231   -3.5048    0.0119 O   0  0  0  0  0  0  0  0  0  0  0  0
    5.3677   -1.9294    1.6934 C   0  0  0  0  0  0  0  0  0  0  0  0
    4.3878   -2.0279    2.8702 C   0  0  1  0  0  0  0  0  0  0  0  0
    4.4013   -0.7811    3.5622 O   0  0  0  0  0  0  0  0  0  0  0  0
    3.0191   -2.3953    2.2611 C   0  0  1  0  0  0  0  0  0  0  0  0
    2.7785   -3.9369    2.1900 C   0  0  0  0  0  0  0  0  0  0  0  0
    1.8498   -1.6958    3.0063 C   0  0  0  0  0  0  0  0  0  0  0  0
    1.4561   -0.5249    2.4060 O   0  0  0  0  0  0  0  0  0  0  0  0
    0.4288    0.2362    2.9316 C   0  0  0  0  0  0  0  0  0  0  0  0
    0.2155    1.4996    2.1023 C   0  0  0  0  0  0  0  0  0  0  0  0
    1.3712    2.2926    2.1457 O   0  0  0  0  0  0  0  0  0  0  0  0
   -0.9353    2.2357    2.4758 O   0  0  0  0  0  0  0  0  0  0  0  0
   -0.2836   -0.1641    4.0208 C   0  0  0  0  0  0  0  0  0  0  0  0
   -1.3325    0.5050    4.5102 O   0  0  0  0  0  0  0  0  0  0  0  0
    0.0660   -1.4058    4.6933 C   0  0  0  0  0  0  0  0  0  0  0  0
   -0.5729   -1.8243    5.6696 O   0  0  0  0  0  0  0  0  0  0  0  0
    1.2038   -2.1494    4.1263 C   0  0  0  0  0  0  0  0  0  0  0  0
    1.5207   -3.2605    4.7894 O   0  0  0  0  0  0  0  0  0  0  0  0
    3.1850   -1.9267    0.9107 O   0  0  0  0  0  0  0  0  0  0  0  0
    2.9322   -1.2596   -1.6984 H   0  0  0  0  0  0  0  0  0  0  0  0
    3.9722   -2.5290   -2.3099 H   0  0  0  0  0  0  0  0  0  0  0  0
    4.2502   -0.8721   -2.7960 H   0  0  0  0  0  0  0  0  0  0  0  0
    4.8569   -0.2139   -0.4420 H   0  0  0  0  0  0  0  0  0  0  0  0
    6.2098   -2.5378   -1.2513 H   0  0  0  0  0  0  0  0  0  0  0  0
    3.9449   -3.6291   -0.6446 H   0  0  0  0  0  0  0  0  0  0  0  0
    6.1730   -2.6521    1.7588 H   0  0  0  0  0  0  0  0  0  0  0  0
    5.7996   -0.9292    1.6352 H   0  0  0  0  0  0  0  0  0  0  0  0
    4.6931   -2.7844    3.5917 H   0  0  0  0  0  0  0  0  0  0  0  0
    4.0018   -0.1141    3.0191 H   0  0  0  0  0  0  0  0  0  0  0  0
    2.7514   -4.4199    3.1731 H   0  0  0  0  0  0  0  0  0  0  0  0
    3.5356   -4.5070    1.6647 H   0  0  0  0  0  0  0  0  0  0  0  0
    1.8175   -4.1170    1.6975 H   0  0  0  0  0  0  0  0  0  0  0  0
    0.0763    1.1747    1.0722 H   0  0  0  0  0  0  0  0  0  0  0  0
    1.1928    3.0556    1.6055 H   0  0  0  0  0  0  0  0  0  0  0  0
   -0.9726    2.9899    1.8984 H   0  0  0  0  0  0  0  0  0  0  0  0
   -1.4505    1.2581    3.9430 H   0  0  0  0  0  0  0  0  0  0  0  0
    2.2273   -3.6806    4.3277 H   0  0  0  0  0  0  0  0  0  0  0  0
  1  2  1  0
  1 24  1  0
  1 25  1  0
  1 26  1  0
  2  3  1  0
  2  4  1  0
  2 27  1  1
  3 28  1  0
  4 23  1  0
  4  5  1  6
  4  6  1  0
  5 29  1  0
  6  7  1  0
  6 30  1  0
  6 31  1  0
  7  8  1  0
  7  9  1  0
  7 32  1  1
  8 33  1  0
  9 10  1  6
  9 11  1  0
  9 23  1  0
 10 34  1  0
 10 35  1  0
 10 36  1  0
 11 21  2  0
 11 12  1  0
 12 13  1  0
 13 14  1  0
 13 17  2  0
 14 15  1  0
 14 16  1  0
 14 37  1  0
 15 38  1  0
 16 39  1  0
 17 18  1  0
 17 19  1  0
 18 40  1  0
 19 20  2  0
 19 21  1  0
 21 22  1  0
 22 41  1  0
M  END
>  <i_m_ct_stereo_status>  (473) 
1

>  <s_m_source_file>  (473) 
/var/tmp/pbs.5102264.sched01/tmpspb9n5yc/161wrz3epul.sdf

>  <i_m_source_file_index>  (473) 
10

>  <i_lp_mmshare_version>  (473) 
48012

>  <i_f3d_flags>  (473) 
0

>  <s_epik_input>  (473) 
W0NIM11bQ0BIXShbT0hdKVtDQEBdMShbT0hdKVtDSDJdW0NAQEhdKFtPSF0pW0NAQF0oTzEpKFtDSDNdKWMyb2MoW0NIXShbT0hdKVtPSF0pYyhbT0hdKWMoPU8pYzJbT0hd

>  <s_epik_cmdline>  (473) 
J2VwaWtfcHl0aG9uJywgJy1waHQnLCAnMi4wJywgJy1waCcsICc3LjAnLCAnLXRuJywgJzgnLCAnLW1hJywgJzIwMCcsICctaW1hZScsICc8aW5maWxlLm1hZT4nLCAnLW9tYWUnLCAnPG91dGZpbGUubWFlPic=

>  <r_epik_Ionization_Penalty>  (473) 
0.00895777

>  <r_epik_Ionization_Penalty_Charging>  (473) 
0

>  <r_epik_Ionization_Penalty_Neutral>  (473) 
0.00895777

>  <r_epik_State_Penalty>  (473) 
0.00644292

>  <r_epik_Charging_Adjusted_Penalty>  (473) 
0.00644292

>  <i_epik_Tot_Q>  (473) 
0

>  <i_epik_Tot_abs_Q>  (473) 
0

>  <s_epik_Chemistry_Notes>  (473) 
This compound contains an acetal/aminal-like group ( X-CH(R)-Y where X, Y are N, S, or O) that may be acid/base labile, releasing an aldehyde.

>  <s_lp_Force_Field>  (473) 
OPLS3e

>  <r_lp_Energy>  (473) 
18.3429

>  <b_lp_Chiralities_Consistent>  (473) 
1

>  <s_lp_Variant>  (473) 
101:0-1

>  <s_i_glide_gridfile>  (473) 
pfpi4k_grid

>  <i_i_glide_lignum>  (473) 
10

>  <i_i_glide_rotatable_bonds>  (473) 
10

>  <r_i_docking_score>  (473) 
-4.04127

>  <r_i_glide_ligand_efficiency>  (473) 
-0.175707

>  <r_i_glide_ligand_efficiency_sa>  (473) 
-0.499688

>  <r_i_glide_ligand_efficiency_ln>  (473) 
-0.977216

>  <r_i_glide_gscore>  (473) 
-4.04127

>  <r_i_glide_lipo>  (473) 
-0.117261

>  <r_i_glide_hbond>  (473) 
0

>  <r_i_glide_metal>  (473) 
-0

>  <r_i_glide_rewards>  (473) 
-1.62994

>  <r_i_glide_evdw>  (473) 
-23.5773

>  <r_i_glide_ecoul>  (473) 
-10.3128

>  <r_i_glide_erotb>  (473) 
0.50631

>  <r_i_glide_esite>  (473) 
-0.0746049

>  <r_i_glide_emodel>  (473) 
-45.4182

>  <r_i_glide_energy>  (473) 
-33.89

>  <r_i_glide_einternal>  (473) 
5.37202

>  <r_i_glide_intrahb_reward>  (473) 
-0.5

>  <i_i_glide_confnum>  (473) 
6

>  <i_i_glide_posenum>  (473) 
15

>  <r_i_glide_eff_state_penalty>  (473) 
0

>  <ligand_id>  (473) 
101

>  <original_smiles>  (473) 
CC(O)C1(O)CC(O)C(C)(c2oc(C(O)O)c(O)c(=O)c2O)O1

>  <smiles>  (473) 
[H]Oc1c(C([H])(O[H])O[H])oc(C2(C([H])([H])[H])OC(O[H])(C([H])(O[H])C([H])([H])[H])C([H])([H])C2([H])O[H])c(O[H])c1=O

$$$$
101:0:2
     RDKit          3D

 41 42  0  0  1  0  0  0  0  0999 V2000
    2.3808   -3.0661   -3.1391 C   0  0  0  0  0  0  0  0  0  0  0  0
    3.1784   -1.9988   -2.3981 C   0  0  2  0  0  0  0  0  0  0  0  0
    3.1690   -0.8111   -3.1714 O   0  0  0  0  0  0  0  0  0  0  0  0
    4.6076   -2.4563   -1.9777 C   0  0  1  0  0  0  0  0  0  0  0  0
    5.2834   -3.0102   -3.0816 O   0  0  0  0  0  0  0  0  0  0  0  0
    5.4395   -1.3071   -1.3947 C   0  0  0  0  0  0  0  0  0  0  0  0
    5.1176   -1.3799    0.0728 C   0  0  1  0  0  0  0  0  0  0  0  0
    3.9191   -0.6610    0.3080 O   0  0  0  0  0  0  0  0  0  0  0  0
    5.0153   -2.9043    0.3061 C   0  0  1  0  0  0  0  0  0  0  0  0
    6.3901   -3.5505    0.5927 C   0  0  0  0  0  0  0  0  0  0  0  0
    4.0862   -3.3143    1.4290 C   0  0  0  0  0  0  0  0  0  0  0  0
    3.3656   -4.4286    1.0791 O   0  0  0  0  0  0  0  0  0  0  0  0
    2.4507   -4.9662    1.9533 C   0  0  0  0  0  0  0  0  0  0  0  0
    1.7843   -6.1956    1.3630 C   0  0  0  0  0  0  0  0  0  0  0  0
    2.7082   -7.2600    1.3152 O   0  0  0  0  0  0  0  0  0  0  0  0
    1.2732   -5.8805    0.0859 O   0  0  0  0  0  0  0  0  0  0  0  0
    2.1894   -4.4022    3.1491 C   0  0  0  0  0  0  0  0  0  0  0  0
    1.2878   -4.8688    4.0208 O   0  0  0  0  0  0  0  0  0  0  0  0
    2.9155   -3.1969    3.5755 C   0  0  0  0  0  0  0  0  0  0  0  0
    2.6540   -2.6114    4.6391 O   0  0  0  0  0  0  0  0  0  0  0  0
    3.9387   -2.7051    2.6300 C   0  0  0  0  0  0  0  0  0  0  0  0
    4.6386   -1.6391    3.0345 O   0  0  0  0  0  0  0  0  0  0  0  0
    4.5124   -3.3985   -0.9409 O   0  0  0  0  0  0  0  0  0  0  0  0
    2.2797   -3.9544   -2.5145 H   0  0  0  0  0  0  0  0  0  0  0  0
    2.8261   -3.3257   -4.0983 H   0  0  0  0  0  0  0  0  0  0  0  0
    1.3660   -2.7115   -3.3338 H   0  0  0  0  0  0  0  0  0  0  0  0
    2.6544   -1.8092   -1.4809 H   0  0  0  0  0  0  0  0  0  0  0  0
    2.3503   -0.3654   -3.0012 H   0  0  0  0  0  0  0  0  0  0  0  0
    4.7423   -3.7029   -3.4286 H   0  0  0  0  0  0  0  0  0  0  0  0
    6.4983   -1.5332   -1.5465 H   0  0  0  0  0  0  0  0  0  0  0  0
    5.2172   -0.3379   -1.8323 H   0  0  0  0  0  0  0  0  0  0  0  0
    5.9002   -0.9287    0.6891 H   0  0  0  0  0  0  0  0  0  0  0  0
    3.1911   -1.1094   -0.1014 H   0  0  0  0  0  0  0  0  0  0  0  0
    6.8261   -3.1443    1.5070 H   0  0  0  0  0  0  0  0  0  0  0  0
    7.1089   -3.3984   -0.2123 H   0  0  0  0  0  0  0  0  0  0  0  0
    6.3061   -4.6290    0.7502 H   0  0  0  0  0  0  0  0  0  0  0  0
    0.9397   -6.5023    1.9860 H   0  0  0  0  0  0  0  0  0  0  0  0
    3.4997   -6.9384    0.9090 H   0  0  0  0  0  0  0  0  0  0  0  0
    2.0071   -5.6360   -0.4587 H   0  0  0  0  0  0  0  0  0  0  0  0
    1.3540   -4.3199    4.7927 H   0  0  0  0  0  0  0  0  0  0  0  0
    4.1950   -1.2865    3.7968 H   0  0  0  0  0  0  0  0  0  0  0  0
  1  2  1  0
  1 24  1  0
  1 25  1  0
  1 26  1  0
  2  3  1  0
  2  4  1  0
  2 27  1  1
  3 28  1  0
  4 23  1  0
  4  5  1  6
  4  6  1  0
  5 29  1  0
  6  7  1  0
  6 30  1  0
  6 31  1  0
  7  8  1  0
  7  9  1  0
  7 32  1  1
  8 33  1  0
  9 10  1  1
  9 11  1  0
  9 23  1  0
 10 34  1  0
 10 35  1  0
 10 36  1  0
 11 21  2  0
 11 12  1  0
 12 13  1  0
 13 14  1  0
 13 17  2  0
 14 15  1  0
 14 16  1  0
 14 37  1  0
 15 38  1  0
 16 39  1  0
 17 18  1  0
 17 19  1  0
 18 40  1  0
 19 20  2  0
 19 21  1  0
 21 22  1  0
 22 41  1  0
M  END
>  <i_m_ct_stereo_status>  (474) 
1

>  <s_m_source_file>  (474) 
/var/tmp/pbs.5102264.sched01/tmpspb9n5yc/161wrz3epul.sdf

>  <i_m_source_file_index>  (474) 
10

>  <i_lp_mmshare_version>  (474) 
48012

>  <i_f3d_flags>  (474) 
0

>  <s_epik_input>  (474) 
W0NIM11bQ0BIXShbT0hdKVtDQEBdMShbT0hdKVtDSDJdW0NAQEhdKFtPSF0pW0NAQF0oTzEpKFtDSDNdKWMyb2MoW0NIXShbT0hdKVtPSF0pYyhbT0hdKWMoPU8pYzJbT0hd

>  <s_epik_cmdline>  (474) 
J2VwaWtfcHl0aG9uJywgJy1waHQnLCAnMi4wJywgJy1waCcsICc3LjAnLCAnLXRuJywgJzgnLCAnLW1hJywgJzIwMCcsICctaW1hZScsICc8aW5maWxlLm1hZT4nLCAnLW9tYWUnLCAnPG91dGZpbGUubWFlPic=

>  <r_epik_Ionization_Penalty>  (474) 
0.00895777

>  <r_epik_Ionization_Penalty_Charging>  (474) 
0

>  <r_epik_Ionization_Penalty_Neutral>  (474) 
0.00895777

>  <r_epik_State_Penalty>  (474) 
0.00644292

>  <r_epik_Charging_Adjusted_Penalty>  (474) 
0.00644292

>  <i_epik_Tot_Q>  (474) 
0

>  <i_epik_Tot_abs_Q>  (474) 
0

>  <s_epik_Chemistry_Notes>  (474) 
This compound contains an acetal/aminal-like group ( X-CH(R)-Y where X, Y are N, S, or O) that may be acid/base labile, releasing an aldehyde.

>  <s_lp_Force_Field>  (474) 
OPLS3e

>  <r_lp_Energy>  (474) 
18.3429

>  <b_lp_Chiralities_Consistent>  (474) 
1

>  <s_lp_Variant>  (474) 
101:0-1

>  <s_i_glide_gridfile>  (474) 
pfpi4k_grid

>  <i_i_glide_lignum>  (474) 
10

>  <i_i_glide_rotatable_bonds>  (474) 
10

>  <r_i_docking_score>  (474) 
-3.39107

>  <r_i_glide_ligand_efficiency>  (474) 
-0.147438

>  <r_i_glide_ligand_efficiency_sa>  (474) 
-0.419294

>  <r_i_glide_ligand_efficiency_ln>  (474) 
-0.819992

>  <r_i_glide_gscore>  (474) 
-3.39107

>  <r_i_glide_lipo>  (474) 
-0.301681

>  <r_i_glide_hbond>  (474) 
0

>  <r_i_glide_metal>  (474) 
-0

>  <r_i_glide_rewards>  (474) 
-1.13727

>  <r_i_glide_evdw>  (474) 
-26.6488

>  <r_i_glide_ecoul>  (474) 
-7.18134

>  <r_i_glide_erotb>  (474) 
0.50631

>  <r_i_glide_esite>  (474) 
-0.048782

>  <r_i_glide_emodel>  (474) 
-38.3748

>  <r_i_glide_energy>  (474) 
-33.8302

>  <r_i_glide_einternal>  (474) 
7.71755

>  <r_i_glide_intrahb_reward>  (474) 
-0

>  <i_i_glide_confnum>  (474) 
1

>  <i_i_glide_posenum>  (474) 
10

>  <r_i_glide_eff_state_penalty>  (474) 
0

>  <ligand_id>  (474) 
101

>  <original_smiles>  (474) 
CC(O)C1(O)CC(O)C(C)(c2oc(C(O)O)c(O)c(=O)c2O)O1

>  <smiles>  (474) 
[H]Oc1c(C([H])(O[H])O[H])oc(C2(C([H])([H])[H])OC(O[H])(C([H])(O[H])C([H])([H])[H])C([H])([H])C2([H])O[H])c(O[H])c1=O

$$$$
102:0:0
     RDKit          3D

 15 16  0  0  1  0  0  0  0  0999 V2000
    3.4295    0.2311   -5.6084 C   0  0  0  0  0  0  0  0  0  0  0  0
    2.6921   -0.2832   -4.3711 C   0  0  0  0  0  0  0  0  0  0  0  0
    3.5248   -1.1762   -3.4706 C   0  0  0  0  0  0  0  0  0  0  0  0
    4.3610   -0.7156   -2.5403 N   0  0  0  0  0  0  0  0  0  0  0  0
    4.8957   -1.7771   -1.9251 N   0  0  0  0  0  0  0  0  0  0  0  0
    5.7833   -1.6685   -0.9481 N   0  0  0  0  0  0  0  0  0  0  0  0
    6.0489   -2.9103   -0.6640 N   0  0  0  0  0  0  0  0  0  0  0  0
    5.3215   -3.8142   -1.4750 N   0  0  0  0  0  0  0  0  0  0  0  0
    4.6086   -3.0560   -2.2623 C   0  0  0  0  0  0  0  0  0  0  0  0
    3.4492   -2.9710   -3.5810 S   0  0  0  0  0  0  0  0  0  0  0  0
    2.7604    0.8234   -6.2294 H   0  0  0  0  0  0  0  0  0  0  0  0
    3.7952   -0.5932   -6.2221 H   0  0  0  0  0  0  0  0  0  0  0  0
    4.2621    0.8683   -5.3271 H   0  0  0  0  0  0  0  0  0  0  0  0
    2.2631    0.5377   -3.8119 H   0  0  0  0  0  0  0  0  0  0  0  0
    1.8573   -0.8827   -4.7227 H   0  0  0  0  0  0  0  0  0  0  0  0
  1  2  1  0
  1 11  1  0
  1 12  1  0
  1 13  1  0
  2  3  1  0
  2 14  1  0
  2 15  1  0
  3 10  1  0
  3  4  2  0
  4  5  1  0
  5  9  1  0
  5  6  1  0
  6  7  2  0
  7  8  1  0
  8  9  2  0
  9 10  1  0
M  END
>  <i_m_ct_stereo_status>  (475) 
1

>  <s_m_source_file>  (475) 
/var/tmp/pbs.5102264.sched01/tmpspb9n5yc/161wrz3epul.sdf

>  <i_m_source_file_index>  (475) 
11

>  <i_lp_mmshare_version>  (475) 
48012

>  <i_f3d_flags>  (475) 
0

>  <s_epik_input>  (475) 
W0NIM11bQ0gyXWMobjEpc2MobjEyKW5ubjI=

>  <s_epik_cmdline>  (475) 
J2VwaWtfcHl0aG9uJywgJy1waHQnLCAnMi4wJywgJy1waCcsICc3LjAnLCAnLXRuJywgJzgnLCAnLW1hJywgJzIwMCcsICctaW1hZScsICc8aW5maWxlLm1hZT4nLCAnLW9tYWUnLCAnPG91dGZpbGUubWFlPic=

>  <r_lp_tautomer_probability>  (475) 
1

>  <r_epik_Ionization_Penalty>  (475) 
1.69843e-09

>  <r_epik_Ionization_Penalty_Charging>  (475) 
0

>  <r_epik_Ionization_Penalty_Neutral>  (475) 
1.69843e-09

>  <r_epik_State_Penalty>  (475) 
-0

>  <r_epik_Charging_Adjusted_Penalty>  (475) 
0

>  <i_epik_Tot_Q>  (475) 
0

>  <i_epik_Tot_abs_Q>  (475) 
0

>  <s_lp_Force_Field>  (475) 
OPLS3e

>  <r_lp_Energy>  (475) 
2.10498

>  <b_lp_Chiralities_Consistent>  (475) 
1

>  <s_lp_Variant>  (475) 
102:0-1

>  <s_i_glide_gridfile>  (475) 
pfpi4k_grid

>  <i_i_glide_lignum>  (475) 
11

>  <i_i_glide_rotatable_bonds>  (475) 
1

>  <r_i_docking_score>  (475) 
-4.36465

>  <r_i_glide_ligand_efficiency>  (475) 
-0.436465

>  <r_i_glide_ligand_efficiency_sa>  (475) 
-0.940335

>  <r_i_glide_ligand_efficiency_ln>  (475) 
-1.32159

>  <r_i_glide_gscore>  (475) 
-4.36465

>  <r_i_glide_lipo>  (475) 
-0.710903

>  <r_i_glide_hbond>  (475) 
0

>  <r_i_glide_metal>  (475) 
-0

>  <r_i_glide_rewards>  (475) 
-2.35359

>  <r_i_glide_evdw>  (475) 
-22.3176

>  <r_i_glide_ecoul>  (475) 
-0.677911

>  <r_i_glide_erotb>  (475) 
0

>  <r_i_glide_esite>  (475) 
-0.0825924

>  <r_i_glide_emodel>  (475) 
-29.479

>  <r_i_glide_energy>  (475) 
-22.9955

>  <r_i_glide_einternal>  (475) 
0.0742976

>  <r_i_glide_intrahb_reward>  (475) 
-0

>  <i_i_glide_confnum>  (475) 
2

>  <i_i_glide_posenum>  (475) 
29

>  <r_i_glide_eff_state_penalty>  (475) 
0

>  <ligand_id>  (475) 
102

>  <original_smiles>  (475) 
CCc1nn2nnnc2s1

>  <smiles>  (475) 
[H]C([H])([H])C([H])([H])c1nn2nnnc2s1

$$$$
102:0:1
     RDKit          3D

 15 16  0  0  1  0  0  0  0  0999 V2000
    4.3043   -9.1569    0.7709 C   0  0  0  0  0  0  0  0  0  0  0  0
    3.7701   -9.2717    2.2029 C   0  0  0  0  0  0  0  0  0  0  0  0
    2.2773   -9.0401    2.3428 C   0  0  0  0  0  0  0  0  0  0  0  0
    1.6837   -7.8660    2.1125 N   0  0  0  0  0  0  0  0  0  0  0  0
    0.3774   -8.0288    2.3548 N   0  0  0  0  0  0  0  0  0  0  0  0
   -0.5024   -7.0533    2.2190 N   0  0  0  0  0  0  0  0  0  0  0  0
   -1.6197   -7.6242    2.5650 N   0  0  0  0  0  0  0  0  0  0  0  0
   -1.4484   -8.9838    2.8817 N   0  0  0  0  0  0  0  0  0  0  0  0
   -0.1644   -9.2019    2.7632 C   0  0  0  0  0  0  0  0  0  0  0  0
    1.1534  -10.3437    2.8888 S   0  0  0  0  0  0  0  0  0  0  0  0
    5.3653   -9.4048    0.7454 H   0  0  0  0  0  0  0  0  0  0  0  0
    4.1924   -8.1458    0.3888 H   0  0  0  0  0  0  0  0  0  0  0  0
    3.7925   -9.8445    0.0919 H   0  0  0  0  0  0  0  0  0  0  0  0
    3.9469  -10.2895    2.5429 H   0  0  0  0  0  0  0  0  0  0  0  0
    4.3224   -8.6194    2.8816 H   0  0  0  0  0  0  0  0  0  0  0  0
  1  2  1  0
  1 11  1  0
  1 12  1  0
  1 13  1  0
  2  3  1  0
  2 14  1  0
  2 15  1  0
  3 10  1  0
  3  4  2  0
  4  5  1  0
  5  9  1  0
  5  6  1  0
  6  7  2  0
  7  8  1  0
  8  9  2  0
  9 10  1  0
M  END
>  <i_m_ct_stereo_status>  (476) 
1

>  <s_m_source_file>  (476) 
/var/tmp/pbs.5102264.sched01/tmpspb9n5yc/161wrz3epul.sdf

>  <i_m_source_file_index>  (476) 
11

>  <i_lp_mmshare_version>  (476) 
48012

>  <i_f3d_flags>  (476) 
0

>  <s_epik_input>  (476) 
W0NIM11bQ0gyXWMobjEpc2MobjEyKW5ubjI=

>  <s_epik_cmdline>  (476) 
J2VwaWtfcHl0aG9uJywgJy1waHQnLCAnMi4wJywgJy1waCcsICc3LjAnLCAnLXRuJywgJzgnLCAnLW1hJywgJzIwMCcsICctaW1hZScsICc8aW5maWxlLm1hZT4nLCAnLW9tYWUnLCAnPG91dGZpbGUubWFlPic=

>  <r_lp_tautomer_probability>  (476) 
1

>  <r_epik_Ionization_Penalty>  (476) 
1.69843e-09

>  <r_epik_Ionization_Penalty_Charging>  (476) 
0

>  <r_epik_Ionization_Penalty_Neutral>  (476) 
1.69843e-09

>  <r_epik_State_Penalty>  (476) 
-0

>  <r_epik_Charging_Adjusted_Penalty>  (476) 
0

>  <i_epik_Tot_Q>  (476) 
0

>  <i_epik_Tot_abs_Q>  (476) 
0

>  <s_lp_Force_Field>  (476) 
OPLS3e

>  <r_lp_Energy>  (476) 
2.10498

>  <b_lp_Chiralities_Consistent>  (476) 
1

>  <s_lp_Variant>  (476) 
102:0-1

>  <s_i_glide_gridfile>  (476) 
pfpi4k_grid

>  <i_i_glide_lignum>  (476) 
11

>  <i_i_glide_rotatable_bonds>  (476) 
1

>  <r_i_docking_score>  (476) 
-3.97748

>  <r_i_glide_ligand_efficiency>  (476) 
-0.397748

>  <r_i_glide_ligand_efficiency_sa>  (476) 
-0.856923

>  <r_i_glide_ligand_efficiency_ln>  (476) 
-1.20435

>  <r_i_glide_gscore>  (476) 
-3.97748

>  <r_i_glide_lipo>  (476) 
-0.184097

>  <r_i_glide_hbond>  (476) 
0

>  <r_i_glide_metal>  (476) 
-0

>  <r_i_glide_rewards>  (476) 
-2.25

>  <r_i_glide_evdw>  (476) 
-18.5145

>  <r_i_glide_ecoul>  (476) 
-2.50148

>  <r_i_glide_erotb>  (476) 
0

>  <r_i_glide_esite>  (476) 
-0.242439

>  <r_i_glide_emodel>  (476) 
-26.1523

>  <r_i_glide_energy>  (476) 
-21.016

>  <r_i_glide_einternal>  (476) 
1.11736

>  <r_i_glide_intrahb_reward>  (476) 
-0

>  <i_i_glide_confnum>  (476) 
2

>  <i_i_glide_posenum>  (476) 
10

>  <r_i_glide_eff_state_penalty>  (476) 
0

>  <ligand_id>  (476) 
102

>  <original_smiles>  (476) 
CCc1nn2nnnc2s1

>  <smiles>  (476) 
[H]C([H])([H])C([H])([H])c1nn2nnnc2s1

$$$$
102:0:2
     RDKit          3D

 15 16  0  0  1  0  0  0  0  0999 V2000
    4.3337  -10.2879    3.8080 C   0  0  0  0  0  0  0  0  0  0  0  0
    3.4661  -10.5238    2.5660 C   0  0  0  0  0  0  0  0  0  0  0  0
    2.1080   -9.8530    2.6227 C   0  0  0  0  0  0  0  0  0  0  0  0
    1.8798   -8.5970    2.2069 N   0  0  0  0  0  0  0  0  0  0  0  0
    0.5676   -8.3517    2.3985 N   0  0  0  0  0  0  0  0  0  0  0  0
   -0.0305   -7.1897    2.1091 N   0  0  0  0  0  0  0  0  0  0  0  0
   -1.2659   -7.4099    2.4764 N   0  0  0  0  0  0  0  0  0  0  0  0
   -1.4589   -8.7076    2.9719 N   0  0  0  0  0  0  0  0  0  0  0  0
   -0.2809   -9.2627    2.9258 C   0  0  0  0  0  0  0  0  0  0  0  0
    0.6622  -10.6929    3.2818 S   0  0  0  0  0  0  0  0  0  0  0  0
    5.2725  -10.8344    3.7218 H   0  0  0  0  0  0  0  0  0  0  0  0
    3.8423  -10.6395    4.7152 H   0  0  0  0  0  0  0  0  0  0  0  0
    4.5723   -9.2342    3.9307 H   0  0  0  0  0  0  0  0  0  0  0  0
    4.0053  -10.2287    1.6623 H   0  0  0  0  0  0  0  0  0  0  0  0
    3.2809  -11.5918    2.4795 H   0  0  0  0  0  0  0  0  0  0  0  0
  1  2  1  0
  1 11  1  0
  1 12  1  0
  1 13  1  0
  2  3  1  0
  2 14  1  0
  2 15  1  0
  3 10  1  0
  3  4  2  0
  4  5  1  0
  5  9  1  0
  5  6  1  0
  6  7  2  0
  7  8  1  0
  8  9  2  0
  9 10  1  0
M  END
>  <i_m_ct_stereo_status>  (477) 
1

>  <s_m_source_file>  (477) 
/var/tmp/pbs.5102264.sched01/tmpspb9n5yc/161wrz3epul.sdf

>  <i_m_source_file_index>  (477) 
11

>  <i_lp_mmshare_version>  (477) 
48012

>  <i_f3d_flags>  (477) 
0

>  <s_epik_input>  (477) 
W0NIM11bQ0gyXWMobjEpc2MobjEyKW5ubjI=

>  <s_epik_cmdline>  (477) 
J2VwaWtfcHl0aG9uJywgJy1waHQnLCAnMi4wJywgJy1waCcsICc3LjAnLCAnLXRuJywgJzgnLCAnLW1hJywgJzIwMCcsICctaW1hZScsICc8aW5maWxlLm1hZT4nLCAnLW9tYWUnLCAnPG91dGZpbGUubWFlPic=

>  <r_lp_tautomer_probability>  (477) 
1

>  <r_epik_Ionization_Penalty>  (477) 
1.69843e-09

>  <r_epik_Ionization_Penalty_Charging>  (477) 
0

>  <r_epik_Ionization_Penalty_Neutral>  (477) 
1.69843e-09

>  <r_epik_State_Penalty>  (477) 
-0

>  <r_epik_Charging_Adjusted_Penalty>  (477) 
0

>  <i_epik_Tot_Q>  (477) 
0

>  <i_epik_Tot_abs_Q>  (477) 
0

>  <s_lp_Force_Field>  (477) 
OPLS3e

>  <r_lp_Energy>  (477) 
2.10498

>  <b_lp_Chiralities_Consistent>  (477) 
1

>  <s_lp_Variant>  (477) 
102:0-1

>  <s_i_glide_gridfile>  (477) 
pfpi4k_grid

>  <i_i_glide_lignum>  (477) 
11

>  <i_i_glide_rotatable_bonds>  (477) 
1

>  <r_i_docking_score>  (477) 
-3.96532

>  <r_i_glide_ligand_efficiency>  (477) 
-0.396532

>  <r_i_glide_ligand_efficiency_sa>  (477) 
-0.854302

>  <r_i_glide_ligand_efficiency_ln>  (477) 
-1.20067

>  <r_i_glide_gscore>  (477) 
-3.96532

>  <r_i_glide_lipo>  (477) 
-0.126121

>  <r_i_glide_hbond>  (477) 
0

>  <r_i_glide_metal>  (477) 
-0

>  <r_i_glide_rewards>  (477) 
-2.25

>  <r_i_glide_evdw>  (477) 
-17.8945

>  <r_i_glide_ecoul>  (477) 
-2.87375

>  <r_i_glide_erotb>  (477) 
0

>  <r_i_glide_esite>  (477) 
-0.263409

>  <r_i_glide_emodel>  (477) 
-26.7093

>  <r_i_glide_energy>  (477) 
-20.7683

>  <r_i_glide_einternal>  (477) 
0.010692

>  <r_i_glide_intrahb_reward>  (477) 
-0

>  <i_i_glide_confnum>  (477) 
2

>  <i_i_glide_posenum>  (477) 
35

>  <r_i_glide_eff_state_penalty>  (477) 
0

>  <ligand_id>  (477) 
102

>  <original_smiles>  (477) 
CCc1nn2nnnc2s1

>  <smiles>  (477) 
[H]C([H])([H])C([H])([H])c1nn2nnnc2s1

$$$$
103:0:0
     RDKit          3D

 26 27  0  0  1  0  0  0  0  0999 V2000
   -8.6768   -8.3024   -8.2959 C   0  0  0  0  0  0  0  0  0  0  0  0
   -7.7418   -7.8587   -7.2832 N   0  0  0  0  0  0  0  0  0  0  0  0
   -6.8236   -8.7105   -6.8071 N   0  0  0  0  0  0  0  0  0  0  0  0
   -6.0775   -8.0258   -5.9386 C   0  0  0  0  0  0  0  0  0  0  0  0
   -4.8907   -8.7483   -5.3073 C   0  0  0  0  0  0  0  0  0  0  0  0
   -3.7962   -7.8815   -5.1140 O   0  0  0  0  0  0  0  0  0  0  0  0
   -4.4927   -9.8951   -6.0383 O   0  0  0  0  0  0  0  0  0  0  0  0
   -6.5753   -6.6896   -5.7699 C   0  0  0  0  0  0  0  0  0  0  0  0
   -7.6010   -6.6349   -6.6664 C   0  0  0  0  0  0  0  0  0  0  0  0
   -8.4228   -5.4462   -6.8986 C   0  0  0  0  0  0  0  0  0  0  0  0
   -9.4141   -5.4080   -7.6289 O   0  0  0  0  0  0  0  0  0  0  0  0
   -7.9351   -4.1734   -6.2116 C   0  0  0  0  0  0  0  0  0  0  0  0
   -7.2489   -4.4570   -4.8526 C   0  0  0  0  0  0  0  0  0  0  0  0
   -6.1341   -5.5341   -4.8943 C   0  0  0  0  0  0  0  0  0  0  0  0
   -9.6987   -8.0878   -7.9795 H   0  0  0  0  0  0  0  0  0  0  0  0
   -8.5745   -9.3752   -8.4435 H   0  0  0  0  0  0  0  0  0  0  0  0
   -8.4733   -7.7920   -9.2382 H   0  0  0  0  0  0  0  0  0  0  0  0
   -5.1803   -9.1267   -4.3240 H   0  0  0  0  0  0  0  0  0  0  0  0
   -3.1732   -8.3128   -4.5291 H   0  0  0  0  0  0  0  0  0  0  0  0
   -3.9556  -10.4521   -5.4972 H   0  0  0  0  0  0  0  0  0  0  0  0
   -7.2344   -3.7044   -6.8933 H   0  0  0  0  0  0  0  0  0  0  0  0
   -8.7684   -3.4872   -6.0769 H   0  0  0  0  0  0  0  0  0  0  0  0
   -6.8421   -3.5293   -4.4413 H   0  0  0  0  0  0  0  0  0  0  0  0
   -8.0283   -4.7733   -4.1533 H   0  0  0  0  0  0  0  0  0  0  0  0
   -5.8676   -5.8500   -3.8792 H   0  0  0  0  0  0  0  0  0  0  0  0
   -5.2338   -5.0749   -5.3010 H   0  0  0  0  0  0  0  0  0  0  0  0
  1  2  1  0
  1 15  1  0
  1 16  1  0
  1 17  1  0
  2  9  1  0
  2  3  1  0
  3  4  2  0
  4  5  1  0
  4  8  1  0
  5  6  1  0
  5  7  1  0
  5 18  1  0
  6 19  1  0
  7 20  1  0
  8 14  1  0
  8  9  2  0
  9 10  1  0
 10 11  2  0
 10 12  1  0
 12 13  1  0
 12 21  1  0
 12 22  1  0
 13 14  1  0
 13 23  1  0
 13 24  1  0
 14 25  1  0
 14 26  1  0
M  END
>  <i_m_ct_stereo_status>  (478) 
1

>  <s_m_source_file>  (478) 
/var/tmp/pbs.5102264.sched01/tmpspb9n5yc/161wrz3epul.sdf

>  <i_m_source_file_index>  (478) 
12

>  <i_lp_mmshare_version>  (478) 
48012

>  <i_f3d_flags>  (478) 
0

>  <s_epik_input>  (478) 
W09IXVtDSF0oW09IXSljMW5uKFtDSDNdKWMoYzEyKUMoPU8pW0NIMl1bQ0gyXVtDSDJdMg==

>  <s_epik_cmdline>  (478) 
J2VwaWtfcHl0aG9uJywgJy1waHQnLCAnMi4wJywgJy1waCcsICc3LjAnLCAnLXRuJywgJzgnLCAnLW1hJywgJzIwMCcsICctaW1hZScsICc8aW5maWxlLm1hZT4nLCAnLW9tYWUnLCAnPG91dGZpbGUubWFlPic=

>  <r_lp_tautomer_probability>  (478) 
1

>  <r_epik_Ionization_Penalty>  (478) 
2.39861e-05

>  <r_epik_Ionization_Penalty_Charging>  (478) 
0

>  <r_epik_Ionization_Penalty_Neutral>  (478) 
2.39861e-05

>  <r_epik_State_Penalty>  (478) 
-0

>  <r_epik_Charging_Adjusted_Penalty>  (478) 
0

>  <i_epik_Tot_Q>  (478) 
0

>  <i_epik_Tot_abs_Q>  (478) 
0

>  <s_epik_Chemistry_Notes>  (478) 
This compound contains an acetal/aminal-like group ( X-CH(R)-Y where X, Y are N, S, or O) that may be acid/base labile, releasing an aldehyde.

>  <s_lp_Force_Field>  (478) 
OPLS3e

>  <r_lp_Energy>  (478) 
8.10915

>  <b_lp_Chiralities_Consistent>  (478) 
1

>  <s_lp_Variant>  (478) 
103:0-1

>  <s_i_glide_gridfile>  (478) 
pfpi4k_grid

>  <i_i_glide_lignum>  (478) 
12

>  <i_i_glide_rotatable_bonds>  (478) 
3

>  <r_i_docking_score>  (478) 
-6.78234

>  <r_i_glide_ligand_efficiency>  (478) 
-0.484453

>  <r_i_glide_ligand_efficiency_sa>  (478) 
-1.1676

>  <r_i_glide_ligand_efficiency_ln>  (478) 
-1.86376

>  <r_i_glide_gscore>  (478) 
-6.78234

>  <r_i_glide_lipo>  (478) 
-1.78639

>  <r_i_glide_hbond>  (478) 
0

>  <r_i_glide_metal>  (478) 
-0

>  <r_i_glide_rewards>  (478) 
-3.34896

>  <r_i_glide_evdw>  (478) 
-21.6464

>  <r_i_glide_ecoul>  (478) 
-6.57489

>  <r_i_glide_erotb>  (478) 
0.421571

>  <r_i_glide_esite>  (478) 
0

>  <r_i_glide_emodel>  (478) 
-42.2913

>  <r_i_glide_energy>  (478) 
-28.2213

>  <r_i_glide_einternal>  (478) 
1.53013

>  <r_i_glide_intrahb_reward>  (478) 
-0

>  <i_i_glide_confnum>  (478) 
2

>  <i_i_glide_posenum>  (478) 
3

>  <r_i_glide_eff_state_penalty>  (478) 
0

>  <ligand_id>  (478) 
103

>  <original_smiles>  (478) 
Cn1nc(C(O)O)c2c1C(=O)CCC2

>  <smiles>  (478) 
[H]OC([H])(O[H])c1nn(C([H])([H])[H])c2c1C([H])([H])C([H])([H])C([H])([H])C2=O

$$$$
103:0:1
     RDKit          3D

 26 27  0  0  1  0  0  0  0  0999 V2000
   -2.2616    2.9479    7.1459 C   0  0  0  0  0  0  0  0  0  0  0  0
   -1.6394    3.0651    5.8391 N   0  0  0  0  0  0  0  0  0  0  0  0
   -1.3693    4.2745    5.3308 N   0  0  0  0  0  0  0  0  0  0  0  0
   -0.7815    4.0908    4.1559 C   0  0  0  0  0  0  0  0  0  0  0  0
   -0.3680    5.3308    3.3868 C   0  0  0  0  0  0  0  0  0  0  0  0
   -0.0234    6.4226    4.2228 O   0  0  0  0  0  0  0  0  0  0  0  0
   -1.3775    5.7215    2.4829 O   0  0  0  0  0  0  0  0  0  0  0  0
   -0.6563    2.6930    3.8556 C   0  0  0  0  0  0  0  0  0  0  0  0
   -1.2055    2.1018    4.9642 C   0  0  0  0  0  0  0  0  0  0  0  0
   -1.2726    0.6568    5.1630 C   0  0  0  0  0  0  0  0  0  0  0  0
   -1.6500    0.1227    6.2149 O   0  0  0  0  0  0  0  0  0  0  0  0
   -0.8939   -0.1915    3.9502 C   0  0  0  0  0  0  0  0  0  0  0  0
    0.1999    0.4749    3.0768 C   0  0  0  0  0  0  0  0  0  0  0  0
   -0.1058    1.9424    2.6695 C   0  0  0  0  0  0  0  0  0  0  0  0
   -3.1141    2.2722    7.0920 H   0  0  0  0  0  0  0  0  0  0  0  0
   -2.6047    3.9225    7.4861 H   0  0  0  0  0  0  0  0  0  0  0  0
   -1.5384    2.5588    7.8624 H   0  0  0  0  0  0  0  0  0  0  0  0
    0.5574    5.1315    2.8427 H   0  0  0  0  0  0  0  0  0  0  0  0
    0.2196    7.1448    3.6468 H   0  0  0  0  0  0  0  0  0  0  0  0
   -1.0647    5.3750    1.6439 H   0  0  0  0  0  0  0  0  0  0  0  0
   -0.5611   -1.1691    4.2829 H   0  0  0  0  0  0  0  0  0  0  0  0
   -1.7919   -0.3155    3.3568 H   0  0  0  0  0  0  0  0  0  0  0  0
    1.1394    0.4639    3.6371 H   0  0  0  0  0  0  0  0  0  0  0  0
    0.3779   -0.1210    2.1765 H   0  0  0  0  0  0  0  0  0  0  0  0
   -0.8452    1.9235    1.8661 H   0  0  0  0  0  0  0  0  0  0  0  0
    0.7800    2.4193    2.2311 H   0  0  0  0  0  0  0  0  0  0  0  0
  1  2  1  0
  1 15  1  0
  1 16  1  0
  1 17  1  0
  2  9  1  0
  2  3  1  0
  3  4  2  0
  4  5  1  0
  4  8  1  0
  5  6  1  0
  5  7  1  0
  5 18  1  0
  6 19  1  0
  7 20  1  0
  8 14  1  0
  8  9  2  0
  9 10  1  0
 10 11  2  0
 10 12  1  0
 12 13  1  0
 12 21  1  0
 12 22  1  0
 13 14  1  0
 13 23  1  0
 13 24  1  0
 14 25  1  0
 14 26  1  0
M  END
>  <i_m_ct_stereo_status>  (479) 
1

>  <s_m_source_file>  (479) 
/var/tmp/pbs.5102264.sched01/tmpspb9n5yc/161wrz3epul.sdf

>  <i_m_source_file_index>  (479) 
12

>  <i_lp_mmshare_version>  (479) 
48012

>  <i_f3d_flags>  (479) 
0

>  <s_epik_input>  (479) 
W09IXVtDSF0oW09IXSljMW5uKFtDSDNdKWMoYzEyKUMoPU8pW0NIMl1bQ0gyXVtDSDJdMg==

>  <s_epik_cmdline>  (479) 
J2VwaWtfcHl0aG9uJywgJy1waHQnLCAnMi4wJywgJy1waCcsICc3LjAnLCAnLXRuJywgJzgnLCAnLW1hJywgJzIwMCcsICctaW1hZScsICc8aW5maWxlLm1hZT4nLCAnLW9tYWUnLCAnPG91dGZpbGUubWFlPic=

>  <r_lp_tautomer_probability>  (479) 
1

>  <r_epik_Ionization_Penalty>  (479) 
2.39861e-05

>  <r_epik_Ionization_Penalty_Charging>  (479) 
0

>  <r_epik_Ionization_Penalty_Neutral>  (479) 
2.39861e-05

>  <r_epik_State_Penalty>  (479) 
-0

>  <r_epik_Charging_Adjusted_Penalty>  (479) 
0

>  <i_epik_Tot_Q>  (479) 
0

>  <i_epik_Tot_abs_Q>  (479) 
0

>  <s_epik_Chemistry_Notes>  (479) 
This compound contains an acetal/aminal-like group ( X-CH(R)-Y where X, Y are N, S, or O) that may be acid/base labile, releasing an aldehyde.

>  <s_lp_Force_Field>  (479) 
OPLS3e

>  <r_lp_Energy>  (479) 
8.10915

>  <b_lp_Chiralities_Consistent>  (479) 
1

>  <s_lp_Variant>  (479) 
103:0-1

>  <s_i_glide_gridfile>  (479) 
pfpi4k_grid

>  <i_i_glide_lignum>  (479) 
12

>  <i_i_glide_rotatable_bonds>  (479) 
3

>  <r_i_docking_score>  (479) 
-5.05439

>  <r_i_glide_ligand_efficiency>  (479) 
-0.361028

>  <r_i_glide_ligand_efficiency_sa>  (479) 
-0.870128

>  <r_i_glide_ligand_efficiency_ln>  (479) 
-1.38893

>  <r_i_glide_gscore>  (479) 
-5.05439

>  <r_i_glide_lipo>  (479) 
-0.0996636

>  <r_i_glide_hbond>  (479) 
-0.152

>  <r_i_glide_metal>  (479) 
-0

>  <r_i_glide_rewards>  (479) 
-2.10167

>  <r_i_glide_evdw>  (479) 
-10.4339

>  <r_i_glide_ecoul>  (479) 
-15.6247

>  <r_i_glide_erotb>  (479) 
0.295099

>  <r_i_glide_esite>  (479) 
-0.130765

>  <r_i_glide_emodel>  (479) 
-35.8593

>  <r_i_glide_energy>  (479) 
-26.0585

>  <r_i_glide_einternal>  (479) 
2.31076

>  <r_i_glide_intrahb_reward>  (479) 
-0

>  <i_i_glide_confnum>  (479) 
4

>  <i_i_glide_posenum>  (479) 
25

>  <r_i_glide_eff_state_penalty>  (479) 
0

>  <ligand_id>  (479) 
103

>  <original_smiles>  (479) 
Cn1nc(C(O)O)c2c1C(=O)CCC2

>  <smiles>  (479) 
[H]OC([H])(O[H])c1nn(C([H])([H])[H])c2c1C([H])([H])C([H])([H])C([H])([H])C2=O

$$$$
103:0:2
     RDKit          3D

 26 27  0  0  1  0  0  0  0  0999 V2000
   -2.3970    3.1389    6.7503 C   0  0  0  0  0  0  0  0  0  0  0  0
   -1.6248    3.2626    5.5267 N   0  0  0  0  0  0  0  0  0  0  0  0
   -1.3769    4.4779    5.0086 N   0  0  0  0  0  0  0  0  0  0  0  0
   -0.6238    4.2932    3.9290 C   0  0  0  0  0  0  0  0  0  0  0  0
   -0.1831    5.5513    3.1852 C   0  0  0  0  0  0  0  0  0  0  0  0
    0.3411    6.5093    4.0702 O   0  0  0  0  0  0  0  0  0  0  0  0
   -1.2712    6.1288    2.4805 O   0  0  0  0  0  0  0  0  0  0  0  0
   -0.3919    2.8959    3.6921 C   0  0  0  0  0  0  0  0  0  0  0  0
   -1.0447    2.3038    4.7391 C   0  0  0  0  0  0  0  0  0  0  0  0
   -1.0593    0.8592    4.9651 C   0  0  0  0  0  0  0  0  0  0  0  0
   -1.5106    0.3204    5.9821 O   0  0  0  0  0  0  0  0  0  0  0  0
   -0.4863    0.0107    3.8301 C   0  0  0  0  0  0  0  0  0  0  0  0
    0.6690    0.7200    3.0775 C   0  0  0  0  0  0  0  0  0  0  0  0
    0.3421    2.1532    2.6007 C   0  0  0  0  0  0  0  0  0  0  0  0
   -3.1961    2.4120    6.6040 H   0  0  0  0  0  0  0  0  0  0  0  0
   -2.8372    4.0935    7.0320 H   0  0  0  0  0  0  0  0  0  0  0  0
   -1.7467    2.7957    7.5552 H   0  0  0  0  0  0  0  0  0  0  0  0
    0.6279    5.3297    2.4976 H   0  0  0  0  0  0  0  0  0  0  0  0
    0.5869    7.2622    3.5357 H   0  0  0  0  0  0  0  0  0  0  0  0
   -0.9103    6.8491    1.9828 H   0  0  0  0  0  0  0  0  0  0  0  0
   -0.1490   -0.9449    4.2266 H   0  0  0  0  0  0  0  0  0  0  0  0
   -1.2938   -0.2016    3.1358 H   0  0  0  0  0  0  0  0  0  0  0  0
    1.5266    0.7586    3.7504 H   0  0  0  0  0  0  0  0  0  0  0  0
    0.9920    0.1078    2.2331 H   0  0  0  0  0  0  0  0  0  0  0  0
   -0.2884    2.0784    1.7147 H   0  0  0  0  0  0  0  0  0  0  0  0
    1.2515    2.6642    2.2712 H   0  0  0  0  0  0  0  0  0  0  0  0
  1  2  1  0
  1 15  1  0
  1 16  1  0
  1 17  1  0
  2  9  1  0
  2  3  1  0
  3  4  2  0
  4  5  1  0
  4  8  1  0
  5  6  1  0
  5  7  1  0
  5 18  1  0
  6 19  1  0
  7 20  1  0
  8 14  1  0
  8  9  2  0
  9 10  1  0
 10 11  2  0
 10 12  1  0
 12 13  1  0
 12 21  1  0
 12 22  1  0
 13 14  1  0
 13 23  1  0
 13 24  1  0
 14 25  1  0
 14 26  1  0
M  END
>  <i_m_ct_stereo_status>  (480) 
1

>  <s_m_source_file>  (480) 
/var/tmp/pbs.5102264.sched01/tmpspb9n5yc/161wrz3epul.sdf

>  <i_m_source_file_index>  (480) 
12

>  <i_lp_mmshare_version>  (480) 
48012

>  <i_f3d_flags>  (480) 
0

>  <s_epik_input>  (480) 
W09IXVtDSF0oW09IXSljMW5uKFtDSDNdKWMoYzEyKUMoPU8pW0NIMl1bQ0gyXVtDSDJdMg==

>  <s_epik_cmdline>  (480) 
J2VwaWtfcHl0aG9uJywgJy1waHQnLCAnMi4wJywgJy1waCcsICc3LjAnLCAnLXRuJywgJzgnLCAnLW1hJywgJzIwMCcsICctaW1hZScsICc8aW5maWxlLm1hZT4nLCAnLW9tYWUnLCAnPG91dGZpbGUubWFlPic=

>  <r_lp_tautomer_probability>  (480) 
1

>  <r_epik_Ionization_Penalty>  (480) 
2.39861e-05

>  <r_epik_Ionization_Penalty_Charging>  (480) 
0

>  <r_epik_Ionization_Penalty_Neutral>  (480) 
2.39861e-05

>  <r_epik_State_Penalty>  (480) 
-0

>  <r_epik_Charging_Adjusted_Penalty>  (480) 
0

>  <i_epik_Tot_Q>  (480) 
0

>  <i_epik_Tot_abs_Q>  (480) 
0

>  <s_epik_Chemistry_Notes>  (480) 
This compound contains an acetal/aminal-like group ( X-CH(R)-Y where X, Y are N, S, or O) that may be acid/base labile, releasing an aldehyde.

>  <s_lp_Force_Field>  (480) 
OPLS3e

>  <r_lp_Energy>  (480) 
8.10915

>  <b_lp_Chiralities_Consistent>  (480) 
1

>  <s_lp_Variant>  (480) 
103:0-1

>  <s_i_glide_gridfile>  (480) 
pfpi4k_grid

>  <i_i_glide_lignum>  (480) 
12

>  <i_i_glide_rotatable_bonds>  (480) 
3

>  <r_i_docking_score>  (480) 
-4.65947

>  <r_i_glide_ligand_efficiency>  (480) 
-0.332819

>  <r_i_glide_ligand_efficiency_sa>  (480) 
-0.802141

>  <r_i_glide_ligand_efficiency_ln>  (480) 
-1.2804

>  <r_i_glide_gscore>  (480) 
-4.65947

>  <r_i_glide_lipo>  (480) 
-0.114864

>  <r_i_glide_hbond>  (480) 
-0.0463766

>  <r_i_glide_metal>  (480) 
-0

>  <r_i_glide_rewards>  (480) 
-2.07134

>  <r_i_glide_evdw>  (480) 
-8.88333

>  <r_i_glide_ecoul>  (480) 
-15.1784

>  <r_i_glide_erotb>  (480) 
0.421571

>  <r_i_glide_esite>  (480) 
-0.12753

>  <r_i_glide_emodel>  (480) 
-33.6892

>  <r_i_glide_energy>  (480) 
-24.0617

>  <r_i_glide_einternal>  (480) 
0.79316

>  <r_i_glide_intrahb_reward>  (480) 
-0

>  <i_i_glide_confnum>  (480) 
4

>  <i_i_glide_posenum>  (480) 
1

>  <r_i_glide_eff_state_penalty>  (480) 
0

>  <ligand_id>  (480) 
103

>  <original_smiles>  (480) 
Cn1nc(C(O)O)c2c1C(=O)CCC2

>  <smiles>  (480) 
[H]OC([H])(O[H])c1nn(C([H])([H])[H])c2c1C([H])([H])C([H])([H])C([H])([H])C2=O

$$$$
104:0:0
     RDKit          3D

 58 63  0  0  1  0  0  0  0  0999 V2000
    3.9314   -0.4112   -3.1255 C   0  0  0  0  0  0  0  0  0  0  0  0
    3.4177   -1.2240   -2.0281 N   0  0  0  0  0  0  0  0  0  0  0  0
    4.1973   -1.7261   -1.0584 C   0  0  0  0  0  0  0  0  0  0  0  0
    5.4083   -1.4839   -1.0145 O   0  0  0  0  0  0  0  0  0  0  0  0
    3.5202   -2.6316    0.0058 C   0  0  2  0  0  0  0  0  0  0  0  0
    2.6328   -1.7795    1.0080 C   0  0  0  0  0  0  0  0  0  0  0  0
    3.2067   -1.5281    2.4482 C   0  0  1  0  0  0  0  0  0  0  0  0
    2.1220   -1.1329    3.3637 N   0  0  0  0  0  0  0  0  0  0  0  0
    1.8273    0.3008    3.4525 C   0  0  0  0  0  0  0  0  0  0  0  0
    0.5324    0.7068    2.7852 C   0  0  0  0  0  0  0  0  0  0  0  0
   -0.0880    2.0516    3.0718 C   0  0  0  0  0  0  0  0  0  0  0  0
   -0.7490    0.7982    3.5844 C   0  0  0  0  0  0  0  0  0  0  0  0
    1.3697   -2.0328    4.0520 C   0  0  0  0  0  0  0  0  0  0  0  0
    0.4723   -1.7193    4.8324 O   0  0  0  0  0  0  0  0  0  0  0  0
    1.6591   -3.4810    3.7939 C   0  0  0  0  0  0  0  0  0  0  0  0
    0.7190   -4.4606    4.2031 C   0  0  0  0  0  0  0  0  0  0  0  0
    0.9658   -5.8251    3.9948 C   0  0  0  0  0  0  0  0  0  0  0  0
    0.0490   -6.7477    4.3719 F   0  0  0  0  0  0  0  0  0  0  0  0
    2.1751   -6.2199    3.4005 C   0  0  0  0  0  0  0  0  0  0  0  0
    3.1300   -5.2483    3.0381 C   0  0  0  0  0  0  0  0  0  0  0  0
    2.8823   -3.8713    3.2027 C   0  0  0  0  0  0  0  0  0  0  0  0
    3.9082   -2.8083    2.8208 C   0  0  2  0  0  0  0  0  0  0  0  0
    5.2864   -3.1663    3.2718 C   0  0  0  0  0  0  0  0  0  0  0  0
    5.0932   -2.8734    1.8116 C   0  0  1  0  0  0  0  0  0  0  0  0
    4.4320   -3.6088    0.7162 N   0  0  2  0  0  0  0  0  0  0  0  0
    5.3499   -4.4063   -0.1512 C   0  0  0  0  0  0  0  0  0  0  0  0
    6.0456   -5.5036    0.5929 C   0  0  0  0  0  0  0  0  0  0  0  0
    5.6157   -6.6539    1.1954 C   0  0  0  0  0  0  0  0  0  0  0  0
    6.7602   -7.2331    1.8032 C   0  0  0  0  0  0  0  0  0  0  0  0
    7.8225   -6.4659    1.4264 C   0  0  0  0  0  0  0  0  0  0  0  0
    7.4031   -5.3905    0.7050 O   0  0  0  0  0  0  0  0  0  0  0  0
    3.1528   -0.2091   -3.8608 H   0  0  0  0  0  0  0  0  0  0  0  0
    4.7505   -0.9233   -3.6283 H   0  0  0  0  0  0  0  0  0  0  0  0
    4.3034    0.5410   -2.7497 H   0  0  0  0  0  0  0  0  0  0  0  0
    2.4069   -1.3189   -1.9514 H   0  0  0  0  0  0  0  0  0  0  0  0
    2.8148   -3.2486   -0.5550 H   0  0  0  0  0  0  0  0  0  0  0  0
    2.4100   -0.8018    0.5757 H   0  0  0  0  0  0  0  0  0  0  0  0
    1.6625   -2.2751    1.1031 H   0  0  0  0  0  0  0  0  0  0  0  0
    3.9488   -0.7228    2.3902 H   0  0  0  0  0  0  0  0  0  0  0  0
    1.7870    0.5757    4.5075 H   0  0  0  0  0  0  0  0  0  0  0  0
    2.6349    0.9028    3.0328 H   0  0  0  0  0  0  0  0  0  0  0  0
    0.4385    0.3535    1.7553 H   0  0  0  0  0  0  0  0  0  0  0  0
    0.4209    2.6937    3.7918 H   0  0  0  0  0  0  0  0  0  0  0  0
   -0.5717    2.5598    2.2414 H   0  0  0  0  0  0  0  0  0  0  0  0
   -1.6634    0.4722    3.0967 H   0  0  0  0  0  0  0  0  0  0  0  0
   -0.6932    0.5999    4.6551 H   0  0  0  0  0  0  0  0  0  0  0  0
   -0.2036   -4.1609    4.6717 H   0  0  0  0  0  0  0  0  0  0  0  0
    2.3960   -7.2646    3.2612 H   0  0  0  0  0  0  0  0  0  0  0  0
    4.0859   -5.5560    2.6803 H   0  0  0  0  0  0  0  0  0  0  0  0
    5.7806   -2.3987    3.8646 H   0  0  0  0  0  0  0  0  0  0  0  0
    5.5123   -4.1834    3.5703 H   0  0  0  0  0  0  0  0  0  0  0  0
    5.6117   -1.9828    1.4602 H   0  0  0  0  0  0  0  0  0  0  0  0
    4.7789   -4.8380   -0.9778 H   0  0  0  0  0  0  0  0  0  0  0  0
    6.1204   -3.7706   -0.5932 H   0  0  0  0  0  0  0  0  0  0  0  0
    4.5926   -7.0097    1.2304 H   0  0  0  0  0  0  0  0  0  0  0  0
    6.7972   -8.1143    2.4230 H   0  0  0  0  0  0  0  0  0  0  0  0
    8.8853   -6.5354    1.6021 H   0  0  0  0  0  0  0  0  0  0  0  0
    3.8189   -4.2782    1.1644 H   0  0  0  0  0  0  0  0  0  0  0  0
  1  2  1  0
  1 32  1  0
  1 33  1  0
  1 34  1  0
  2  3  1  0
  2 35  1  0
  3  4  2  0
  3  5  1  0
  5 25  1  0
  5  6  1  0
  5 36  1  6
  6  7  1  0
  6 37  1  0
  6 38  1  0
  7 22  1  0
  7  8  1  0
  7 39  1  6
  8  9  1  0
  8 13  1  0
  9 10  1  0
  9 40  1  0
  9 41  1  0
 10 12  1  0
 10 11  1  0
 10 42  1  0
 11 12  1  0
 11 43  1  0
 11 44  1  0
 12 45  1  0
 12 46  1  0
 13 14  2  0
 13 15  1  0
 15 21  2  0
 15 16  1  0
 16 17  2  0
 16 47  1  0
 17 18  1  0
 17 19  1  0
 19 20  2  0
 19 48  1  0
 20 21  1  0
 20 49  1  0
 21 22  1  0
 22 24  1  0
 22 23  1  1
 23 24  1  0
 23 50  1  0
 23 51  1  0
 24 25  1  0
 24 52  1  6
 25 26  1  0
 25 58  1  1
 26 27  1  0
 26 53  1  0
 26 54  1  0
 27 31  1  0
 27 28  2  0
 28 29  1  0
 28 55  1  0
 29 30  2  0
 29 56  1  0
 30 31  1  0
 30 57  1  0
M  CHG  1  25   1
M  END
>  <i_m_ct_stereo_status>  (481) 
1

>  <s_m_source_file>  (481) 
/var/tmp/pbs.5102264.sched01/tmpspb9n5yc/161wrz3epul.sdf

>  <i_m_source_file_index>  (481) 
13

>  <i_lp_mmshare_version>  (481) 
48012

>  <i_f3d_flags>  (481) 
0

>  <s_epik_input>  (481) 
bzFbY0hdW2NIXVtjSF1jMVtDSDJdTihbQ0BASF0yW0NIMl0zKVtDQEhdKEMoPU8pW05IXVtDSDNdKVtDSDJdW0NASF0oW0NAQF0yMzQpTihbQ0gyXVtDSF01W0NIMl1bQ0gyXTUpQyg9TyljNmM0W2NIXVtjSF1jKEYpW2NIXTY=

>  <s_epik_cmdline>  (481) 
J2VwaWtfcHl0aG9uJywgJy1waHQnLCAnMi4wJywgJy1waCcsICc3LjAnLCAnLXRuJywgJzgnLCAnLW1hJywgJzIwMCcsICctaW1hZScsICc8aW5maWxlLm1hZT4nLCAnLW9tYWUnLCAnPG91dGZpbGUubWFlPic=

>  <r_epik_Ionization_Penalty>  (481) 
0.279956

>  <r_epik_Ionization_Penalty_Charging>  (481) 
0.279926

>  <r_epik_Ionization_Penalty_Neutral>  (481) 
2.95968e-05

>  <r_epik_State_Penalty>  (481) 
0.272459

>  <r_epik_Charging_Adjusted_Penalty>  (481) 
0.552385

>  <i_epik_Tot_Q>  (481) 
1

>  <i_epik_Tot_abs_Q>  (481) 
1

>  <s_lp_Force_Field>  (481) 
OPLS3e

>  <r_lp_Energy>  (481) 
80.2885

>  <b_lp_Chiralities_Consistent>  (481) 
1

>  <s_lp_Variant>  (481) 
104:0-1

>  <s_i_glide_gridfile>  (481) 
pfpi4k_grid

>  <i_i_glide_lignum>  (481) 
13

>  <i_i_glide_rotatable_bonds>  (481) 
6

>  <r_i_docking_score>  (481) 
-3.39796

>  <r_i_glide_ligand_efficiency>  (481) 
-0.109611

>  <r_i_glide_ligand_efficiency_sa>  (481) 
-0.344331

>  <r_i_glide_ligand_efficiency_ln>  (481) 
-0.766343

>  <r_i_glide_gscore>  (481) 
-3.39796

>  <r_i_glide_lipo>  (481) 
-0.62754

>  <r_i_glide_hbond>  (481) 
-0.151872

>  <r_i_glide_metal>  (481) 
-0

>  <r_i_glide_rewards>  (481) 
-0.528527

>  <r_i_glide_evdw>  (481) 
-27.0239

>  <r_i_glide_ecoul>  (481) 
-7.62815

>  <r_i_glide_erotb>  (481) 
0.550219

>  <r_i_glide_esite>  (481) 
-0.144819

>  <r_i_glide_emodel>  (481) 
-41.5187

>  <r_i_glide_energy>  (481) 
-34.6521

>  <r_i_glide_einternal>  (481) 
0.970229

>  <r_i_glide_intrahb_reward>  (481) 
-0

>  <i_i_glide_confnum>  (481) 
2

>  <i_i_glide_posenum>  (481) 
15

>  <r_i_glide_eff_state_penalty>  (481) 
0

>  <ligand_id>  (481) 
104

>  <original_smiles>  (481) 
CNC(=O)C1CC2N(CC3CC3)C(=O)c3cc(F)ccc3C23CC3N1Cc1ccco1

>  <smiles>  (481) 
[H]c1oc(C([H])([H])[N+]2([H])C([H])(C(=O)N([H])C([H])([H])[H])C([H])([H])C3([H])N(C([H])([H])C4([H])C([H])([H])C4([H])[H])C(=O)c4c([H])c(F)c([H])c([H])c4C34C([H])([H])C42[H])c([H])c1[H]

$$$$
104:0:1
     RDKit          3D

 58 63  0  0  1  0  0  0  0  0999 V2000
    4.9642   -3.0074   -3.5042 C   0  0  0  0  0  0  0  0  0  0  0  0
    4.2429   -3.4569   -2.3258 N   0  0  0  0  0  0  0  0  0  0  0  0
    4.4747   -2.9737   -1.0861 C   0  0  0  0  0  0  0  0  0  0  0  0
    5.2825   -2.0735   -0.8674 O   0  0  0  0  0  0  0  0  0  0  0  0
    3.6737   -3.6219    0.0742 C   0  0  2  0  0  0  0  0  0  0  0  0
    2.8223   -2.5504    0.8673 C   0  0  0  0  0  0  0  0  0  0  0  0
    3.3521   -2.0869    2.2673 C   0  0  1  0  0  0  0  0  0  0  0  0
    2.2584   -1.4777    3.0490 N   0  0  0  0  0  0  0  0  0  0  0  0
    2.0725   -0.0354    2.8884 C   0  0  0  0  0  0  0  0  0  0  0  0
    0.7898    0.3444    2.1820 C   0  0  0  0  0  0  0  0  0  0  0  0
    0.3373    1.7800    2.1357 C   0  0  0  0  0  0  0  0  0  0  0  0
   -0.4247    0.7839    2.9697 C   0  0  0  0  0  0  0  0  0  0  0  0
    1.4177   -2.2051    3.8429 C   0  0  0  0  0  0  0  0  0  0  0  0
    0.5175   -1.7048    4.5178 O   0  0  0  0  0  0  0  0  0  0  0  0
    1.6229   -3.6855    3.8438 C   0  0  0  0  0  0  0  0  0  0  0  0
    0.6044   -4.5265    4.3679 C   0  0  0  0  0  0  0  0  0  0  0  0
    0.7503   -5.9152    4.3839 C   0  0  0  0  0  0  0  0  0  0  0  0
   -0.2495   -6.7057    4.8525 F   0  0  0  0  0  0  0  0  0  0  0  0
    1.9515   -6.4775    3.9222 C   0  0  0  0  0  0  0  0  0  0  0  0
    2.9841   -5.6377    3.4612 C   0  0  0  0  0  0  0  0  0  0  0  0
    2.8320   -4.2467    3.3821 C   0  0  0  0  0  0  0  0  0  0  0  0
    3.9455   -3.3275    2.8823 C   0  0  2  0  0  0  0  0  0  0  0  0
    5.2732   -3.6947    3.4500 C   0  0  0  0  0  0  0  0  0  0  0  0
    5.1671   -3.6262    1.9674 C   0  0  1  0  0  0  0  0  0  0  0  0
    4.5049   -4.5027    0.9855 N   0  0  2  0  0  0  0  0  0  0  0  0
    5.4124   -5.4761    0.3047 C   0  0  0  0  0  0  0  0  0  0  0  0
    6.0641   -6.4255    1.2533 C   0  0  0  0  0  0  0  0  0  0  0  0
    5.5953   -7.4477    2.0496 C   0  0  0  0  0  0  0  0  0  0  0  0
    6.7127   -7.8965    2.7948 C   0  0  0  0  0  0  0  0  0  0  0  0
    7.8043   -7.2489    2.2834 C   0  0  0  0  0  0  0  0  0  0  0  0
    7.4193   -6.3262    1.3645 O   0  0  0  0  0  0  0  0  0  0  0  0
    4.7710   -3.6838   -4.3365 H   0  0  0  0  0  0  0  0  0  0  0  0
    6.0410   -3.0036   -3.3302 H   0  0  0  0  0  0  0  0  0  0  0  0
    4.6543   -2.0039   -3.8010 H   0  0  0  0  0  0  0  0  0  0  0  0
    3.5590   -4.1901   -2.4649 H   0  0  0  0  0  0  0  0  0  0  0  0
    2.9507   -4.2795   -0.3926 H   0  0  0  0  0  0  0  0  0  0  0  0
    2.6756   -1.6637    0.2511 H   0  0  0  0  0  0  0  0  0  0  0  0
    1.8198   -2.9602    0.9984 H   0  0  0  0  0  0  0  0  0  0  0  0
    4.1530   -1.3484    2.1269 H   0  0  0  0  0  0  0  0  0  0  0  0
    2.0854    0.4088    3.8811 H   0  0  0  0  0  0  0  0  0  0  0  0
    2.9039    0.4259    2.3501 H   0  0  0  0  0  0  0  0  0  0  0  0
    0.6081   -0.2301    1.2767 H   0  0  0  0  0  0  0  0  0  0  0  0
    0.9513    2.5217    2.6467 H   0  0  0  0  0  0  0  0  0  0  0  0
   -0.1359    2.1129    1.2138 H   0  0  0  0  0  0  0  0  0  0  0  0
   -1.3969    0.4647    2.6001 H   0  0  0  0  0  0  0  0  0  0  0  0
   -0.3333    0.8459    4.0538 H   0  0  0  0  0  0  0  0  0  0  0  0
   -0.3185   -4.0909    4.7244 H   0  0  0  0  0  0  0  0  0  0  0  0
    2.1108   -7.5405    3.9676 H   0  0  0  0  0  0  0  0  0  0  0  0
    3.9490   -6.0520    3.2151 H   0  0  0  0  0  0  0  0  0  0  0  0
    5.7587   -2.8677    3.9543 H   0  0  0  0  0  0  0  0  0  0  0  0
    5.4116   -4.6693    3.9128 H   0  0  0  0  0  0  0  0  0  0  0  0
    5.7692   -2.8443    1.4952 H   0  0  0  0  0  0  0  0  0  0  0  0
    4.8344   -6.0363   -0.4274 H   0  0  0  0  0  0  0  0  0  0  0  0
    6.1832   -4.9313   -0.2371 H   0  0  0  0  0  0  0  0  0  0  0  0
    4.5692   -7.7855    2.1160 H   0  0  0  0  0  0  0  0  0  0  0  0
    6.7201   -8.6279    3.5851 H   0  0  0  0  0  0  0  0  0  0  0  0
    8.8607   -7.3149    2.4783 H   0  0  0  0  0  0  0  0  0  0  0  0
    3.8328   -5.0408    1.5143 H   0  0  0  0  0  0  0  0  0  0  0  0
  1  2  1  0
  1 32  1  0
  1 33  1  0
  1 34  1  0
  2  3  1  0
  2 35  1  0
  3  4  2  0
  3  5  1  0
  5 25  1  0
  5  6  1  0
  5 36  1  6
  6  7  1  0
  6 37  1  0
  6 38  1  0
  7 22  1  0
  7  8  1  0
  7 39  1  6
  8  9  1  0
  8 13  1  0
  9 10  1  0
  9 40  1  0
  9 41  1  0
 10 12  1  0
 10 11  1  0
 10 42  1  0
 11 12  1  0
 11 43  1  0
 11 44  1  0
 12 45  1  0
 12 46  1  0
 13 14  2  0
 13 15  1  0
 15 21  2  0
 15 16  1  0
 16 17  2  0
 16 47  1  0
 17 18  1  0
 17 19  1  0
 19 20  2  0
 19 48  1  0
 20 21  1  0
 20 49  1  0
 21 22  1  0
 22 24  1  0
 22 23  1  1
 23 24  1  0
 23 50  1  0
 23 51  1  0
 24 25  1  0
 24 52  1  6
 25 26  1  0
 25 58  1  1
 26 27  1  0
 26 53  1  0
 26 54  1  0
 27 31  1  0
 27 28  2  0
 28 29  1  0
 28 55  1  0
 29 30  2  0
 29 56  1  0
 30 31  1  0
 30 57  1  0
M  CHG  1  25   1
M  END
>  <i_m_ct_stereo_status>  (482) 
1

>  <s_m_source_file>  (482) 
/var/tmp/pbs.5102264.sched01/tmpspb9n5yc/161wrz3epul.sdf

>  <i_m_source_file_index>  (482) 
13

>  <i_lp_mmshare_version>  (482) 
48012

>  <i_f3d_flags>  (482) 
0

>  <s_epik_input>  (482) 
bzFbY0hdW2NIXVtjSF1jMVtDSDJdTihbQ0BASF0yW0NIMl0zKVtDQEhdKEMoPU8pW05IXVtDSDNdKVtDSDJdW0NASF0oW0NAQF0yMzQpTihbQ0gyXVtDSF01W0NIMl1bQ0gyXTUpQyg9TyljNmM0W2NIXVtjSF1jKEYpW2NIXTY=

>  <s_epik_cmdline>  (482) 
J2VwaWtfcHl0aG9uJywgJy1waHQnLCAnMi4wJywgJy1waCcsICc3LjAnLCAnLXRuJywgJzgnLCAnLW1hJywgJzIwMCcsICctaW1hZScsICc8aW5maWxlLm1hZT4nLCAnLW9tYWUnLCAnPG91dGZpbGUubWFlPic=

>  <r_epik_Ionization_Penalty>  (482) 
0.279956

>  <r_epik_Ionization_Penalty_Charging>  (482) 
0.279926

>  <r_epik_Ionization_Penalty_Neutral>  (482) 
2.95968e-05

>  <r_epik_State_Penalty>  (482) 
0.272459

>  <r_epik_Charging_Adjusted_Penalty>  (482) 
0.552385

>  <i_epik_Tot_Q>  (482) 
1

>  <i_epik_Tot_abs_Q>  (482) 
1

>  <s_lp_Force_Field>  (482) 
OPLS3e

>  <r_lp_Energy>  (482) 
80.2885

>  <b_lp_Chiralities_Consistent>  (482) 
1

>  <s_lp_Variant>  (482) 
104:0-1

>  <s_i_glide_gridfile>  (482) 
pfpi4k_grid

>  <i_i_glide_lignum>  (482) 
13

>  <i_i_glide_rotatable_bonds>  (482) 
6

>  <r_i_docking_score>  (482) 
-3.2625

>  <r_i_glide_ligand_efficiency>  (482) 
-0.105242

>  <r_i_glide_ligand_efficiency_sa>  (482) 
-0.330605

>  <r_i_glide_ligand_efficiency_ln>  (482) 
-0.735793

>  <r_i_glide_gscore>  (482) 
-3.2625

>  <r_i_glide_lipo>  (482) 
-0.518055

>  <r_i_glide_hbond>  (482) 
-0.32

>  <r_i_glide_metal>  (482) 
-0

>  <r_i_glide_rewards>  (482) 
-0.544895

>  <r_i_glide_evdw>  (482) 
-27.3637

>  <r_i_glide_ecoul>  (482) 
-6.65075

>  <r_i_glide_erotb>  (482) 
0.550219

>  <r_i_glide_esite>  (482) 
-0.0639673

>  <r_i_glide_emodel>  (482) 
-40.7411

>  <r_i_glide_energy>  (482) 
-34.0145

>  <r_i_glide_einternal>  (482) 
1.35065

>  <r_i_glide_intrahb_reward>  (482) 
-0

>  <i_i_glide_confnum>  (482) 
2

>  <i_i_glide_posenum>  (482) 
35

>  <r_i_glide_eff_state_penalty>  (482) 
0

>  <ligand_id>  (482) 
104

>  <original_smiles>  (482) 
CNC(=O)C1CC2N(CC3CC3)C(=O)c3cc(F)ccc3C23CC3N1Cc1ccco1

>  <smiles>  (482) 
[H]c1oc(C([H])([H])[N+]2([H])C([H])(C(=O)N([H])C([H])([H])[H])C([H])([H])C3([H])N(C([H])([H])C4([H])C([H])([H])C4([H])[H])C(=O)c4c([H])c(F)c([H])c([H])c4C34C([H])([H])C42[H])c([H])c1[H]

$$$$
104:0:2
     RDKit          3D

 58 63  0  0  1  0  0  0  0  0999 V2000
    4.9554   -3.0268   -3.5143 C   0  0  0  0  0  0  0  0  0  0  0  0
    4.2184   -3.4539   -2.3355 N   0  0  0  0  0  0  0  0  0  0  0  0
    4.4146   -2.9542   -1.1022 C   0  0  0  0  0  0  0  0  0  0  0  0
    5.2234   -2.0526   -0.8705 O   0  0  0  0  0  0  0  0  0  0  0  0
    3.5891   -3.5782    0.0471 C   0  0  2  0  0  0  0  0  0  0  0  0
    2.8740   -2.4710    0.9246 C   0  0  0  0  0  0  0  0  0  0  0  0
    3.5010   -2.1566    2.3286 C   0  0  1  0  0  0  0  0  0  0  0  0
    2.5076   -1.4930    3.1899 N   0  0  0  0  0  0  0  0  0  0  0  0
    2.4441   -0.0276    3.1163 C   0  0  0  0  0  0  0  0  0  0  0  0
    1.2627    0.5017    2.3361 C   0  0  0  0  0  0  0  0  0  0  0  0
    0.7846    1.9158    2.5439 C   0  0  0  0  0  0  0  0  0  0  0  0
   -0.0620    0.7655    3.0189 C   0  0  0  0  0  0  0  0  0  0  0  0
    1.6411   -2.1865    3.9692 C   0  0  0  0  0  0  0  0  0  0  0  0
    0.8051   -1.6543    4.7032 O   0  0  0  0  0  0  0  0  0  0  0  0
    1.6964   -3.6830    3.8810 C   0  0  0  0  0  0  0  0  0  0  0  0
    0.6145   -4.4358    4.3898 C   0  0  0  0  0  0  0  0  0  0  0  0
    0.6344   -5.8355    4.3396 C   0  0  0  0  0  0  0  0  0  0  0  0
   -0.4221   -6.5426    4.8029 F   0  0  0  0  0  0  0  0  0  0  0  0
    1.7498   -6.4950    3.8017 C   0  0  0  0  0  0  0  0  0  0  0  0
    2.8411   -5.7486    3.3158 C   0  0  0  0  0  0  0  0  0  0  0  0
    2.8273   -4.3343    3.3360 C   0  0  0  0  0  0  0  0  0  0  0  0
    3.9938   -3.4870    2.8498 C   0  0  2  0  0  0  0  0  0  0  0  0
    5.2934   -3.9967    3.3694 C   0  0  0  0  0  0  0  0  0  0  0  0
    5.1508   -3.8494    1.8812 C   0  0  1  0  0  0  0  0  0  0  0  0
    4.3569   -4.5842    0.8746 N   0  0  2  0  0  0  0  0  0  0  0  0
    5.1406   -5.5900    0.1106 C   0  0  0  0  0  0  0  0  0  0  0  0
    5.3881   -6.8262    0.9133 C   0  0  0  0  0  0  0  0  0  0  0  0
    4.6336   -7.9327    1.1874 C   0  0  0  0  0  0  0  0  0  0  0  0
    5.4292   -8.7536    2.0340 C   0  0  0  0  0  0  0  0  0  0  0  0
    6.6167   -8.1036    2.1819 C   0  0  0  0  0  0  0  0  0  0  0  0
    6.6115   -6.9215    1.5057 O   0  0  0  0  0  0  0  0  0  0  0  0
    4.7795   -3.7217   -4.3346 H   0  0  0  0  0  0  0  0  0  0  0  0
    6.0300   -3.0092   -3.3200 H   0  0  0  0  0  0  0  0  0  0  0  0
    4.6407   -2.0310   -3.8326 H   0  0  0  0  0  0  0  0  0  0  0  0
    3.5297   -4.1863   -2.4769 H   0  0  0  0  0  0  0  0  0  0  0  0
    2.7862   -4.1361   -0.4344 H   0  0  0  0  0  0  0  0  0  0  0  0
    2.7894   -1.5415    0.3628 H   0  0  0  0  0  0  0  0  0  0  0  0
    1.8356   -2.7800    1.0684 H   0  0  0  0  0  0  0  0  0  0  0  0
    4.3590   -1.4905    2.1962 H   0  0  0  0  0  0  0  0  0  0  0  0
    2.4010    0.3730    4.1304 H   0  0  0  0  0  0  0  0  0  0  0  0
    3.3557    0.3954    2.6898 H   0  0  0  0  0  0  0  0  0  0  0  0
    1.2096    0.1312    1.3109 H   0  0  0  0  0  0  0  0  0  0  0  0
    1.2983    2.5201    3.2912 H   0  0  0  0  0  0  0  0  0  0  0  0
    0.4245    2.4556    1.6794 H   0  0  0  0  0  0  0  0  0  0  0  0
   -0.9654    0.5321    2.4598 H   0  0  0  0  0  0  0  0  0  0  0  0
   -0.1245    0.6162    4.0955 H   0  0  0  0  0  0  0  0  0  0  0  0
   -0.2460   -3.9390    4.8008 H   0  0  0  0  0  0  0  0  0  0  0  0
    1.7848   -7.5711    3.7817 H   0  0  0  0  0  0  0  0  0  0  0  0
    3.7059   -6.2780    2.9671 H   0  0  0  0  0  0  0  0  0  0  0  0
    5.8488   -3.2365    3.9063 H   0  0  0  0  0  0  0  0  0  0  0  0
    5.3553   -4.9951    3.7914 H   0  0  0  0  0  0  0  0  0  0  0  0
    5.8013   -3.0955    1.4373 H   0  0  0  0  0  0  0  0  0  0  0  0
    4.6009   -5.8712   -0.7922 H   0  0  0  0  0  0  0  0  0  0  0  0
    6.0818   -5.1469   -0.2162 H   0  0  0  0  0  0  0  0  0  0  0  0
    3.6255   -8.1250    0.8457 H   0  0  0  0  0  0  0  0  0  0  0  0
    5.1568   -9.6956    2.4845 H   0  0  0  0  0  0  0  0  0  0  0  0
    7.5212   -8.3248    2.7273 H   0  0  0  0  0  0  0  0  0  0  0  0
    3.6546   -5.1048    1.3904 H   0  0  0  0  0  0  0  0  0  0  0  0
  1  2  1  0
  1 32  1  0
  1 33  1  0
  1 34  1  0
  2  3  1  0
  2 35  1  0
  3  4  2  0
  3  5  1  0
  5 25  1  0
  5  6  1  0
  5 36  1  6
  6  7  1  0
  6 37  1  0
  6 38  1  0
  7 22  1  0
  7  8  1  0
  7 39  1  6
  8  9  1  0
  8 13  1  0
  9 10  1  0
  9 40  1  0
  9 41  1  0
 10 12  1  0
 10 11  1  0
 10 42  1  0
 11 12  1  0
 11 43  1  0
 11 44  1  0
 12 45  1  0
 12 46  1  0
 13 14  2  0
 13 15  1  0
 15 21  2  0
 15 16  1  0
 16 17  2  0
 16 47  1  0
 17 18  1  0
 17 19  1  0
 19 20  2  0
 19 48  1  0
 20 21  1  0
 20 49  1  0
 21 22  1  0
 22 24  1  0
 22 23  1  1
 23 24  1  0
 23 50  1  0
 23 51  1  0
 24 25  1  0
 24 52  1  6
 25 26  1  0
 25 58  1  1
 26 27  1  0
 26 53  1  0
 26 54  1  0
 27 31  1  0
 27 28  2  0
 28 29  1  0
 28 55  1  0
 29 30  2  0
 29 56  1  0
 30 31  1  0
 30 57  1  0
M  CHG  1  25   1
M  END
>  <i_m_ct_stereo_status>  (483) 
1

>  <s_m_source_file>  (483) 
/var/tmp/pbs.5102264.sched01/tmpspb9n5yc/161wrz3epul.sdf

>  <i_m_source_file_index>  (483) 
13

>  <i_lp_mmshare_version>  (483) 
48012

>  <i_f3d_flags>  (483) 
0

>  <s_epik_input>  (483) 
bzFbY0hdW2NIXVtjSF1jMVtDSDJdTihbQ0BASF0yW0NIMl0zKVtDQEhdKEMoPU8pW05IXVtDSDNdKVtDSDJdW0NASF0oW0NAQF0yMzQpTihbQ0gyXVtDSF01W0NIMl1bQ0gyXTUpQyg9TyljNmM0W2NIXVtjSF1jKEYpW2NIXTY=

>  <s_epik_cmdline>  (483) 
J2VwaWtfcHl0aG9uJywgJy1waHQnLCAnMi4wJywgJy1waCcsICc3LjAnLCAnLXRuJywgJzgnLCAnLW1hJywgJzIwMCcsICctaW1hZScsICc8aW5maWxlLm1hZT4nLCAnLW9tYWUnLCAnPG91dGZpbGUubWFlPic=

>  <r_epik_Ionization_Penalty>  (483) 
0.279956

>  <r_epik_Ionization_Penalty_Charging>  (483) 
0.279926

>  <r_epik_Ionization_Penalty_Neutral>  (483) 
2.95968e-05

>  <r_epik_State_Penalty>  (483) 
0.272459

>  <r_epik_Charging_Adjusted_Penalty>  (483) 
0.552385

>  <i_epik_Tot_Q>  (483) 
1

>  <i_epik_Tot_abs_Q>  (483) 
1

>  <s_lp_Force_Field>  (483) 
OPLS3e

>  <r_lp_Energy>  (483) 
80.2885

>  <b_lp_Chiralities_Consistent>  (483) 
1

>  <s_lp_Variant>  (483) 
104:0-1

>  <s_i_glide_gridfile>  (483) 
pfpi4k_grid

>  <i_i_glide_lignum>  (483) 
13

>  <i_i_glide_rotatable_bonds>  (483) 
6

>  <r_i_docking_score>  (483) 
-3.1923

>  <r_i_glide_ligand_efficiency>  (483) 
-0.102978

>  <r_i_glide_ligand_efficiency_sa>  (483) 
-0.323492

>  <r_i_glide_ligand_efficiency_ln>  (483) 
-0.719962

>  <r_i_glide_gscore>  (483) 
-3.1923

>  <r_i_glide_lipo>  (483) 
-0.49917

>  <r_i_glide_hbond>  (483) 
-0.32

>  <r_i_glide_metal>  (483) 
-0

>  <r_i_glide_rewards>  (483) 
-0.529953

>  <r_i_glide_evdw>  (483) 
-26.8242

>  <r_i_glide_ecoul>  (483) 
-6.56572

>  <r_i_glide_erotb>  (483) 
0.550219

>  <r_i_glide_esite>  (483) 
-0.0673325

>  <r_i_glide_emodel>  (483) 
-40.5007

>  <r_i_glide_energy>  (483) 
-33.3899

>  <r_i_glide_einternal>  (483) 
1.27283

>  <r_i_glide_intrahb_reward>  (483) 
-0

>  <i_i_glide_confnum>  (483) 
2

>  <i_i_glide_posenum>  (483) 
23

>  <r_i_glide_eff_state_penalty>  (483) 
0

>  <ligand_id>  (483) 
104

>  <original_smiles>  (483) 
CNC(=O)C1CC2N(CC3CC3)C(=O)c3cc(F)ccc3C23CC3N1Cc1ccco1

>  <smiles>  (483) 
[H]c1oc(C([H])([H])[N+]2([H])C([H])(C(=O)N([H])C([H])([H])[H])C([H])([H])C3([H])N(C([H])([H])C4([H])C([H])([H])C4([H])[H])C(=O)c4c([H])c(F)c([H])c([H])c4C34C([H])([H])C42[H])c([H])c1[H]

$$$$
104:1:0
     RDKit          3D

 58 63  0  0  1  0  0  0  0  0999 V2000
    6.3884   -9.7967    0.9937 C   0  0  0  0  0  0  0  0  0  0  0  0
    5.1374   -9.0533    1.0385 N   0  0  0  0  0  0  0  0  0  0  0  0
    5.0802   -7.7924    1.5047 C   0  0  0  0  0  0  0  0  0  0  0  0
    6.0888   -7.1935    1.8699 O   0  0  0  0  0  0  0  0  0  0  0  0
    3.6865   -7.1343    1.6468 C   0  0  2  0  0  0  0  0  0  0  0  0
    3.4907   -5.9014    0.7339 C   0  0  0  0  0  0  0  0  0  0  0  0
    4.2708   -4.6565    1.2405 C   0  0  1  0  0  0  0  0  0  0  0  0
    4.2811   -3.5960    0.2251 N   0  0  0  0  0  0  0  0  0  0  0  0
    5.0342   -3.9000   -1.0092 C   0  0  0  0  0  0  0  0  0  0  0  0
    4.3244   -3.5511   -2.3044 C   0  0  0  0  0  0  0  0  0  0  0  0
    5.0220   -3.5978   -3.6388 C   0  0  0  0  0  0  0  0  0  0  0  0
    4.6356   -2.2692   -3.0469 C   0  0  0  0  0  0  0  0  0  0  0  0
    3.8774   -2.3223    0.4626 C   0  0  0  0  0  0  0  0  0  0  0  0
    4.0803   -1.3963   -0.3184 O   0  0  0  0  0  0  0  0  0  0  0  0
    3.1750   -2.0407    1.7424 C   0  0  0  0  0  0  0  0  0  0  0  0
    2.5629   -0.7667    1.8886 C   0  0  0  0  0  0  0  0  0  0  0  0
    1.9377   -0.4058    3.0816 C   0  0  0  0  0  0  0  0  0  0  0  0
    1.3667    0.8171    3.2113 F   0  0  0  0  0  0  0  0  0  0  0  0
    1.9092   -1.3177    4.1482 C   0  0  0  0  0  0  0  0  0  0  0  0
    2.5151   -2.5891    4.0123 C   0  0  0  0  0  0  0  0  0  0  0  0
    3.1552   -2.9709    2.8052 C   0  0  0  0  0  0  0  0  0  0  0  0
    3.7843   -4.3463    2.6627 C   0  0  2  0  0  0  0  0  0  0  0  0
    4.6781   -4.8663    3.7856 C   0  0  0  0  0  0  0  0  0  0  0  0
    3.3263   -5.4868    3.5977 C   0  0  2  0  0  0  0  0  0  0  0  0
    3.2640   -6.8763    3.0510 N   0  0  2  0  0  0  0  0  0  0  0  0
    3.4855   -7.9684    4.0320 C   0  0  0  0  0  0  0  0  0  0  0  0
    2.5839   -9.1359    3.7755 C   0  0  0  0  0  0  0  0  0  0  0  0
    2.7685  -10.3805    3.2400 C   0  0  0  0  0  0  0  0  0  0  0  0
    1.4984  -11.0334    3.2852 C   0  0  0  0  0  0  0  0  0  0  0  0
    0.6355  -10.1387    3.8434 C   0  0  0  0  0  0  0  0  0  0  0  0
    1.2781   -8.9696    4.1406 O   0  0  0  0  0  0  0  0  0  0  0  0
    6.2158  -10.7959    0.5940 H   0  0  0  0  0  0  0  0  0  0  0  0
    6.8167   -9.8977    1.9928 H   0  0  0  0  0  0  0  0  0  0  0  0
    7.1338   -9.2970    0.3744 H   0  0  0  0  0  0  0  0  0  0  0  0
    4.2996   -9.5677    0.7888 H   0  0  0  0  0  0  0  0  0  0  0  0
    2.9660   -7.8645    1.2807 H   0  0  0  0  0  0  0  0  0  0  0  0
    3.7891   -6.1965   -0.2693 H   0  0  0  0  0  0  0  0  0  0  0  0
    2.4231   -5.6622    0.6452 H   0  0  0  0  0  0  0  0  0  0  0  0
    5.3275   -4.9006    1.3164 H   0  0  0  0  0  0  0  0  0  0  0  0
    5.9844   -3.3653   -0.9749 H   0  0  0  0  0  0  0  0  0  0  0  0
    5.3220   -4.9513   -1.0573 H   0  0  0  0  0  0  0  0  0  0  0  0
    3.2776   -3.8489   -2.3118 H   0  0  0  0  0  0  0  0  0  0  0  0
    6.0783   -3.8549   -3.6321 H   0  0  0  0  0  0  0  0  0  0  0  0
    4.4505   -3.9489   -4.4962 H   0  0  0  0  0  0  0  0  0  0  0  0
    3.7832   -1.7321   -3.4587 H   0  0  0  0  0  0  0  0  0  0  0  0
    5.4177   -1.6408   -2.6198 H   0  0  0  0  0  0  0  0  0  0  0  0
    2.5824   -0.0573    1.0773 H   0  0  0  0  0  0  0  0  0  0  0  0
    1.4397   -1.0362    5.0732 H   0  0  0  0  0  0  0  0  0  0  0  0
    2.4850   -3.2442    4.8688 H   0  0  0  0  0  0  0  0  0  0  0  0
    5.5796   -5.4208    3.5247 H   0  0  0  0  0  0  0  0  0  0  0  0
    4.8041   -4.1653    4.6055 H   0  0  0  0  0  0  0  0  0  0  0  0
    2.5857   -5.3249    4.3785 H   0  0  0  0  0  0  0  0  0  0  0  0
    4.5280   -8.2916    4.0615 H   0  0  0  0  0  0  0  0  0  0  0  0
    3.2841   -7.6050    5.0386 H   0  0  0  0  0  0  0  0  0  0  0  0
    3.7003  -10.7895    2.8714 H   0  0  0  0  0  0  0  0  0  0  0  0
    1.2437  -12.0288    2.9547 H   0  0  0  0  0  0  0  0  0  0  0  0
   -0.4147  -10.1776    4.0809 H   0  0  0  0  0  0  0  0  0  0  0  0
    2.2524   -6.9288    2.9471 H   0  0  0  0  0  0  0  0  0  0  0  0
  1  2  1  0
  1 32  1  0
  1 33  1  0
  1 34  1  0
  2  3  1  0
  2 35  1  0
  3  4  2  0
  3  5  1  0
  5 25  1  0
  5  6  1  0
  5 36  1  6
  6  7  1  0
  6 37  1  0
  6 38  1  0
  7 22  1  0
  7  8  1  0
  7 39  1  1
  8  9  1  0
  8 13  1  0
  9 10  1  0
  9 40  1  0
  9 41  1  0
 10 12  1  0
 10 11  1  0
 10 42  1  0
 11 12  1  0
 11 43  1  0
 11 44  1  0
 12 45  1  0
 12 46  1  0
 13 14  2  0
 13 15  1  0
 15 21  2  0
 15 16  1  0
 16 17  2  0
 16 47  1  0
 17 18  1  0
 17 19  1  0
 19 20  2  0
 19 48  1  0
 20 21  1  0
 20 49  1  0
 21 22  1  0
 22 24  1  0
 22 23  1  1
 23 24  1  0
 23 50  1  0
 23 51  1  0
 24 25  1  0
 24 52  1  1
 25 26  1  0
 25 58  1  6
 26 27  1  0
 26 53  1  0
 26 54  1  0
 27 31  1  0
 27 28  2  0
 28 29  1  0
 28 55  1  0
 29 30  2  0
 29 56  1  0
 30 31  1  0
 30 57  1  0
M  CHG  1  25   1
M  END
>  <i_m_ct_stereo_status>  (484) 
1

>  <s_m_source_file>  (484) 
/var/tmp/pbs.5102264.sched01/tmpspb9n5yc/161wrz3epul.sdf

>  <i_m_source_file_index>  (484) 
14

>  <i_lp_mmshare_version>  (484) 
48012

>  <i_f3d_flags>  (484) 
0

>  <s_epik_input>  (484) 
bzFbY0hdW2NIXVtjSF1jMVtDSDJdTihbQ0BASF0yW0NIMl0zKVtDQEhdKEMoPU8pW05IXVtDSDNdKVtDSDJdW0NASF0oW0NAQF0yMzQpTihbQ0gyXVtDSF01W0NIMl1bQ0gyXTUpQyg9TyljNmM0W2NIXVtjSF1jKEYpW2NIXTY=

>  <s_epik_cmdline>  (484) 
J2VwaWtfcHl0aG9uJywgJy1waHQnLCAnMi4wJywgJy1waCcsICc3LjAnLCAnLXRuJywgJzgnLCAnLW1hJywgJzIwMCcsICctaW1hZScsICc8aW5maWxlLm1hZT4nLCAnLW9tYWUnLCAnPG91dGZpbGUubWFlPic=

>  <r_epik_Ionization_Penalty>  (484) 
0.279956

>  <r_epik_Ionization_Penalty_Charging>  (484) 
0.279926

>  <r_epik_Ionization_Penalty_Neutral>  (484) 
2.95968e-05

>  <r_epik_State_Penalty>  (484) 
0.272459

>  <r_epik_Charging_Adjusted_Penalty>  (484) 
0.552385

>  <i_epik_Tot_Q>  (484) 
1

>  <i_epik_Tot_abs_Q>  (484) 
1

>  <s_lp_Force_Field>  (484) 
OPLS3e

>  <r_lp_Energy>  (484) 
60.5968

>  <b_lp_Chiralities_Consistent>  (484) 
1

>  <s_lp_Variant>  (484) 
104:0-2

>  <s_i_glide_gridfile>  (484) 
pfpi4k_grid

>  <i_i_glide_lignum>  (484) 
14

>  <i_i_glide_rotatable_bonds>  (484) 
6

>  <r_i_docking_score>  (484) 
-2.52122

>  <r_i_glide_ligand_efficiency>  (484) 
-0.0813295

>  <r_i_glide_ligand_efficiency_sa>  (484) 
-0.255487

>  <r_i_glide_ligand_efficiency_ln>  (484) 
-0.568611

>  <r_i_glide_gscore>  (484) 
-2.52122

>  <r_i_glide_lipo>  (484) 
-0.562663

>  <r_i_glide_hbond>  (484) 
0

>  <r_i_glide_metal>  (484) 
-0

>  <r_i_glide_rewards>  (484) 
-0.645784

>  <r_i_glide_evdw>  (484) 
-30.6098

>  <r_i_glide_ecoul>  (484) 
-1.74561

>  <r_i_glide_erotb>  (484) 
0.550219

>  <r_i_glide_esite>  (484) 
-0.0706577

>  <r_i_glide_emodel>  (484) 
-34.9382

>  <r_i_glide_energy>  (484) 
-32.3554

>  <r_i_glide_einternal>  (484) 
4.64372

>  <r_i_glide_intrahb_reward>  (484) 
-0

>  <i_i_glide_confnum>  (484) 
4

>  <i_i_glide_posenum>  (484) 
22

>  <r_i_glide_eff_state_penalty>  (484) 
0

>  <ligand_id>  (484) 
104

>  <original_smiles>  (484) 
CNC(=O)C1CC2N(CC3CC3)C(=O)c3cc(F)ccc3C23CC3N1Cc1ccco1

>  <smiles>  (484) 
[H]c1oc(C([H])([H])[N+]2([H])C([H])(C(=O)N([H])C([H])([H])[H])C([H])([H])C3([H])N(C([H])([H])C4([H])C([H])([H])C4([H])[H])C(=O)c4c([H])c(F)c([H])c([H])c4C34C([H])([H])C42[H])c([H])c1[H]

$$$$
104:1:1
     RDKit          3D

 58 63  0  0  1  0  0  0  0  0999 V2000
    3.7839   -1.0706    7.1707 C   0  0  0  0  0  0  0  0  0  0  0  0
    3.0606   -1.3682    5.9415 N   0  0  0  0  0  0  0  0  0  0  0  0
    3.4638   -0.9144    4.7420 C   0  0  0  0  0  0  0  0  0  0  0  0
    4.4758   -0.2299    4.6096 O   0  0  0  0  0  0  0  0  0  0  0  0
    2.5958   -1.2823    3.5156 C   0  0  2  0  0  0  0  0  0  0  0  0
    2.9851   -2.6663    2.9428 C   0  0  0  0  0  0  0  0  0  0  0  0
    4.3526   -2.6151    2.2171 C   0  0  1  0  0  0  0  0  0  0  0  0
    4.8484   -3.9674    1.9225 N   0  0  0  0  0  0  0  0  0  0  0  0
    5.1709   -4.8084    3.0907 C   0  0  0  0  0  0  0  0  0  0  0  0
    4.3488   -6.0800    3.2153 C   0  0  0  0  0  0  0  0  0  0  0  0
    4.7818   -7.1955    4.1404 C   0  0  0  0  0  0  0  0  0  0  0  0
    4.8577   -7.3902    2.6480 C   0  0  0  0  0  0  0  0  0  0  0  0
    5.1489   -4.4140    0.6861 C   0  0  0  0  0  0  0  0  0  0  0  0
    5.6663   -5.5128    0.4826 O   0  0  0  0  0  0  0  0  0  0  0  0
    4.8491   -3.5292   -0.4786 C   0  0  0  0  0  0  0  0  0  0  0  0
    5.0111   -4.0591   -1.7753 C   0  0  0  0  0  0  0  0  0  0  0  0
    4.7862   -3.2948   -2.9191 C   0  0  0  0  0  0  0  0  0  0  0  0
    4.9412   -3.8513   -4.1453 F   0  0  0  0  0  0  0  0  0  0  0  0
    4.3985   -1.9571   -2.7721 C   0  0  0  0  0  0  0  0  0  0  0  0
    4.2389   -1.4107   -1.4818 C   0  0  0  0  0  0  0  0  0  0  0  0
    4.4543   -2.1829   -0.3129 C   0  0  0  0  0  0  0  0  0  0  0  0
    4.2474   -1.5955    1.0750 C   0  0  2  0  0  0  0  0  0  0  0  0
    4.8623   -0.2378    1.3654 C   0  0  0  0  0  0  0  0  0  0  0  0
    3.3670   -0.3427    1.2372 C   0  0  2  0  0  0  0  0  0  0  0  0
    2.5108   -0.2297    2.4531 N   0  0  2  0  0  0  0  0  0  0  0  0
    2.2197    1.1681    2.8938 C   0  0  0  0  0  0  0  0  0  0  0  0
    0.8083    1.3111    3.3752 C   0  0  0  0  0  0  0  0  0  0  0  0
   -0.3528    1.7273    2.7831 C   0  0  0  0  0  0  0  0  0  0  0  0
   -1.3684    1.6356    3.7787 C   0  0  0  0  0  0  0  0  0  0  0  0
   -0.7522    1.1788    4.9042 C   0  0  0  0  0  0  0  0  0  0  0  0
    0.5753    0.9664    4.6769 O   0  0  0  0  0  0  0  0  0  0  0  0
    3.3157   -1.5697    8.0186 H   0  0  0  0  0  0  0  0  0  0  0  0
    3.7937    0.0020    7.3697 H   0  0  0  0  0  0  0  0  0  0  0  0
    4.8177   -1.4110    7.1036 H   0  0  0  0  0  0  0  0  0  0  0  0
    2.2312   -1.9394    6.0149 H   0  0  0  0  0  0  0  0  0  0  0  0
    1.5726   -1.3894    3.8805 H   0  0  0  0  0  0  0  0  0  0  0  0
    3.0044   -3.3767    3.7719 H   0  0  0  0  0  0  0  0  0  0  0  0
    2.2057   -3.0332    2.2634 H   0  0  0  0  0  0  0  0  0  0  0  0
    5.0820   -2.2249    2.9279 H   0  0  0  0  0  0  0  0  0  0  0  0
    6.2271   -5.0802    3.0432 H   0  0  0  0  0  0  0  0  0  0  0  0
    5.0717   -4.2454    4.0199 H   0  0  0  0  0  0  0  0  0  0  0  0
    3.2725   -5.9140    3.1488 H   0  0  0  0  0  0  0  0  0  0  0  0
    5.7200   -7.0646    4.6787 H   0  0  0  0  0  0  0  0  0  0  0  0
    4.0091   -7.7509    4.6693 H   0  0  0  0  0  0  0  0  0  0  0  0
    4.1256   -8.0386    2.1705 H   0  0  0  0  0  0  0  0  0  0  0  0
    5.8500   -7.4002    2.1959 H   0  0  0  0  0  0  0  0  0  0  0  0
    5.2991   -5.0851   -1.9074 H   0  0  0  0  0  0  0  0  0  0  0  0
    4.2312   -1.3463   -3.6447 H   0  0  0  0  0  0  0  0  0  0  0  0
    3.9529   -0.3733   -1.4169 H   0  0  0  0  0  0  0  0  0  0  0  0
    5.3212   -0.0665    2.3383 H   0  0  0  0  0  0  0  0  0  0  0  0
    5.4141    0.1878    0.5344 H   0  0  0  0  0  0  0  0  0  0  0  0
    2.8785    0.1260    0.3924 H   0  0  0  0  0  0  0  0  0  0  0  0
    2.9076    1.5170    3.6634 H   0  0  0  0  0  0  0  0  0  0  0  0
    2.3695    1.8528    2.0546 H   0  0  0  0  0  0  0  0  0  0  0  0
   -0.4506    2.0771    1.7603 H   0  0  0  0  0  0  0  0  0  0  0  0
   -2.4184    1.8739    3.6830 H   0  0  0  0  0  0  0  0  0  0  0  0
   -1.0956    0.9516    5.8987 H   0  0  0  0  0  0  0  0  0  0  0  0
    1.6333   -0.4765    2.0049 H   0  0  0  0  0  0  0  0  0  0  0  0
  1  2  1  0
  1 32  1  0
  1 33  1  0
  1 34  1  0
  2  3  1  0
  2 35  1  0
  3  4  2  0
  3  5  1  0
  5 25  1  0
  5  6  1  0
  5 36  1  1
  6  7  1  0
  6 37  1  0
  6 38  1  0
  7 22  1  0
  7  8  1  0
  7 39  1  1
  8  9  1  0
  8 13  1  0
  9 10  1  0
  9 40  1  0
  9 41  1  0
 10 12  1  0
 10 11  1  0
 10 42  1  0
 11 12  1  0
 11 43  1  0
 11 44  1  0
 12 45  1  0
 12 46  1  0
 13 14  2  0
 13 15  1  0
 15 21  2  0
 15 16  1  0
 16 17  2  0
 16 47  1  0
 17 18  1  0
 17 19  1  0
 19 20  2  0
 19 48  1  0
 20 21  1  0
 20 49  1  0
 21 22  1  0
 22 24  1  0
 22 23  1  1
 23 24  1  0
 23 50  1  0
 23 51  1  0
 24 25  1  0
 24 52  1  6
 25 26  1  0
 25 58  1  6
 26 27  1  0
 26 53  1  0
 26 54  1  0
 27 31  1  0
 27 28  2  0
 28 29  1  0
 28 55  1  0
 29 30  2  0
 29 56  1  0
 30 31  1  0
 30 57  1  0
M  CHG  1  25   1
M  END
>  <i_m_ct_stereo_status>  (485) 
1

>  <s_m_source_file>  (485) 
/var/tmp/pbs.5102264.sched01/tmpspb9n5yc/161wrz3epul.sdf

>  <i_m_source_file_index>  (485) 
14

>  <i_lp_mmshare_version>  (485) 
48012

>  <i_f3d_flags>  (485) 
0

>  <s_epik_input>  (485) 
bzFbY0hdW2NIXVtjSF1jMVtDSDJdTihbQ0BASF0yW0NIMl0zKVtDQEhdKEMoPU8pW05IXVtDSDNdKVtDSDJdW0NASF0oW0NAQF0yMzQpTihbQ0gyXVtDSF01W0NIMl1bQ0gyXTUpQyg9TyljNmM0W2NIXVtjSF1jKEYpW2NIXTY=

>  <s_epik_cmdline>  (485) 
J2VwaWtfcHl0aG9uJywgJy1waHQnLCAnMi4wJywgJy1waCcsICc3LjAnLCAnLXRuJywgJzgnLCAnLW1hJywgJzIwMCcsICctaW1hZScsICc8aW5maWxlLm1hZT4nLCAnLW9tYWUnLCAnPG91dGZpbGUubWFlPic=

>  <r_epik_Ionization_Penalty>  (485) 
0.279956

>  <r_epik_Ionization_Penalty_Charging>  (485) 
0.279926

>  <r_epik_Ionization_Penalty_Neutral>  (485) 
2.95968e-05

>  <r_epik_State_Penalty>  (485) 
0.272459

>  <r_epik_Charging_Adjusted_Penalty>  (485) 
0.552385

>  <i_epik_Tot_Q>  (485) 
1

>  <i_epik_Tot_abs_Q>  (485) 
1

>  <s_lp_Force_Field>  (485) 
OPLS3e

>  <r_lp_Energy>  (485) 
60.5968

>  <b_lp_Chiralities_Consistent>  (485) 
1

>  <s_lp_Variant>  (485) 
104:0-2

>  <s_i_glide_gridfile>  (485) 
pfpi4k_grid

>  <i_i_glide_lignum>  (485) 
14

>  <i_i_glide_rotatable_bonds>  (485) 
6

>  <r_i_docking_score>  (485) 
-2.4934

>  <r_i_glide_ligand_efficiency>  (485) 
-0.0804323

>  <r_i_glide_ligand_efficiency_sa>  (485) 
-0.252669

>  <r_i_glide_ligand_efficiency_ln>  (485) 
-0.562339

>  <r_i_glide_gscore>  (485) 
-2.4934

>  <r_i_glide_lipo>  (485) 
-0.405126

>  <r_i_glide_hbond>  (485) 
0

>  <r_i_glide_metal>  (485) 
-0

>  <r_i_glide_rewards>  (485) 
-0.620389

>  <r_i_glide_evdw>  (485) 
-26.2316

>  <r_i_glide_ecoul>  (485) 
-4.55691

>  <r_i_glide_erotb>  (485) 
0.550219

>  <r_i_glide_esite>  (485) 
-0.0229861

>  <r_i_glide_emodel>  (485) 
-35.1137

>  <r_i_glide_energy>  (485) 
-30.7886

>  <r_i_glide_einternal>  (485) 
1.30603

>  <r_i_glide_intrahb_reward>  (485) 
-0

>  <i_i_glide_confnum>  (485) 
4

>  <i_i_glide_posenum>  (485) 
2

>  <r_i_glide_eff_state_penalty>  (485) 
0

>  <ligand_id>  (485) 
104

>  <original_smiles>  (485) 
CNC(=O)C1CC2N(CC3CC3)C(=O)c3cc(F)ccc3C23CC3N1Cc1ccco1

>  <smiles>  (485) 
[H]c1oc(C([H])([H])[N+]2([H])C([H])(C(=O)N([H])C([H])([H])[H])C([H])([H])C3([H])N(C([H])([H])C4([H])C([H])([H])C4([H])[H])C(=O)c4c([H])c(F)c([H])c([H])c4C34C([H])([H])C42[H])c([H])c1[H]

$$$$
104:1:2
     RDKit          3D

 58 63  0  0  1  0  0  0  0  0999 V2000
    6.4563   -9.7213    1.0498 C   0  0  0  0  0  0  0  0  0  0  0  0
    5.1836   -9.0168    1.0836 N   0  0  0  0  0  0  0  0  0  0  0  0
    5.0780   -7.7775    1.5967 C   0  0  0  0  0  0  0  0  0  0  0  0
    6.0558   -7.1695    2.0231 O   0  0  0  0  0  0  0  0  0  0  0  0
    3.6657   -7.1570    1.7073 C   0  0  2  0  0  0  0  0  0  0  0  0
    3.4591   -5.9345    0.7837 C   0  0  0  0  0  0  0  0  0  0  0  0
    4.1997   -4.6687    1.2992 C   0  0  1  0  0  0  0  0  0  0  0  0
    4.2072   -3.6130    0.2790 N   0  0  0  0  0  0  0  0  0  0  0  0
    4.9969   -3.9038   -0.9363 C   0  0  0  0  0  0  0  0  0  0  0  0
    4.3234   -3.5532   -2.2508 C   0  0  0  0  0  0  0  0  0  0  0  0
    5.0541   -3.5966   -3.5684 C   0  0  0  0  0  0  0  0  0  0  0  0
    4.6534   -2.2696   -2.9822 C   0  0  0  0  0  0  0  0  0  0  0  0
    3.7677   -2.3470    0.5020 C   0  0  0  0  0  0  0  0  0  0  0  0
    3.9663   -1.4194   -0.2757 O   0  0  0  0  0  0  0  0  0  0  0  0
    3.0280   -2.0776    1.7634 C   0  0  0  0  0  0  0  0  0  0  0  0
    2.3822   -0.8176    1.8888 C   0  0  0  0  0  0  0  0  0  0  0  0
    1.7197   -0.4662    3.0644 C   0  0  0  0  0  0  0  0  0  0  0  0
    1.1156    0.7425    3.1738 F   0  0  0  0  0  0  0  0  0  0  0  0
    1.6879   -1.3741    4.1343 C   0  0  0  0  0  0  0  0  0  0  0  0
    2.3278   -2.6312    4.0189 C   0  0  0  0  0  0  0  0  0  0  0  0
    3.0059   -3.0024    2.8295 C   0  0  0  0  0  0  0  0  0  0  0  0
    3.6740   -4.3613    2.7089 C   0  0  2  0  0  0  0  0  0  0  0  0
    4.5512   -4.8536    3.8569 C   0  0  0  0  0  0  0  0  0  0  0  0
    3.2206   -5.5067    3.6378 C   0  0  2  0  0  0  0  0  0  0  0  0
    3.2114   -6.8995    3.1000 N   0  0  2  0  0  0  0  0  0  0  0  0
    3.4197   -7.9788    4.0961 C   0  0  0  0  0  0  0  0  0  0  0  0
    2.4684   -9.1111    3.8821 C   0  0  0  0  0  0  0  0  0  0  0  0
    1.1315   -9.2734    4.1223 C   0  0  0  0  0  0  0  0  0  0  0  0
    0.8134  -10.6073    3.7188 C   0  0  0  0  0  0  0  0  0  0  0  0
    1.9791  -11.1576    3.2837 C   0  0  0  0  0  0  0  0  0  0  0  0
    2.9981  -10.2556    3.3619 O   0  0  0  0  0  0  0  0  0  0  0  0
    6.3202  -10.7046    0.5990 H   0  0  0  0  0  0  0  0  0  0  0  0
    6.8512   -9.8603    2.0582 H   0  0  0  0  0  0  0  0  0  0  0  0
    7.2067   -9.1680    0.4800 H   0  0  0  0  0  0  0  0  0  0  0  0
    4.3677   -9.5453    0.7957 H   0  0  0  0  0  0  0  0  0  0  0  0
    2.9730   -7.9091    1.3313 H   0  0  0  0  0  0  0  0  0  0  0  0
    3.7864   -6.2296   -0.2103 H   0  0  0  0  0  0  0  0  0  0  0  0
    2.3887   -5.7206    0.6692 H   0  0  0  0  0  0  0  0  0  0  0  0
    5.2591   -4.8919    1.4001 H   0  0  0  0  0  0  0  0  0  0  0  0
    5.9408   -3.3610   -0.8712 H   0  0  0  0  0  0  0  0  0  0  0  0
    5.2950   -4.9524   -0.9830 H   0  0  0  0  0  0  0  0  0  0  0  0
    3.2761   -3.8497   -2.2856 H   0  0  0  0  0  0  0  0  0  0  0  0
    6.1103   -3.8552   -3.5409 H   0  0  0  0  0  0  0  0  0  0  0  0
    4.5008   -3.9454   -4.4384 H   0  0  0  0  0  0  0  0  0  0  0  0
    3.8128   -1.7299   -3.4139 H   0  0  0  0  0  0  0  0  0  0  0  0
    5.4199   -1.6418   -2.5288 H   0  0  0  0  0  0  0  0  0  0  0  0
    2.4025   -0.1123    1.0740 H   0  0  0  0  0  0  0  0  0  0  0  0
    1.1909   -1.0994    5.0466 H   0  0  0  0  0  0  0  0  0  0  0  0
    2.2947   -3.2822    4.8783 H   0  0  0  0  0  0  0  0  0  0  0  0
    5.4725   -5.3858    3.6205 H   0  0  0  0  0  0  0  0  0  0  0  0
    4.6385   -4.1449    4.6745 H   0  0  0  0  0  0  0  0  0  0  0  0
    2.4578   -5.3607    4.3998 H   0  0  0  0  0  0  0  0  0  0  0  0
    4.4464   -8.3465    4.1091 H   0  0  0  0  0  0  0  0  0  0  0  0
    3.2630   -7.5939    5.1028 H   0  0  0  0  0  0  0  0  0  0  0  0
    0.4581   -8.5459    4.5534 H   0  0  0  0  0  0  0  0  0  0  0  0
   -0.1468  -11.1007    3.7575 H   0  0  0  0  0  0  0  0  0  0  0  0
    2.2412  -12.1304    2.8944 H   0  0  0  0  0  0  0  0  0  0  0  0
    2.2048   -6.9726    2.9656 H   0  0  0  0  0  0  0  0  0  0  0  0
  1  2  1  0
  1 32  1  0
  1 33  1  0
  1 34  1  0
  2  3  1  0
  2 35  1  0
  3  4  2  0
  3  5  1  0
  5 25  1  0
  5  6  1  0
  5 36  1  6
  6  7  1  0
  6 37  1  0
  6 38  1  0
  7 22  1  0
  7  8  1  0
  7 39  1  1
  8  9  1  0
  8 13  1  0
  9 10  1  0
  9 40  1  0
  9 41  1  0
 10 12  1  0
 10 11  1  0
 10 42  1  0
 11 12  1  0
 11 43  1  0
 11 44  1  0
 12 45  1  0
 12 46  1  0
 13 14  2  0
 13 15  1  0
 15 21  2  0
 15 16  1  0
 16 17  2  0
 16 47  1  0
 17 18  1  0
 17 19  1  0
 19 20  2  0
 19 48  1  0
 20 21  1  0
 20 49  1  0
 21 22  1  0
 22 24  1  0
 22 23  1  1
 23 24  1  0
 23 50  1  0
 23 51  1  0
 24 25  1  0
 24 52  1  1
 25 26  1  0
 25 58  1  6
 26 27  1  0
 26 53  1  0
 26 54  1  0
 27 31  1  0
 27 28  2  0
 28 29  1  0
 28 55  1  0
 29 30  2  0
 29 56  1  0
 30 31  1  0
 30 57  1  0
M  CHG  1  25   1
M  END
>  <i_m_ct_stereo_status>  (486) 
1

>  <s_m_source_file>  (486) 
/var/tmp/pbs.5102264.sched01/tmpspb9n5yc/161wrz3epul.sdf

>  <i_m_source_file_index>  (486) 
14

>  <i_lp_mmshare_version>  (486) 
48012

>  <i_f3d_flags>  (486) 
0

>  <s_epik_input>  (486) 
bzFbY0hdW2NIXVtjSF1jMVtDSDJdTihbQ0BASF0yW0NIMl0zKVtDQEhdKEMoPU8pW05IXVtDSDNdKVtDSDJdW0NASF0oW0NAQF0yMzQpTihbQ0gyXVtDSF01W0NIMl1bQ0gyXTUpQyg9TyljNmM0W2NIXVtjSF1jKEYpW2NIXTY=

>  <s_epik_cmdline>  (486) 
J2VwaWtfcHl0aG9uJywgJy1waHQnLCAnMi4wJywgJy1waCcsICc3LjAnLCAnLXRuJywgJzgnLCAnLW1hJywgJzIwMCcsICctaW1hZScsICc8aW5maWxlLm1hZT4nLCAnLW9tYWUnLCAnPG91dGZpbGUubWFlPic=

>  <r_epik_Ionization_Penalty>  (486) 
0.279956

>  <r_epik_Ionization_Penalty_Charging>  (486) 
0.279926

>  <r_epik_Ionization_Penalty_Neutral>  (486) 
2.95968e-05

>  <r_epik_State_Penalty>  (486) 
0.272459

>  <r_epik_Charging_Adjusted_Penalty>  (486) 
0.552385

>  <i_epik_Tot_Q>  (486) 
1

>  <i_epik_Tot_abs_Q>  (486) 
1

>  <s_lp_Force_Field>  (486) 
OPLS3e

>  <r_lp_Energy>  (486) 
60.5968

>  <b_lp_Chiralities_Consistent>  (486) 
1

>  <s_lp_Variant>  (486) 
104:0-2

>  <s_i_glide_gridfile>  (486) 
pfpi4k_grid

>  <i_i_glide_lignum>  (486) 
14

>  <i_i_glide_rotatable_bonds>  (486) 
6

>  <r_i_docking_score>  (486) 
-2.3887

>  <r_i_glide_ligand_efficiency>  (486) 
-0.0770548

>  <r_i_glide_ligand_efficiency_sa>  (486) 
-0.242058

>  <r_i_glide_ligand_efficiency_ln>  (486) 
-0.538725

>  <r_i_glide_gscore>  (486) 
-2.3887

>  <r_i_glide_lipo>  (486) 
-0.530072

>  <r_i_glide_hbond>  (486) 
0

>  <r_i_glide_metal>  (486) 
-0

>  <r_i_glide_rewards>  (486) 
-0.634183

>  <r_i_glide_evdw>  (486) 
-30.6446

>  <r_i_glide_ecoul>  (486) 
-1.14171

>  <r_i_glide_erotb>  (486) 
0.550219

>  <r_i_glide_esite>  (486) 
-0.0711753

>  <r_i_glide_emodel>  (486) 
-34.026

>  <r_i_glide_energy>  (486) 
-31.7863

>  <r_i_glide_einternal>  (486) 
4.75339

>  <r_i_glide_intrahb_reward>  (486) 
-0

>  <i_i_glide_confnum>  (486) 
4

>  <i_i_glide_posenum>  (486) 
1

>  <r_i_glide_eff_state_penalty>  (486) 
0

>  <ligand_id>  (486) 
104

>  <original_smiles>  (486) 
CNC(=O)C1CC2N(CC3CC3)C(=O)c3cc(F)ccc3C23CC3N1Cc1ccco1

>  <smiles>  (486) 
[H]c1oc(C([H])([H])[N+]2([H])C([H])(C(=O)N([H])C([H])([H])[H])C([H])([H])C3([H])N(C([H])([H])C4([H])C([H])([H])C4([H])[H])C(=O)c4c([H])c(F)c([H])c([H])c4C34C([H])([H])C42[H])c([H])c1[H]

$$$$
104:2:0
     RDKit          3D

 57 62  0  0  1  0  0  0  0  0999 V2000
   -1.5368   -9.3493    2.2014 C   0  0  0  0  0  0  0  0  0  0  0  0
   -0.4499   -8.7446    2.9579 N   0  0  0  0  0  0  0  0  0  0  0  0
   -0.0735   -7.4623    2.8689 C   0  0  0  0  0  0  0  0  0  0  0  0
   -0.5911   -6.6744    2.0785 O   0  0  0  0  0  0  0  0  0  0  0  0
    1.0278   -6.9838    3.8554 C   0  0  2  0  0  0  0  0  0  0  0  0
    0.5648   -5.6793    4.6334 C   0  0  0  0  0  0  0  0  0  0  0  0
    1.1919   -4.3116    4.1863 C   0  0  1  0  0  0  0  0  0  0  0  0
    1.0125   -3.3035    5.2476 N   0  0  0  0  0  0  0  0  0  0  0  0
   -0.2183   -2.5035    5.1698 C   0  0  0  0  0  0  0  0  0  0  0  0
   -0.0360   -1.0899    4.6478 C   0  0  0  0  0  0  0  0  0  0  0  0
    0.0617    0.0882    5.5917 C   0  0  0  0  0  0  0  0  0  0  0  0
   -1.1783   -0.1064    4.7510 C   0  0  0  0  0  0  0  0  0  0  0  0
    1.8802   -3.1513    6.2632 C   0  0  0  0  0  0  0  0  0  0  0  0
    1.7222   -2.3213    7.1695 O   0  0  0  0  0  0  0  0  0  0  0  0
    3.0591   -4.0838    6.3183 C   0  0  0  0  0  0  0  0  0  0  0  0
    3.7775   -4.2392    7.5345 C   0  0  0  0  0  0  0  0  0  0  0  0
    4.8826   -5.1048    7.6087 C   0  0  0  0  0  0  0  0  0  0  0  0
    5.5810   -5.2435    8.7647 F   0  0  0  0  0  0  0  0  0  0  0  0
    5.2635   -5.8205    6.4661 C   0  0  0  0  0  0  0  0  0  0  0  0
    4.5538   -5.6782    5.2723 C   0  0  0  0  0  0  0  0  0  0  0  0
    3.4429   -4.8115    5.1502 C   0  0  0  0  0  0  0  0  0  0  0  0
    2.6304   -4.6218    3.8528 C   0  0  2  0  0  0  0  0  0  0  0  0
    3.4626   -4.4538    2.6208 C   0  0  0  0  0  0  0  0  0  0  0  0
    2.4990   -5.6125    2.6729 C   0  0  1  0  0  0  0  0  0  0  0  0
    2.4498   -6.9173    3.3161 N   0  0  0  0  0  0  0  0  0  0  0  0
    2.8718   -8.0379    2.4570 C   0  0  0  0  0  0  0  0  0  0  0  0
    4.3478   -8.0555    2.0941 C   0  0  0  0  0  0  0  0  0  0  0  0
    5.2331   -8.9852    1.6038 C   0  0  0  0  0  0  0  0  0  0  0  0
    6.5140   -8.3338    1.5803 C   0  0  0  0  0  0  0  0  0  0  0  0
    6.2926   -7.0802    2.0496 C   0  0  0  0  0  0  0  0  0  0  0  0
    4.9889   -6.8829    2.2873 O   0  0  0  0  0  0  0  0  0  0  0  0
   -1.3266  -10.4005    2.0219 H   0  0  0  0  0  0  0  0  0  0  0  0
   -1.6556   -8.8698    1.2366 H   0  0  0  0  0  0  0  0  0  0  0  0
   -2.4782   -9.2616    2.7445 H   0  0  0  0  0  0  0  0  0  0  0  0
    0.0100   -9.3486    3.6288 H   0  0  0  0  0  0  0  0  0  0  0  0
    1.0186   -7.7467    4.6385 H   0  0  0  0  0  0  0  0  0  0  0  0
   -0.5205   -5.5750    4.5932 H   0  0  0  0  0  0  0  0  0  0  0  0
    0.7712   -5.8311    5.6957 H   0  0  0  0  0  0  0  0  0  0  0  0
    0.6814   -3.9501    3.2886 H   0  0  0  0  0  0  0  0  0  0  0  0
   -0.9589   -2.9965    4.5424 H   0  0  0  0  0  0  0  0  0  0  0  0
   -0.6692   -2.4508    6.1630 H   0  0  0  0  0  0  0  0  0  0  0  0
    0.5408   -1.0284    3.7262 H   0  0  0  0  0  0  0  0  0  0  0  0
    0.0055   -0.1219    6.6578 H   0  0  0  0  0  0  0  0  0  0  0  0
    0.7370    0.8957    5.3120 H   0  0  0  0  0  0  0  0  0  0  0  0
   -1.3275    0.5909    3.9282 H   0  0  0  0  0  0  0  0  0  0  0  0
   -2.0868   -0.4373    5.2486 H   0  0  0  0  0  0  0  0  0  0  0  0
    3.4769   -3.6991    8.4153 H   0  0  0  0  0  0  0  0  0  0  0  0
    6.1157   -6.4843    6.4817 H   0  0  0  0  0  0  0  0  0  0  0  0
    4.8994   -6.2751    4.4509 H   0  0  0  0  0  0  0  0  0  0  0  0
    3.1868   -3.6517    1.9331 H   0  0  0  0  0  0  0  0  0  0  0  0
    4.5327   -4.5760    2.7691 H   0  0  0  0  0  0  0  0  0  0  0  0
    1.7513   -5.4549    1.8925 H   0  0  0  0  0  0  0  0  0  0  0  0
    2.6393   -8.9557    3.0076 H   0  0  0  0  0  0  0  0  0  0  0  0
    2.2736   -8.0497    1.5454 H   0  0  0  0  0  0  0  0  0  0  0  0
    4.9762  -10.0077    1.3117 H   0  0  0  0  0  0  0  0  0  0  0  0
    7.4919   -8.6883    1.2604 H   0  0  0  0  0  0  0  0  0  0  0  0
    6.8925   -6.1992    2.2557 H   0  0  0  0  0  0  0  0  0  0  0  0
  1  2  1  0
  1 32  1  0
  1 33  1  0
  1 34  1  0
  2  3  1  0
  2 35  1  0
  3  4  2  0
  3  5  1  0
  5 25  1  0
  5  6  1  0
  5 36  1  1
  6  7  1  0
  6 37  1  0
  6 38  1  0
  7 22  1  0
  7  8  1  0
  7 39  1  6
  8  9  1  0
  8 13  1  0
  9 10  1  0
  9 40  1  0
  9 41  1  0
 10 12  1  0
 10 11  1  0
 10 42  1  0
 11 12  1  0
 11 43  1  0
 11 44  1  0
 12 45  1  0
 12 46  1  0
 13 14  2  0
 13 15  1  0
 15 21  2  0
 15 16  1  0
 16 17  2  0
 16 47  1  0
 17 18  1  0
 17 19  1  0
 19 20  2  0
 19 48  1  0
 20 21  1  0
 20 49  1  0
 21 22  1  0
 22 24  1  0
 22 23  1  6
 23 24  1  0
 23 50  1  0
 23 51  1  0
 24 25  1  0
 24 52  1  6
 25 26  1  0
 26 27  1  0
 26 53  1  0
 26 54  1  0
 27 31  1  0
 27 28  2  0
 28 29  1  0
 28 55  1  0
 29 30  2  0
 29 56  1  0
 30 31  1  0
 30 57  1  0
M  END
>  <i_m_ct_stereo_status>  (487) 
1

>  <s_m_source_file>  (487) 
/var/tmp/pbs.5102264.sched01/tmpspb9n5yc/161wrz3epul.sdf

>  <i_m_source_file_index>  (487) 
15

>  <i_lp_mmshare_version>  (487) 
48012

>  <i_f3d_flags>  (487) 
0

>  <s_epik_input>  (487) 
bzFbY0hdW2NIXVtjSF1jMVtDSDJdTihbQ0BASF0yW0NIMl0zKVtDQEhdKEMoPU8pW05IXVtDSDNdKVtDSDJdW0NASF0oW0NAQF0yMzQpTihbQ0gyXVtDSF01W0NIMl1bQ0gyXTUpQyg9TyljNmM0W2NIXVtjSF1jKEYpW2NIXTY=

>  <s_epik_cmdline>  (487) 
J2VwaWtfcHl0aG9uJywgJy1waHQnLCAnMi4wJywgJy1waCcsICc3LjAnLCAnLXRuJywgJzgnLCAnLW1hJywgJzIwMCcsICctaW1hZScsICc8aW5maWxlLm1hZT4nLCAnLW9tYWUnLCAnPG91dGZpbGUubWFlPic=

>  <r_epik_Ionization_Penalty>  (487) 
0.578709

>  <r_epik_Ionization_Penalty_Charging>  (487) 
0

>  <r_epik_Ionization_Penalty_Neutral>  (487) 
0.578709

>  <r_epik_State_Penalty>  (487) 
0.591284

>  <r_epik_Charging_Adjusted_Penalty>  (487) 
0.591284

>  <i_epik_Tot_Q>  (487) 
0

>  <i_epik_Tot_abs_Q>  (487) 
0

>  <s_lp_Force_Field>  (487) 
OPLS3e

>  <r_lp_Energy>  (487) 
71.5961

>  <b_lp_Chiralities_Consistent>  (487) 
1

>  <s_lp_Variant>  (487) 
104:0-3

>  <s_i_glide_gridfile>  (487) 
pfpi4k_grid

>  <i_i_glide_lignum>  (487) 
15

>  <i_i_glide_rotatable_bonds>  (487) 
6

>  <r_i_docking_score>  (487) 
-2.65506

>  <r_i_glide_ligand_efficiency>  (487) 
-0.0856472

>  <r_i_glide_ligand_efficiency_sa>  (487) 
-0.26905

>  <r_i_glide_ligand_efficiency_ln>  (487) 
-0.598798

>  <r_i_glide_gscore>  (487) 
-2.65506

>  <r_i_glide_lipo>  (487) 
-0.443987

>  <r_i_glide_hbond>  (487) 
-0.16

>  <r_i_glide_metal>  (487) 
-0

>  <r_i_glide_rewards>  (487) 
-0.523283

>  <r_i_glide_evdw>  (487) 
-22.2053

>  <r_i_glide_ecoul>  (487) 
-5.85206

>  <r_i_glide_erotb>  (487) 
0.55259

>  <r_i_glide_esite>  (487) 
-0.0923103

>  <r_i_glide_emodel>  (487) 
-31.3968

>  <r_i_glide_energy>  (487) 
-28.0573

>  <r_i_glide_einternal>  (487) 
1.30263

>  <r_i_glide_intrahb_reward>  (487) 
-0

>  <i_i_glide_confnum>  (487) 
3

>  <i_i_glide_posenum>  (487) 
16

>  <r_i_glide_eff_state_penalty>  (487) 
0

>  <ligand_id>  (487) 
104

>  <original_smiles>  (487) 
CNC(=O)C1CC2N(CC3CC3)C(=O)c3cc(F)ccc3C23CC3N1Cc1ccco1

>  <smiles>  (487) 
[H]c1oc(C([H])([H])N2C([H])(C(=O)N([H])C([H])([H])[H])C([H])([H])C3([H])N(C([H])([H])C4([H])C([H])([H])C4([H])[H])C(=O)c4c([H])c(F)c([H])c([H])c4C34C([H])([H])C24[H])c([H])c1[H]

$$$$
104:2:1
     RDKit          3D

 57 62  0  0  1  0  0  0  0  0999 V2000
    6.1434   -3.5683    6.4867 C   0  0  0  0  0  0  0  0  0  0  0  0
    5.0866   -2.7222    5.9535 N   0  0  0  0  0  0  0  0  0  0  0  0
    5.1133   -1.3895    5.8380 C   0  0  0  0  0  0  0  0  0  0  0  0
    6.0556   -0.7036    6.2298 O   0  0  0  0  0  0  0  0  0  0  0  0
    3.8869   -0.7264    5.1701 C   0  0  2  0  0  0  0  0  0  0  0  0
    2.5593   -1.0773    5.9521 C   0  0  0  0  0  0  0  0  0  0  0  0
    1.6104   -2.1548    5.3170 C   0  0  1  0  0  0  0  0  0  0  0  0
    0.2502   -2.0549    5.8966 N   0  0  0  0  0  0  0  0  0  0  0  0
   -0.0011   -2.8786    7.0802 C   0  0  0  0  0  0  0  0  0  0  0  0
   -1.1714   -3.8470    6.9647 C   0  0  0  0  0  0  0  0  0  0  0  0
   -1.4354   -4.8344    8.0677 C   0  0  0  0  0  0  0  0  0  0  0  0
   -0.9406   -5.3106    6.7221 C   0  0  0  0  0  0  0  0  0  0  0  0
   -0.7007   -1.1847    5.4494 C   0  0  0  0  0  0  0  0  0  0  0  0
   -1.8183   -1.0484    5.9548 O   0  0  0  0  0  0  0  0  0  0  0  0
   -0.3313   -0.3117    4.2925 C   0  0  0  0  0  0  0  0  0  0  0  0
   -1.1125    0.8358    4.0017 C   0  0  0  0  0  0  0  0  0  0  0  0
   -0.7986    1.6743    2.9134 C   0  0  0  0  0  0  0  0  0  0  0  0
   -1.5627    2.7623    2.6263 F   0  0  0  0  0  0  0  0  0  0  0  0
    0.3370    1.3349    2.1337 C   0  0  0  0  0  0  0  0  0  0  0  0
    1.1393    0.2157    2.4559 C   0  0  0  0  0  0  0  0  0  0  0  0
    0.8026   -0.6529    3.5052 C   0  0  0  0  0  0  0  0  0  0  0  0
    1.6362   -1.9004    3.8204 C   0  0  2  0  0  0  0  0  0  0  0  0
    2.0865   -2.6725    2.5864 C   0  0  0  0  0  0  0  0  0  0  0  0
    3.1300   -2.1543    3.4954 C   0  0  1  0  0  0  0  0  0  0  0  0
    3.7672   -0.8717    3.6636 N   0  0  0  0  0  0  0  0  0  0  0  0
    5.0104   -0.7170    2.8846 C   0  0  0  0  0  0  0  0  0  0  0  0
    4.8681   -0.9146    1.3805 C   0  0  0  0  0  0  0  0  0  0  0  0
    3.9323   -0.5679    0.4194 C   0  0  0  0  0  0  0  0  0  0  0  0
    4.3469   -1.1741   -0.7791 C   0  0  0  0  0  0  0  0  0  0  0  0
    5.5881   -1.7173   -0.5348 C   0  0  0  0  0  0  0  0  0  0  0  0
    5.9242   -1.5825    0.7959 O   0  0  0  0  0  0  0  0  0  0  0  0
    5.6989   -4.4882    6.8779 H   0  0  0  0  0  0  0  0  0  0  0  0
    6.6855   -3.0674    7.2919 H   0  0  0  0  0  0  0  0  0  0  0  0
    6.8405   -3.8332    5.6875 H   0  0  0  0  0  0  0  0  0  0  0  0
    4.2682   -3.1835    5.5911 H   0  0  0  0  0  0  0  0  0  0  0  0
    4.0542    0.3265    5.3684 H   0  0  0  0  0  0  0  0  0  0  0  0
    2.7889   -1.4014    6.9566 H   0  0  0  0  0  0  0  0  0  0  0  0
    2.0055   -0.1591    6.1071 H   0  0  0  0  0  0  0  0  0  0  0  0
    2.0039   -3.1652    5.4964 H   0  0  0  0  0  0  0  0  0  0  0  0
    0.8863   -3.4478    7.3591 H   0  0  0  0  0  0  0  0  0  0  0  0
   -0.1880   -2.1932    7.9079 H   0  0  0  0  0  0  0  0  0  0  0  0
   -2.0784   -3.4493    6.5257 H   0  0  0  0  0  0  0  0  0  0  0  0
   -0.7391   -4.8411    8.9016 H   0  0  0  0  0  0  0  0  0  0  0  0
   -2.4753   -5.0451    8.3170 H   0  0  0  0  0  0  0  0  0  0  0  0
   -1.6513   -5.8217    6.0762 H   0  0  0  0  0  0  0  0  0  0  0  0
    0.0935   -5.6282    6.6332 H   0  0  0  0  0  0  0  0  0  0  0  0
   -1.9894    1.0872    4.6054 H   0  0  0  0  0  0  0  0  0  0  0  0
    0.6268    1.9481    1.3019 H   0  0  0  0  0  0  0  0  0  0  0  0
    2.0388   -0.0342    1.9583 H   0  0  0  0  0  0  0  0  0  0  0  0
    1.8995   -3.7435    2.6061 H   0  0  0  0  0  0  0  0  0  0  0  0
    2.0241   -2.2149    1.6040 H   0  0  0  0  0  0  0  0  0  0  0  0
    3.6385   -3.0293    3.8846 H   0  0  0  0  0  0  0  0  0  0  0  0
    5.3471    0.3042    3.0884 H   0  0  0  0  0  0  0  0  0  0  0  0
    5.8011   -1.3689    3.2791 H   0  0  0  0  0  0  0  0  0  0  0  0
    2.9949   -0.0063    0.4135 H   0  0  0  0  0  0  0  0  0  0  0  0
    3.7590   -1.1117   -1.6910 H   0  0  0  0  0  0  0  0  0  0  0  0
    6.3035   -2.1855   -1.2010 H   0  0  0  0  0  0  0  0  0  0  0  0
  1  2  1  0
  1 32  1  0
  1 33  1  0
  1 34  1  0
  2  3  1  0
  2 35  1  0
  3  4  2  0
  3  5  1  0
  5 25  1  0
  5  6  1  0
  5 36  1  6
  6  7  1  0
  6 37  1  0
  6 38  1  0
  7 22  1  0
  7  8  1  0
  7 39  1  6
  8  9  1  0
  8 13  1  0
  9 10  1  0
  9 40  1  0
  9 41  1  0
 10 12  1  0
 10 11  1  0
 10 42  1  0
 11 12  1  0
 11 43  1  0
 11 44  1  0
 12 45  1  0
 12 46  1  0
 13 14  2  0
 13 15  1  0
 15 21  2  0
 15 16  1  0
 16 17  2  0
 16 47  1  0
 17 18  1  0
 17 19  1  0
 19 20  2  0
 19 48  1  0
 20 21  1  0
 20 49  1  0
 21 22  1  0
 22 24  1  0
 22 23  1  6
 23 24  1  0
 23 50  1  0
 23 51  1  0
 24 25  1  0
 24 52  1  1
 25 26  1  0
 26 27  1  0
 26 53  1  0
 26 54  1  0
 27 31  1  0
 27 28  2  0
 28 29  1  0
 28 55  1  0
 29 30  2  0
 29 56  1  0
 30 31  1  0
 30 57  1  0
M  END
>  <i_m_ct_stereo_status>  (488) 
1

>  <s_m_source_file>  (488) 
/var/tmp/pbs.5102264.sched01/tmpspb9n5yc/161wrz3epul.sdf

>  <i_m_source_file_index>  (488) 
15

>  <i_lp_mmshare_version>  (488) 
48012

>  <i_f3d_flags>  (488) 
0

>  <s_epik_input>  (488) 
bzFbY0hdW2NIXVtjSF1jMVtDSDJdTihbQ0BASF0yW0NIMl0zKVtDQEhdKEMoPU8pW05IXVtDSDNdKVtDSDJdW0NASF0oW0NAQF0yMzQpTihbQ0gyXVtDSF01W0NIMl1bQ0gyXTUpQyg9TyljNmM0W2NIXVtjSF1jKEYpW2NIXTY=

>  <s_epik_cmdline>  (488) 
J2VwaWtfcHl0aG9uJywgJy1waHQnLCAnMi4wJywgJy1waCcsICc3LjAnLCAnLXRuJywgJzgnLCAnLW1hJywgJzIwMCcsICctaW1hZScsICc8aW5maWxlLm1hZT4nLCAnLW9tYWUnLCAnPG91dGZpbGUubWFlPic=

>  <r_epik_Ionization_Penalty>  (488) 
0.578709

>  <r_epik_Ionization_Penalty_Charging>  (488) 
0

>  <r_epik_Ionization_Penalty_Neutral>  (488) 
0.578709

>  <r_epik_State_Penalty>  (488) 
0.591284

>  <r_epik_Charging_Adjusted_Penalty>  (488) 
0.591284

>  <i_epik_Tot_Q>  (488) 
0

>  <i_epik_Tot_abs_Q>  (488) 
0

>  <s_lp_Force_Field>  (488) 
OPLS3e

>  <r_lp_Energy>  (488) 
71.5961

>  <b_lp_Chiralities_Consistent>  (488) 
1

>  <s_lp_Variant>  (488) 
104:0-3

>  <s_i_glide_gridfile>  (488) 
pfpi4k_grid

>  <i_i_glide_lignum>  (488) 
15

>  <i_i_glide_rotatable_bonds>  (488) 
6

>  <r_i_docking_score>  (488) 
-2.27019

>  <r_i_glide_ligand_efficiency>  (488) 
-0.0732319

>  <r_i_glide_ligand_efficiency_sa>  (488) 
-0.230049

>  <r_i_glide_ligand_efficiency_ln>  (488) 
-0.511997

>  <r_i_glide_gscore>  (488) 
-2.27019

>  <r_i_glide_lipo>  (488) 
-0.387797

>  <r_i_glide_hbond>  (488) 
-0.0719555

>  <r_i_glide_metal>  (488) 
-0

>  <r_i_glide_rewards>  (488) 
-0.545129

>  <r_i_glide_evdw>  (488) 
-27.4901

>  <r_i_glide_ecoul>  (488) 
-2.16014

>  <r_i_glide_erotb>  (488) 
0.55259

>  <r_i_glide_esite>  (488) 
-0.119372

>  <r_i_glide_emodel>  (488) 
-30.9495

>  <r_i_glide_energy>  (488) 
-29.6502

>  <r_i_glide_einternal>  (488) 
2.32558

>  <r_i_glide_intrahb_reward>  (488) 
-0

>  <i_i_glide_confnum>  (488) 
1

>  <i_i_glide_posenum>  (488) 
34

>  <r_i_glide_eff_state_penalty>  (488) 
0

>  <ligand_id>  (488) 
104

>  <original_smiles>  (488) 
CNC(=O)C1CC2N(CC3CC3)C(=O)c3cc(F)ccc3C23CC3N1Cc1ccco1

>  <smiles>  (488) 
[H]c1oc(C([H])([H])N2C([H])(C(=O)N([H])C([H])([H])[H])C([H])([H])C3([H])N(C([H])([H])C4([H])C([H])([H])C4([H])[H])C(=O)c4c([H])c(F)c([H])c([H])c4C34C([H])([H])C24[H])c([H])c1[H]

$$$$
104:2:2
     RDKit          3D

 57 62  0  0  1  0  0  0  0  0999 V2000
    2.9457   -1.9870   -2.7018 C   0  0  0  0  0  0  0  0  0  0  0  0
    3.4302   -2.1773   -1.3451 N   0  0  0  0  0  0  0  0  0  0  0  0
    4.6961   -2.3264   -0.9355 C   0  0  0  0  0  0  0  0  0  0  0  0
    5.6493   -2.3450   -1.7111 O   0  0  0  0  0  0  0  0  0  0  0  0
    4.9188   -2.4609    0.5937 C   0  0  2  0  0  0  0  0  0  0  0  0
    5.0369   -3.9785    1.0024 C   0  0  0  0  0  0  0  0  0  0  0  0
    3.8079   -4.6364    1.7177 C   0  0  1  0  0  0  0  0  0  0  0  0
    4.2096   -5.8776    2.4183 N   0  0  0  0  0  0  0  0  0  0  0  0
    4.1235   -7.1135    1.6530 C   0  0  0  0  0  0  0  0  0  0  0  0
    3.2093   -8.1840    2.2398 C   0  0  0  0  0  0  0  0  0  0  0  0
    2.9011   -9.4209    1.4370 C   0  0  0  0  0  0  0  0  0  0  0  0
    1.8245   -8.3911    1.6940 C   0  0  0  0  0  0  0  0  0  0  0  0
    4.7440   -5.8878    3.6832 C   0  0  0  0  0  0  0  0  0  0  0  0
    5.1262   -6.9175    4.2641 O   0  0  0  0  0  0  0  0  0  0  0  0
    4.8902   -4.5641    4.3645 C   0  0  0  0  0  0  0  0  0  0  0  0
    5.7160   -4.4456    5.5105 C   0  0  0  0  0  0  0  0  0  0  0  0
    5.8616   -3.2077    6.1662 C   0  0  0  0  0  0  0  0  0  0  0  0
    6.6526   -3.0925    7.2796 F   0  0  0  0  0  0  0  0  0  0  0  0
    5.1407   -2.0951    5.6787 C   0  0  0  0  0  0  0  0  0  0  0  0
    4.2516   -2.2022    4.5519 C   0  0  0  0  0  0  0  0  0  0  0  0
    4.1596   -3.4549    3.8806 C   0  0  0  0  0  0  0  0  0  0  0  0
    3.2466   -3.5789    2.6679 C   0  0  2  0  0  0  0  0  0  0  0  0
    1.9464   -2.7965    2.7927 C   0  0  0  0  0  0  0  0  0  0  0  0
    2.8437   -2.4757    1.6696 C   0  0  1  0  0  0  0  0  0  0  0  0
    4.0303   -1.6537    1.5206 N   0  0  0  0  0  0  0  0  0  0  0  0
    3.7607   -0.2610    1.1297 C   0  0  0  0  0  0  0  0  0  0  0  0
    3.0127    0.5664    2.1480 C   0  0  0  0  0  0  0  0  0  0  0  0
    3.1965    0.7642    3.5083 C   0  0  0  0  0  0  0  0  0  0  0  0
    2.0526    1.5549    3.8976 C   0  0  0  0  0  0  0  0  0  0  0  0
    1.4391    1.9541    2.7254 C   0  0  0  0  0  0  0  0  0  0  0  0
    1.9923    1.3193    1.6387 O   0  0  0  0  0  0  0  0  0  0  0  0
    1.8999   -2.3176   -2.7330 H   0  0  0  0  0  0  0  0  0  0  0  0
    3.5402   -2.5799   -3.3940 H   0  0  0  0  0  0  0  0  0  0  0  0
    2.9842   -0.9234   -2.9573 H   0  0  0  0  0  0  0  0  0  0  0  0
    2.7384   -2.0469   -0.6303 H   0  0  0  0  0  0  0  0  0  0  0  0
    5.9173   -2.0588    0.7174 H   0  0  0  0  0  0  0  0  0  0  0  0
    5.2748   -4.5862    0.1426 H   0  0  0  0  0  0  0  0  0  0  0  0
    5.9085   -4.0911    1.6337 H   0  0  0  0  0  0  0  0  0  0  0  0
    3.0259   -4.8832    0.9878 H   0  0  0  0  0  0  0  0  0  0  0  0
    3.8066   -6.9179    0.6300 H   0  0  0  0  0  0  0  0  0  0  0  0
    5.1341   -7.5241    1.5840 H   0  0  0  0  0  0  0  0  0  0  0  0
    3.3285   -8.3745    3.2982 H   0  0  0  0  0  0  0  0  0  0  0  0
    3.3335   -9.4811    0.4445 H   0  0  0  0  0  0  0  0  0  0  0  0
    2.8275  -10.3687    1.9715 H   0  0  0  0  0  0  0  0  0  0  0  0
    1.0423   -8.6537    2.4044 H   0  0  0  0  0  0  0  0  0  0  0  0
    1.5240   -7.7475    0.8790 H   0  0  0  0  0  0  0  0  0  0  0  0
    6.2570   -5.3207    5.8957 H   0  0  0  0  0  0  0  0  0  0  0  0
    5.2151   -1.1420    6.1708 H   0  0  0  0  0  0  0  0  0  0  0  0
    3.6239   -1.4486    4.2181 H   0  0  0  0  0  0  0  0  0  0  0  0
    1.0485   -3.3633    2.5735 H   0  0  0  0  0  0  0  0  0  0  0  0
    1.8066   -2.0188    3.5416 H   0  0  0  0  0  0  0  0  0  0  0  0
    2.2878   -2.7545    0.7861 H   0  0  0  0  0  0  0  0  0  0  0  0
    4.7238    0.2103    0.9342 H   0  0  0  0  0  0  0  0  0  0  0  0
    3.2192   -0.2228    0.1821 H   0  0  0  0  0  0  0  0  0  0  0  0
    3.9505    0.3465    4.1557 H   0  0  0  0  0  0  0  0  0  0  0  0
    1.8331    1.8473    4.9134 H   0  0  0  0  0  0  0  0  0  0  0  0
    0.6657    2.6920    2.5183 H   0  0  0  0  0  0  0  0  0  0  0  0
  1  2  1  0
  1 32  1  0
  1 33  1  0
  1 34  1  0
  2  3  1  0
  2 35  1  0
  3  4  2  0
  3  5  1  0
  5 25  1  0
  5  6  1  0
  5 36  1  6
  6  7  1  0
  6 37  1  0
  6 38  1  0
  7 22  1  0
  7  8  1  0
  7 39  1  6
  8  9  1  0
  8 13  1  0
  9 10  1  0
  9 40  1  0
  9 41  1  0
 10 12  1  0
 10 11  1  0
 10 42  1  0
 11 12  1  0
 11 43  1  0
 11 44  1  0
 12 45  1  0
 12 46  1  0
 13 14  2  0
 13 15  1  0
 15 21  2  0
 15 16  1  0
 16 17  2  0
 16 47  1  0
 17 18  1  0
 17 19  1  0
 19 20  2  0
 19 48  1  0
 20 21  1  0
 20 49  1  0
 21 22  1  0
 22 24  1  0
 22 23  1  1
 23 24  1  0
 23 50  1  0
 23 51  1  0
 24 25  1  0
 24 52  1  6
 25 26  1  0
 26 27  1  0
 26 53  1  0
 26 54  1  0
 27 31  1  0
 27 28  2  0
 28 29  1  0
 28 55  1  0
 29 30  2  0
 29 56  1  0
 30 31  1  0
 30 57  1  0
M  END
>  <i_m_ct_stereo_status>  (489) 
1

>  <s_m_source_file>  (489) 
/var/tmp/pbs.5102264.sched01/tmpspb9n5yc/161wrz3epul.sdf

>  <i_m_source_file_index>  (489) 
15

>  <i_lp_mmshare_version>  (489) 
48012

>  <i_f3d_flags>  (489) 
0

>  <s_epik_input>  (489) 
bzFbY0hdW2NIXVtjSF1jMVtDSDJdTihbQ0BASF0yW0NIMl0zKVtDQEhdKEMoPU8pW05IXVtDSDNdKVtDSDJdW0NASF0oW0NAQF0yMzQpTihbQ0gyXVtDSF01W0NIMl1bQ0gyXTUpQyg9TyljNmM0W2NIXVtjSF1jKEYpW2NIXTY=

>  <s_epik_cmdline>  (489) 
J2VwaWtfcHl0aG9uJywgJy1waHQnLCAnMi4wJywgJy1waCcsICc3LjAnLCAnLXRuJywgJzgnLCAnLW1hJywgJzIwMCcsICctaW1hZScsICc8aW5maWxlLm1hZT4nLCAnLW9tYWUnLCAnPG91dGZpbGUubWFlPic=

>  <r_epik_Ionization_Penalty>  (489) 
0.578709

>  <r_epik_Ionization_Penalty_Charging>  (489) 
0

>  <r_epik_Ionization_Penalty_Neutral>  (489) 
0.578709

>  <r_epik_State_Penalty>  (489) 
0.591284

>  <r_epik_Charging_Adjusted_Penalty>  (489) 
0.591284

>  <i_epik_Tot_Q>  (489) 
0

>  <i_epik_Tot_abs_Q>  (489) 
0

>  <s_lp_Force_Field>  (489) 
OPLS3e

>  <r_lp_Energy>  (489) 
71.5961

>  <b_lp_Chiralities_Consistent>  (489) 
1

>  <s_lp_Variant>  (489) 
104:0-3

>  <s_i_glide_gridfile>  (489) 
pfpi4k_grid

>  <i_i_glide_lignum>  (489) 
15

>  <i_i_glide_rotatable_bonds>  (489) 
6

>  <r_i_docking_score>  (489) 
-2.25797

>  <r_i_glide_ligand_efficiency>  (489) 
-0.0728378

>  <r_i_glide_ligand_efficiency_sa>  (489) 
-0.228811

>  <r_i_glide_ligand_efficiency_ln>  (489) 
-0.509242

>  <r_i_glide_gscore>  (489) 
-2.25797

>  <r_i_glide_lipo>  (489) 
-0.291196

>  <r_i_glide_hbond>  (489) 
-0.0347214

>  <r_i_glide_metal>  (489) 
-0

>  <r_i_glide_rewards>  (489) 
-0.552436

>  <r_i_glide_evdw>  (489) 
-26.8384

>  <r_i_glide_ecoul>  (489) 
-3.36928

>  <r_i_glide_erotb>  (489) 
0.55259

>  <r_i_glide_esite>  (489) 
-0.0848951

>  <r_i_glide_emodel>  (489) 
-31.0106

>  <r_i_glide_energy>  (489) 
-30.2077

>  <r_i_glide_einternal>  (489) 
2.55948

>  <r_i_glide_intrahb_reward>  (489) 
-0

>  <i_i_glide_confnum>  (489) 
1

>  <i_i_glide_posenum>  (489) 
5

>  <r_i_glide_eff_state_penalty>  (489) 
0

>  <ligand_id>  (489) 
104

>  <original_smiles>  (489) 
CNC(=O)C1CC2N(CC3CC3)C(=O)c3cc(F)ccc3C23CC3N1Cc1ccco1

>  <smiles>  (489) 
[H]c1oc(C([H])([H])N2C([H])(C(=O)N([H])C([H])([H])[H])C([H])([H])C3([H])N(C([H])([H])C4([H])C([H])([H])C4([H])[H])C(=O)c4c([H])c(F)c([H])c([H])c4C34C([H])([H])C24[H])c([H])c1[H]

$$$$
104:3:0
     RDKit          3D

 57 62  0  0  1  0  0  0  0  0999 V2000
    4.0076  -10.2606    2.3721 C   0  0  0  0  0  0  0  0  0  0  0  0
    3.3527   -8.9761    2.2184 N   0  0  0  0  0  0  0  0  0  0  0  0
    3.8040   -7.9327    1.5123 C   0  0  0  0  0  0  0  0  0  0  0  0
    4.7994   -7.9780    0.7926 O   0  0  0  0  0  0  0  0  0  0  0  0
    2.9650   -6.6487    1.6697 C   0  0  2  0  0  0  0  0  0  0  0  0
    3.4274   -5.4336    0.8277 C   0  0  0  0  0  0  0  0  0  0  0  0
    4.7143   -4.7324    1.3335 C   0  0  1  0  0  0  0  0  0  0  0  0
    5.0742   -3.6033    0.4539 N   0  0  0  0  0  0  0  0  0  0  0  0
    5.3508   -3.9419   -0.9542 C   0  0  0  0  0  0  0  0  0  0  0  0
    4.3153   -3.4529   -1.9482 C   0  0  0  0  0  0  0  0  0  0  0  0
    4.6122   -3.4563   -3.4307 C   0  0  0  0  0  0  0  0  0  0  0  0
    4.4923   -2.1453   -2.6912 C   0  0  0  0  0  0  0  0  0  0  0  0
    5.2768   -2.3319    0.8720 C   0  0  0  0  0  0  0  0  0  0  0  0
    5.6430   -1.4319    0.1072 O   0  0  0  0  0  0  0  0  0  0  0  0
    5.0786   -2.0189    2.3232 C   0  0  0  0  0  0  0  0  0  0  0  0
    5.2297   -0.6740    2.7513 C   0  0  0  0  0  0  0  0  0  0  0  0
    5.1090   -0.3280    4.1038 C   0  0  0  0  0  0  0  0  0  0  0  0
    5.2708    0.9497    4.5115 F   0  0  0  0  0  0  0  0  0  0  0  0
    4.8264   -1.3290    5.0431 C   0  0  0  0  0  0  0  0  0  0  0  0
    4.6789   -2.6643    4.6276 C   0  0  0  0  0  0  0  0  0  0  0  0
    4.7936   -3.0372    3.2666 C   0  0  0  0  0  0  0  0  0  0  0  0
    4.5967   -4.4795    2.8397 C   0  0  2  0  0  0  0  0  0  0  0  0
    5.1681   -5.5964    3.6934 C   0  0  0  0  0  0  0  0  0  0  0  0
    3.6864   -5.3629    3.7120 C   0  0  2  0  0  0  0  0  0  0  0  0
    2.7622   -6.3310    3.1098 N   0  0  0  0  0  0  0  0  0  0  0  0
    1.3794   -5.9787    3.4295 C   0  0  0  0  0  0  0  0  0  0  0  0
    0.4404   -7.1313    3.2656 C   0  0  0  0  0  0  0  0  0  0  0  0
    0.4952   -8.4409    3.6554 C   0  0  0  0  0  0  0  0  0  0  0  0
   -0.6973   -9.0503    3.1805 C   0  0  0  0  0  0  0  0  0  0  0  0
   -1.4016   -8.0621    2.5628 C   0  0  0  0  0  0  0  0  0  0  0  0
   -0.7221   -6.8812    2.5987 O   0  0  0  0  0  0  0  0  0  0  0  0
    4.3916  -10.3619    3.3871 H   0  0  0  0  0  0  0  0  0  0  0  0
    4.8420  -10.3824    1.6802 H   0  0  0  0  0  0  0  0  0  0  0  0
    3.2906  -11.0649    2.2007 H   0  0  0  0  0  0  0  0  0  0  0  0
    2.5003   -8.8418    2.7377 H   0  0  0  0  0  0  0  0  0  0  0  0
    2.0106   -6.9400    1.2276 H   0  0  0  0  0  0  0  0  0  0  0  0
    3.5846   -5.7995   -0.1862 H   0  0  0  0  0  0  0  0  0  0  0  0
    2.6146   -4.7110    0.7387 H   0  0  0  0  0  0  0  0  0  0  0  0
    5.5336   -5.4404    1.2024 H   0  0  0  0  0  0  0  0  0  0  0  0
    6.3273   -3.5330   -1.2286 H   0  0  0  0  0  0  0  0  0  0  0  0
    5.4540   -5.0207   -1.0833 H   0  0  0  0  0  0  0  0  0  0  0  0
    3.2906   -3.7198   -1.6775 H   0  0  0  0  0  0  0  0  0  0  0  0
    5.6054   -3.7853   -3.7378 H   0  0  0  0  0  0  0  0  0  0  0  0
    3.7987   -3.7288   -4.0984 H   0  0  0  0  0  0  0  0  0  0  0  0
    3.5956   -1.5488   -2.8449 H   0  0  0  0  0  0  0  0  0  0  0  0
    5.4054   -1.5781   -2.5061 H   0  0  0  0  0  0  0  0  0  0  0  0
    5.4652    0.1010    2.0400 H   0  0  0  0  0  0  0  0  0  0  0  0
    4.7397   -1.0768    6.0853 H   0  0  0  0  0  0  0  0  0  0  0  0
    4.4865   -3.3924    5.4017 H   0  0  0  0  0  0  0  0  0  0  0  0
    5.5521   -6.4862    3.2009 H   0  0  0  0  0  0  0  0  0  0  0  0
    5.7477   -5.2751    4.5528 H   0  0  0  0  0  0  0  0  0  0  0  0
    3.3944   -4.9918    4.6871 H   0  0  0  0  0  0  0  0  0  0  0  0
    1.3129   -5.6574    4.4725 H   0  0  0  0  0  0  0  0  0  0  0  0
    1.0583   -5.1335    2.8197 H   0  0  0  0  0  0  0  0  0  0  0  0
    1.3089   -8.9016    4.1995 H   0  0  0  0  0  0  0  0  0  0  0  0
   -1.0067  -10.0818    3.2763 H   0  0  0  0  0  0  0  0  0  0  0  0
   -2.3622   -8.0356    2.0738 H   0  0  0  0  0  0  0  0  0  0  0  0
  1  2  1  0
  1 32  1  0
  1 33  1  0
  1 34  1  0
  2  3  1  0
  2 35  1  0
  3  4  2  0
  3  5  1  0
  5 25  1  0
  5  6  1  0
  5 36  1  6
  6  7  1  0
  6 37  1  0
  6 38  1  0
  7 22  1  0
  7  8  1  0
  7 39  1  1
  8  9  1  0
  8 13  1  0
  9 10  1  0
  9 40  1  0
  9 41  1  0
 10 12  1  0
 10 11  1  0
 10 42  1  0
 11 12  1  0
 11 43  1  0
 11 44  1  0
 12 45  1  0
 12 46  1  0
 13 14  2  0
 13 15  1  0
 15 21  2  0
 15 16  1  0
 16 17  2  0
 16 47  1  0
 17 18  1  0
 17 19  1  0
 19 20  2  0
 19 48  1  0
 20 21  1  0
 20 49  1  0
 21 22  1  0
 22 24  1  0
 22 23  1  1
 23 24  1  0
 23 50  1  0
 23 51  1  0
 24 25  1  0
 24 52  1  1
 25 26  1  0
 26 27  1  0
 26 53  1  0
 26 54  1  0
 27 31  1  0
 27 28  2  0
 28 29  1  0
 28 55  1  0
 29 30  2  0
 29 56  1  0
 30 31  1  0
 30 57  1  0
M  END
>  <i_m_ct_stereo_status>  (490) 
1

>  <s_m_source_file>  (490) 
/var/tmp/pbs.5102264.sched01/tmpspb9n5yc/161wrz3epul.sdf

>  <i_m_source_file_index>  (490) 
16

>  <i_lp_mmshare_version>  (490) 
48012

>  <i_f3d_flags>  (490) 
0

>  <s_epik_input>  (490) 
bzFbY0hdW2NIXVtjSF1jMVtDSDJdTihbQ0BASF0yW0NIMl0zKVtDQEhdKEMoPU8pW05IXVtDSDNdKVtDSDJdW0NASF0oW0NAQF0yMzQpTihbQ0gyXVtDSF01W0NIMl1bQ0gyXTUpQyg9TyljNmM0W2NIXVtjSF1jKEYpW2NIXTY=

>  <s_epik_cmdline>  (490) 
J2VwaWtfcHl0aG9uJywgJy1waHQnLCAnMi4wJywgJy1waCcsICc3LjAnLCAnLXRuJywgJzgnLCAnLW1hJywgJzIwMCcsICctaW1hZScsICc8aW5maWxlLm1hZT4nLCAnLW9tYWUnLCAnPG91dGZpbGUubWFlPic=

>  <r_epik_Ionization_Penalty>  (490) 
0.578709

>  <r_epik_Ionization_Penalty_Charging>  (490) 
0

>  <r_epik_Ionization_Penalty_Neutral>  (490) 
0.578709

>  <r_epik_State_Penalty>  (490) 
0.591284

>  <r_epik_Charging_Adjusted_Penalty>  (490) 
0.591284

>  <i_epik_Tot_Q>  (490) 
0

>  <i_epik_Tot_abs_Q>  (490) 
0

>  <s_lp_Force_Field>  (490) 
OPLS3e

>  <r_lp_Energy>  (490) 
59.3886

>  <b_lp_Chiralities_Consistent>  (490) 
1

>  <s_lp_Variant>  (490) 
104:0-4

>  <s_i_glide_gridfile>  (490) 
pfpi4k_grid

>  <i_i_glide_lignum>  (490) 
16

>  <i_i_glide_rotatable_bonds>  (490) 
6

>  <r_i_docking_score>  (490) 
-3.07935

>  <r_i_glide_ligand_efficiency>  (490) 
-0.099334

>  <r_i_glide_ligand_efficiency_sa>  (490) 
-0.312046

>  <r_i_glide_ligand_efficiency_ln>  (490) 
-0.694489

>  <r_i_glide_gscore>  (490) 
-3.07935

>  <r_i_glide_lipo>  (490) 
-0.753074

>  <r_i_glide_hbond>  (490) 
-0.16

>  <r_i_glide_metal>  (490) 
-0

>  <r_i_glide_rewards>  (490) 
-0.739218

>  <r_i_glide_evdw>  (490) 
-31.1657

>  <r_i_glide_ecoul>  (490) 
-2.64419

>  <r_i_glide_erotb>  (490) 
0.55259

>  <r_i_glide_esite>  (490) 
-0.0247384

>  <r_i_glide_emodel>  (490) 
-39.9077

>  <r_i_glide_energy>  (490) 
-33.8099

>  <r_i_glide_einternal>  (490) 
0.36224

>  <r_i_glide_intrahb_reward>  (490) 
-0

>  <i_i_glide_confnum>  (490) 
3

>  <i_i_glide_posenum>  (490) 
19

>  <r_i_glide_eff_state_penalty>  (490) 
0

>  <ligand_id>  (490) 
104

>  <original_smiles>  (490) 
CNC(=O)C1CC2N(CC3CC3)C(=O)c3cc(F)ccc3C23CC3N1Cc1ccco1

>  <smiles>  (490) 
[H]c1oc(C([H])([H])N2C([H])(C(=O)N([H])C([H])([H])[H])C([H])([H])C3([H])N(C([H])([H])C4([H])C([H])([H])C4([H])[H])C(=O)c4c([H])c(F)c([H])c([H])c4C34C([H])([H])C24[H])c([H])c1[H]

$$$$
104:3:1
     RDKit          3D

 57 62  0  0  1  0  0  0  0  0999 V2000
    3.5133  -10.2321    2.3253 C   0  0  0  0  0  0  0  0  0  0  0  0
    2.9695   -8.8948    2.1954 N   0  0  0  0  0  0  0  0  0  0  0  0
    3.5393   -7.8773    1.5364 C   0  0  0  0  0  0  0  0  0  0  0  0
    4.5806   -7.9867    0.8856 O   0  0  0  0  0  0  0  0  0  0  0  0
    2.7852   -6.5291    1.6614 C   0  0  2  0  0  0  0  0  0  0  0  0
    3.3255   -5.3483    0.8389 C   0  0  0  0  0  0  0  0  0  0  0  0
    4.6202   -4.7178    1.3601 C   0  0  1  0  0  0  0  0  0  0  0  0
    5.0454   -3.6107    0.4767 N   0  0  0  0  0  0  0  0  0  0  0  0
    5.3130   -3.9742   -0.9320 C   0  0  0  0  0  0  0  0  0  0  0  0
    4.3077   -3.4431   -1.9409 C   0  0  0  0  0  0  0  0  0  0  0  0
    4.6494   -3.4141   -3.4128 C   0  0  0  0  0  0  0  0  0  0  0  0
    4.5315   -2.1217   -2.6423 C   0  0  0  0  0  0  0  0  0  0  0  0
    5.2952   -2.3430    0.8887 C   0  0  0  0  0  0  0  0  0  0  0  0
    5.7143   -1.4593    0.1176 O   0  0  0  0  0  0  0  0  0  0  0  0
    5.0845   -2.0144    2.3361 C   0  0  0  0  0  0  0  0  0  0  0  0
    5.2979   -0.6829    2.7545 C   0  0  0  0  0  0  0  0  0  0  0  0
    5.1765   -0.3298    4.1025 C   0  0  0  0  0  0  0  0  0  0  0  0
    5.4068    0.9373    4.5103 F   0  0  0  0  0  0  0  0  0  0  0  0
    4.8283   -1.3037    5.0468 C   0  0  0  0  0  0  0  0  0  0  0  0
    4.6191   -2.6259    4.6401 C   0  0  0  0  0  0  0  0  0  0  0  0
    4.7400   -3.0093    3.2835 C   0  0  0  0  0  0  0  0  0  0  0  0
    4.4871   -4.4446    2.8613 C   0  0  2  0  0  0  0  0  0  0  0  0
    4.9809   -5.5764    3.7373 C   0  0  0  0  0  0  0  0  0  0  0  0
    3.5085   -5.2728    3.7272 C   0  0  2  0  0  0  0  0  0  0  0  0
    2.5493   -6.2004    3.0924 N   0  0  0  0  0  0  0  0  0  0  0  0
    1.1661   -5.8024    3.3707 C   0  0  0  0  0  0  0  0  0  0  0  0
    0.1441   -6.8913    3.1307 C   0  0  0  0  0  0  0  0  0  0  0  0
   -0.1969   -7.6742    2.0625 C   0  0  0  0  0  0  0  0  0  0  0  0
   -1.1952   -8.5808    2.5222 C   0  0  0  0  0  0  0  0  0  0  0  0
   -1.4257   -8.2575    3.8265 C   0  0  0  0  0  0  0  0  0  0  0  0
   -0.6264   -7.2258    4.2091 O   0  0  0  0  0  0  0  0  0  0  0  0
    3.8308  -10.3927    3.3526 H   0  0  0  0  0  0  0  0  0  0  0  0
    4.3815  -10.3673    1.6849 H   0  0  0  0  0  0  0  0  0  0  0  0
    2.7723  -10.9924    2.0797 H   0  0  0  0  0  0  0  0  0  0  0  0
    2.0973   -8.7150    2.6648 H   0  0  0  0  0  0  0  0  0  0  0  0
    1.8537   -6.7099    1.1583 H   0  0  0  0  0  0  0  0  0  0  0  0
    3.4749   -5.7236   -0.1648 H   0  0  0  0  0  0  0  0  0  0  0  0
    2.5461   -4.5892    0.7395 H   0  0  0  0  0  0  0  0  0  0  0  0
    5.4047   -5.4593    1.2443 H   0  0  0  0  0  0  0  0  0  0  0  0
    6.3068   -3.6128   -1.1981 H   0  0  0  0  0  0  0  0  0  0  0  0
    5.3771   -5.0565   -1.0526 H   0  0  0  0  0  0  0  0  0  0  0  0
    3.2740   -3.6947   -1.7052 H   0  0  0  0  0  0  0  0  0  0  0  0
    5.6467   -3.7489   -3.6988 H   0  0  0  0  0  0  0  0  0  0  0  0
    3.8540   -3.6455   -4.1180 H   0  0  0  0  0  0  0  0  0  0  0  0
    3.6526   -1.5006   -2.8045 H   0  0  0  0  0  0  0  0  0  0  0  0
    5.4495   -1.5792   -2.4198 H   0  0  0  0  0  0  0  0  0  0  0  0
    5.5835    0.0746    2.0408 H   0  0  0  0  0  0  0  0  0  0  0  0
    4.7410   -1.0341    6.0850 H   0  0  0  0  0  0  0  0  0  0  0  0
    4.3790   -3.3403    5.4144 H   0  0  0  0  0  0  0  0  0  0  0  0
    5.3231   -6.4903    3.2528 H   0  0  0  0  0  0  0  0  0  0  0  0
    5.5714   -5.2847    4.6040 H   0  0  0  0  0  0  0  0  0  0  0  0
    3.2199   -4.8822    4.7010 H   0  0  0  0  0  0  0  0  0  0  0  0
    1.0958   -5.5069    4.4174 H   0  0  0  0  0  0  0  0  0  0  0  0
    0.9239   -4.9071    2.8001 H   0  0  0  0  0  0  0  0  0  0  0  0
    0.2390   -7.6524    1.0819 H   0  0  0  0  0  0  0  0  0  0  0  0
   -1.6641   -9.3858    1.9707 H   0  0  0  0  0  0  0  0  0  0  0  0
   -2.0750   -8.6653    4.6001 H   0  0  0  0  0  0  0  0  0  0  0  0
  1  2  1  0
  1 32  1  0
  1 33  1  0
  1 34  1  0
  2  3  1  0
  2 35  1  0
  3  4  2  0
  3  5  1  0
  5 25  1  0
  5  6  1  0
  5 36  1  6
  6  7  1  0
  6 37  1  0
  6 38  1  0
  7 22  1  0
  7  8  1  0
  7 39  1  1
  8  9  1  0
  8 13  1  0
  9 10  1  0
  9 40  1  0
  9 41  1  0
 10 12  1  0
 10 11  1  0
 10 42  1  0
 11 12  1  0
 11 43  1  0
 11 44  1  0
 12 45  1  0
 12 46  1  0
 13 14  2  0
 13 15  1  0
 15 21  2  0
 15 16  1  0
 16 17  2  0
 16 47  1  0
 17 18  1  0
 17 19  1  0
 19 20  2  0
 19 48  1  0
 20 21  1  0
 20 49  1  0
 21 22  1  0
 22 24  1  0
 22 23  1  1
 23 24  1  0
 23 50  1  0
 23 51  1  0
 24 25  1  0
 24 52  1  1
 25 26  1  0
 26 27  1  0
 26 53  1  0
 26 54  1  0
 27 31  1  0
 27 28  2  0
 28 29  1  0
 28 55  1  0
 29 30  2  0
 29 56  1  0
 30 31  1  0
 30 57  1  0
M  END
>  <i_m_ct_stereo_status>  (491) 
1

>  <s_m_source_file>  (491) 
/var/tmp/pbs.5102264.sched01/tmpspb9n5yc/161wrz3epul.sdf

>  <i_m_source_file_index>  (491) 
16

>  <i_lp_mmshare_version>  (491) 
48012

>  <i_f3d_flags>  (491) 
0

>  <s_epik_input>  (491) 
bzFbY0hdW2NIXVtjSF1jMVtDSDJdTihbQ0BASF0yW0NIMl0zKVtDQEhdKEMoPU8pW05IXVtDSDNdKVtDSDJdW0NASF0oW0NAQF0yMzQpTihbQ0gyXVtDSF01W0NIMl1bQ0gyXTUpQyg9TyljNmM0W2NIXVtjSF1jKEYpW2NIXTY=

>  <s_epik_cmdline>  (491) 
J2VwaWtfcHl0aG9uJywgJy1waHQnLCAnMi4wJywgJy1waCcsICc3LjAnLCAnLXRuJywgJzgnLCAnLW1hJywgJzIwMCcsICctaW1hZScsICc8aW5maWxlLm1hZT4nLCAnLW9tYWUnLCAnPG91dGZpbGUubWFlPic=

>  <r_epik_Ionization_Penalty>  (491) 
0.578709

>  <r_epik_Ionization_Penalty_Charging>  (491) 
0

>  <r_epik_Ionization_Penalty_Neutral>  (491) 
0.578709

>  <r_epik_State_Penalty>  (491) 
0.591284

>  <r_epik_Charging_Adjusted_Penalty>  (491) 
0.591284

>  <i_epik_Tot_Q>  (491) 
0

>  <i_epik_Tot_abs_Q>  (491) 
0

>  <s_lp_Force_Field>  (491) 
OPLS3e

>  <r_lp_Energy>  (491) 
59.3886

>  <b_lp_Chiralities_Consistent>  (491) 
1

>  <s_lp_Variant>  (491) 
104:0-4

>  <s_i_glide_gridfile>  (491) 
pfpi4k_grid

>  <i_i_glide_lignum>  (491) 
16

>  <i_i_glide_rotatable_bonds>  (491) 
6

>  <r_i_docking_score>  (491) 
-2.93949

>  <r_i_glide_ligand_efficiency>  (491) 
-0.0948221

>  <r_i_glide_ligand_efficiency_sa>  (491) 
-0.297872

>  <r_i_glide_ligand_efficiency_ln>  (491) 
-0.662944

>  <r_i_glide_gscore>  (491) 
-2.93949

>  <r_i_glide_lipo>  (491) 
-0.728852

>  <r_i_glide_hbond>  (491) 
0

>  <r_i_glide_metal>  (491) 
-0

>  <r_i_glide_rewards>  (491) 
-0.758881

>  <r_i_glide_evdw>  (491) 
-32.8932

>  <r_i_glide_ecoul>  (491) 
-2.27775

>  <r_i_glide_erotb>  (491) 
0.55259

>  <r_i_glide_esite>  (491) 
-0.0180199

>  <r_i_glide_emodel>  (491) 
-39.976

>  <r_i_glide_energy>  (491) 
-35.1709

>  <r_i_glide_einternal>  (491) 
0.554042

>  <r_i_glide_intrahb_reward>  (491) 
-0

>  <i_i_glide_confnum>  (491) 
3

>  <i_i_glide_posenum>  (491) 
29

>  <r_i_glide_eff_state_penalty>  (491) 
0

>  <ligand_id>  (491) 
104

>  <original_smiles>  (491) 
CNC(=O)C1CC2N(CC3CC3)C(=O)c3cc(F)ccc3C23CC3N1Cc1ccco1

>  <smiles>  (491) 
[H]c1oc(C([H])([H])N2C([H])(C(=O)N([H])C([H])([H])[H])C([H])([H])C3([H])N(C([H])([H])C4([H])C([H])([H])C4([H])[H])C(=O)c4c([H])c(F)c([H])c([H])c4C34C([H])([H])C24[H])c([H])c1[H]

$$$$
104:3:2
     RDKit          3D

 57 62  0  0  1  0  0  0  0  0999 V2000
    4.2651   -9.7807    2.3345 C   0  0  0  0  0  0  0  0  0  0  0  0
    3.4632   -8.5775    2.1921 N   0  0  0  0  0  0  0  0  0  0  0  0
    3.8108   -7.4429    1.5726 C   0  0  0  0  0  0  0  0  0  0  0  0
    4.8824   -7.2852    0.9890 O   0  0  0  0  0  0  0  0  0  0  0  0
    2.7371   -6.3345    1.6327 C   0  0  2  0  0  0  0  0  0  0  0  0
    2.9708   -5.1213    0.7003 C   0  0  0  0  0  0  0  0  0  0  0  0
    4.0749   -4.1410    1.1654 C   0  0  1  0  0  0  0  0  0  0  0  0
    4.2295   -3.0400    0.1963 N   0  0  0  0  0  0  0  0  0  0  0  0
    4.6174   -3.4327   -1.1739 C   0  0  0  0  0  0  0  0  0  0  0  0
    3.5522   -3.1953   -2.2295 C   0  0  0  0  0  0  0  0  0  0  0  0
    3.8706   -3.3887   -3.6952 C   0  0  0  0  0  0  0  0  0  0  0  0
    3.6233   -1.9996   -3.1581 C   0  0  0  0  0  0  0  0  0  0  0  0
    4.1645   -1.7255    0.5069 C   0  0  0  0  0  0  0  0  0  0  0  0
    4.3735   -0.8417   -0.3295 O   0  0  0  0  0  0  0  0  0  0  0  0
    3.8689   -1.3384    1.9234 C   0  0  0  0  0  0  0  0  0  0  0  0
    3.7344    0.0388    2.2354 C   0  0  0  0  0  0  0  0  0  0  0  0
    3.5103    0.4620    3.5530 C   0  0  0  0  0  0  0  0  0  0  0  0
    3.3967    1.7784    3.8528 F   0  0  0  0  0  0  0  0  0  0  0  0
    3.4081   -0.4932    4.5724 C   0  0  0  0  0  0  0  0  0  0  0  0
    3.5394   -1.8579    4.2701 C   0  0  0  0  0  0  0  0  0  0  0  0
    3.7620   -2.3104    2.9485 C   0  0  0  0  0  0  0  0  0  0  0  0
    3.8586   -3.7964    2.6432 C   0  0  2  0  0  0  0  0  0  0  0  0
    4.6149   -4.7067    3.5945 C   0  0  0  0  0  0  0  0  0  0  0  0
    3.1182   -4.7787    3.5757 C   0  0  2  0  0  0  0  0  0  0  0  0
    2.4317   -5.9645    3.0432 N   0  0  0  0  0  0  0  0  0  0  0  0
    0.9968   -5.8562    3.3141 C   0  0  0  0  0  0  0  0  0  0  0  0
    0.2648   -7.1537    3.1488 C   0  0  0  0  0  0  0  0  0  0  0  0
    0.5706   -8.4398    3.4937 C   0  0  0  0  0  0  0  0  0  0  0  0
   -0.5012   -9.2474    3.0273 C   0  0  0  0  0  0  0  0  0  0  0  0
   -1.4098   -8.3896    2.4859 C   0  0  0  0  0  0  0  0  0  0  0  0
   -0.9613   -7.1011    2.5479 O   0  0  0  0  0  0  0  0  0  0  0  0
    4.5898   -9.8897    3.3711 H   0  0  0  0  0  0  0  0  0  0  0  0
    5.1446   -9.7665    1.6891 H   0  0  0  0  0  0  0  0  0  0  0  0
    3.6659  -10.6567    2.0810 H   0  0  0  0  0  0  0  0  0  0  0  0
    2.5474   -8.6001    2.6123 H   0  0  0  0  0  0  0  0  0  0  0  0
    1.8693   -6.8275    1.1921 H   0  0  0  0  0  0  0  0  0  0  0  0
    3.2268   -5.5288   -0.2775 H   0  0  0  0  0  0  0  0  0  0  0  0
    2.0336   -4.5817    0.5406 H   0  0  0  0  0  0  0  0  0  0  0  0
    5.0234   -4.6756    1.1058 H   0  0  0  0  0  0  0  0  0  0  0  0
    5.5197   -2.8821   -1.4489 H   0  0  0  0  0  0  0  0  0  0  0  0
    4.9184   -4.4818   -1.2203 H   0  0  0  0  0  0  0  0  0  0  0  0
    2.5511   -3.5117   -1.9249 H   0  0  0  0  0  0  0  0  0  0  0  0
    4.8924   -3.6743   -3.9482 H   0  0  0  0  0  0  0  0  0  0  0  0
    3.0915   -3.8314   -4.3121 H   0  0  0  0  0  0  0  0  0  0  0  0
    2.6788   -1.5179   -3.4035 H   0  0  0  0  0  0  0  0  0  0  0  0
    4.4759   -1.3266   -3.0501 H   0  0  0  0  0  0  0  0  0  0  0  0
    3.8266    0.7898    1.4661 H   0  0  0  0  0  0  0  0  0  0  0  0
    3.2414   -0.1795    5.5878 H   0  0  0  0  0  0  0  0  0  0  0  0
    3.4671   -2.5461    5.0969 H   0  0  0  0  0  0  0  0  0  0  0  0
    5.1789   -5.5423    3.1870 H   0  0  0  0  0  0  0  0  0  0  0  0
    5.0922   -4.2147    4.4347 H   0  0  0  0  0  0  0  0  0  0  0  0
    2.7176   -4.3917    4.5066 H   0  0  0  0  0  0  0  0  0  0  0  0
    0.8375   -5.5259    4.3452 H   0  0  0  0  0  0  0  0  0  0  0  0
    0.5715   -5.0925    2.6673 H   0  0  0  0  0  0  0  0  0  0  0  0
    1.4712   -8.7580    4.0006 H   0  0  0  0  0  0  0  0  0  0  0  0
   -0.5969  -10.3233    3.0870 H   0  0  0  0  0  0  0  0  0  0  0  0
   -2.3775   -8.5361    2.0273 H   0  0  0  0  0  0  0  0  0  0  0  0
  1  2  1  0
  1 32  1  0
  1 33  1  0
  1 34  1  0
  2  3  1  0
  2 35  1  0
  3  4  2  0
  3  5  1  0
  5 25  1  0
  5  6  1  0
  5 36  1  6
  6  7  1  0
  6 37  1  0
  6 38  1  0
  7 22  1  0
  7  8  1  0
  7 39  1  1
  8  9  1  0
  8 13  1  0
  9 10  1  0
  9 40  1  0
  9 41  1  0
 10 12  1  0
 10 11  1  0
 10 42  1  0
 11 12  1  0
 11 43  1  0
 11 44  1  0
 12 45  1  0
 12 46  1  0
 13 14  2  0
 13 15  1  0
 15 21  2  0
 15 16  1  0
 16 17  2  0
 16 47  1  0
 17 18  1  0
 17 19  1  0
 19 20  2  0
 19 48  1  0
 20 21  1  0
 20 49  1  0
 21 22  1  0
 22 24  1  0
 22 23  1  1
 23 24  1  0
 23 50  1  0
 23 51  1  0
 24 25  1  0
 24 52  1  1
 25 26  1  0
 26 27  1  0
 26 53  1  0
 26 54  1  0
 27 31  1  0
 27 28  2  0
 28 29  1  0
 28 55  1  0
 29 30  2  0
 29 56  1  0
 30 31  1  0
 30 57  1  0
M  END
>  <i_m_ct_stereo_status>  (492) 
1

>  <s_m_source_file>  (492) 
/var/tmp/pbs.5102264.sched01/tmpspb9n5yc/161wrz3epul.sdf

>  <i_m_source_file_index>  (492) 
16

>  <i_lp_mmshare_version>  (492) 
48012

>  <i_f3d_flags>  (492) 
0

>  <s_epik_input>  (492) 
bzFbY0hdW2NIXVtjSF1jMVtDSDJdTihbQ0BASF0yW0NIMl0zKVtDQEhdKEMoPU8pW05IXVtDSDNdKVtDSDJdW0NASF0oW0NAQF0yMzQpTihbQ0gyXVtDSF01W0NIMl1bQ0gyXTUpQyg9TyljNmM0W2NIXVtjSF1jKEYpW2NIXTY=

>  <s_epik_cmdline>  (492) 
J2VwaWtfcHl0aG9uJywgJy1waHQnLCAnMi4wJywgJy1waCcsICc3LjAnLCAnLXRuJywgJzgnLCAnLW1hJywgJzIwMCcsICctaW1hZScsICc8aW5maWxlLm1hZT4nLCAnLW9tYWUnLCAnPG91dGZpbGUubWFlPic=

>  <r_epik_Ionization_Penalty>  (492) 
0.578709

>  <r_epik_Ionization_Penalty_Charging>  (492) 
0

>  <r_epik_Ionization_Penalty_Neutral>  (492) 
0.578709

>  <r_epik_State_Penalty>  (492) 
0.591284

>  <r_epik_Charging_Adjusted_Penalty>  (492) 
0.591284

>  <i_epik_Tot_Q>  (492) 
0

>  <i_epik_Tot_abs_Q>  (492) 
0

>  <s_lp_Force_Field>  (492) 
OPLS3e

>  <r_lp_Energy>  (492) 
59.3886

>  <b_lp_Chiralities_Consistent>  (492) 
1

>  <s_lp_Variant>  (492) 
104:0-4

>  <s_i_glide_gridfile>  (492) 
pfpi4k_grid

>  <i_i_glide_lignum>  (492) 
16

>  <i_i_glide_rotatable_bonds>  (492) 
6

>  <r_i_docking_score>  (492) 
-2.43087

>  <r_i_glide_ligand_efficiency>  (492) 
-0.0784152

>  <r_i_glide_ligand_efficiency_sa>  (492) 
-0.246332

>  <r_i_glide_ligand_efficiency_ln>  (492) 
-0.548236

>  <r_i_glide_gscore>  (492) 
-2.43087

>  <r_i_glide_lipo>  (492) 
-0.348198

>  <r_i_glide_hbond>  (492) 
-0.16

>  <r_i_glide_metal>  (492) 
-0

>  <r_i_glide_rewards>  (492) 
-0.610081

>  <r_i_glide_evdw>  (492) 
-32.7109

>  <r_i_glide_ecoul>  (492) 
-1.25284

>  <r_i_glide_erotb>  (492) 
0.55259

>  <r_i_glide_esite>  (492) 
-0.0417108

>  <r_i_glide_emodel>  (492) 
-38.7035

>  <r_i_glide_energy>  (492) 
-33.9637

>  <r_i_glide_einternal>  (492) 
0.22427

>  <r_i_glide_intrahb_reward>  (492) 
-0

>  <i_i_glide_confnum>  (492) 
1

>  <i_i_glide_posenum>  (492) 
37

>  <r_i_glide_eff_state_penalty>  (492) 
0

>  <ligand_id>  (492) 
104

>  <original_smiles>  (492) 
CNC(=O)C1CC2N(CC3CC3)C(=O)c3cc(F)ccc3C23CC3N1Cc1ccco1

>  <smiles>  (492) 
[H]c1oc(C([H])([H])N2C([H])(C(=O)N([H])C([H])([H])[H])C([H])([H])C3([H])N(C([H])([H])C4([H])C([H])([H])C4([H])[H])C(=O)c4c([H])c(F)c([H])c([H])c4C34C([H])([H])C24[H])c([H])c1[H]

$$$$
105:0:0
     RDKit          3D

 22 23  0  0  1  0  0  0  0  0999 V2000
    0.6655  -10.4798    4.0101 O   0  0  0  0  0  0  0  0  0  0  0  0
    0.6888   -9.6182    3.1385 C   0  0  0  0  0  0  0  0  0  0  0  0
   -0.3765   -8.8478    2.8384 N   0  0  0  0  0  0  0  0  0  0  0  0
   -0.3994   -7.7179    1.9044 C   0  0  1  0  0  0  0  0  0  0  0  0
   -0.8644   -6.6646    2.5263 O   0  0  0  0  0  0  0  0  0  0  0  0
    1.0060   -7.2870    1.3926 C   0  0  0  0  0  0  0  0  0  0  0  0
    1.1460   -6.2493    0.7400 O   0  0  0  0  0  0  0  0  0  0  0  0
    2.0573   -8.0877    1.6947 N   0  0  0  0  0  0  0  0  0  0  0  0
    3.4735   -7.7308    1.5324 C   0  0  0  0  0  0  0  0  0  0  0  0
    4.2768   -8.9445    2.0348 C   0  0  1  0  0  0  0  0  0  0  0  0
    5.4564   -8.5571    2.7099 O   0  0  0  0  0  0  0  0  0  0  0  0
    3.3111   -9.6666    2.9682 C   0  0  0  0  0  0  0  0  0  0  0  0
    1.9526   -9.4145    2.2955 C   0  0  1  0  0  0  0  0  0  0  0  0
   -1.2072   -9.0134    3.3846 H   0  0  0  0  0  0  0  0  0  0  0  0
   -0.8721   -8.1501    1.0218 H   0  0  0  0  0  0  0  0  0  0  0  0
    3.7297   -7.4918    0.5001 H   0  0  0  0  0  0  0  0  0  0  0  0
    3.6731   -6.8459    2.1387 H   0  0  0  0  0  0  0  0  0  0  0  0
    4.5342   -9.5945    1.1954 H   0  0  0  0  0  0  0  0  0  0  0  0
    5.9096   -9.3329    3.0006 H   0  0  0  0  0  0  0  0  0  0  0  0
    3.5518  -10.7250    3.0738 H   0  0  0  0  0  0  0  0  0  0  0  0
    3.3221   -9.2174    3.9618 H   0  0  0  0  0  0  0  0  0  0  0  0
    1.8804  -10.1225    1.4696 H   0  0  0  0  0  0  0  0  0  0  0  0
  1  2  2  0
  2 13  1  0
  2  3  1  0
  3  4  1  0
  3 14  1  0
  4  5  1  0
  4  6  1  0
  4 15  1  6
  6  7  2  0
  6  8  1  0
  8 13  1  0
  8  9  1  0
  9 10  1  0
  9 16  1  0
  9 17  1  0
 10 11  1  0
 10 12  1  0
 10 18  1  6
 11 19  1  0
 12 13  1  0
 12 20  1  0
 12 21  1  0
 13 22  1  6
M  CHG  1   5  -1
M  END
>  <i_m_ct_stereo_status>  (493) 
1

>  <s_m_source_file>  (493) 
/var/tmp/pbs.5102264.sched01/tmpspb9n5yc/161wrz3epul.sdf

>  <i_m_source_file_index>  (493) 
17

>  <i_lp_mmshare_version>  (493) 
48012

>  <i_f3d_flags>  (493) 
0

>  <s_epik_input>  (493) 
W0NIMl0xW0NAQEhdKFtPSF0pW0NIMl1bQ0BIXShOMTIpQyg9TylbTkhdW0NAQEhdKFtPSF0pQzI9Tw==

>  <s_epik_cmdline>  (493) 
J2VwaWtfcHl0aG9uJywgJy1waHQnLCAnMi4wJywgJy1waCcsICc3LjAnLCAnLXRuJywgJzgnLCAnLW1hJywgJzIwMCcsICctaW1hZScsICc8aW5maWxlLm1hZT4nLCAnLW9tYWUnLCAnPG91dGZpbGUubWFlPic=

>  <r_epik_Ionization_Penalty>  (493) 
0.295259

>  <r_epik_Ionization_Penalty_Charging>  (493) 
0.295259

>  <r_epik_Ionization_Penalty_Neutral>  (493) 
3.28969e-07

>  <r_epik_State_Penalty>  (493) 
0.288504

>  <r_epik_Charging_Adjusted_Penalty>  (493) 
0.583762

>  <i_epik_Tot_Q>  (493) 
-1

>  <i_epik_Tot_abs_Q>  (493) 
1

>  <s_epik_Chemistry_Notes>  (493) 
This compound contains an acetal/aminal-like group ( X-CH(R)-Y where X, Y are N, S, or O) that may be acid/base labile, releasing an aldehyde.

>  <s_lp_Force_Field>  (493) 
OPLS3e

>  <r_lp_Energy>  (493) 
25.6224

>  <b_lp_Chiralities_Consistent>  (493) 
1

>  <s_lp_Variant>  (493) 
105:0-1

>  <s_i_glide_gridfile>  (493) 
pfpi4k_grid

>  <i_i_glide_lignum>  (493) 
17

>  <i_i_glide_rotatable_bonds>  (493) 
1

>  <r_i_docking_score>  (493) 
-4.82861

>  <r_i_glide_ligand_efficiency>  (493) 
-0.371431

>  <r_i_glide_ligand_efficiency_sa>  (493) 
-0.873359

>  <r_i_glide_ligand_efficiency_ln>  (493) 
-1.35447

>  <r_i_glide_gscore>  (493) 
-4.82861

>  <r_i_glide_lipo>  (493) 
-0.0966697

>  <r_i_glide_hbond>  (493) 
-0.36

>  <r_i_glide_metal>  (493) 
-0

>  <r_i_glide_rewards>  (493) 
-2.14665

>  <r_i_glide_evdw>  (493) 
-16.7668

>  <r_i_glide_ecoul>  (493) 
-7.9345

>  <r_i_glide_erotb>  (493) 
0

>  <r_i_glide_esite>  (493) 
-0.196768

>  <r_i_glide_emodel>  (493) 
-36.7004

>  <r_i_glide_energy>  (493) 
-24.7013

>  <r_i_glide_einternal>  (493) 
0.314139

>  <r_i_glide_intrahb_reward>  (493) 
-0

>  <i_i_glide_confnum>  (493) 
1

>  <i_i_glide_posenum>  (493) 
27

>  <r_i_glide_eff_state_penalty>  (493) 
0

>  <ligand_id>  (493) 
105

>  <original_smiles>  (493) 
O=C1NC(O)C(=O)N2CC(O)CC12

>  <smiles>  (493) 
[H]OC1([H])C([H])([H])N2C(=O)C([H])([O-])N([H])C(=O)C2([H])C1([H])[H]

$$$$
105:0:1
     RDKit          3D

 22 23  0  0  1  0  0  0  0  0999 V2000
    7.5684   -2.2553   -0.9587 O   0  0  0  0  0  0  0  0  0  0  0  0
    6.5000   -2.6647   -0.4948 C   0  0  0  0  0  0  0  0  0  0  0  0
    6.2281   -2.6820    0.8125 N   0  0  0  0  0  0  0  0  0  0  0  0
    4.9408   -2.9832    1.4224 C   0  0  1  0  0  0  0  0  0  0  0  0
    4.6420   -1.9426    2.1484 O   0  0  0  0  0  0  0  0  0  0  0  0
    3.7660   -3.1391    0.4137 C   0  0  0  0  0  0  0  0  0  0  0  0
    2.5968   -3.2435    0.8034 O   0  0  0  0  0  0  0  0  0  0  0  0
    4.0720   -3.1666   -0.8973 N   0  0  0  0  0  0  0  0  0  0  0  0
    3.1116   -3.0531   -2.0034 C   0  0  0  0  0  0  0  0  0  0  0  0
    3.9478   -3.1054   -3.2897 C   0  0  1  0  0  0  0  0  0  0  0  0
    3.4561   -2.2615   -4.3078 O   0  0  0  0  0  0  0  0  0  0  0  0
    5.3368   -2.6690   -2.8414 C   0  0  0  0  0  0  0  0  0  0  0  0
    5.4302   -3.2391   -1.4294 C   0  0  1  0  0  0  0  0  0  0  0  0
    6.9065   -2.2795    1.4411 H   0  0  0  0  0  0  0  0  0  0  0  0
    5.0789   -3.9837    1.8121 H   0  0  0  0  0  0  0  0  0  0  0  0
    2.3691   -3.8497   -1.9735 H   0  0  0  0  0  0  0  0  0  0  0  0
    2.5991   -2.0952   -1.9039 H   0  0  0  0  0  0  0  0  0  0  0  0
    3.9904   -4.1289   -3.6604 H   0  0  0  0  0  0  0  0  0  0  0  0
    2.5422   -2.4693   -4.4653 H   0  0  0  0  0  0  0  0  0  0  0  0
    6.1187   -3.0419   -3.5033 H   0  0  0  0  0  0  0  0  0  0  0  0
    5.4009   -1.5811   -2.8006 H   0  0  0  0  0  0  0  0  0  0  0  0
    5.6651   -4.2979   -1.5220 H   0  0  0  0  0  0  0  0  0  0  0  0
  1  2  2  0
  2 13  1  0
  2  3  1  0
  3  4  1  0
  3 14  1  0
  4  5  1  0
  4  6  1  0
  4 15  1  1
  6  7  2  0
  6  8  1  0
  8 13  1  0
  8  9  1  0
  9 10  1  0
  9 16  1  0
  9 17  1  0
 10 11  1  0
 10 12  1  0
 10 18  1  6
 11 19  1  0
 12 13  1  0
 12 20  1  0
 12 21  1  0
 13 22  1  6
M  CHG  1   5  -1
M  END
>  <i_m_ct_stereo_status>  (494) 
1

>  <s_m_source_file>  (494) 
/var/tmp/pbs.5102264.sched01/tmpspb9n5yc/161wrz3epul.sdf

>  <i_m_source_file_index>  (494) 
17

>  <i_lp_mmshare_version>  (494) 
48012

>  <i_f3d_flags>  (494) 
0

>  <s_epik_input>  (494) 
W0NIMl0xW0NAQEhdKFtPSF0pW0NIMl1bQ0BIXShOMTIpQyg9TylbTkhdW0NAQEhdKFtPSF0pQzI9Tw==

>  <s_epik_cmdline>  (494) 
J2VwaWtfcHl0aG9uJywgJy1waHQnLCAnMi4wJywgJy1waCcsICc3LjAnLCAnLXRuJywgJzgnLCAnLW1hJywgJzIwMCcsICctaW1hZScsICc8aW5maWxlLm1hZT4nLCAnLW9tYWUnLCAnPG91dGZpbGUubWFlPic=

>  <r_epik_Ionization_Penalty>  (494) 
0.295259

>  <r_epik_Ionization_Penalty_Charging>  (494) 
0.295259

>  <r_epik_Ionization_Penalty_Neutral>  (494) 
3.28969e-07

>  <r_epik_State_Penalty>  (494) 
0.288504

>  <r_epik_Charging_Adjusted_Penalty>  (494) 
0.583762

>  <i_epik_Tot_Q>  (494) 
-1

>  <i_epik_Tot_abs_Q>  (494) 
1

>  <s_epik_Chemistry_Notes>  (494) 
This compound contains an acetal/aminal-like group ( X-CH(R)-Y where X, Y are N, S, or O) that may be acid/base labile, releasing an aldehyde.

>  <s_lp_Force_Field>  (494) 
OPLS3e

>  <r_lp_Energy>  (494) 
25.6224

>  <b_lp_Chiralities_Consistent>  (494) 
1

>  <s_lp_Variant>  (494) 
105:0-1

>  <s_i_glide_gridfile>  (494) 
pfpi4k_grid

>  <i_i_glide_lignum>  (494) 
17

>  <i_i_glide_rotatable_bonds>  (494) 
1

>  <r_i_docking_score>  (494) 
-4.67666

>  <r_i_glide_ligand_efficiency>  (494) 
-0.359743

>  <r_i_glide_ligand_efficiency_sa>  (494) 
-0.845876

>  <r_i_glide_ligand_efficiency_ln>  (494) 
-1.31184

>  <r_i_glide_gscore>  (494) 
-4.67666

>  <r_i_glide_lipo>  (494) 
-0.334271

>  <r_i_glide_hbond>  (494) 
-0.515211

>  <r_i_glide_metal>  (494) 
-0

>  <r_i_glide_rewards>  (494) 
-2.19234

>  <r_i_glide_evdw>  (494) 
-18.7873

>  <r_i_glide_ecoul>  (494) 
-4.55606

>  <r_i_glide_erotb>  (494) 
0

>  <r_i_glide_esite>  (494) 
-0.0120564

>  <r_i_glide_emodel>  (494) 
-34.9435

>  <r_i_glide_energy>  (494) 
-23.3434

>  <r_i_glide_einternal>  (494) 
0.361619

>  <r_i_glide_intrahb_reward>  (494) 
-0

>  <i_i_glide_confnum>  (494) 
1

>  <i_i_glide_posenum>  (494) 
16

>  <r_i_glide_eff_state_penalty>  (494) 
0

>  <ligand_id>  (494) 
105

>  <original_smiles>  (494) 
O=C1NC(O)C(=O)N2CC(O)CC12

>  <smiles>  (494) 
[H]OC1([H])C([H])([H])N2C(=O)C([H])([O-])N([H])C(=O)C2([H])C1([H])[H]

$$$$
105:0:2
     RDKit          3D

 22 23  0  0  1  0  0  0  0  0999 V2000
    7.5930   -2.2579   -0.8165 O   0  0  0  0  0  0  0  0  0  0  0  0
    6.5166   -2.6445   -0.3538 C   0  0  0  0  0  0  0  0  0  0  0  0
    6.2339   -2.6184    0.9523 N   0  0  0  0  0  0  0  0  0  0  0  0
    4.9389   -2.8925    1.5612 C   0  0  1  0  0  0  0  0  0  0  0  0
    4.6405   -1.8268    2.2552 O   0  0  0  0  0  0  0  0  0  0  0  0
    3.7725   -3.0712    0.5479 C   0  0  0  0  0  0  0  0  0  0  0  0
    2.5998   -3.1515    0.9297 O   0  0  0  0  0  0  0  0  0  0  0  0
    4.0881   -3.1408   -0.7592 N   0  0  0  0  0  0  0  0  0  0  0  0
    3.1364   -3.0539   -1.8757 C   0  0  0  0  0  0  0  0  0  0  0  0
    3.9877   -3.1389   -3.1546 C   0  0  1  0  0  0  0  0  0  0  0  0
    3.5078   -2.3133   -4.1928 O   0  0  0  0  0  0  0  0  0  0  0  0
    5.3738   -2.7029   -2.7105 C   0  0  0  0  0  0  0  0  0  0  0  0
    5.4505   -3.2380   -1.2807 C   0  0  1  0  0  0  0  0  0  0  0  0
    6.9120   -2.2030    1.5735 H   0  0  0  0  0  0  0  0  0  0  0  0
    5.0667   -3.8794    1.9882 H   0  0  0  0  0  0  0  0  0  0  0  0
    2.3916   -3.8490   -1.8336 H   0  0  0  0  0  0  0  0  0  0  0  0
    2.6141   -2.0969   -1.8040 H   0  0  0  0  0  0  0  0  0  0  0  0
    4.0296   -4.1723   -3.5048 H   0  0  0  0  0  0  0  0  0  0  0  0
    3.1089   -1.5428   -3.8133 H   0  0  0  0  0  0  0  0  0  0  0  0
    6.1615   -3.0941   -3.3539 H   0  0  0  0  0  0  0  0  0  0  0  0
    5.4334   -1.6156   -2.7057 H   0  0  0  0  0  0  0  0  0  0  0  0
    5.6791   -4.3023   -1.3372 H   0  0  0  0  0  0  0  0  0  0  0  0
  1  2  2  0
  2 13  1  0
  2  3  1  0
  3  4  1  0
  3 14  1  0
  4  5  1  0
  4  6  1  0
  4 15  1  1
  6  7  2  0
  6  8  1  0
  8 13  1  0
  8  9  1  0
  9 10  1  0
  9 16  1  0
  9 17  1  0
 10 11  1  0
 10 12  1  0
 10 18  1  6
 11 19  1  0
 12 13  1  0
 12 20  1  0
 12 21  1  0
 13 22  1  6
M  CHG  1   5  -1
M  END
>  <i_m_ct_stereo_status>  (495) 
1

>  <s_m_source_file>  (495) 
/var/tmp/pbs.5102264.sched01/tmpspb9n5yc/161wrz3epul.sdf

>  <i_m_source_file_index>  (495) 
17

>  <i_lp_mmshare_version>  (495) 
48012

>  <i_f3d_flags>  (495) 
0

>  <s_epik_input>  (495) 
W0NIMl0xW0NAQEhdKFtPSF0pW0NIMl1bQ0BIXShOMTIpQyg9TylbTkhdW0NAQEhdKFtPSF0pQzI9Tw==

>  <s_epik_cmdline>  (495) 
J2VwaWtfcHl0aG9uJywgJy1waHQnLCAnMi4wJywgJy1waCcsICc3LjAnLCAnLXRuJywgJzgnLCAnLW1hJywgJzIwMCcsICctaW1hZScsICc8aW5maWxlLm1hZT4nLCAnLW9tYWUnLCAnPG91dGZpbGUubWFlPic=

>  <r_epik_Ionization_Penalty>  (495) 
0.295259

>  <r_epik_Ionization_Penalty_Charging>  (495) 
0.295259

>  <r_epik_Ionization_Penalty_Neutral>  (495) 
3.28969e-07

>  <r_epik_State_Penalty>  (495) 
0.288504

>  <r_epik_Charging_Adjusted_Penalty>  (495) 
0.583762

>  <i_epik_Tot_Q>  (495) 
-1

>  <i_epik_Tot_abs_Q>  (495) 
1

>  <s_epik_Chemistry_Notes>  (495) 
This compound contains an acetal/aminal-like group ( X-CH(R)-Y where X, Y are N, S, or O) that may be acid/base labile, releasing an aldehyde.

>  <s_lp_Force_Field>  (495) 
OPLS3e

>  <r_lp_Energy>  (495) 
25.6224

>  <b_lp_Chiralities_Consistent>  (495) 
1

>  <s_lp_Variant>  (495) 
105:0-1

>  <s_i_glide_gridfile>  (495) 
pfpi4k_grid

>  <i_i_glide_lignum>  (495) 
17

>  <i_i_glide_rotatable_bonds>  (495) 
1

>  <r_i_docking_score>  (495) 
-4.39406

>  <r_i_glide_ligand_efficiency>  (495) 
-0.338005

>  <r_i_glide_ligand_efficiency_sa>  (495) 
-0.794762

>  <r_i_glide_ligand_efficiency_ln>  (495) 
-1.23257

>  <r_i_glide_gscore>  (495) 
-4.39406

>  <r_i_glide_lipo>  (495) 
-0.303717

>  <r_i_glide_hbond>  (495) 
-0.453321

>  <r_i_glide_metal>  (495) 
-0

>  <r_i_glide_rewards>  (495) 
-2.20886

>  <r_i_glide_evdw>  (495) 
-19.0905

>  <r_i_glide_ecoul>  (495) 
-3.10315

>  <r_i_glide_erotb>  (495) 
0

>  <r_i_glide_esite>  (495) 
-0.00816718

>  <r_i_glide_emodel>  (495) 
-32.8739

>  <r_i_glide_energy>  (495) 
-22.1937

>  <r_i_glide_einternal>  (495) 
0.430475

>  <r_i_glide_intrahb_reward>  (495) 
-0

>  <i_i_glide_confnum>  (495) 
2

>  <i_i_glide_posenum>  (495) 
28

>  <r_i_glide_eff_state_penalty>  (495) 
0

>  <ligand_id>  (495) 
105

>  <original_smiles>  (495) 
O=C1NC(O)C(=O)N2CC(O)CC12

>  <smiles>  (495) 
[H]OC1([H])C([H])([H])N2C(=O)C([H])([O-])N([H])C(=O)C2([H])C1([H])[H]

$$$$
105:1:0
     RDKit          3D

 23 24  0  0  1  0  0  0  0  0999 V2000
    7.5585   -2.2604   -0.9720 O   0  0  0  0  0  0  0  0  0  0  0  0
    6.4976   -2.6656   -0.5230 C   0  0  0  0  0  0  0  0  0  0  0  0
    6.2303   -2.6806    0.7895 N   0  0  0  0  0  0  0  0  0  0  0  0
    4.9242   -2.9674    1.3980 C   0  0  1  0  0  0  0  0  0  0  0  0
    4.5823   -1.9592    2.3238 O   0  0  0  0  0  0  0  0  0  0  0  0
    3.7593   -3.1669    0.3930 C   0  0  0  0  0  0  0  0  0  0  0  0
    2.6040   -3.2712    0.8010 O   0  0  0  0  0  0  0  0  0  0  0  0
    4.0646   -3.1769   -0.9165 N   0  0  0  0  0  0  0  0  0  0  0  0
    3.1025   -3.0529   -2.0134 C   0  0  0  0  0  0  0  0  0  0  0  0
    3.9441   -3.1045   -3.2948 C   0  0  1  0  0  0  0  0  0  0  0  0
    3.4605   -2.2491   -4.3088 O   0  0  0  0  0  0  0  0  0  0  0  0
    5.3320   -2.6705   -2.8452 C   0  0  0  0  0  0  0  0  0  0  0  0
    5.4260   -3.2527   -1.4407 C   0  0  1  0  0  0  0  0  0  0  0  0
    6.9602   -2.3443    1.3992 H   0  0  0  0  0  0  0  0  0  0  0  0
    5.0234   -3.9120    1.9338 H   0  0  0  0  0  0  0  0  0  0  0  0
    5.3257   -1.7549    2.8668 H   0  0  0  0  0  0  0  0  0  0  0  0
    2.3563   -3.8444   -1.9848 H   0  0  0  0  0  0  0  0  0  0  0  0
    2.5989   -2.0911   -1.9085 H   0  0  0  0  0  0  0  0  0  0  0  0
    3.9886   -4.1310   -3.6610 H   0  0  0  0  0  0  0  0  0  0  0  0
    2.5490   -2.4405   -4.4768 H   0  0  0  0  0  0  0  0  0  0  0  0
    6.1175   -3.0384   -3.5055 H   0  0  0  0  0  0  0  0  0  0  0  0
    5.3906   -1.5818   -2.7918 H   0  0  0  0  0  0  0  0  0  0  0  0
    5.6575   -4.3149   -1.5418 H   0  0  0  0  0  0  0  0  0  0  0  0
  1  2  2  0
  2 13  1  0
  2  3  1  0
  3  4  1  0
  3 14  1  0
  4  5  1  0
  4  6  1  0
  4 15  1  1
  5 16  1  0
  6  7  2  0
  6  8  1  0
  8 13  1  0
  8  9  1  0
  9 10  1  0
  9 17  1  0
  9 18  1  0
 10 11  1  0
 10 12  1  0
 10 19  1  6
 11 20  1  0
 12 13  1  0
 12 21  1  0
 12 22  1  0
 13 23  1  6
M  END
>  <i_m_ct_stereo_status>  (496) 
1

>  <s_m_source_file>  (496) 
/var/tmp/pbs.5102264.sched01/tmpspb9n5yc/161wrz3epul.sdf

>  <i_m_source_file_index>  (496) 
18

>  <i_lp_mmshare_version>  (496) 
48012

>  <i_f3d_flags>  (496) 
0

>  <s_epik_input>  (496) 
W0NIMl0xW0NAQEhdKFtPSF0pW0NIMl1bQ0BIXShOMTIpQyg9TylbTkhdW0NAQEhdKFtPSF0pQzI9Tw==

>  <s_epik_cmdline>  (496) 
J2VwaWtfcHl0aG9uJywgJy1waHQnLCAnMi4wJywgJy1waCcsICc3LjAnLCAnLXRuJywgJzgnLCAnLW1hJywgJzIwMCcsICctaW1hZScsICc8aW5maWxlLm1hZT4nLCAnLW9tYWUnLCAnPG91dGZpbGUubWFlPic=

>  <r_epik_Ionization_Penalty>  (496) 
0.554163

>  <r_epik_Ionization_Penalty_Charging>  (496) 
0

>  <r_epik_Ionization_Penalty_Neutral>  (496) 
0.554163

>  <r_epik_State_Penalty>  (496) 
0.564774

>  <r_epik_Charging_Adjusted_Penalty>  (496) 
0.564774

>  <i_epik_Tot_Q>  (496) 
0

>  <i_epik_Tot_abs_Q>  (496) 
0

>  <s_epik_Chemistry_Notes>  (496) 
This compound contains an acetal/aminal-like group ( X-CH(R)-Y where X, Y are N, S, or O) that may be acid/base labile, releasing an aldehyde.

>  <s_lp_Force_Field>  (496) 
OPLS3e

>  <r_lp_Energy>  (496) 
11.0019

>  <b_lp_Chiralities_Consistent>  (496) 
1

>  <s_lp_Variant>  (496) 
105:0-2

>  <s_i_glide_gridfile>  (496) 
pfpi4k_grid

>  <i_i_glide_lignum>  (496) 
18

>  <i_i_glide_rotatable_bonds>  (496) 
2

>  <r_i_docking_score>  (496) 
-4.87425

>  <r_i_glide_ligand_efficiency>  (496) 
-0.374942

>  <r_i_glide_ligand_efficiency_sa>  (496) 
-0.881615

>  <r_i_glide_ligand_efficiency_ln>  (496) 
-1.36727

>  <r_i_glide_gscore>  (496) 
-4.87425

>  <r_i_glide_lipo>  (496) 
-0.339114

>  <r_i_glide_hbond>  (496) 
-0.521432

>  <r_i_glide_metal>  (496) 
-0

>  <r_i_glide_rewards>  (496) 
-2.18363

>  <r_i_glide_evdw>  (496) 
-19.4018

>  <r_i_glide_ecoul>  (496) 
-5.64862

>  <r_i_glide_erotb>  (496) 
0

>  <r_i_glide_esite>  (496) 
-0.0126935

>  <r_i_glide_emodel>  (496) 
-32.881

>  <r_i_glide_energy>  (496) 
-25.0505

>  <r_i_glide_einternal>  (496) 
0.373548

>  <r_i_glide_intrahb_reward>  (496) 
-0

>  <i_i_glide_confnum>  (496) 
1

>  <i_i_glide_posenum>  (496) 
18

>  <r_i_glide_eff_state_penalty>  (496) 
0

>  <ligand_id>  (496) 
105

>  <original_smiles>  (496) 
O=C1NC(O)C(=O)N2CC(O)CC12

>  <smiles>  (496) 
[H]OC1([H])C(=O)N2C([H])([H])C([H])(O[H])C([H])([H])C2([H])C(=O)N1[H]

$$$$
105:1:1
     RDKit          3D

 23 24  0  0  1  0  0  0  0  0999 V2000
    7.5672   -2.2568   -0.9257 O   0  0  0  0  0  0  0  0  0  0  0  0
    6.5022   -2.6576   -0.4592 C   0  0  0  0  0  0  0  0  0  0  0  0
    6.2376   -2.6355    0.8509 N   0  0  0  0  0  0  0  0  0  0  0  0
    4.9307   -2.8961    1.4675 C   0  0  1  0  0  0  0  0  0  0  0  0
    4.5965   -1.8627    2.3642 O   0  0  0  0  0  0  0  0  0  0  0  0
    3.7630   -3.1161    0.4689 C   0  0  0  0  0  0  0  0  0  0  0  0
    2.6085   -3.1992    0.8764 O   0  0  0  0  0  0  0  0  0  0  0  0
    4.0691   -3.1627   -0.8445 N   0  0  0  0  0  0  0  0  0  0  0  0
    3.1092   -3.0551   -1.9419 C   0  0  0  0  0  0  0  0  0  0  0  0
    3.9538   -3.1278   -3.2233 C   0  0  1  0  0  0  0  0  0  0  0  0
    3.4855   -2.2845   -4.2509 O   0  0  0  0  0  0  0  0  0  0  0  0
    5.3407   -2.6948   -2.7808 C   0  0  0  0  0  0  0  0  0  0  0  0
    5.4270   -3.2552   -1.3678 C   0  0  1  0  0  0  0  0  0  0  0  0
    6.9723   -2.2874    1.4482 H   0  0  0  0  0  0  0  0  0  0  0  0
    5.0294   -3.8260    2.0231 H   0  0  0  0  0  0  0  0  0  0  0  0
    5.3531   -1.6281    2.8808 H   0  0  0  0  0  0  0  0  0  0  0  0
    2.3578   -3.8442   -1.9003 H   0  0  0  0  0  0  0  0  0  0  0  0
    2.6101   -2.0892   -1.8493 H   0  0  0  0  0  0  0  0  0  0  0  0
    3.9932   -4.1610   -3.5741 H   0  0  0  0  0  0  0  0  0  0  0  0
    3.0850   -1.5208   -3.8588 H   0  0  0  0  0  0  0  0  0  0  0  0
    6.1222   -3.0738   -3.4393 H   0  0  0  0  0  0  0  0  0  0  0  0
    5.4095   -1.6063   -2.7489 H   0  0  0  0  0  0  0  0  0  0  0  0
    5.6569   -4.3183   -1.4433 H   0  0  0  0  0  0  0  0  0  0  0  0
  1  2  2  0
  2 13  1  0
  2  3  1  0
  3  4  1  0
  3 14  1  0
  4  5  1  0
  4  6  1  0
  4 15  1  1
  5 16  1  0
  6  7  2  0
  6  8  1  0
  8 13  1  0
  8  9  1  0
  9 10  1  0
  9 17  1  0
  9 18  1  0
 10 11  1  0
 10 12  1  0
 10 19  1  6
 11 20  1  0
 12 13  1  0
 12 21  1  0
 12 22  1  0
 13 23  1  6
M  END
>  <i_m_ct_stereo_status>  (497) 
1

>  <s_m_source_file>  (497) 
/var/tmp/pbs.5102264.sched01/tmpspb9n5yc/161wrz3epul.sdf

>  <i_m_source_file_index>  (497) 
18

>  <i_lp_mmshare_version>  (497) 
48012

>  <i_f3d_flags>  (497) 
0

>  <s_epik_input>  (497) 
W0NIMl0xW0NAQEhdKFtPSF0pW0NIMl1bQ0BIXShOMTIpQyg9TylbTkhdW0NAQEhdKFtPSF0pQzI9Tw==

>  <s_epik_cmdline>  (497) 
J2VwaWtfcHl0aG9uJywgJy1waHQnLCAnMi4wJywgJy1waCcsICc3LjAnLCAnLXRuJywgJzgnLCAnLW1hJywgJzIwMCcsICctaW1hZScsICc8aW5maWxlLm1hZT4nLCAnLW9tYWUnLCAnPG91dGZpbGUubWFlPic=

>  <r_epik_Ionization_Penalty>  (497) 
0.554163

>  <r_epik_Ionization_Penalty_Charging>  (497) 
0

>  <r_epik_Ionization_Penalty_Neutral>  (497) 
0.554163

>  <r_epik_State_Penalty>  (497) 
0.564774

>  <r_epik_Charging_Adjusted_Penalty>  (497) 
0.564774

>  <i_epik_Tot_Q>  (497) 
0

>  <i_epik_Tot_abs_Q>  (497) 
0

>  <s_epik_Chemistry_Notes>  (497) 
This compound contains an acetal/aminal-like group ( X-CH(R)-Y where X, Y are N, S, or O) that may be acid/base labile, releasing an aldehyde.

>  <s_lp_Force_Field>  (497) 
OPLS3e

>  <r_lp_Energy>  (497) 
11.0019

>  <b_lp_Chiralities_Consistent>  (497) 
1

>  <s_lp_Variant>  (497) 
105:0-2

>  <s_i_glide_gridfile>  (497) 
pfpi4k_grid

>  <i_i_glide_lignum>  (497) 
18

>  <i_i_glide_rotatable_bonds>  (497) 
2

>  <r_i_docking_score>  (497) 
-4.65632

>  <r_i_glide_ligand_efficiency>  (497) 
-0.358179

>  <r_i_glide_ligand_efficiency_sa>  (497) 
-0.842198

>  <r_i_glide_ligand_efficiency_ln>  (497) 
-1.30614

>  <r_i_glide_gscore>  (497) 
-4.65632

>  <r_i_glide_lipo>  (497) 
-0.324577

>  <r_i_glide_hbond>  (497) 
-0.48

>  <r_i_glide_metal>  (497) 
-0

>  <r_i_glide_rewards>  (497) 
-2.19248

>  <r_i_glide_evdw>  (497) 
-19.5748

>  <r_i_glide_ecoul>  (497) 
-4.46097

>  <r_i_glide_erotb>  (497) 
0

>  <r_i_glide_esite>  (497) 
-0.0113742

>  <r_i_glide_emodel>  (497) 
-31.3355

>  <r_i_glide_energy>  (497) 
-24.0357

>  <r_i_glide_einternal>  (497) 
0.386472

>  <r_i_glide_intrahb_reward>  (497) 
-0

>  <i_i_glide_confnum>  (497) 
2

>  <i_i_glide_posenum>  (497) 
34

>  <r_i_glide_eff_state_penalty>  (497) 
0

>  <ligand_id>  (497) 
105

>  <original_smiles>  (497) 
O=C1NC(O)C(=O)N2CC(O)CC12

>  <smiles>  (497) 
[H]OC1([H])C(=O)N2C([H])([H])C([H])(O[H])C([H])([H])C2([H])C(=O)N1[H]

$$$$
105:1:2
     RDKit          3D

 23 24  0  0  1  0  0  0  0  0999 V2000
    7.0838   -2.2222   -0.7818 O   0  0  0  0  0  0  0  0  0  0  0  0
    6.0658   -2.8702   -0.5572 C   0  0  0  0  0  0  0  0  0  0  0  0
    5.7652   -3.3586    0.6536 N   0  0  0  0  0  0  0  0  0  0  0  0
    4.4812   -3.9565    1.0469 C   0  0  1  0  0  0  0  0  0  0  0  0
    3.9952   -3.3546    2.2262 O   0  0  0  0  0  0  0  0  0  0  0  0
    3.3781   -3.9259   -0.0452 C   0  0  0  0  0  0  0  0  0  0  0  0
    2.2276   -4.2918    0.2172 O   0  0  0  0  0  0  0  0  0  0  0  0
    3.7142   -3.4524   -1.2568 N   0  0  0  0  0  0  0  0  0  0  0  0
    2.7770   -3.0520   -2.3069 C   0  0  0  0  0  0  0  0  0  0  0  0
    3.6479   -2.6061   -3.4779 C   0  0  1  0  0  0  0  0  0  0  0  0
    3.1080   -1.5198   -4.1949 O   0  0  0  0  0  0  0  0  0  0  0  0
    4.9622   -2.2107   -2.8229 C   0  0  0  0  0  0  0  0  0  0  0  0
    5.0864   -3.2143   -1.6846 C   0  0  1  0  0  0  0  0  0  0  0  0
    6.4351   -3.1762    1.3845 H   0  0  0  0  0  0  0  0  0  0  0  0
    4.6699   -5.0099    1.2412 H   0  0  0  0  0  0  0  0  0  0  0  0
    4.6992   -3.2781    2.8533 H   0  0  0  0  0  0  0  0  0  0  0  0
    2.1000   -3.8550   -2.5918 H   0  0  0  0  0  0  0  0  0  0  0  0
    2.1860   -2.2365   -1.9192 H   0  0  0  0  0  0  0  0  0  0  0  0
    3.8122   -3.4470   -4.1494 H   0  0  0  0  0  0  0  0  0  0  0  0
    2.2782   -1.7773   -4.5766 H   0  0  0  0  0  0  0  0  0  0  0  0
    5.7842   -2.2918   -3.5150 H   0  0  0  0  0  0  0  0  0  0  0  0
    4.9142   -1.1893   -2.4297 H   0  0  0  0  0  0  0  0  0  0  0  0
    5.4366   -4.1549   -2.1144 H   0  0  0  0  0  0  0  0  0  0  0  0
  1  2  2  0
  2 13  1  0
  2  3  1  0
  3  4  1  0
  3 14  1  0
  4  5  1  0
  4  6  1  0
  4 15  1  1
  5 16  1  0
  6  7  2  0
  6  8  1  0
  8 13  1  0
  8  9  1  0
  9 10  1  0
  9 17  1  0
  9 18  1  0
 10 11  1  0
 10 12  1  0
 10 19  1  6
 11 20  1  0
 12 13  1  0
 12 21  1  0
 12 22  1  0
 13 23  1  6
M  END
>  <i_m_ct_stereo_status>  (498) 
1

>  <s_m_source_file>  (498) 
/var/tmp/pbs.5102264.sched01/tmpspb9n5yc/161wrz3epul.sdf

>  <i_m_source_file_index>  (498) 
18

>  <i_lp_mmshare_version>  (498) 
48012

>  <i_f3d_flags>  (498) 
0

>  <s_epik_input>  (498) 
W0NIMl0xW0NAQEhdKFtPSF0pW0NIMl1bQ0BIXShOMTIpQyg9TylbTkhdW0NAQEhdKFtPSF0pQzI9Tw==

>  <s_epik_cmdline>  (498) 
J2VwaWtfcHl0aG9uJywgJy1waHQnLCAnMi4wJywgJy1waCcsICc3LjAnLCAnLXRuJywgJzgnLCAnLW1hJywgJzIwMCcsICctaW1hZScsICc8aW5maWxlLm1hZT4nLCAnLW9tYWUnLCAnPG91dGZpbGUubWFlPic=

>  <r_epik_Ionization_Penalty>  (498) 
0.554163

>  <r_epik_Ionization_Penalty_Charging>  (498) 
0

>  <r_epik_Ionization_Penalty_Neutral>  (498) 
0.554163

>  <r_epik_State_Penalty>  (498) 
0.564774

>  <r_epik_Charging_Adjusted_Penalty>  (498) 
0.564774

>  <i_epik_Tot_Q>  (498) 
0

>  <i_epik_Tot_abs_Q>  (498) 
0

>  <s_epik_Chemistry_Notes>  (498) 
This compound contains an acetal/aminal-like group ( X-CH(R)-Y where X, Y are N, S, or O) that may be acid/base labile, releasing an aldehyde.

>  <s_lp_Force_Field>  (498) 
OPLS3e

>  <r_lp_Energy>  (498) 
11.0019

>  <b_lp_Chiralities_Consistent>  (498) 
1

>  <s_lp_Variant>  (498) 
105:0-2

>  <s_i_glide_gridfile>  (498) 
pfpi4k_grid

>  <i_i_glide_lignum>  (498) 
18

>  <i_i_glide_rotatable_bonds>  (498) 
2

>  <r_i_docking_score>  (498) 
-4.57071

>  <r_i_glide_ligand_efficiency>  (498) 
-0.351593

>  <r_i_glide_ligand_efficiency_sa>  (498) 
-0.826712

>  <r_i_glide_ligand_efficiency_ln>  (498) 
-1.28212

>  <r_i_glide_gscore>  (498) 
-4.57071

>  <r_i_glide_lipo>  (498) 
-0.362542

>  <r_i_glide_hbond>  (498) 
-0.331375

>  <r_i_glide_metal>  (498) 
-0

>  <r_i_glide_rewards>  (498) 
-2.20433

>  <r_i_glide_evdw>  (498) 
-18.2502

>  <r_i_glide_ecoul>  (498) 
-4.99425

>  <r_i_glide_erotb>  (498) 
0

>  <r_i_glide_esite>  (498) 
-0.0108165

>  <r_i_glide_emodel>  (498) 
-30.5717

>  <r_i_glide_energy>  (498) 
-23.2444

>  <r_i_glide_einternal>  (498) 
0.315234

>  <r_i_glide_intrahb_reward>  (498) 
-0

>  <i_i_glide_confnum>  (498) 
2

>  <i_i_glide_posenum>  (498) 
8

>  <r_i_glide_eff_state_penalty>  (498) 
0

>  <ligand_id>  (498) 
105

>  <original_smiles>  (498) 
O=C1NC(O)C(=O)N2CC(O)CC12

>  <smiles>  (498) 
[H]OC1([H])C(=O)N2C([H])([H])C([H])(O[H])C([H])([H])C2([H])C(=O)N1[H]

$$$$
106:0:0
     RDKit          3D

 44 47  0  0  1  0  0  0  0  0999 V2000
   -2.6456    2.9468   10.5966 C   0  0  0  0  0  0  0  0  0  0  0  0
   -3.1491    3.0658    9.2741 O   0  0  0  0  0  0  0  0  0  0  0  0
   -2.3782    2.5821    8.2411 C   0  0  0  0  0  0  0  0  0  0  0  0
   -2.8621    2.7980    6.9375 C   0  0  0  0  0  0  0  0  0  0  0  0
   -2.1467    2.3435    5.8152 C   0  0  0  0  0  0  0  0  0  0  0  0
   -0.9310    1.6528    5.9813 C   0  0  0  0  0  0  0  0  0  0  0  0
   -0.1071    1.2401    4.7655 C   0  0  2  0  0  0  0  0  0  0  0  0
    0.1691   -0.5383    4.8327 S   0  0  0  0  0  0  0  0  0  0  0  0
    1.5499   -0.7611    3.7723 C   0  0  0  0  0  0  0  0  0  0  0  0
    1.9530   -2.0725    3.4616 C   0  0  0  0  0  0  0  0  0  0  0  0
    3.0271   -2.2878    2.5749 C   0  0  0  0  0  0  0  0  0  0  0  0
    3.4222   -3.5590    2.2710 O   0  0  0  0  0  0  0  0  0  0  0  0
    3.6954   -1.1934    1.9964 C   0  0  0  0  0  0  0  0  0  0  0  0
    3.2956    0.1181    2.3127 C   0  0  0  0  0  0  0  0  0  0  0  0
    2.2352    0.3514    3.2132 C   0  0  0  0  0  0  0  0  0  0  0  0
    1.9226    1.6671    3.4654 O   0  0  0  0  0  0  0  0  0  0  0  0
    1.2357    2.0028    4.6660 C   0  0  1  0  0  0  0  0  0  0  0  0
    1.0579    3.5177    4.7537 C   0  0  0  0  0  0  0  0  0  0  0  0
    0.9571    4.1965    5.9873 C   0  0  0  0  0  0  0  0  0  0  0  0
    0.7211    5.5851    6.0329 C   0  0  0  0  0  0  0  0  0  0  0  0
    0.6078    6.3208    4.8350 C   0  0  0  0  0  0  0  0  0  0  0  0
    0.3624    7.6675    4.8632 O   0  0  0  0  0  0  0  0  0  0  0  0
    0.7241    5.6554    3.6007 C   0  0  0  0  0  0  0  0  0  0  0  0
    0.9464    4.2682    3.5659 C   0  0  0  0  0  0  0  0  0  0  0  0
   -0.4423    1.4331    7.2876 C   0  0  0  0  0  0  0  0  0  0  0  0
   -1.1484    1.8982    8.4129 C   0  0  0  0  0  0  0  0  0  0  0  0
   -3.3787    3.3509   11.2911 H   0  0  0  0  0  0  0  0  0  0  0  0
   -1.7218    3.5127   10.7134 H   0  0  0  0  0  0  0  0  0  0  0  0
   -2.4662    1.9088   10.8702 H   0  0  0  0  0  0  0  0  0  0  0  0
   -3.7840    3.3338    6.7863 H   0  0  0  0  0  0  0  0  0  0  0  0
   -2.5250    2.5466    4.8245 H   0  0  0  0  0  0  0  0  0  0  0  0
   -0.6805    1.4345    3.8569 H   0  0  0  0  0  0  0  0  0  0  0  0
    1.4239   -2.9035    3.9022 H   0  0  0  0  0  0  0  0  0  0  0  0
    2.9322   -4.2147    2.7405 H   0  0  0  0  0  0  0  0  0  0  0  0
    4.5150   -1.3516    1.3119 H   0  0  0  0  0  0  0  0  0  0  0  0
    3.8075    0.9570    1.8669 H   0  0  0  0  0  0  0  0  0  0  0  0
    1.8788    1.7090    5.4908 H   0  0  0  0  0  0  0  0  0  0  0  0
    1.0329    3.6413    6.9100 H   0  0  0  0  0  0  0  0  0  0  0  0
    0.6155    6.0715    6.9914 H   0  0  0  0  0  0  0  0  0  0  0  0
    0.3977    8.0336    3.9735 H   0  0  0  0  0  0  0  0  0  0  0  0
    0.6209    6.1862    2.6621 H   0  0  0  0  0  0  0  0  0  0  0  0
    1.0139    3.7722    2.6089 H   0  0  0  0  0  0  0  0  0  0  0  0
    0.5108    0.9477    7.4313 H   0  0  0  0  0  0  0  0  0  0  0  0
   -0.7156    1.7469    9.3945 H   0  0  0  0  0  0  0  0  0  0  0  0
  1  2  1  0
  1 27  1  0
  1 28  1  0
  1 29  1  0
  2  3  1  0
  3 26  2  0
  3  4  1  0
  4  5  2  0
  4 30  1  0
  5  6  1  0
  5 31  1  0
  6  7  1  0
  6 25  2  0
  7 17  1  0
  7  8  1  0
  7 32  1  6
  8  9  1  0
  9 15  2  0
  9 10  1  0
 10 11  2  0
 10 33  1  0
 11 12  1  0
 11 13  1  0
 12 34  1  0
 13 14  2  0
 13 35  1  0
 14 15  1  0
 14 36  1  0
 15 16  1  0
 16 17  1  0
 17 18  1  0
 17 37  1  1
 18 24  1  0
 18 19  2  0
 19 20  1  0
 19 38  1  0
 20 21  2  0
 20 39  1  0
 21 22  1  0
 21 23  1  0
 22 40  1  0
 23 24  2  0
 23 41  1  0
 24 42  1  0
 25 26  1  0
 25 43  1  0
 26 44  1  0
M  END
>  <i_m_ct_stereo_status>  (499) 
1

>  <s_m_source_file>  (499) 
/var/tmp/pbs.5102264.sched01/tmpspb9n5yc/161wrz3epul.sdf

>  <i_m_source_file_index>  (499) 
19

>  <i_lp_mmshare_version>  (499) 
48012

>  <i_f3d_flags>  (499) 
0

>  <s_epik_input>  (499) 
W0NIM11PYzFbY0hdW2NIXWMoW2NIXVtjSF0xKVtDQEhdKFMyKVtDQEBIXShPYyhjMjMpW2NIXVtjSF1jKFtjSF0zKVtPSF0pYzRbY0hdW2NIXWMoW09IXSlbY0hdW2NIXTQ=

>  <s_epik_cmdline>  (499) 
J2VwaWtfcHl0aG9uJywgJy1waHQnLCAnMi4wJywgJy1waCcsICc3LjAnLCAnLXRuJywgJzgnLCAnLW1hJywgJzIwMCcsICctaW1hZScsICc8aW5maWxlLm1hZT4nLCAnLW9tYWUnLCAnPG91dGZpbGUubWFlPic=

>  <r_lp_tautomer_probability>  (499) 
1

>  <r_epik_Ionization_Penalty>  (499) 
0.00310155

>  <r_epik_Ionization_Penalty_Charging>  (499) 
0

>  <r_epik_Ionization_Penalty_Neutral>  (499) 
0.00310155

>  <r_epik_State_Penalty>  (499) 
-0

>  <r_epik_Charging_Adjusted_Penalty>  (499) 
0

>  <i_epik_Tot_Q>  (499) 
0

>  <i_epik_Tot_abs_Q>  (499) 
0

>  <s_lp_Force_Field>  (499) 
OPLS3e

>  <r_lp_Energy>  (499) 
32.328

>  <b_lp_Chiralities_Consistent>  (499) 
1

>  <s_lp_Variant>  (499) 
106:0-1

>  <s_i_glide_gridfile>  (499) 
pfpi4k_grid

>  <i_i_glide_lignum>  (499) 
19

>  <i_i_glide_rotatable_bonds>  (499) 
5

>  <r_i_docking_score>  (499) 
-3.3711

>  <r_i_glide_ligand_efficiency>  (499) 
-0.129658

>  <r_i_glide_ligand_efficiency_sa>  (499) 
-0.38411

>  <r_i_glide_ligand_efficiency_ln>  (499) 
-0.791691

>  <r_i_glide_gscore>  (499) 
-3.3711

>  <r_i_glide_lipo>  (499) 
-0.286845

>  <r_i_glide_hbond>  (499) 
-0.215187

>  <r_i_glide_metal>  (499) 
-0

>  <r_i_glide_rewards>  (499) 
-0.910696

>  <r_i_glide_evdw>  (499) 
-21.7925

>  <r_i_glide_ecoul>  (499) 
-7.70291

>  <r_i_glide_erotb>  (499) 
0.286692

>  <r_i_glide_esite>  (499) 
0

>  <r_i_glide_emodel>  (499) 
-36.3235

>  <r_i_glide_energy>  (499) 
-29.4954

>  <r_i_glide_einternal>  (499) 
0.830294

>  <r_i_glide_intrahb_reward>  (499) 
-0

>  <i_i_glide_confnum>  (499) 
2

>  <i_i_glide_posenum>  (499) 
2

>  <r_i_glide_eff_state_penalty>  (499) 
0

>  <ligand_id>  (499) 
106

>  <original_smiles>  (499) 
COc1ccc(C2Sc3cc(O)ccc3OC2c2ccc(O)cc2)cc1

>  <smiles>  (499) 
[H]Oc1c([H])c([H])c(C2([H])Oc3c([H])c([H])c(O[H])c([H])c3SC2([H])c2c([H])c([H])c(OC([H])([H])[H])c([H])c2[H])c([H])c1[H]

$$$$
106:0:1
     RDKit          3D

 44 47  0  0  1  0  0  0  0  0999 V2000
   -2.6909    2.9351   10.6053 C   0  0  0  0  0  0  0  0  0  0  0  0
   -3.1693    3.0780    9.2790 O   0  0  0  0  0  0  0  0  0  0  0  0
   -2.3955    2.5899    8.2533 C   0  0  0  0  0  0  0  0  0  0  0  0
   -2.8668    2.8058    6.9454 C   0  0  0  0  0  0  0  0  0  0  0  0
   -2.1470    2.3530    5.8269 C   0  0  0  0  0  0  0  0  0  0  0  0
   -0.9395    1.6513    6.0012 C   0  0  0  0  0  0  0  0  0  0  0  0
   -0.1120    1.2332    4.7928 C   0  0  2  0  0  0  0  0  0  0  0  0
    0.1603   -0.5487    4.8663 S   0  0  0  0  0  0  0  0  0  0  0  0
    1.5490   -0.7738    3.8123 C   0  0  0  0  0  0  0  0  0  0  0  0
    1.9531   -2.0872    3.5056 C   0  0  0  0  0  0  0  0  0  0  0  0
    3.0300   -2.3073    2.6258 C   0  0  0  0  0  0  0  0  0  0  0  0
    3.4101   -3.5842    2.3329 O   0  0  0  0  0  0  0  0  0  0  0  0
    3.7035   -1.2120    2.0475 C   0  0  0  0  0  0  0  0  0  0  0  0
    3.2997    0.1001    2.3584 C   0  0  0  0  0  0  0  0  0  0  0  0
    2.2363    0.3355    3.2540 C   0  0  0  0  0  0  0  0  0  0  0  0
    1.9236    1.6510    3.5006 O   0  0  0  0  0  0  0  0  0  0  0  0
    1.2321    1.9941    4.6966 C   0  0  1  0  0  0  0  0  0  0  0  0
    1.0549    3.5123    4.7748 C   0  0  0  0  0  0  0  0  0  0  0  0
    0.9507    4.1913    6.0081 C   0  0  0  0  0  0  0  0  0  0  0  0
    0.7171    5.5840    6.0477 C   0  0  0  0  0  0  0  0  0  0  0  0
    0.6070    6.3155    4.8459 C   0  0  0  0  0  0  0  0  0  0  0  0
    0.3552    7.6561    4.8641 O   0  0  0  0  0  0  0  0  0  0  0  0
    0.7325    5.6453    3.6136 C   0  0  0  0  0  0  0  0  0  0  0  0
    0.9522    4.2571    3.5875 C   0  0  0  0  0  0  0  0  0  0  0  0
   -0.4640    1.4282    7.3116 C   0  0  0  0  0  0  0  0  0  0  0  0
   -1.1738    1.8951    8.4331 C   0  0  0  0  0  0  0  0  0  0  0  0
   -3.4252    3.3518   11.2930 H   0  0  0  0  0  0  0  0  0  0  0  0
   -1.7524    3.4692   10.7475 H   0  0  0  0  0  0  0  0  0  0  0  0
   -2.5468    1.8870   10.8679 H   0  0  0  0  0  0  0  0  0  0  0  0
   -3.7856    3.3392    6.7872 H   0  0  0  0  0  0  0  0  0  0  0  0
   -2.5176    2.5608    4.8371 H   0  0  0  0  0  0  0  0  0  0  0  0
   -0.6803    1.4240    3.8802 H   0  0  0  0  0  0  0  0  0  0  0  0
    1.4285   -2.9266    3.9401 H   0  0  0  0  0  0  0  0  0  0  0  0
    4.1416   -3.6151    1.7379 H   0  0  0  0  0  0  0  0  0  0  0  0
    4.5282   -1.3597    1.3645 H   0  0  0  0  0  0  0  0  0  0  0  0
    3.8082    0.9406    1.9118 H   0  0  0  0  0  0  0  0  0  0  0  0
    1.8718    1.7008    5.5267 H   0  0  0  0  0  0  0  0  0  0  0  0
    1.0194    3.6451    6.9294 H   0  0  0  0  0  0  0  0  0  0  0  0
    0.6048    6.0741    7.0004 H   0  0  0  0  0  0  0  0  0  0  0  0
    0.3925    8.0210    3.9760 H   0  0  0  0  0  0  0  0  0  0  0  0
    0.6336    6.1699    2.6724 H   0  0  0  0  0  0  0  0  0  0  0  0
    1.0197    3.7601    2.6319 H   0  0  0  0  0  0  0  0  0  0  0  0
    0.4833    0.9330    7.4624 H   0  0  0  0  0  0  0  0  0  0  0  0
   -0.7517    1.7405    9.4162 H   0  0  0  0  0  0  0  0  0  0  0  0
  1  2  1  0
  1 27  1  0
  1 28  1  0
  1 29  1  0
  2  3  1  0
  3 26  2  0
  3  4  1  0
  4  5  2  0
  4 30  1  0
  5  6  1  0
  5 31  1  0
  6  7  1  0
  6 25  2  0
  7 17  1  0
  7  8  1  0
  7 32  1  6
  8  9  1  0
  9 15  2  0
  9 10  1  0
 10 11  2  0
 10 33  1  0
 11 12  1  0
 11 13  1  0
 12 34  1  0
 13 14  2  0
 13 35  1  0
 14 15  1  0
 14 36  1  0
 15 16  1  0
 16 17  1  0
 17 18  1  0
 17 37  1  1
 18 24  1  0
 18 19  2  0
 19 20  1  0
 19 38  1  0
 20 21  2  0
 20 39  1  0
 21 22  1  0
 21 23  1  0
 22 40  1  0
 23 24  2  0
 23 41  1  0
 24 42  1  0
 25 26  1  0
 25 43  1  0
 26 44  1  0
M  END
>  <i_m_ct_stereo_status>  (500) 
1

>  <s_m_source_file>  (500) 
/var/tmp/pbs.5102264.sched01/tmpspb9n5yc/161wrz3epul.sdf

>  <i_m_source_file_index>  (500) 
19

>  <i_lp_mmshare_version>  (500) 
48012

>  <i_f3d_flags>  (500) 
0

>  <s_epik_input>  (500) 
W0NIM11PYzFbY0hdW2NIXWMoW2NIXVtjSF0xKVtDQEhdKFMyKVtDQEBIXShPYyhjMjMpW2NIXVtjSF1jKFtjSF0zKVtPSF0pYzRbY0hdW2NIXWMoW09IXSlbY0hdW2NIXTQ=

>  <s_epik_cmdline>  (500) 
J2VwaWtfcHl0aG9uJywgJy1waHQnLCAnMi4wJywgJy1waCcsICc3LjAnLCAnLXRuJywgJzgnLCAnLW1hJywgJzIwMCcsICctaW1hZScsICc8aW5maWxlLm1hZT4nLCAnLW9tYWUnLCAnPG91dGZpbGUubWFlPic=

>  <r_lp_tautomer_probability>  (500) 
1

>  <r_epik_Ionization_Penalty>  (500) 
0.00310155

>  <r_epik_Ionization_Penalty_Charging>  (500) 
0

>  <r_epik_Ionization_Penalty_Neutral>  (500) 
0.00310155

>  <r_epik_State_Penalty>  (500) 
-0

>  <r_epik_Charging_Adjusted_Penalty>  (500) 
0

>  <i_epik_Tot_Q>  (500) 
0

>  <i_epik_Tot_abs_Q>  (500) 
0

>  <s_lp_Force_Field>  (500) 
OPLS3e

>  <r_lp_Energy>  (500) 
32.328

>  <b_lp_Chiralities_Consistent>  (500) 
1

>  <s_lp_Variant>  (500) 
106:0-1

>  <s_i_glide_gridfile>  (500) 
pfpi4k_grid

>  <i_i_glide_lignum>  (500) 
19

>  <i_i_glide_rotatable_bonds>  (500) 
5

>  <r_i_docking_score>  (500) 
-3.35752

>  <r_i_glide_ligand_efficiency>  (500) 
-0.129135

>  <r_i_glide_ligand_efficiency_sa>  (500) 
-0.382563

>  <r_i_glide_ligand_efficiency_ln>  (500) 
-0.788502

>  <r_i_glide_gscore>  (500) 
-3.35752

>  <r_i_glide_lipo>  (500) 
-0.289925

>  <r_i_glide_hbond>  (500) 
-0.217353

>  <r_i_glide_metal>  (500) 
-0

>  <r_i_glide_rewards>  (500) 
-0.910696

>  <r_i_glide_evdw>  (500) 
-21.9006

>  <r_i_glide_ecoul>  (500) 
-7.54137

>  <r_i_glide_erotb>  (500) 
0.286692

>  <r_i_glide_esite>  (500) 
0

>  <r_i_glide_emodel>  (500) 
-36.2824

>  <r_i_glide_energy>  (500) 
-29.442

>  <r_i_glide_einternal>  (500) 
0.812461

>  <r_i_glide_intrahb_reward>  (500) 
-0

>  <i_i_glide_confnum>  (500) 
2

>  <i_i_glide_posenum>  (500) 
7

>  <r_i_glide_eff_state_penalty>  (500) 
0

>  <ligand_id>  (500) 
106

>  <original_smiles>  (500) 
COc1ccc(C2Sc3cc(O)ccc3OC2c2ccc(O)cc2)cc1

>  <smiles>  (500) 
[H]Oc1c([H])c([H])c(C2([H])Oc3c([H])c([H])c(O[H])c([H])c3SC2([H])c2c([H])c([H])c(OC([H])([H])[H])c([H])c2[H])c([H])c1[H]

$$$$
106:0:2
     RDKit          3D

 44 47  0  0  1  0  0  0  0  0999 V2000
    1.0862  -10.2835    4.6299 C   0  0  0  0  0  0  0  0  0  0  0  0
    1.9358   -9.2475    5.0981 O   0  0  0  0  0  0  0  0  0  0  0  0
    2.3825   -8.3132    4.1888 C   0  0  0  0  0  0  0  0  0  0  0  0
    3.1882   -7.2698    4.6893 C   0  0  0  0  0  0  0  0  0  0  0  0
    3.6871   -6.2678    3.8351 C   0  0  0  0  0  0  0  0  0  0  0  0
    3.3806   -6.2940    2.4585 C   0  0  0  0  0  0  0  0  0  0  0  0
    3.9789   -5.2555    1.5138 C   0  0  2  0  0  0  0  0  0  0  0  0
    2.6639   -4.5424    0.5126 S   0  0  0  0  0  0  0  0  0  0  0  0
    3.5430   -3.8368   -0.8369 C   0  0  0  0  0  0  0  0  0  0  0  0
    2.8301   -3.0542   -1.7686 C   0  0  0  0  0  0  0  0  0  0  0  0
    3.5060   -2.4590   -2.8482 C   0  0  0  0  0  0  0  0  0  0  0  0
    2.8379   -1.6992   -3.7581 O   0  0  0  0  0  0  0  0  0  0  0  0
    4.8876   -2.6449   -3.0015 C   0  0  0  0  0  0  0  0  0  0  0  0
    5.5987   -3.4314   -2.0812 C   0  0  0  0  0  0  0  0  0  0  0  0
    4.9367   -4.0478   -1.0004 C   0  0  0  0  0  0  0  0  0  0  0  0
    5.7091   -4.8090   -0.1590 O   0  0  0  0  0  0  0  0  0  0  0  0
    5.0874   -5.8333    0.6058 C   0  0  1  0  0  0  0  0  0  0  0  0
    6.1488   -6.5662    1.4132 C   0  0  0  0  0  0  0  0  0  0  0  0
    6.0003   -7.9330    1.7334 C   0  0  0  0  0  0  0  0  0  0  0  0
    6.9653   -8.5853    2.5222 C   0  0  0  0  0  0  0  0  0  0  0  0
    8.0964   -7.8786    2.9718 C   0  0  0  0  0  0  0  0  0  0  0  0
    9.0611   -8.5290    3.6812 O   0  0  0  0  0  0  0  0  0  0  0  0
    8.2481   -6.5120    2.6622 C   0  0  0  0  0  0  0  0  0  0  0  0
    7.2715   -5.8600    1.8943 C   0  0  0  0  0  0  0  0  0  0  0  0
    2.5806   -7.3421    1.9523 C   0  0  0  0  0  0  0  0  0  0  0  0
    2.0811   -8.3425    2.8043 C   0  0  0  0  0  0  0  0  0  0  0  0
    0.8116  -10.9241    5.4663 H   0  0  0  0  0  0  0  0  0  0  0  0
    1.5861  -10.9013    3.8868 H   0  0  0  0  0  0  0  0  0  0  0  0
    0.1660   -9.8809    4.2047 H   0  0  0  0  0  0  0  0  0  0  0  0
    3.4443   -7.2508    5.7375 H   0  0  0  0  0  0  0  0  0  0  0  0
    4.3283   -5.4945    4.2325 H   0  0  0  0  0  0  0  0  0  0  0  0
    4.4073   -4.4419    2.0983 H   0  0  0  0  0  0  0  0  0  0  0  0
    1.7707   -2.9055   -1.6313 H   0  0  0  0  0  0  0  0  0  0  0  0
    1.9207   -1.6255   -3.5425 H   0  0  0  0  0  0  0  0  0  0  0  0
    5.4042   -2.1842   -3.8275 H   0  0  0  0  0  0  0  0  0  0  0  0
    6.6609   -3.5753   -2.2150 H   0  0  0  0  0  0  0  0  0  0  0  0
    4.6467   -6.5483   -0.0894 H   0  0  0  0  0  0  0  0  0  0  0  0
    5.1361   -8.4833    1.3929 H   0  0  0  0  0  0  0  0  0  0  0  0
    6.8404   -9.6298    2.7726 H   0  0  0  0  0  0  0  0  0  0  0  0
    9.9156   -8.1838    3.4594 H   0  0  0  0  0  0  0  0  0  0  0  0
    9.1101   -5.9612    3.0093 H   0  0  0  0  0  0  0  0  0  0  0  0
    7.3839   -4.8104    1.6780 H   0  0  0  0  0  0  0  0  0  0  0  0
    2.3648   -7.3977    0.8951 H   0  0  0  0  0  0  0  0  0  0  0  0
    1.4902   -9.1338    2.3629 H   0  0  0  0  0  0  0  0  0  0  0  0
  1  2  1  0
  1 27  1  0
  1 28  1  0
  1 29  1  0
  2  3  1  0
  3 26  2  0
  3  4  1  0
  4  5  2  0
  4 30  1  0
  5  6  1  0
  5 31  1  0
  6  7  1  0
  6 25  2  0
  7 17  1  0
  7  8  1  0
  7 32  1  1
  8  9  1  0
  9 15  2  0
  9 10  1  0
 10 11  2  0
 10 33  1  0
 11 12  1  0
 11 13  1  0
 12 34  1  0
 13 14  2  0
 13 35  1  0
 14 15  1  0
 14 36  1  0
 15 16  1  0
 16 17  1  0
 17 18  1  0
 17 37  1  6
 18 24  1  0
 18 19  2  0
 19 20  1  0
 19 38  1  0
 20 21  2  0
 20 39  1  0
 21 22  1  0
 21 23  1  0
 22 40  1  0
 23 24  2  0
 23 41  1  0
 24 42  1  0
 25 26  1  0
 25 43  1  0
 26 44  1  0
M  END
>  <i_m_ct_stereo_status>  (501) 
1

>  <s_m_source_file>  (501) 
/var/tmp/pbs.5102264.sched01/tmpspb9n5yc/161wrz3epul.sdf

>  <i_m_source_file_index>  (501) 
19

>  <i_lp_mmshare_version>  (501) 
48012

>  <i_f3d_flags>  (501) 
0

>  <s_epik_input>  (501) 
W0NIM11PYzFbY0hdW2NIXWMoW2NIXVtjSF0xKVtDQEhdKFMyKVtDQEBIXShPYyhjMjMpW2NIXVtjSF1jKFtjSF0zKVtPSF0pYzRbY0hdW2NIXWMoW09IXSlbY0hdW2NIXTQ=

>  <s_epik_cmdline>  (501) 
J2VwaWtfcHl0aG9uJywgJy1waHQnLCAnMi4wJywgJy1waCcsICc3LjAnLCAnLXRuJywgJzgnLCAnLW1hJywgJzIwMCcsICctaW1hZScsICc8aW5maWxlLm1hZT4nLCAnLW9tYWUnLCAnPG91dGZpbGUubWFlPic=

>  <r_lp_tautomer_probability>  (501) 
1

>  <r_epik_Ionization_Penalty>  (501) 
0.00310155

>  <r_epik_Ionization_Penalty_Charging>  (501) 
0

>  <r_epik_Ionization_Penalty_Neutral>  (501) 
0.00310155

>  <r_epik_State_Penalty>  (501) 
-0

>  <r_epik_Charging_Adjusted_Penalty>  (501) 
0

>  <i_epik_Tot_Q>  (501) 
0

>  <i_epik_Tot_abs_Q>  (501) 
0

>  <s_lp_Force_Field>  (501) 
OPLS3e

>  <r_lp_Energy>  (501) 
32.328

>  <b_lp_Chiralities_Consistent>  (501) 
1

>  <s_lp_Variant>  (501) 
106:0-1

>  <s_i_glide_gridfile>  (501) 
pfpi4k_grid

>  <i_i_glide_lignum>  (501) 
19

>  <i_i_glide_rotatable_bonds>  (501) 
5

>  <r_i_docking_score>  (501) 
-3.13464

>  <r_i_glide_ligand_efficiency>  (501) 
-0.120563

>  <r_i_glide_ligand_efficiency_sa>  (501) 
-0.357167

>  <r_i_glide_ligand_efficiency_ln>  (501) 
-0.73616

>  <r_i_glide_gscore>  (501) 
-3.13464

>  <r_i_glide_lipo>  (501) 
-0.768458

>  <r_i_glide_hbond>  (501) 
-0.0108416

>  <r_i_glide_metal>  (501) 
-0

>  <r_i_glide_rewards>  (501) 
-0.910696

>  <r_i_glide_evdw>  (501) 
-27.3694

>  <r_i_glide_ecoul>  (501) 
-2.41911

>  <r_i_glide_erotb>  (501) 
0.286692

>  <r_i_glide_esite>  (501) 
0

>  <r_i_glide_emodel>  (501) 
-35.1971

>  <r_i_glide_energy>  (501) 
-29.7885

>  <r_i_glide_einternal>  (501) 
2.00291

>  <r_i_glide_intrahb_reward>  (501) 
-0

>  <i_i_glide_confnum>  (501) 
1

>  <i_i_glide_posenum>  (501) 
19

>  <r_i_glide_eff_state_penalty>  (501) 
0

>  <ligand_id>  (501) 
106

>  <original_smiles>  (501) 
COc1ccc(C2Sc3cc(O)ccc3OC2c2ccc(O)cc2)cc1

>  <smiles>  (501) 
[H]Oc1c([H])c([H])c(C2([H])Oc3c([H])c([H])c(O[H])c([H])c3SC2([H])c2c([H])c([H])c(OC([H])([H])[H])c([H])c2[H])c([H])c1[H]

$$$$
107:0:0
     RDKit          3D

 34 36  0  0  1  0  0  0  0  0999 V2000
    2.7431    0.8158    2.2649 C   0  0  0  0  0  0  0  0  0  0  0  0
    3.0925   -0.1863    1.3292 O   0  0  0  0  0  0  0  0  0  0  0  0
    4.3624   -0.6165    1.2361 C   0  0  0  0  0  0  0  0  0  0  0  0
    5.3042   -0.2554    1.9336 O   0  0  0  0  0  0  0  0  0  0  0  0
    4.5515   -1.6883    0.1556 C   0  0  2  0  0  0  0  0  0  0  0  0
    4.0582   -1.1573   -1.2277 C   0  0  0  0  0  0  0  0  0  0  0  0
    3.8696   -2.2824   -2.2586 C   0  0  1  0  0  0  0  0  0  0  0  0
    5.1431   -3.1115   -2.4618 C   0  0  0  0  0  0  0  0  0  0  0  0
    5.0347   -4.2170   -1.4111 C   0  0  0  0  0  0  0  0  0  0  0  0
    3.7096   -3.9425   -0.6685 C   0  0  2  0  0  0  0  0  0  0  0  0
    2.9113   -3.2295   -1.6789 N   0  0  0  0  0  0  0  0  0  0  0  0
    3.8811   -3.0355    0.5701 C   0  0  1  0  0  0  0  0  0  0  0  0
    4.6179   -3.7274    1.6879 C   0  0  0  0  0  0  0  0  0  0  0  0
    5.3601   -4.8742    1.7699 C   0  0  0  0  0  0  0  0  0  0  0  0
    5.7951   -4.9083    3.1216 C   0  0  0  0  0  0  0  0  0  0  0  0
    5.3337   -3.8820    3.8094 N   0  0  0  0  0  0  0  0  0  0  0  0
    4.5788   -3.1287    2.9052 O   0  0  0  0  0  0  0  0  0  0  0  0
    1.6824    1.0445    2.1698 H   0  0  0  0  0  0  0  0  0  0  0  0
    3.3013    1.7322    2.0815 H   0  0  0  0  0  0  0  0  0  0  0  0
    2.9321    0.4882    3.2864 H   0  0  0  0  0  0  0  0  0  0  0  0
    5.6224   -1.8645    0.0614 H   0  0  0  0  0  0  0  0  0  0  0  0
    3.0868   -0.6684   -1.1279 H   0  0  0  0  0  0  0  0  0  0  0  0
    4.7434   -0.3957   -1.6090 H   0  0  0  0  0  0  0  0  0  0  0  0
    3.4965   -1.8776   -3.1998 H   0  0  0  0  0  0  0  0  0  0  0  0
    5.1783   -3.5530   -3.4565 H   0  0  0  0  0  0  0  0  0  0  0  0
    6.0489   -2.5217   -2.3334 H   0  0  0  0  0  0  0  0  0  0  0  0
    5.0156   -5.1917   -1.8996 H   0  0  0  0  0  0  0  0  0  0  0  0
    5.9134   -4.2163   -0.7705 H   0  0  0  0  0  0  0  0  0  0  0  0
    3.2107   -4.8701   -0.3866 H   0  0  0  0  0  0  0  0  0  0  0  0
    2.6171   -3.9054   -2.3718 H   0  0  0  0  0  0  0  0  0  0  0  0
    2.8740   -2.8229    0.9336 H   0  0  0  0  0  0  0  0  0  0  0  0
    5.5800   -5.5787    0.9838 H   0  0  0  0  0  0  0  0  0  0  0  0
    6.4353   -5.6227    3.6165 H   0  0  0  0  0  0  0  0  0  0  0  0
    2.1063   -2.7468   -1.2936 H   0  0  0  0  0  0  0  0  0  0  0  0
  1  2  1  0
  1 18  1  0
  1 19  1  0
  1 20  1  0
  2  3  1  0
  3  4  2  0
  3  5  1  0
  5 12  1  0
  5  6  1  0
  5 21  1  6
  6  7  1  0
  6 22  1  0
  6 23  1  0
  7 11  1  0
  7  8  1  0
  7 24  1  6
  8  9  1  0
  8 25  1  0
  8 26  1  0
  9 10  1  0
  9 27  1  0
  9 28  1  0
 10 11  1  0
 10 12  1  0
 10 29  1  1
 11 30  1  0
 11 34  1  0
 12 13  1  0
 12 31  1  1
 13 17  1  0
 13 14  2  0
 14 15  1  0
 14 32  1  0
 15 16  2  0
 15 33  1  0
 16 17  1  0
M  CHG  1  11   1
M  END
>  <i_m_ct_stereo_status>  (502) 
1

>  <s_m_source_file>  (502) 
/var/tmp/pbs.5102264.sched01/tmpspb9n5yc/161wrz3epul.sdf

>  <i_m_source_file_index>  (502) 
20

>  <i_lp_mmshare_version>  (502) 
48012

>  <i_f3d_flags>  (502) 
0

>  <s_epik_input>  (502) 
W0NIM11PQyg9TylbQ0BIXShbQ0gyXVtDQEBIXTEyKVtDQEBIXShbQ0BASF0oW05IXTIpW0NIMl1bQ0gyXTEpYzNbY0hdW2NIXW5vMw==

>  <s_epik_cmdline>  (502) 
J2VwaWtfcHl0aG9uJywgJy1waHQnLCAnMi4wJywgJy1waCcsICc3LjAnLCAnLXRuJywgJzgnLCAnLW1hJywgJzIwMCcsICctaW1hZScsICc8aW5maWxlLm1hZT4nLCAnLW9tYWUnLCAnPG91dGZpbGUubWFlPic=

>  <r_epik_Ionization_Penalty>  (502) 
0.00363348

>  <r_epik_Ionization_Penalty_Charging>  (502) 
0.00363348

>  <r_epik_Ionization_Penalty_Neutral>  (502) 
2.33411e-11

>  <r_epik_State_Penalty>  (502) 
0.00258458

>  <r_epik_Charging_Adjusted_Penalty>  (502) 
0.00621806

>  <i_epik_Tot_Q>  (502) 
1

>  <i_epik_Tot_abs_Q>  (502) 
1

>  <s_epik_Chemistry_Notes>  (502) 
This compound has an ester and may undergo hydrolysis at high or low pH.

>  <s_lp_Force_Field>  (502) 
OPLS3e

>  <r_lp_Energy>  (502) 
19.6728

>  <b_lp_Chiralities_Consistent>  (502) 
1

>  <s_lp_Variant>  (502) 
107:0-1

>  <s_i_glide_gridfile>  (502) 
pfpi4k_grid

>  <i_i_glide_lignum>  (502) 
20

>  <i_i_glide_rotatable_bonds>  (502) 
3

>  <r_i_docking_score>  (502) 
-3.70607

>  <r_i_glide_ligand_efficiency>  (502) 
-0.218004

>  <r_i_glide_ligand_efficiency_sa>  (502) 
-0.560549

>  <r_i_glide_ligand_efficiency_ln>  (502) 
-0.96683

>  <r_i_glide_gscore>  (502) 
-3.70607

>  <r_i_glide_lipo>  (502) 
-0.28523

>  <r_i_glide_hbond>  (502) 
-0.267492

>  <r_i_glide_metal>  (502) 
-0

>  <r_i_glide_rewards>  (502) 
-1.92353

>  <r_i_glide_evdw>  (502) 
-18.3232

>  <r_i_glide_ecoul>  (502) 
-6.17302

>  <r_i_glide_erotb>  (502) 
0.612294

>  <r_i_glide_esite>  (502) 
0

>  <r_i_glide_emodel>  (502) 
-31.0678

>  <r_i_glide_energy>  (502) 
-24.4962

>  <r_i_glide_einternal>  (502) 
1.02366

>  <r_i_glide_intrahb_reward>  (502) 
-0

>  <i_i_glide_confnum>  (502) 
5

>  <i_i_glide_posenum>  (502) 
1

>  <r_i_glide_eff_state_penalty>  (502) 
0

>  <ligand_id>  (502) 
107

>  <original_smiles>  (502) 
COC(=O)C1CC2CCC(N2)C1c1ccno1

>  <smiles>  (502) 
[H]c1noc(C2([H])C([H])(C(=O)OC([H])([H])[H])C([H])([H])C3([H])C([H])([H])C([H])([H])C2([H])[N+]3([H])[H])c1[H]

$$$$
107:0:1
     RDKit          3D

 34 36  0  0  1  0  0  0  0  0999 V2000
    3.8801   -0.5548    3.2036 C   0  0  0  0  0  0  0  0  0  0  0  0
    3.8773   -0.9804    1.8550 O   0  0  0  0  0  0  0  0  0  0  0  0
    4.8243   -1.8214    1.4168 C   0  0  0  0  0  0  0  0  0  0  0  0
    5.7302   -2.3026    2.0943 O   0  0  0  0  0  0  0  0  0  0  0  0
    4.6818   -2.1555   -0.0758 C   0  0  2  0  0  0  0  0  0  0  0  0
    4.8111   -0.8689   -0.9272 C   0  0  0  0  0  0  0  0  0  0  0  0
    4.3312   -1.0663   -2.3735 C   0  0  1  0  0  0  0  0  0  0  0  0
    5.0165   -2.2451   -3.0713 C   0  0  0  0  0  0  0  0  0  0  0  0
    4.1371   -3.4554   -2.7637 C   0  0  0  0  0  0  0  0  0  0  0  0
    3.0170   -2.8998   -1.8807 C   0  0  2  0  0  0  0  0  0  0  0  0
    2.9359   -1.4977   -2.3146 N   0  0  0  0  0  0  0  0  0  0  0  0
    3.3647   -2.9344   -0.3673 C   0  0  1  0  0  0  0  0  0  0  0  0
    3.4087   -4.3315    0.1647 C   0  0  0  0  0  0  0  0  0  0  0  0
    4.4275   -5.1814    0.4851 C   0  0  0  0  0  0  0  0  0  0  0  0
    3.7568   -6.3559    0.9281 C   0  0  0  0  0  0  0  0  0  0  0  0
    2.4437   -6.2242    0.8805 N   0  0  0  0  0  0  0  0  0  0  0  0
    2.2152   -4.9399    0.3714 O   0  0  0  0  0  0  0  0  0  0  0  0
    3.0470    0.1289    3.3652 H   0  0  0  0  0  0  0  0  0  0  0  0
    4.8050   -0.0279    3.4400 H   0  0  0  0  0  0  0  0  0  0  0  0
    3.7666   -1.3995    3.8845 H   0  0  0  0  0  0  0  0  0  0  0  0
    5.5204   -2.7970   -0.3610 H   0  0  0  0  0  0  0  0  0  0  0  0
    4.2248   -0.0588   -0.4898 H   0  0  0  0  0  0  0  0  0  0  0  0
    5.8470   -0.5306   -0.9159 H   0  0  0  0  0  0  0  0  0  0  0  0
    4.4260   -0.1362   -2.9337 H   0  0  0  0  0  0  0  0  0  0  0  0
    5.0132   -2.0710   -4.1425 H   0  0  0  0  0  0  0  0  0  0  0  0
    6.0440   -2.3930   -2.7472 H   0  0  0  0  0  0  0  0  0  0  0  0
    3.7118   -3.8619   -3.6830 H   0  0  0  0  0  0  0  0  0  0  0  0
    4.6899   -4.2618   -2.2827 H   0  0  0  0  0  0  0  0  0  0  0  0
    2.0593   -3.3932   -2.0639 H   0  0  0  0  0  0  0  0  0  0  0  0
    2.5150   -1.4472   -3.2319 H   0  0  0  0  0  0  0  0  0  0  0  0
    2.5462   -2.4222    0.1358 H   0  0  0  0  0  0  0  0  0  0  0  0
    5.4859   -4.9829    0.4042 H   0  0  0  0  0  0  0  0  0  0  0  0
    4.1696   -7.2976    1.2688 H   0  0  0  0  0  0  0  0  0  0  0  0
    2.3545   -0.9855   -1.6507 H   0  0  0  0  0  0  0  0  0  0  0  0
  1  2  1  0
  1 18  1  0
  1 19  1  0
  1 20  1  0
  2  3  1  0
  3  4  2  0
  3  5  1  0
  5 12  1  0
  5  6  1  0
  5 21  1  6
  6  7  1  0
  6 22  1  0
  6 23  1  0
  7 11  1  0
  7  8  1  0
  7 24  1  6
  8  9  1  0
  8 25  1  0
  8 26  1  0
  9 10  1  0
  9 27  1  0
  9 28  1  0
 10 11  1  0
 10 12  1  0
 10 29  1  1
 11 30  1  0
 11 34  1  0
 12 13  1  0
 12 31  1  1
 13 17  1  0
 13 14  2  0
 14 15  1  0
 14 32  1  0
 15 16  2  0
 15 33  1  0
 16 17  1  0
M  CHG  1  11   1
M  END
>  <i_m_ct_stereo_status>  (503) 
1

>  <s_m_source_file>  (503) 
/var/tmp/pbs.5102264.sched01/tmpspb9n5yc/161wrz3epul.sdf

>  <i_m_source_file_index>  (503) 
20

>  <i_lp_mmshare_version>  (503) 
48012

>  <i_f3d_flags>  (503) 
0

>  <s_epik_input>  (503) 
W0NIM11PQyg9TylbQ0BIXShbQ0gyXVtDQEBIXTEyKVtDQEBIXShbQ0BASF0oW05IXTIpW0NIMl1bQ0gyXTEpYzNbY0hdW2NIXW5vMw==

>  <s_epik_cmdline>  (503) 
J2VwaWtfcHl0aG9uJywgJy1waHQnLCAnMi4wJywgJy1waCcsICc3LjAnLCAnLXRuJywgJzgnLCAnLW1hJywgJzIwMCcsICctaW1hZScsICc8aW5maWxlLm1hZT4nLCAnLW9tYWUnLCAnPG91dGZpbGUubWFlPic=

>  <r_epik_Ionization_Penalty>  (503) 
0.00363348

>  <r_epik_Ionization_Penalty_Charging>  (503) 
0.00363348

>  <r_epik_Ionization_Penalty_Neutral>  (503) 
2.33411e-11

>  <r_epik_State_Penalty>  (503) 
0.00258458

>  <r_epik_Charging_Adjusted_Penalty>  (503) 
0.00621806

>  <i_epik_Tot_Q>  (503) 
1

>  <i_epik_Tot_abs_Q>  (503) 
1

>  <s_epik_Chemistry_Notes>  (503) 
This compound has an ester and may undergo hydrolysis at high or low pH.

>  <s_lp_Force_Field>  (503) 
OPLS3e

>  <r_lp_Energy>  (503) 
19.6728

>  <b_lp_Chiralities_Consistent>  (503) 
1

>  <s_lp_Variant>  (503) 
107:0-1

>  <s_i_glide_gridfile>  (503) 
pfpi4k_grid

>  <i_i_glide_lignum>  (503) 
20

>  <i_i_glide_rotatable_bonds>  (503) 
3

>  <r_i_docking_score>  (503) 
-3.61654

>  <r_i_glide_ligand_efficiency>  (503) 
-0.212738

>  <r_i_glide_ligand_efficiency_sa>  (503) 
-0.547009

>  <r_i_glide_ligand_efficiency_ln>  (503) 
-0.943475

>  <r_i_glide_gscore>  (503) 
-3.61654

>  <r_i_glide_lipo>  (503) 
-0.193766

>  <r_i_glide_hbond>  (503) 
-0.17229

>  <r_i_glide_metal>  (503) 
-0

>  <r_i_glide_rewards>  (503) 
-1.8511

>  <r_i_glide_evdw>  (503) 
-20.1147

>  <r_i_glide_ecoul>  (503) 
-5.62489

>  <r_i_glide_erotb>  (503) 
0.612294

>  <r_i_glide_esite>  (503) 
-0.162212

>  <r_i_glide_emodel>  (503) 
-32.5247

>  <r_i_glide_energy>  (503) 
-25.7396

>  <r_i_glide_einternal>  (503) 
0.333742

>  <r_i_glide_intrahb_reward>  (503) 
-0

>  <i_i_glide_confnum>  (503) 
5

>  <i_i_glide_posenum>  (503) 
20

>  <r_i_glide_eff_state_penalty>  (503) 
0

>  <ligand_id>  (503) 
107

>  <original_smiles>  (503) 
COC(=O)C1CC2CCC(N2)C1c1ccno1

>  <smiles>  (503) 
[H]c1noc(C2([H])C([H])(C(=O)OC([H])([H])[H])C([H])([H])C3([H])C([H])([H])C([H])([H])C2([H])[N+]3([H])[H])c1[H]

$$$$
107:0:2
     RDKit          3D

 34 36  0  0  1  0  0  0  0  0999 V2000
    1.9882   -0.6486    3.5178 C   0  0  0  0  0  0  0  0  0  0  0  0
    2.4846   -1.1237    2.2813 O   0  0  0  0  0  0  0  0  0  0  0  0
    3.6677   -1.7519    2.2323 C   0  0  0  0  0  0  0  0  0  0  0  0
    4.4052   -1.9740    3.1930 O   0  0  0  0  0  0  0  0  0  0  0  0
    4.0525   -2.1885    0.8094 C   0  0  2  0  0  0  0  0  0  0  0  0
    4.2701   -0.9381   -0.0882 C   0  0  0  0  0  0  0  0  0  0  0  0
    4.2911   -1.2731   -1.5943 C   0  0  1  0  0  0  0  0  0  0  0  0
    5.3369   -2.3387   -1.9495 C   0  0  0  0  0  0  0  0  0  0  0  0
    4.5968   -3.6680   -1.7894 C   0  0  0  0  0  0  0  0  0  0  0  0
    3.1754   -3.2744   -1.3354 C   0  0  2  0  0  0  0  0  0  0  0  0
    3.0166   -1.9243   -1.8964 N   0  0  0  0  0  0  0  0  0  0  0  0
    3.0174   -3.1922    0.2067 C   0  0  1  0  0  0  0  0  0  0  0  0
    3.0684   -4.5353    0.8695 C   0  0  0  0  0  0  0  0  0  0  0  0
    3.5201   -5.7698    0.4825 C   0  0  0  0  0  0  0  0  0  0  0  0
    3.3160   -6.5887    1.6252 C   0  0  0  0  0  0  0  0  0  0  0  0
    2.7516   -5.9221    2.6159 N   0  0  0  0  0  0  0  0  0  0  0  0
    2.5872   -4.6158    2.1370 O   0  0  0  0  0  0  0  0  0  0  0  0
    1.0228   -0.1675    3.3568 H   0  0  0  0  0  0  0  0  0  0  0  0
    2.6693    0.0869    3.9487 H   0  0  0  0  0  0  0  0  0  0  0  0
    1.8493   -1.4653    4.2291 H   0  0  0  0  0  0  0  0  0  0  0  0
    5.0130   -2.7087    0.8667 H   0  0  0  0  0  0  0  0  0  0  0  0
    3.4555   -0.2335    0.0817 H   0  0  0  0  0  0  0  0  0  0  0  0
    5.1887   -0.4175    0.2013 H   0  0  0  0  0  0  0  0  0  0  0  0
    4.4224   -0.3667   -2.1847 H   0  0  0  0  0  0  0  0  0  0  0  0
    5.6619   -2.2508   -2.9843 H   0  0  0  0  0  0  0  0  0  0  0  0
    6.2207   -2.2957   -1.3121 H   0  0  0  0  0  0  0  0  0  0  0  0
    4.5454   -4.2076   -2.7369 H   0  0  0  0  0  0  0  0  0  0  0  0
    5.1286   -4.3027   -1.0884 H   0  0  0  0  0  0  0  0  0  0  0  0
    2.4001   -3.9180   -1.7536 H   0  0  0  0  0  0  0  0  0  0  0  0
    2.8945   -1.9891   -2.8964 H   0  0  0  0  0  0  0  0  0  0  0  0
    2.0170   -2.7882    0.3717 H   0  0  0  0  0  0  0  0  0  0  0  0
    3.9590   -6.0465   -0.4632 H   0  0  0  0  0  0  0  0  0  0  0  0
    3.5569   -7.6348    1.7575 H   0  0  0  0  0  0  0  0  0  0  0  0
    2.2150   -1.4456   -1.4765 H   0  0  0  0  0  0  0  0  0  0  0  0
  1  2  1  0
  1 18  1  0
  1 19  1  0
  1 20  1  0
  2  3  1  0
  3  4  2  0
  3  5  1  0
  5 12  1  0
  5  6  1  0
  5 21  1  1
  6  7  1  0
  6 22  1  0
  6 23  1  0
  7 11  1  0
  7  8  1  0
  7 24  1  6
  8  9  1  0
  8 25  1  0
  8 26  1  0
  9 10  1  0
  9 27  1  0
  9 28  1  0
 10 11  1  0
 10 12  1  0
 10 29  1  6
 11 30  1  0
 11 34  1  0
 12 13  1  0
 12 31  1  6
 13 17  1  0
 13 14  2  0
 14 15  1  0
 14 32  1  0
 15 16  2  0
 15 33  1  0
 16 17  1  0
M  CHG  1  11   1
M  END
>  <i_m_ct_stereo_status>  (504) 
1

>  <s_m_source_file>  (504) 
/var/tmp/pbs.5102264.sched01/tmpspb9n5yc/161wrz3epul.sdf

>  <i_m_source_file_index>  (504) 
20

>  <i_lp_mmshare_version>  (504) 
48012

>  <i_f3d_flags>  (504) 
0

>  <s_epik_input>  (504) 
W0NIM11PQyg9TylbQ0BIXShbQ0gyXVtDQEBIXTEyKVtDQEBIXShbQ0BASF0oW05IXTIpW0NIMl1bQ0gyXTEpYzNbY0hdW2NIXW5vMw==

>  <s_epik_cmdline>  (504) 
J2VwaWtfcHl0aG9uJywgJy1waHQnLCAnMi4wJywgJy1waCcsICc3LjAnLCAnLXRuJywgJzgnLCAnLW1hJywgJzIwMCcsICctaW1hZScsICc8aW5maWxlLm1hZT4nLCAnLW9tYWUnLCAnPG91dGZpbGUubWFlPic=

>  <r_epik_Ionization_Penalty>  (504) 
0.00363348

>  <r_epik_Ionization_Penalty_Charging>  (504) 
0.00363348

>  <r_epik_Ionization_Penalty_Neutral>  (504) 
2.33411e-11

>  <r_epik_State_Penalty>  (504) 
0.00258458

>  <r_epik_Charging_Adjusted_Penalty>  (504) 
0.00621806

>  <i_epik_Tot_Q>  (504) 
1

>  <i_epik_Tot_abs_Q>  (504) 
1

>  <s_epik_Chemistry_Notes>  (504) 
This compound has an ester and may undergo hydrolysis at high or low pH.

>  <s_lp_Force_Field>  (504) 
OPLS3e

>  <r_lp_Energy>  (504) 
19.6728

>  <b_lp_Chiralities_Consistent>  (504) 
1

>  <s_lp_Variant>  (504) 
107:0-1

>  <s_i_glide_gridfile>  (504) 
pfpi4k_grid

>  <i_i_glide_lignum>  (504) 
20

>  <i_i_glide_rotatable_bonds>  (504) 
3

>  <r_i_docking_score>  (504) 
-3.50799

>  <r_i_glide_ligand_efficiency>  (504) 
-0.206353

>  <r_i_glide_ligand_efficiency_sa>  (504) 
-0.53059

>  <r_i_glide_ligand_efficiency_ln>  (504) 
-0.915157

>  <r_i_glide_gscore>  (504) 
-3.50799

>  <r_i_glide_lipo>  (504) 
-0.12637

>  <r_i_glide_hbond>  (504) 
-0.2

>  <r_i_glide_metal>  (504) 
-0

>  <r_i_glide_rewards>  (504) 
-1.79131

>  <r_i_glide_evdw>  (504) 
-18.1385

>  <r_i_glide_ecoul>  (504) 
-6.64672

>  <r_i_glide_erotb>  (504) 
0.612294

>  <r_i_glide_esite>  (504) 
-0.0986758

>  <r_i_glide_emodel>  (504) 
-30.9994

>  <r_i_glide_energy>  (504) 
-24.7852

>  <r_i_glide_einternal>  (504) 
0.953625

>  <r_i_glide_intrahb_reward>  (504) 
-0

>  <i_i_glide_confnum>  (504) 
5

>  <i_i_glide_posenum>  (504) 
7

>  <r_i_glide_eff_state_penalty>  (504) 
0

>  <ligand_id>  (504) 
107

>  <original_smiles>  (504) 
COC(=O)C1CC2CCC(N2)C1c1ccno1

>  <smiles>  (504) 
[H]c1noc(C2([H])C([H])(C(=O)OC([H])([H])[H])C([H])([H])C3([H])C([H])([H])C([H])([H])C2([H])[N+]3([H])[H])c1[H]

$$$$
108:0:0
     RDKit          3D

 34 37  0  0  1  0  0  0  0  0999 V2000
    6.1589   -9.7154    1.2919 Cl  0  0  0  0  0  0  0  0  0  0  0  0
    4.6505   -9.0502    1.8095 C   0  0  0  0  0  0  0  0  0  0  0  0
    3.6494   -9.8788    2.3560 C   0  0  0  0  0  0  0  0  0  0  0  0
    2.4183   -9.3404    2.7870 C   0  0  0  0  0  0  0  0  0  0  0  0
    2.1619   -7.9563    2.6740 C   0  0  0  0  0  0  0  0  0  0  0  0
    1.0459   -7.2172    3.0401 N   0  0  0  0  0  0  0  0  0  0  0  0
    1.4221   -5.9898    2.7003 C   0  0  0  0  0  0  0  0  0  0  0  0
    2.6324   -5.8464    2.1320 N   0  0  0  0  0  0  0  0  0  0  0  0
    3.2028   -4.6290    1.7193 C   0  0  0  0  0  0  0  0  0  0  0  0
    2.9916   -3.3483    2.2892 C   0  0  0  0  0  0  0  0  0  0  0  0
    3.6832   -2.4335    1.6334 N   0  0  0  0  0  0  0  0  0  0  0  0
    4.3362   -3.1116    0.6540 N   0  0  0  0  0  0  0  0  0  0  0  0
    5.2390   -2.3881   -0.2228 C   0  0  0  0  0  0  0  0  0  0  0  0
    4.7289   -2.3177   -1.6499 C   0  0  0  0  0  0  0  0  0  0  0  0
    4.7373   -3.4563   -2.4824 C   0  0  0  0  0  0  0  0  0  0  0  0
    4.2504   -3.3333   -3.7964 C   0  0  0  0  0  0  0  0  0  0  0  0
    3.8146   -2.1692   -4.3190 N   0  0  0  0  0  0  0  0  0  0  0  0
    3.8047   -1.0827   -3.5187 C   0  0  0  0  0  0  0  0  0  0  0  0
    4.2599   -1.1025   -2.1877 C   0  0  0  0  0  0  0  0  0  0  0  0
    4.0546   -4.4666    0.6720 C   0  0  0  0  0  0  0  0  0  0  0  0
    3.1814   -7.1284    2.1076 C   0  0  0  0  0  0  0  0  0  0  0  0
    4.4133   -7.6667    1.6847 C   0  0  0  0  0  0  0  0  0  0  0  0
    3.8192  -10.9434    2.4299 H   0  0  0  0  0  0  0  0  0  0  0  0
    1.6553   -9.9831    3.2046 H   0  0  0  0  0  0  0  0  0  0  0  0
    0.7741   -5.1411    2.8682 H   0  0  0  0  0  0  0  0  0  0  0  0
    2.3881   -3.0683    3.1404 H   0  0  0  0  0  0  0  0  0  0  0  0
    5.3893   -1.3778    0.1699 H   0  0  0  0  0  0  0  0  0  0  0  0
    6.2043   -2.8954   -0.2058 H   0  0  0  0  0  0  0  0  0  0  0  0
    5.0892   -4.4145   -2.1361 H   0  0  0  0  0  0  0  0  0  0  0  0
    4.2426   -4.1886   -4.4576 H   0  0  0  0  0  0  0  0  0  0  0  0
    3.4392   -0.1680   -3.9614 H   0  0  0  0  0  0  0  0  0  0  0  0
    4.2353   -0.2079   -1.5899 H   0  0  0  0  0  0  0  0  0  0  0  0
    4.4701   -5.1699   -0.0358 H   0  0  0  0  0  0  0  0  0  0  0  0
    5.1802   -7.0272    1.2842 H   0  0  0  0  0  0  0  0  0  0  0  0
  1  2  1  0
  2 22  2  0
  2  3  1  0
  3  4  2  0
  3 23  1  0
  4  5  1  0
  4 24  1  0
  5 21  2  0
  5  6  1  0
  6  7  2  0
  7  8  1  0
  7 25  1  0
  8  9  1  0
  8 21  1  0
  9 20  2  0
  9 10  1  0
 10 11  2  0
 10 26  1  0
 11 12  1  0
 12 13  1  0
 12 20  1  0
 13 14  1  0
 13 27  1  0
 13 28  1  0
 14 19  1  0
 14 15  2  0
 15 16  1  0
 15 29  1  0
 16 17  2  0
 16 30  1  0
 17 18  1  0
 18 19  2  0
 18 31  1  0
 19 32  1  0
 20 33  1  0
 21 22  1  0
 22 34  1  0
M  END
>  <i_m_ct_stereo_status>  (505) 
1

>  <s_m_source_file>  (505) 
/var/tmp/pbs.5102264.sched01/tmpspb9n5yc/161wrz3epul.sdf

>  <i_m_source_file_index>  (505) 
21

>  <i_lp_mmshare_version>  (505) 
48012

>  <i_f3d_flags>  (505) 
0

>  <s_epik_input>  (505) 
W2NIXTFbY0hdYyhDbClbY0hdYyhjMTIpbihbY0hdbjIpLWMzW2NIXW5uKFtjSF0zKVtDSDJdYzRbY0hdW2NIXW5bY0hdW2NIXTQ=

>  <s_epik_cmdline>  (505) 
J2VwaWtfcHl0aG9uJywgJy1waHQnLCAnMi4wJywgJy1waCcsICc3LjAnLCAnLXRuJywgJzgnLCAnLW1hJywgJzIwMCcsICctaW1hZScsICc8aW5maWxlLm1hZT4nLCAnLW9tYWUnLCAnPG91dGZpbGUubWFlPic=

>  <r_epik_Ionization_Penalty>  (505) 
0.0184893

>  <r_epik_Ionization_Penalty_Charging>  (505) 
0

>  <r_epik_Ionization_Penalty_Neutral>  (505) 
0.0184893

>  <r_epik_State_Penalty>  (505) 
0.0139869

>  <r_epik_Charging_Adjusted_Penalty>  (505) 
0.0139869

>  <i_epik_Tot_Q>  (505) 
0

>  <i_epik_Tot_abs_Q>  (505) 
0

>  <s_lp_Force_Field>  (505) 
OPLS3e

>  <r_lp_Energy>  (505) 
24.1545

>  <b_lp_Chiralities_Consistent>  (505) 
1

>  <s_lp_Variant>  (505) 
108:0-1

>  <s_i_glide_gridfile>  (505) 
pfpi4k_grid

>  <i_i_glide_lignum>  (505) 
21

>  <i_i_glide_rotatable_bonds>  (505) 
3

>  <r_i_docking_score>  (505) 
-3.70299

>  <r_i_glide_ligand_efficiency>  (505) 
-0.168318

>  <r_i_glide_ligand_efficiency_sa>  (505) 
-0.471633

>  <r_i_glide_ligand_efficiency_ln>  (505) 
-0.905146

>  <r_i_glide_gscore>  (505) 
-3.70299

>  <r_i_glide_lipo>  (505) 
-0.486661

>  <r_i_glide_hbond>  (505) 
-0.32

>  <r_i_glide_metal>  (505) 
-0

>  <r_i_glide_rewards>  (505) 
-1.31534

>  <r_i_glide_evdw>  (505) 
-29.5796

>  <r_i_glide_ecoul>  (505) 
-4.26226

>  <r_i_glide_erotb>  (505) 
0.579096

>  <r_i_glide_esite>  (505) 
-0.0417588

>  <r_i_glide_emodel>  (505) 
-41.2333

>  <r_i_glide_energy>  (505) 
-33.8419

>  <r_i_glide_einternal>  (505) 
0.943614

>  <r_i_glide_intrahb_reward>  (505) 
-0

>  <i_i_glide_confnum>  (505) 
3

>  <i_i_glide_posenum>  (505) 
13

>  <r_i_glide_eff_state_penalty>  (505) 
0

>  <ligand_id>  (505) 
108

>  <original_smiles>  (505) 
Clc1ccc2ncn(-c3cnn(Cc4ccncc4)c3)c2c1

>  <smiles>  (505) 
[H]c1nc([H])c([H])c(C([H])([H])n2nc([H])c(-n3c([H])nc4c([H])c([H])c(Cl)c([H])c43)c2[H])c1[H]

$$$$
108:0:1
     RDKit          3D

 34 37  0  0  1  0  0  0  0  0999 V2000
   -1.7904   -7.6798    3.3726 Cl  0  0  0  0  0  0  0  0  0  0  0  0
   -0.2211   -8.2559    2.9796 C   0  0  0  0  0  0  0  0  0  0  0  0
    0.1214   -9.6003    3.2004 C   0  0  0  0  0  0  0  0  0  0  0  0
    1.4139  -10.0653    2.8822 C   0  0  0  0  0  0  0  0  0  0  0  0
    2.3828   -9.1877    2.3442 C   0  0  0  0  0  0  0  0  0  0  0  0
    3.6964   -9.4223    1.9795 N   0  0  0  0  0  0  0  0  0  0  0  0
    4.0817   -8.2270    1.5513 C   0  0  0  0  0  0  0  0  0  0  0  0
    3.1707   -7.2337    1.6073 N   0  0  0  0  0  0  0  0  0  0  0  0
    3.3683   -5.8848    1.2384 C   0  0  0  0  0  0  0  0  0  0  0  0
    2.6156   -4.7418    1.6144 C   0  0  0  0  0  0  0  0  0  0  0  0
    3.1465   -3.6430    1.1074 N   0  0  0  0  0  0  0  0  0  0  0  0
    4.2473   -4.0579    0.4360 N   0  0  0  0  0  0  0  0  0  0  0  0
    5.1158   -3.0721   -0.1723 C   0  0  0  0  0  0  0  0  0  0  0  0
    4.6536   -2.6764   -1.5617 C   0  0  0  0  0  0  0  0  0  0  0  0
    4.6616   -3.6041   -2.6211 C   0  0  0  0  0  0  0  0  0  0  0  0
    4.2135   -3.1851   -3.8875 C   0  0  0  0  0  0  0  0  0  0  0  0
    3.8149   -1.9235   -4.1554 N   0  0  0  0  0  0  0  0  0  0  0  0
    3.8048   -1.0398   -3.1339 C   0  0  0  0  0  0  0  0  0  0  0  0
    4.2218   -1.3630   -1.8280 C   0  0  0  0  0  0  0  0  0  0  0  0
    4.4081   -5.4286    0.4827 C   0  0  0  0  0  0  0  0  0  0  0  0
    2.0163   -7.8264    2.1266 C   0  0  0  0  0  0  0  0  0  0  0  0
    0.7225   -7.3631    2.4414 C   0  0  0  0  0  0  0  0  0  0  0  0
   -0.6063  -10.2765    3.6199 H   0  0  0  0  0  0  0  0  0  0  0  0
    1.6772  -11.1008    3.0473 H   0  0  0  0  0  0  0  0  0  0  0  0
    5.0919   -8.0677    1.1969 H   0  0  0  0  0  0  0  0  0  0  0  0
    1.7431   -4.6554    2.2400 H   0  0  0  0  0  0  0  0  0  0  0  0
    5.1579   -2.1955    0.4804 H   0  0  0  0  0  0  0  0  0  0  0  0
    6.1254   -3.4847   -0.2272 H   0  0  0  0  0  0  0  0  0  0  0  0
    4.9823   -4.6242   -2.4754 H   0  0  0  0  0  0  0  0  0  0  0  0
    4.2100   -3.8732   -4.7187 H   0  0  0  0  0  0  0  0  0  0  0  0
    3.4686   -0.0399   -3.3666 H   0  0  0  0  0  0  0  0  0  0  0  0
    4.1930   -0.6185   -1.0483 H   0  0  0  0  0  0  0  0  0  0  0  0
    5.2336   -5.9338    0.0062 H   0  0  0  0  0  0  0  0  0  0  0  0
    0.4388   -6.3418    2.2851 H   0  0  0  0  0  0  0  0  0  0  0  0
  1  2  1  0
  2 22  2  0
  2  3  1  0
  3  4  2  0
  3 23  1  0
  4  5  1  0
  4 24  1  0
  5 21  2  0
  5  6  1  0
  6  7  2  0
  7  8  1  0
  7 25  1  0
  8  9  1  0
  8 21  1  0
  9 20  2  0
  9 10  1  0
 10 11  2  0
 10 26  1  0
 11 12  1  0
 12 13  1  0
 12 20  1  0
 13 14  1  0
 13 27  1  0
 13 28  1  0
 14 19  1  0
 14 15  2  0
 15 16  1  0
 15 29  1  0
 16 17  2  0
 16 30  1  0
 17 18  1  0
 18 19  2  0
 18 31  1  0
 19 32  1  0
 20 33  1  0
 21 22  1  0
 22 34  1  0
M  END
>  <i_m_ct_stereo_status>  (506) 
1

>  <s_m_source_file>  (506) 
/var/tmp/pbs.5102264.sched01/tmpspb9n5yc/161wrz3epul.sdf

>  <i_m_source_file_index>  (506) 
21

>  <i_lp_mmshare_version>  (506) 
48012

>  <i_f3d_flags>  (506) 
0

>  <s_epik_input>  (506) 
W2NIXTFbY0hdYyhDbClbY0hdYyhjMTIpbihbY0hdbjIpLWMzW2NIXW5uKFtjSF0zKVtDSDJdYzRbY0hdW2NIXW5bY0hdW2NIXTQ=

>  <s_epik_cmdline>  (506) 
J2VwaWtfcHl0aG9uJywgJy1waHQnLCAnMi4wJywgJy1waCcsICc3LjAnLCAnLXRuJywgJzgnLCAnLW1hJywgJzIwMCcsICctaW1hZScsICc8aW5maWxlLm1hZT4nLCAnLW9tYWUnLCAnPG91dGZpbGUubWFlPic=

>  <r_epik_Ionization_Penalty>  (506) 
0.0184893

>  <r_epik_Ionization_Penalty_Charging>  (506) 
0

>  <r_epik_Ionization_Penalty_Neutral>  (506) 
0.0184893

>  <r_epik_State_Penalty>  (506) 
0.0139869

>  <r_epik_Charging_Adjusted_Penalty>  (506) 
0.0139869

>  <i_epik_Tot_Q>  (506) 
0

>  <i_epik_Tot_abs_Q>  (506) 
0

>  <s_lp_Force_Field>  (506) 
OPLS3e

>  <r_lp_Energy>  (506) 
24.1545

>  <b_lp_Chiralities_Consistent>  (506) 
1

>  <s_lp_Variant>  (506) 
108:0-1

>  <s_i_glide_gridfile>  (506) 
pfpi4k_grid

>  <i_i_glide_lignum>  (506) 
21

>  <i_i_glide_rotatable_bonds>  (506) 
3

>  <r_i_docking_score>  (506) 
-3.39695

>  <r_i_glide_ligand_efficiency>  (506) 
-0.154407

>  <r_i_glide_ligand_efficiency_sa>  (506) 
-0.432654

>  <r_i_glide_ligand_efficiency_ln>  (506) 
-0.830338

>  <r_i_glide_gscore>  (506) 
-3.39695

>  <r_i_glide_lipo>  (506) 
-0.414132

>  <r_i_glide_hbond>  (506) 
-0.281271

>  <r_i_glide_metal>  (506) 
-0

>  <r_i_glide_rewards>  (506) 
-1.41165

>  <r_i_glide_evdw>  (506) 
-34.7064

>  <r_i_glide_ecoul>  (506) 
-0.817848

>  <r_i_glide_erotb>  (506) 
0.579096

>  <r_i_glide_esite>  (506) 
-0.0109912

>  <r_i_glide_emodel>  (506) 
-42.5215

>  <r_i_glide_energy>  (506) 
-35.5243

>  <r_i_glide_einternal>  (506) 
0.498032

>  <r_i_glide_intrahb_reward>  (506) 
-0

>  <i_i_glide_confnum>  (506) 
5

>  <i_i_glide_posenum>  (506) 
2

>  <r_i_glide_eff_state_penalty>  (506) 
0

>  <ligand_id>  (506) 
108

>  <original_smiles>  (506) 
Clc1ccc2ncn(-c3cnn(Cc4ccncc4)c3)c2c1

>  <smiles>  (506) 
[H]c1nc([H])c([H])c(C([H])([H])n2nc([H])c(-n3c([H])nc4c([H])c([H])c(Cl)c([H])c43)c2[H])c1[H]

$$$$
108:0:2
     RDKit          3D

 34 37  0  0  1  0  0  0  0  0999 V2000
   -0.9772    4.5635    3.6841 Cl  0  0  0  0  0  0  0  0  0  0  0  0
   -0.9324    2.8984    4.1068 C   0  0  0  0  0  0  0  0  0  0  0  0
   -1.8068    2.4106    5.0886 C   0  0  0  0  0  0  0  0  0  0  0  0
   -1.7882    1.0484    5.4474 C   0  0  0  0  0  0  0  0  0  0  0  0
   -0.8863    0.1539    4.8287 C   0  0  0  0  0  0  0  0  0  0  0  0
   -0.7090   -1.2065    5.0327 N   0  0  0  0  0  0  0  0  0  0  0  0
    0.2792   -1.4749    4.1825 C   0  0  0  0  0  0  0  0  0  0  0  0
    0.7481   -0.4466    3.4409 N   0  0  0  0  0  0  0  0  0  0  0  0
    1.7959   -0.4927    2.4915 C   0  0  0  0  0  0  0  0  0  0  0  0
    2.5861    0.5729    1.9833 C   0  0  0  0  0  0  0  0  0  0  0  0
    3.5329    0.1108    1.1841 N   0  0  0  0  0  0  0  0  0  0  0  0
    3.3422   -1.2294    1.1396 N   0  0  0  0  0  0  0  0  0  0  0  0
    4.2515   -2.0517    0.3668 C   0  0  0  0  0  0  0  0  0  0  0  0
    3.9293   -2.0496   -1.1182 C   0  0  0  0  0  0  0  0  0  0  0  0
    4.4543   -1.0560   -1.9644 C   0  0  0  0  0  0  0  0  0  0  0  0
    4.1562   -1.1086   -3.3398 C   0  0  0  0  0  0  0  0  0  0  0  0
    3.4161   -2.0848   -3.9023 N   0  0  0  0  0  0  0  0  0  0  0  0
    2.8993   -3.0272   -3.0840 C   0  0  0  0  0  0  0  0  0  0  0  0
    3.1309   -3.0560   -1.6933 C   0  0  0  0  0  0  0  0  0  0  0  0
    2.2896   -1.6356    1.9362 C   0  0  0  0  0  0  0  0  0  0  0  0
    0.0004    0.6646    3.8339 C   0  0  0  0  0  0  0  0  0  0  0  0
   -0.0265    2.0293    3.4711 C   0  0  0  0  0  0  0  0  0  0  0  0
   -2.5047    3.0820    5.5585 H   0  0  0  0  0  0  0  0  0  0  0  0
   -2.4741    0.6806    6.1890 H   0  0  0  0  0  0  0  0  0  0  0  0
    0.6856   -2.4773    4.1061 H   0  0  0  0  0  0  0  0  0  0  0  0
    2.5534    1.6311    2.1883 H   0  0  0  0  0  0  0  0  0  0  0  0
    5.2699   -1.6894    0.5288 H   0  0  0  0  0  0  0  0  0  0  0  0
    4.2059   -3.0732    0.7511 H   0  0  0  0  0  0  0  0  0  0  0  0
    5.0578   -0.2562   -1.5619 H   0  0  0  0  0  0  0  0  0  0  0  0
    4.5358   -0.3548   -4.0121 H   0  0  0  0  0  0  0  0  0  0  0  0
    2.2961   -3.7905   -3.5543 H   0  0  0  0  0  0  0  0  0  0  0  0
    2.7075   -3.8474   -1.0936 H   0  0  0  0  0  0  0  0  0  0  0  0
    2.0101   -2.6717    2.0433 H   0  0  0  0  0  0  0  0  0  0  0  0
    0.6162    2.4296    2.7043 H   0  0  0  0  0  0  0  0  0  0  0  0
  1  2  1  0
  2 22  2  0
  2  3  1  0
  3  4  2  0
  3 23  1  0
  4  5  1  0
  4 24  1  0
  5 21  2  0
  5  6  1  0
  6  7  2  0
  7  8  1  0
  7 25  1  0
  8  9  1  0
  8 21  1  0
  9 20  2  0
  9 10  1  0
 10 11  2  0
 10 26  1  0
 11 12  1  0
 12 13  1  0
 12 20  1  0
 13 14  1  0
 13 27  1  0
 13 28  1  0
 14 19  1  0
 14 15  2  0
 15 16  1  0
 15 29  1  0
 16 17  2  0
 16 30  1  0
 17 18  1  0
 18 19  2  0
 18 31  1  0
 19 32  1  0
 20 33  1  0
 21 22  1  0
 22 34  1  0
M  END
>  <i_m_ct_stereo_status>  (507) 
1

>  <s_m_source_file>  (507) 
/var/tmp/pbs.5102264.sched01/tmpspb9n5yc/161wrz3epul.sdf

>  <i_m_source_file_index>  (507) 
21

>  <i_lp_mmshare_version>  (507) 
48012

>  <i_f3d_flags>  (507) 
0

>  <s_epik_input>  (507) 
W2NIXTFbY0hdYyhDbClbY0hdYyhjMTIpbihbY0hdbjIpLWMzW2NIXW5uKFtjSF0zKVtDSDJdYzRbY0hdW2NIXW5bY0hdW2NIXTQ=

>  <s_epik_cmdline>  (507) 
J2VwaWtfcHl0aG9uJywgJy1waHQnLCAnMi4wJywgJy1waCcsICc3LjAnLCAnLXRuJywgJzgnLCAnLW1hJywgJzIwMCcsICctaW1hZScsICc8aW5maWxlLm1hZT4nLCAnLW9tYWUnLCAnPG91dGZpbGUubWFlPic=

>  <r_epik_Ionization_Penalty>  (507) 
0.0184893

>  <r_epik_Ionization_Penalty_Charging>  (507) 
0

>  <r_epik_Ionization_Penalty_Neutral>  (507) 
0.0184893

>  <r_epik_State_Penalty>  (507) 
0.0139869

>  <r_epik_Charging_Adjusted_Penalty>  (507) 
0.0139869

>  <i_epik_Tot_Q>  (507) 
0

>  <i_epik_Tot_abs_Q>  (507) 
0

>  <s_lp_Force_Field>  (507) 
OPLS3e

>  <r_lp_Energy>  (507) 
24.1545

>  <b_lp_Chiralities_Consistent>  (507) 
1

>  <s_lp_Variant>  (507) 
108:0-1

>  <s_i_glide_gridfile>  (507) 
pfpi4k_grid

>  <i_i_glide_lignum>  (507) 
21

>  <i_i_glide_rotatable_bonds>  (507) 
3

>  <r_i_docking_score>  (507) 
-3.18914

>  <r_i_glide_ligand_efficiency>  (507) 
-0.144961

>  <r_i_glide_ligand_efficiency_sa>  (507) 
-0.406186

>  <r_i_glide_ligand_efficiency_ln>  (507) 
-0.779542

>  <r_i_glide_gscore>  (507) 
-3.18914

>  <r_i_glide_lipo>  (507) 
-0.235673

>  <r_i_glide_hbond>  (507) 
-0.0322152

>  <r_i_glide_metal>  (507) 
-0

>  <r_i_glide_rewards>  (507) 
-1.29714

>  <r_i_glide_evdw>  (507) 
-31.9057

>  <r_i_glide_ecoul>  (507) 
-3.65373

>  <r_i_glide_erotb>  (507) 
0.579096

>  <r_i_glide_esite>  (507) 
-0.0598636

>  <r_i_glide_emodel>  (507) 
-42.2531

>  <r_i_glide_energy>  (507) 
-35.5594

>  <r_i_glide_einternal>  (507) 
0.253967

>  <r_i_glide_intrahb_reward>  (507) 
-0

>  <i_i_glide_confnum>  (507) 
5

>  <i_i_glide_posenum>  (507) 
34

>  <r_i_glide_eff_state_penalty>  (507) 
0

>  <ligand_id>  (507) 
108

>  <original_smiles>  (507) 
Clc1ccc2ncn(-c3cnn(Cc4ccncc4)c3)c2c1

>  <smiles>  (507) 
[H]c1nc([H])c([H])c(C([H])([H])n2nc([H])c(-n3c([H])nc4c([H])c([H])c(Cl)c([H])c43)c2[H])c1[H]

$$$$
108:1:0
     RDKit          3D

 35 38  0  0  1  0  0  0  0  0999 V2000
   -1.5618   -7.7970    4.0486 Cl  0  0  0  0  0  0  0  0  0  0  0  0
   -0.1099   -8.4404    3.3755 C   0  0  0  0  0  0  0  0  0  0  0  0
    0.1579   -9.8128    3.4284 C   0  0  0  0  0  0  0  0  0  0  0  0
    1.3493  -10.3502    2.8820 C   0  0  0  0  0  0  0  0  0  0  0  0
    2.2354   -9.4523    2.2989 C   0  0  0  0  0  0  0  0  0  0  0  0
    3.4604   -9.6599    1.6774 N   0  0  0  0  0  0  0  0  0  0  0  0
    3.9608   -8.4568    1.2794 C   0  0  0  0  0  0  0  0  0  0  0  0
    3.0738   -7.4565    1.6110 N   0  0  0  0  0  0  0  0  0  0  0  0
    3.2399   -6.0676    1.3670 C   0  0  0  0  0  0  0  0  0  0  0  0
    2.6120   -4.9243    1.9420 C   0  0  0  0  0  0  0  0  0  0  0  0
    3.0934   -3.7936    1.4537 N   0  0  0  0  0  0  0  0  0  0  0  0
    4.0617   -4.1689    0.6024 N   0  0  0  0  0  0  0  0  0  0  0  0
    4.8649   -3.1358   -0.0203 C   0  0  0  0  0  0  0  0  0  0  0  0
    4.4854   -2.9121   -1.4719 C   0  0  0  0  0  0  0  0  0  0  0  0
    4.9629   -3.7752   -2.4704 C   0  0  0  0  0  0  0  0  0  0  0  0
    4.5920   -3.5283   -3.8046 C   0  0  0  0  0  0  0  0  0  0  0  0
    3.8152   -2.4912   -4.1814 N   0  0  0  0  0  0  0  0  0  0  0  0
    3.3544   -1.6695   -3.2113 C   0  0  0  0  0  0  0  0  0  0  0  0
    3.6626   -1.8371   -1.8477 C   0  0  0  0  0  0  0  0  0  0  0  0
    4.1697   -5.5498    0.5069 C   0  0  0  0  0  0  0  0  0  0  0  0
    1.9767   -8.0631    2.2465 C   0  0  0  0  0  0  0  0  0  0  0  0
    0.7944   -7.5403    2.7764 C   0  0  0  0  0  0  0  0  0  0  0  0
   -0.5702  -10.4641    3.8945 H   0  0  0  0  0  0  0  0  0  0  0  0
    1.5486  -11.4162    2.9160 H   0  0  0  0  0  0  0  0  0  0  0  0
    4.9161   -8.3282    0.7629 H   0  0  0  0  0  0  0  0  0  0  0  0
    1.8509   -4.8317    2.7123 H   0  0  0  0  0  0  0  0  0  0  0  0
    4.7397   -2.2032    0.5399 H   0  0  0  0  0  0  0  0  0  0  0  0
    5.9193   -3.4164    0.0569 H   0  0  0  0  0  0  0  0  0  0  0  0
    5.5766   -4.6257   -2.2307 H   0  0  0  0  0  0  0  0  0  0  0  0
    4.9380   -4.1735   -4.5983 H   0  0  0  0  0  0  0  0  0  0  0  0
    2.7271   -0.8543   -3.5415 H   0  0  0  0  0  0  0  0  0  0  0  0
    3.2504   -1.1539   -1.1208 H   0  0  0  0  0  0  0  0  0  0  0  0
    4.9018   -6.0256   -0.1374 H   0  0  0  0  0  0  0  0  0  0  0  0
    0.5361   -6.4943    2.7602 H   0  0  0  0  0  0  0  0  0  0  0  0
    3.8809  -10.5642    1.4725 H   0  0  0  0  0  0  0  0  0  0  0  0
  1  2  1  0
  2 22  2  0
  2  3  1  0
  3  4  2  0
  3 23  1  0
  4  5  1  0
  4 24  1  0
  5 21  2  0
  5  6  1  0
  6  7  2  0
  6 35  1  0
  7  8  1  0
  7 25  1  0
  8  9  1  0
  8 21  1  0
  9 20  2  0
  9 10  1  0
 10 11  2  0
 10 26  1  0
 11 12  1  0
 12 13  1  0
 12 20  1  0
 13 14  1  0
 13 27  1  0
 13 28  1  0
 14 19  1  0
 14 15  2  0
 15 16  1  0
 15 29  1  0
 16 17  2  0
 16 30  1  0
 17 18  1  0
 18 19  2  0
 18 31  1  0
 19 32  1  0
 20 33  1  0
 21 22  1  0
 22 34  1  0
M  CHG  1   6   1
M  END
>  <i_m_ct_stereo_status>  (508) 
1

>  <s_m_source_file>  (508) 
/var/tmp/pbs.5102264.sched01/tmpspb9n5yc/161wrz3epul.sdf

>  <i_m_source_file_index>  (508) 
22

>  <i_lp_mmshare_version>  (508) 
48012

>  <i_f3d_flags>  (508) 
0

>  <s_epik_input>  (508) 
W2NIXTFbY0hdYyhDbClbY0hdYyhjMTIpbihbY0hdbjIpLWMzW2NIXW5uKFtjSF0zKVtDSDJdYzRbY0hdW2NIXW5bY0hdW2NIXTQ=

>  <s_epik_cmdline>  (508) 
J2VwaWtfcHl0aG9uJywgJy1waHQnLCAnMi4wJywgJy1waCcsICc3LjAnLCAnLXRuJywgJzgnLCAnLW1hJywgJzIwMCcsICctaW1hZScsICc8aW5maWxlLm1hZT4nLCAnLW9tYWUnLCAnPG91dGZpbGUubWFlPic=

>  <r_epik_Ionization_Penalty>  (508) 
2.33177

>  <r_epik_Ionization_Penalty_Charging>  (508) 
2.3251

>  <r_epik_Ionization_Penalty_Neutral>  (508) 
0.00666712

>  <r_epik_State_Penalty>  (508) 
2.48244

>  <r_epik_Charging_Adjusted_Penalty>  (508) 
4.80755

>  <i_epik_Tot_Q>  (508) 
1

>  <i_epik_Tot_abs_Q>  (508) 
1

>  <s_lp_Force_Field>  (508) 
OPLS3e

>  <r_lp_Energy>  (508) 
31.9257

>  <b_lp_Chiralities_Consistent>  (508) 
1

>  <s_lp_Variant>  (508) 
108:0-2

>  <s_i_glide_gridfile>  (508) 
pfpi4k_grid

>  <i_i_glide_lignum>  (508) 
22

>  <i_i_glide_rotatable_bonds>  (508) 
3

>  <r_i_docking_score>  (508) 
-4.48512

>  <r_i_glide_ligand_efficiency>  (508) 
-0.203869

>  <r_i_glide_ligand_efficiency_sa>  (508) 
-0.57125

>  <r_i_glide_ligand_efficiency_ln>  (508) 
-1.09633

>  <r_i_glide_gscore>  (508) 
-4.48512

>  <r_i_glide_lipo>  (508) 
-0.535197

>  <r_i_glide_hbond>  (508) 
-0.518333

>  <r_i_glide_metal>  (508) 
-0

>  <r_i_glide_rewards>  (508) 
-1.37588

>  <r_i_glide_evdw>  (508) 
-30.4616

>  <r_i_glide_ecoul>  (508) 
-6.7433

>  <r_i_glide_erotb>  (508) 
0.575801

>  <r_i_glide_esite>  (508) 
-0.0969396

>  <r_i_glide_emodel>  (508) 
-49.9821

>  <r_i_glide_energy>  (508) 
-37.2049

>  <r_i_glide_einternal>  (508) 
0.286559

>  <r_i_glide_intrahb_reward>  (508) 
-0

>  <i_i_glide_confnum>  (508) 
5

>  <i_i_glide_posenum>  (508) 
1

>  <r_i_glide_eff_state_penalty>  (508) 
0

>  <ligand_id>  (508) 
108

>  <original_smiles>  (508) 
Clc1ccc2ncn(-c3cnn(Cc4ccncc4)c3)c2c1

>  <smiles>  (508) 
[H]c1nc([H])c([H])c(C([H])([H])n2nc([H])c(-n3c([H])[n+]([H])c4c([H])c([H])c(Cl)c([H])c43)c2[H])c1[H]

$$$$
108:1:1
     RDKit          3D

 35 38  0  0  1  0  0  0  0  0999 V2000
    5.8599   -1.5293   -0.0404 Cl  0  0  0  0  0  0  0  0  0  0  0  0
    6.6282   -3.0149    0.3980 C   0  0  0  0  0  0  0  0  0  0  0  0
    8.0297   -3.1019    0.4096 C   0  0  0  0  0  0  0  0  0  0  0  0
    8.6814   -4.2892    0.7929 C   0  0  0  0  0  0  0  0  0  0  0  0
    7.8955   -5.3881    1.1176 C   0  0  0  0  0  0  0  0  0  0  0  0
    8.2431   -6.6803    1.4937 N   0  0  0  0  0  0  0  0  0  0  0  0
    7.1051   -7.3967    1.7254 C   0  0  0  0  0  0  0  0  0  0  0  0
    6.0209   -6.5841    1.4790 N   0  0  0  0  0  0  0  0  0  0  0  0
    4.6519   -6.9587    1.5593 C   0  0  0  0  0  0  0  0  0  0  0  0
    3.4778   -6.3888    0.9866 C   0  0  0  0  0  0  0  0  0  0  0  0
    2.3954   -7.0882    1.2850 N   0  0  0  0  0  0  0  0  0  0  0  0
    2.8436   -8.1233    2.0291 N   0  0  0  0  0  0  0  0  0  0  0  0
    1.9086   -9.1483    2.4611 C   0  0  0  0  0  0  0  0  0  0  0  0
    0.6226   -8.5531    3.0213 C   0  0  0  0  0  0  0  0  0  0  0  0
    0.6478   -7.6036    4.0618 C   0  0  0  0  0  0  0  0  0  0  0  0
   -0.5745   -7.0787    4.5243 C   0  0  0  0  0  0  0  0  0  0  0  0
   -1.7749   -7.4261    4.0093 N   0  0  0  0  0  0  0  0  0  0  0  0
   -1.7846   -8.3585    3.0306 C   0  0  0  0  0  0  0  0  0  0  0  0
   -0.6214   -8.9339    2.4967 C   0  0  0  0  0  0  0  0  0  0  0  0
    4.2165   -8.0789    2.2146 C   0  0  0  0  0  0  0  0  0  0  0  0
    6.4825   -5.3129    1.1062 C   0  0  0  0  0  0  0  0  0  0  0  0
    5.8367   -4.1231    0.7600 C   0  0  0  0  0  0  0  0  0  0  0  0
    8.6152   -2.2232    0.1485 H   0  0  0  0  0  0  0  0  0  0  0  0
    9.7568   -4.3244    0.8628 H   0  0  0  0  0  0  0  0  0  0  0  0
    7.0780   -8.4370    2.0182 H   0  0  0  0  0  0  0  0  0  0  0  0
    3.3439   -5.5301    0.3422 H   0  0  0  0  0  0  0  0  0  0  0  0
    1.6925   -9.7885    1.6058 H   0  0  0  0  0  0  0  0  0  0  0  0
    2.3747   -9.7641    3.2266 H   0  0  0  0  0  0  0  0  0  0  0  0
    1.5799   -7.2712    4.4999 H   0  0  0  0  0  0  0  0  0  0  0  0
   -0.5996   -6.3498    5.3208 H   0  0  0  0  0  0  0  0  0  0  0  0
   -2.7478   -8.6445    2.6460 H   0  0  0  0  0  0  0  0  0  0  0  0
   -0.7025   -9.6603    1.6992 H   0  0  0  0  0  0  0  0  0  0  0  0
    4.7403   -8.8419    2.7762 H   0  0  0  0  0  0  0  0  0  0  0  0
    4.7633   -3.9992    0.7637 H   0  0  0  0  0  0  0  0  0  0  0  0
    9.1811   -7.0706    1.5608 H   0  0  0  0  0  0  0  0  0  0  0  0
  1  2  1  0
  2 22  2  0
  2  3  1  0
  3  4  2  0
  3 23  1  0
  4  5  1  0
  4 24  1  0
  5 21  2  0
  5  6  1  0
  6  7  2  0
  6 35  1  0
  7  8  1  0
  7 25  1  0
  8  9  1  0
  8 21  1  0
  9 20  2  0
  9 10  1  0
 10 11  2  0
 10 26  1  0
 11 12  1  0
 12 13  1  0
 12 20  1  0
 13 14  1  0
 13 27  1  0
 13 28  1  0
 14 19  1  0
 14 15  2  0
 15 16  1  0
 15 29  1  0
 16 17  2  0
 16 30  1  0
 17 18  1  0
 18 19  2  0
 18 31  1  0
 19 32  1  0
 20 33  1  0
 21 22  1  0
 22 34  1  0
M  CHG  1   6   1
M  END
>  <i_m_ct_stereo_status>  (509) 
1

>  <s_m_source_file>  (509) 
/var/tmp/pbs.5102264.sched01/tmpspb9n5yc/161wrz3epul.sdf

>  <i_m_source_file_index>  (509) 
22

>  <i_lp_mmshare_version>  (509) 
48012

>  <i_f3d_flags>  (509) 
0

>  <s_epik_input>  (509) 
W2NIXTFbY0hdYyhDbClbY0hdYyhjMTIpbihbY0hdbjIpLWMzW2NIXW5uKFtjSF0zKVtDSDJdYzRbY0hdW2NIXW5bY0hdW2NIXTQ=

>  <s_epik_cmdline>  (509) 
J2VwaWtfcHl0aG9uJywgJy1waHQnLCAnMi4wJywgJy1waCcsICc3LjAnLCAnLXRuJywgJzgnLCAnLW1hJywgJzIwMCcsICctaW1hZScsICc8aW5maWxlLm1hZT4nLCAnLW9tYWUnLCAnPG91dGZpbGUubWFlPic=

>  <r_epik_Ionization_Penalty>  (509) 
2.33177

>  <r_epik_Ionization_Penalty_Charging>  (509) 
2.3251

>  <r_epik_Ionization_Penalty_Neutral>  (509) 
0.00666712

>  <r_epik_State_Penalty>  (509) 
2.48244

>  <r_epik_Charging_Adjusted_Penalty>  (509) 
4.80755

>  <i_epik_Tot_Q>  (509) 
1

>  <i_epik_Tot_abs_Q>  (509) 
1

>  <s_lp_Force_Field>  (509) 
OPLS3e

>  <r_lp_Energy>  (509) 
31.9257

>  <b_lp_Chiralities_Consistent>  (509) 
1

>  <s_lp_Variant>  (509) 
108:0-2

>  <s_i_glide_gridfile>  (509) 
pfpi4k_grid

>  <i_i_glide_lignum>  (509) 
22

>  <i_i_glide_rotatable_bonds>  (509) 
3

>  <r_i_docking_score>  (509) 
-4.11303

>  <r_i_glide_ligand_efficiency>  (509) 
-0.186956

>  <r_i_glide_ligand_efficiency_sa>  (509) 
-0.523857

>  <r_i_glide_ligand_efficiency_ln>  (509) 
-1.00537

>  <r_i_glide_gscore>  (509) 
-4.11303

>  <r_i_glide_lipo>  (509) 
-0.777601

>  <r_i_glide_hbond>  (509) 
-0.2

>  <r_i_glide_metal>  (509) 
-0

>  <r_i_glide_rewards>  (509) 
-1.51655

>  <r_i_glide_evdw>  (509) 
-27.612

>  <r_i_glide_ecoul>  (509) 
-4.97902

>  <r_i_glide_erotb>  (509) 
0.575801

>  <r_i_glide_esite>  (509) 
-0.0672215

>  <r_i_glide_emodel>  (509) 
-43.8583

>  <r_i_glide_energy>  (509) 
-32.591

>  <r_i_glide_einternal>  (509) 
1.1216

>  <r_i_glide_intrahb_reward>  (509) 
-0

>  <i_i_glide_confnum>  (509) 
5

>  <i_i_glide_posenum>  (509) 
37

>  <r_i_glide_eff_state_penalty>  (509) 
0

>  <ligand_id>  (509) 
108

>  <original_smiles>  (509) 
Clc1ccc2ncn(-c3cnn(Cc4ccncc4)c3)c2c1

>  <smiles>  (509) 
[H]c1nc([H])c([H])c(C([H])([H])n2nc([H])c(-n3c([H])[n+]([H])c4c([H])c([H])c(Cl)c([H])c43)c2[H])c1[H]

$$$$
108:1:2
     RDKit          3D

 35 38  0  0  1  0  0  0  0  0999 V2000
    4.8470   -2.6587   -3.1171 Cl  0  0  0  0  0  0  0  0  0  0  0  0
    5.7313   -3.2919   -1.7760 C   0  0  0  0  0  0  0  0  0  0  0  0
    7.0773   -2.9346   -1.5804 C   0  0  0  0  0  0  0  0  0  0  0  0
    7.8268   -3.4313   -0.4937 C   0  0  0  0  0  0  0  0  0  0  0  0
    7.1777   -4.3148    0.3700 C   0  0  0  0  0  0  0  0  0  0  0  0
    7.6355   -5.0001    1.4869 N   0  0  0  0  0  0  0  0  0  0  0  0
    6.6237   -5.7668    1.9884 C   0  0  0  0  0  0  0  0  0  0  0  0
    5.5152   -5.6005    1.1992 N   0  0  0  0  0  0  0  0  0  0  0  0
    4.2525   -6.2197    1.3927 C   0  0  0  0  0  0  0  0  0  0  0  0
    2.9591   -5.9147    0.8832 C   0  0  0  0  0  0  0  0  0  0  0  0
    2.0514   -6.7814    1.2980 N   0  0  0  0  0  0  0  0  0  0  0  0
    2.7269   -7.6379    2.0969 N   0  0  0  0  0  0  0  0  0  0  0  0
    2.0283   -8.7674    2.6885 C   0  0  0  0  0  0  0  0  0  0  0  0
    0.5893   -8.4319    3.0589 C   0  0  0  0  0  0  0  0  0  0  0  0
    0.2907   -7.3611    3.9244 C   0  0  0  0  0  0  0  0  0  0  0  0
   -1.0591   -7.0834    4.2036 C   0  0  0  0  0  0  0  0  0  0  0  0
   -2.0860   -7.7728    3.6616 N   0  0  0  0  0  0  0  0  0  0  0  0
   -1.7856   -8.8129    2.8530 C   0  0  0  0  0  0  0  0  0  0  0  0
   -0.4683   -9.1735    2.5181 C   0  0  0  0  0  0  0  0  0  0  0  0
    4.0718   -7.3237    2.1830 C   0  0  0  0  0  0  0  0  0  0  0  0
    5.8253   -4.6935    0.1724 C   0  0  0  0  0  0  0  0  0  0  0  0
    5.0925   -4.1917   -0.9034 C   0  0  0  0  0  0  0  0  0  0  0  0
    7.5553   -2.2944   -2.3172 H   0  0  0  0  0  0  0  0  0  0  0  0
    8.8702   -3.1527   -0.3755 H   0  0  0  0  0  0  0  0  0  0  0  0
    6.6981   -6.3851    2.8727 H   0  0  0  0  0  0  0  0  0  0  0  0
    2.6197   -5.1184    0.2333 H   0  0  0  0  0  0  0  0  0  0  0  0
    2.0554   -9.5910    1.9736 H   0  0  0  0  0  0  0  0  0  0  0  0
    2.5553   -9.0855    3.5864 H   0  0  0  0  0  0  0  0  0  0  0  0
    1.0716   -6.7506    4.3564 H   0  0  0  0  0  0  0  0  0  0  0  0
   -1.3355   -6.2707    4.8576 H   0  0  0  0  0  0  0  0  0  0  0  0
   -2.6126   -9.3741    2.4506 H   0  0  0  0  0  0  0  0  0  0  0  0
   -0.2968  -10.0082    1.8525 H   0  0  0  0  0  0  0  0  0  0  0  0
    4.7561   -7.9098    2.7834 H   0  0  0  0  0  0  0  0  0  0  0  0
    4.0737   -4.4765   -1.1358 H   0  0  0  0  0  0  0  0  0  0  0  0
    8.5533   -4.9484    1.8976 H   0  0  0  0  0  0  0  0  0  0  0  0
  1  2  1  0
  2 22  2  0
  2  3  1  0
  3  4  2  0
  3 23  1  0
  4  5  1  0
  4 24  1  0
  5 21  2  0
  5  6  1  0
  6  7  2  0
  6 35  1  0
  7  8  1  0
  7 25  1  0
  8  9  1  0
  8 21  1  0
  9 20  2  0
  9 10  1  0
 10 11  2  0
 10 26  1  0
 11 12  1  0
 12 13  1  0
 12 20  1  0
 13 14  1  0
 13 27  1  0
 13 28  1  0
 14 19  1  0
 14 15  2  0
 15 16  1  0
 15 29  1  0
 16 17  2  0
 16 30  1  0
 17 18  1  0
 18 19  2  0
 18 31  1  0
 19 32  1  0
 20 33  1  0
 21 22  1  0
 22 34  1  0
M  CHG  1   6   1
M  END
>  <i_m_ct_stereo_status>  (510) 
1

>  <s_m_source_file>  (510) 
/var/tmp/pbs.5102264.sched01/tmpspb9n5yc/161wrz3epul.sdf

>  <i_m_source_file_index>  (510) 
22

>  <i_lp_mmshare_version>  (510) 
48012

>  <i_f3d_flags>  (510) 
0

>  <s_epik_input>  (510) 
W2NIXTFbY0hdYyhDbClbY0hdYyhjMTIpbihbY0hdbjIpLWMzW2NIXW5uKFtjSF0zKVtDSDJdYzRbY0hdW2NIXW5bY0hdW2NIXTQ=

>  <s_epik_cmdline>  (510) 
J2VwaWtfcHl0aG9uJywgJy1waHQnLCAnMi4wJywgJy1waCcsICc3LjAnLCAnLXRuJywgJzgnLCAnLW1hJywgJzIwMCcsICctaW1hZScsICc8aW5maWxlLm1hZT4nLCAnLW9tYWUnLCAnPG91dGZpbGUubWFlPic=

>  <r_epik_Ionization_Penalty>  (510) 
2.33177

>  <r_epik_Ionization_Penalty_Charging>  (510) 
2.3251

>  <r_epik_Ionization_Penalty_Neutral>  (510) 
0.00666712

>  <r_epik_State_Penalty>  (510) 
2.48244

>  <r_epik_Charging_Adjusted_Penalty>  (510) 
4.80755

>  <i_epik_Tot_Q>  (510) 
1

>  <i_epik_Tot_abs_Q>  (510) 
1

>  <s_lp_Force_Field>  (510) 
OPLS3e

>  <r_lp_Energy>  (510) 
31.9257

>  <b_lp_Chiralities_Consistent>  (510) 
1

>  <s_lp_Variant>  (510) 
108:0-2

>  <s_i_glide_gridfile>  (510) 
pfpi4k_grid

>  <i_i_glide_lignum>  (510) 
22

>  <i_i_glide_rotatable_bonds>  (510) 
3

>  <r_i_docking_score>  (510) 
-3.90608

>  <r_i_glide_ligand_efficiency>  (510) 
-0.177549

>  <r_i_glide_ligand_efficiency_sa>  (510) 
-0.4975

>  <r_i_glide_ligand_efficiency_ln>  (510) 
-0.954789

>  <r_i_glide_gscore>  (510) 
-3.90608

>  <r_i_glide_lipo>  (510) 
-0.814536

>  <r_i_glide_hbond>  (510) 
0

>  <r_i_glide_metal>  (510) 
-0

>  <r_i_glide_rewards>  (510) 
-1.46545

>  <r_i_glide_evdw>  (510) 
-29.3613

>  <r_i_glide_ecoul>  (510) 
-4.86087

>  <r_i_glide_erotb>  (510) 
0.575801

>  <r_i_glide_esite>  (510) 
-0.00470208

>  <r_i_glide_emodel>  (510) 
-44.817

>  <r_i_glide_energy>  (510) 
-34.2221

>  <r_i_glide_einternal>  (510) 
1.29594

>  <r_i_glide_intrahb_reward>  (510) 
-0

>  <i_i_glide_confnum>  (510) 
5

>  <i_i_glide_posenum>  (510) 
26

>  <r_i_glide_eff_state_penalty>  (510) 
0

>  <ligand_id>  (510) 
108

>  <original_smiles>  (510) 
Clc1ccc2ncn(-c3cnn(Cc4ccncc4)c3)c2c1

>  <smiles>  (510) 
[H]c1nc([H])c([H])c(C([H])([H])n2nc([H])c(-n3c([H])[n+]([H])c4c([H])c([H])c(Cl)c([H])c43)c2[H])c1[H]

$$$$
109:0:0
     RDKit          3D

 43 44  0  0  1  0  0  0  0  0999 V2000
    4.7846   -2.1179    1.1271 O   0  0  0  0  0  0  0  0  0  0  0  0
    3.4865   -2.5206    0.5642 S   0  0  0  0  0  0  0  0  0  0  0  0
    3.0289   -3.9132    0.7110 O   0  0  0  0  0  0  0  0  0  0  0  0
    2.2622   -1.5395    1.2787 N   0  0  0  0  0  0  0  0  0  0  0  0
    2.6439   -0.2938    1.9432 C   0  0  0  0  0  0  0  0  0  0  0  0
    1.7257    0.8614    1.5523 C   0  0  0  0  0  0  0  0  0  0  0  0
    0.3342    0.7956    2.2034 C   0  0  0  0  0  0  0  0  0  0  0  0
   -0.2401    2.1398    2.4623 N   0  0  0  0  0  0  0  0  0  0  0  0
   -1.6952    2.0713    2.7237 C   0  0  0  0  0  0  0  0  0  0  0  0
   -2.2756    3.4738    2.9757 C   0  0  0  0  0  0  0  0  0  0  0  0
   -1.5821    4.1016    4.0510 O   0  0  0  0  0  0  0  0  0  0  0  0
   -0.1921    4.2495    3.7743 C   0  0  0  0  0  0  0  0  0  0  0  0
    0.4410    2.8703    3.5605 C   0  0  0  0  0  0  0  0  0  0  0  0
    3.4261   -2.0310   -1.2320 C   0  0  0  0  0  0  0  0  0  0  0  0
    2.5930   -2.9940   -2.0808 C   0  0  0  0  0  0  0  0  0  0  0  0
    3.1383   -2.8400   -3.5041 C   0  0  0  0  0  0  0  0  0  0  0  0
    4.5977   -2.3953   -3.3674 C   0  0  0  0  0  0  0  0  0  0  0  0
    4.8205   -2.0573   -1.8804 C   0  0  0  0  0  0  0  0  0  0  0  0
    1.5450   -1.3591    0.5582 H   0  0  0  0  0  0  0  0  0  0  0  0
    2.6521   -0.4583    3.0218 H   0  0  0  0  0  0  0  0  0  0  0  0
    3.6554   -0.0077    1.6623 H   0  0  0  0  0  0  0  0  0  0  0  0
    2.2639    1.7687    1.8188 H   0  0  0  0  0  0  0  0  0  0  0  0
    1.6003    0.9028    0.4808 H   0  0  0  0  0  0  0  0  0  0  0  0
   -0.3199    0.2212    1.5389 H   0  0  0  0  0  0  0  0  0  0  0  0
    0.3574    0.2404    3.1445 H   0  0  0  0  0  0  0  0  0  0  0  0
   -2.2014    1.6113    1.8728 H   0  0  0  0  0  0  0  0  0  0  0  0
   -1.8818    1.4339    3.5887 H   0  0  0  0  0  0  0  0  0  0  0  0
   -2.2091    4.0982    2.0849 H   0  0  0  0  0  0  0  0  0  0  0  0
   -3.3313    3.3960    3.2397 H   0  0  0  0  0  0  0  0  0  0  0  0
   -0.0363    4.9018    2.9127 H   0  0  0  0  0  0  0  0  0  0  0  0
    0.2855    4.7322    4.6243 H   0  0  0  0  0  0  0  0  0  0  0  0
    0.3846    2.2808    4.4735 H   0  0  0  0  0  0  0  0  0  0  0  0
    1.4973    3.0290    3.3508 H   0  0  0  0  0  0  0  0  0  0  0  0
    3.0136   -1.0220   -1.3039 H   0  0  0  0  0  0  0  0  0  0  0  0
    2.7553   -4.0153   -1.7514 H   0  0  0  0  0  0  0  0  0  0  0  0
    1.5216   -2.7855   -2.0232 H   0  0  0  0  0  0  0  0  0  0  0  0
    3.0386   -3.7679   -4.0690 H   0  0  0  0  0  0  0  0  0  0  0  0
    2.5657   -2.0694   -4.0209 H   0  0  0  0  0  0  0  0  0  0  0  0
    5.2823   -3.1824   -3.6746 H   0  0  0  0  0  0  0  0  0  0  0  0
    4.7776   -1.5239   -3.9911 H   0  0  0  0  0  0  0  0  0  0  0  0
    5.3410   -1.1059   -1.7512 H   0  0  0  0  0  0  0  0  0  0  0  0
    5.4338   -2.8443   -1.4329 H   0  0  0  0  0  0  0  0  0  0  0  0
   -0.1374    2.7241    1.6329 H   0  0  0  0  0  0  0  0  0  0  0  0
  1  2  2  0
  2  3  2  0
  2  4  1  0
  2 14  1  0
  4  5  1  0
  4 19  1  0
  5  6  1  0
  5 20  1  0
  5 21  1  0
  6  7  1  0
  6 22  1  0
  6 23  1  0
  7  8  1  0
  7 24  1  0
  7 25  1  0
  8 13  1  0
  8  9  1  0
  8 43  1  0
  9 10  1  0
  9 26  1  0
  9 27  1  0
 10 11  1  0
 10 28  1  0
 10 29  1  0
 11 12  1  0
 12 13  1  0
 12 30  1  0
 12 31  1  0
 13 32  1  0
 13 33  1  0
 14 18  1  0
 14 15  1  0
 14 34  1  0
 15 16  1  0
 15 35  1  0
 15 36  1  0
 16 17  1  0
 16 37  1  0
 16 38  1  0
 17 18  1  0
 17 39  1  0
 17 40  1  0
 18 41  1  0
 18 42  1  0
M  CHG  1   8   1
M  END
>  <i_m_ct_stereo_status>  (511) 
1

>  <s_m_source_file>  (511) 
/var/tmp/pbs.5102264.sched01/tmpspb9n5yc/161wrz3epul.sdf

>  <i_m_source_file_index>  (511) 
23

>  <i_lp_mmshare_version>  (511) 
48012

>  <i_f3d_flags>  (511) 
0

>  <s_epik_input>  (511) 
W0NIMl0xW0NIMl1bQ0gyXVtDSDJdW0NIXTFTKD1PKSg9TylbTkhdW0NIMl1bQ0gyXVtDSDJdTjJbQ0gyXVtDSDJdT1tDSDJdW0NIMl0y

>  <s_epik_cmdline>  (511) 
J2VwaWtfcHl0aG9uJywgJy1waHQnLCAnMi4wJywgJy1waCcsICc3LjAnLCAnLXRuJywgJzgnLCAnLW1hJywgJzIwMCcsICctaW1hZScsICc8aW5maWxlLm1hZT4nLCAnLW9tYWUnLCAnPG91dGZpbGUubWFlPic=

>  <r_epik_Ionization_Penalty>  (511) 
0.272315

>  <r_epik_Ionization_Penalty_Charging>  (511) 
0.272304

>  <r_epik_Ionization_Penalty_Neutral>  (511) 
1.07541e-05

>  <r_epik_State_Penalty>  (511) 
0.264503

>  <r_epik_Charging_Adjusted_Penalty>  (511) 
0.536807

>  <i_epik_Tot_Q>  (511) 
1

>  <i_epik_Tot_abs_Q>  (511) 
1

>  <s_lp_Force_Field>  (511) 
OPLS3e

>  <r_lp_Energy>  (511) 
14.884

>  <b_lp_Chiralities_Consistent>  (511) 
1

>  <s_lp_Variant>  (511) 
109:0-1

>  <s_i_glide_gridfile>  (511) 
pfpi4k_grid

>  <i_i_glide_lignum>  (511) 
23

>  <i_i_glide_rotatable_bonds>  (511) 
6

>  <r_i_docking_score>  (511) 
-3.85524

>  <r_i_glide_ligand_efficiency>  (511) 
-0.21418

>  <r_i_glide_ligand_efficiency_sa>  (511) 
-0.56131

>  <r_i_glide_ligand_efficiency_ln>  (511) 
-0.990969

>  <r_i_glide_gscore>  (511) 
-3.85524

>  <r_i_glide_lipo>  (511) 
-0.287047

>  <r_i_glide_hbond>  (511) 
-0.374603

>  <r_i_glide_metal>  (511) 
-0

>  <r_i_glide_rewards>  (511) 
-1.5177

>  <r_i_glide_evdw>  (511) 
-19.5919

>  <r_i_glide_ecoul>  (511) 
-9.4547

>  <r_i_glide_erotb>  (511) 
0.936064

>  <r_i_glide_esite>  (511) 
-0.214153

>  <r_i_glide_emodel>  (511) 
-35.1772

>  <r_i_glide_energy>  (511) 
-29.0466

>  <r_i_glide_einternal>  (511) 
7.26524

>  <r_i_glide_intrahb_reward>  (511) 
-0

>  <i_i_glide_confnum>  (511) 
2

>  <i_i_glide_posenum>  (511) 
25

>  <r_i_glide_eff_state_penalty>  (511) 
0

>  <ligand_id>  (511) 
109

>  <original_smiles>  (511) 
O=S(=O)(NCCCN1CCOCC1)C1CCCC1

>  <smiles>  (511) 
[H]N(C([H])([H])C([H])([H])C([H])([H])[N+]1([H])C([H])([H])C([H])([H])OC([H])([H])C1([H])[H])S(=O)(=O)C1([H])C([H])([H])C([H])([H])C([H])([H])C1([H])[H]

$$$$
109:0:1
     RDKit          3D

 43 44  0  0  1  0  0  0  0  0999 V2000
    4.5667   -0.1599    0.7751 O   0  0  0  0  0  0  0  0  0  0  0  0
    3.9520   -1.4879    0.6631 S   0  0  0  0  0  0  0  0  0  0  0  0
    4.5641   -2.6258    1.3623 O   0  0  0  0  0  0  0  0  0  0  0  0
    2.3492   -1.3570    1.2790 N   0  0  0  0  0  0  0  0  0  0  0  0
    2.0938   -0.5706    2.4774 C   0  0  0  0  0  0  0  0  0  0  0  0
    1.4439    0.7745    2.0994 C   0  0  0  0  0  0  0  0  0  0  0  0
    0.3360    1.1732    3.0807 C   0  0  0  0  0  0  0  0  0  0  0  0
   -0.0450    2.6018    2.9335 N   0  0  0  0  0  0  0  0  0  0  0  0
   -1.4719    2.8274    3.2538 C   0  0  0  0  0  0  0  0  0  0  0  0
   -1.8309    4.3082    3.1095 C   0  0  0  0  0  0  0  0  0  0  0  0
   -0.9838    5.0858    3.9413 O   0  0  0  0  0  0  0  0  0  0  0  0
    0.3933    4.9710    3.5901 C   0  0  0  0  0  0  0  0  0  0  0  0
    0.8197    3.4996    3.7437 C   0  0  0  0  0  0  0  0  0  0  0  0
    3.7169   -1.8998   -1.1358 C   0  0  0  0  0  0  0  0  0  0  0  0
    3.6775   -3.4049   -1.4204 C   0  0  0  0  0  0  0  0  0  0  0  0
    4.1138   -3.5391   -2.8836 C   0  0  0  0  0  0  0  0  0  0  0  0
    5.0044   -2.3366   -3.1896 C   0  0  0  0  0  0  0  0  0  0  0  0
    4.8891   -1.3883   -1.9917 C   0  0  0  0  0  0  0  0  0  0  0  0
    1.6801   -1.1372    0.5232 H   0  0  0  0  0  0  0  0  0  0  0  0
    1.4535   -1.1556    3.1394 H   0  0  0  0  0  0  0  0  0  0  0  0
    3.0255   -0.4008    3.0222 H   0  0  0  0  0  0  0  0  0  0  0  0
    2.2285    1.5325    2.0599 H   0  0  0  0  0  0  0  0  0  0  0  0
    1.0109    0.7439    1.0958 H   0  0  0  0  0  0  0  0  0  0  0  0
   -0.5240    0.5264    2.9021 H   0  0  0  0  0  0  0  0  0  0  0  0
    0.6312    0.9772    4.1114 H   0  0  0  0  0  0  0  0  0  0  0  0
   -2.1109    2.2352    2.5984 H   0  0  0  0  0  0  0  0  0  0  0  0
   -1.6729    2.5079    4.2758 H   0  0  0  0  0  0  0  0  0  0  0  0
   -1.7812    4.6544    2.0793 H   0  0  0  0  0  0  0  0  0  0  0  0
   -2.8626    4.4670    3.4085 H   0  0  0  0  0  0  0  0  0  0  0  0
    0.5846    5.3607    2.5904 H   0  0  0  0  0  0  0  0  0  0  0  0
    0.9793    5.5943    4.2685 H   0  0  0  0  0  0  0  0  0  0  0  0
    0.7442    3.2234    4.7955 H   0  0  0  0  0  0  0  0  0  0  0  0
    1.8651    3.3857    3.4642 H   0  0  0  0  0  0  0  0  0  0  0  0
    2.8001   -1.4290   -1.5005 H   0  0  0  0  0  0  0  0  0  0  0  0
    4.3987   -3.9387   -0.8011 H   0  0  0  0  0  0  0  0  0  0  0  0
    2.6891   -3.8346   -1.2392 H   0  0  0  0  0  0  0  0  0  0  0  0
    4.6313   -4.4822   -3.0698 H   0  0  0  0  0  0  0  0  0  0  0  0
    3.2296   -3.5184   -3.5215 H   0  0  0  0  0  0  0  0  0  0  0  0
    6.0347   -2.6593   -3.3315 H   0  0  0  0  0  0  0  0  0  0  0  0
    4.6657   -1.8525   -4.1044 H   0  0  0  0  0  0  0  0  0  0  0  0
    4.7374   -0.3506   -2.3030 H   0  0  0  0  0  0  0  0  0  0  0  0
    5.8180   -1.4289   -1.4174 H   0  0  0  0  0  0  0  0  0  0  0  0
    0.0747    2.8978    1.9657 H   0  0  0  0  0  0  0  0  0  0  0  0
  1  2  2  0
  2  3  2  0
  2  4  1  0
  2 14  1  0
  4  5  1  0
  4 19  1  0
  5  6  1  0
  5 20  1  0
  5 21  1  0
  6  7  1  0
  6 22  1  0
  6 23  1  0
  7  8  1  0
  7 24  1  0
  7 25  1  0
  8 13  1  0
  8  9  1  0
  8 43  1  0
  9 10  1  0
  9 26  1  0
  9 27  1  0
 10 11  1  0
 10 28  1  0
 10 29  1  0
 11 12  1  0
 12 13  1  0
 12 30  1  0
 12 31  1  0
 13 32  1  0
 13 33  1  0
 14 18  1  0
 14 15  1  0
 14 34  1  0
 15 16  1  0
 15 35  1  0
 15 36  1  0
 16 17  1  0
 16 37  1  0
 16 38  1  0
 17 18  1  0
 17 39  1  0
 17 40  1  0
 18 41  1  0
 18 42  1  0
M  CHG  1   8   1
M  END
>  <i_m_ct_stereo_status>  (512) 
1

>  <s_m_source_file>  (512) 
/var/tmp/pbs.5102264.sched01/tmpspb9n5yc/161wrz3epul.sdf

>  <i_m_source_file_index>  (512) 
23

>  <i_lp_mmshare_version>  (512) 
48012

>  <i_f3d_flags>  (512) 
0

>  <s_epik_input>  (512) 
W0NIMl0xW0NIMl1bQ0gyXVtDSDJdW0NIXTFTKD1PKSg9TylbTkhdW0NIMl1bQ0gyXVtDSDJdTjJbQ0gyXVtDSDJdT1tDSDJdW0NIMl0y

>  <s_epik_cmdline>  (512) 
J2VwaWtfcHl0aG9uJywgJy1waHQnLCAnMi4wJywgJy1waCcsICc3LjAnLCAnLXRuJywgJzgnLCAnLW1hJywgJzIwMCcsICctaW1hZScsICc8aW5maWxlLm1hZT4nLCAnLW9tYWUnLCAnPG91dGZpbGUubWFlPic=

>  <r_epik_Ionization_Penalty>  (512) 
0.272315

>  <r_epik_Ionization_Penalty_Charging>  (512) 
0.272304

>  <r_epik_Ionization_Penalty_Neutral>  (512) 
1.07541e-05

>  <r_epik_State_Penalty>  (512) 
0.264503

>  <r_epik_Charging_Adjusted_Penalty>  (512) 
0.536807

>  <i_epik_Tot_Q>  (512) 
1

>  <i_epik_Tot_abs_Q>  (512) 
1

>  <s_lp_Force_Field>  (512) 
OPLS3e

>  <r_lp_Energy>  (512) 
14.884

>  <b_lp_Chiralities_Consistent>  (512) 
1

>  <s_lp_Variant>  (512) 
109:0-1

>  <s_i_glide_gridfile>  (512) 
pfpi4k_grid

>  <i_i_glide_lignum>  (512) 
23

>  <i_i_glide_rotatable_bonds>  (512) 
6

>  <r_i_docking_score>  (512) 
-3.6808

>  <r_i_glide_ligand_efficiency>  (512) 
-0.204489

>  <r_i_glide_ligand_efficiency_sa>  (512) 
-0.535912

>  <r_i_glide_ligand_efficiency_ln>  (512) 
-0.946129

>  <r_i_glide_gscore>  (512) 
-3.6808

>  <r_i_glide_lipo>  (512) 
-0.054207

>  <r_i_glide_hbond>  (512) 
-0.468192

>  <r_i_glide_metal>  (512) 
-0

>  <r_i_glide_rewards>  (512) 
-1.5177

>  <r_i_glide_evdw>  (512) 
-18.042

>  <r_i_glide_ecoul>  (512) 
-9.78805

>  <r_i_glide_erotb>  (512) 
0.936064

>  <r_i_glide_esite>  (512) 
-0.206453

>  <r_i_glide_emodel>  (512) 
-33.0073

>  <r_i_glide_energy>  (512) 
-27.8301

>  <r_i_glide_einternal>  (512) 
8.29397

>  <r_i_glide_intrahb_reward>  (512) 
-0

>  <i_i_glide_confnum>  (512) 
2

>  <i_i_glide_posenum>  (512) 
1

>  <r_i_glide_eff_state_penalty>  (512) 
0

>  <ligand_id>  (512) 
109

>  <original_smiles>  (512) 
O=S(=O)(NCCCN1CCOCC1)C1CCCC1

>  <smiles>  (512) 
[H]N(C([H])([H])C([H])([H])C([H])([H])[N+]1([H])C([H])([H])C([H])([H])OC([H])([H])C1([H])[H])S(=O)(=O)C1([H])C([H])([H])C([H])([H])C([H])([H])C1([H])[H]

$$$$
109:0:2
     RDKit          3D

 43 44  0  0  1  0  0  0  0  0999 V2000
    1.2213    0.5457    4.4270 O   0  0  0  0  0  0  0  0  0  0  0  0
    2.3350    1.3468    3.9012 S   0  0  0  0  0  0  0  0  0  0  0  0
    3.7258    0.9852    4.2272 O   0  0  0  0  0  0  0  0  0  0  0  0
    2.1996    1.3263    2.1919 N   0  0  0  0  0  0  0  0  0  0  0  0
    2.3473    0.0593    1.4811 C   0  0  0  0  0  0  0  0  0  0  0  0
    3.8243   -0.2799    1.2078 C   0  0  0  0  0  0  0  0  0  0  0  0
    3.9895   -1.6210    0.4674 C   0  0  0  0  0  0  0  0  0  0  0  0
    3.4239   -1.5925   -0.9070 N   0  0  0  0  0  0  0  0  0  0  0  0
    4.3113   -0.8758   -1.8594 C   0  0  0  0  0  0  0  0  0  0  0  0
    3.6968   -0.8336   -3.2640 C   0  0  0  0  0  0  0  0  0  0  0  0
    3.4700   -2.1691   -3.6983 O   0  0  0  0  0  0  0  0  0  0  0  0
    2.5486   -2.8584   -2.8579 C   0  0  0  0  0  0  0  0  0  0  0  0
    3.1161   -2.9446   -1.4314 C   0  0  0  0  0  0  0  0  0  0  0  0
    2.0508    3.1196    4.3452 C   0  0  0  0  0  0  0  0  0  0  0  0
    0.6928    3.6429    3.8817 C   0  0  0  0  0  0  0  0  0  0  0  0
    0.8853    5.1605    3.7762 C   0  0  0  0  0  0  0  0  0  0  0  0
    2.3800    5.4081    3.5347 C   0  0  0  0  0  0  0  0  0  0  0  0
    3.0880    4.0622    3.7330 C   0  0  0  0  0  0  0  0  0  0  0  0
    1.3309    1.7862    1.9167 H   0  0  0  0  0  0  0  0  0  0  0  0
    1.8451   -0.7466    2.0249 H   0  0  0  0  0  0  0  0  0  0  0  0
    1.8196    0.1747    0.5374 H   0  0  0  0  0  0  0  0  0  0  0  0
    4.2985    0.5346    0.6593 H   0  0  0  0  0  0  0  0  0  0  0  0
    4.3683   -0.3508    2.1477 H   0  0  0  0  0  0  0  0  0  0  0  0
    5.0440   -1.9067    0.4289 H   0  0  0  0  0  0  0  0  0  0  0  0
    3.5138   -2.4023    1.0590 H   0  0  0  0  0  0  0  0  0  0  0  0
    4.5030    0.1389   -1.5301 H   0  0  0  0  0  0  0  0  0  0  0  0
    5.2885   -1.3643   -1.8958 H   0  0  0  0  0  0  0  0  0  0  0  0
    2.7741   -0.2495   -3.2763 H   0  0  0  0  0  0  0  0  0  0  0  0
    4.3946   -0.3585   -3.9527 H   0  0  0  0  0  0  0  0  0  0  0  0
    1.5801   -2.3589   -2.8611 H   0  0  0  0  0  0  0  0  0  0  0  0
    2.3907   -3.8570   -3.2618 H   0  0  0  0  0  0  0  0  0  0  0  0
    4.0203   -3.5504   -1.4259 H   0  0  0  0  0  0  0  0  0  0  0  0
    2.3918   -3.4331   -0.7801 H   0  0  0  0  0  0  0  0  0  0  0  0
    2.1094    3.1953    5.4309 H   0  0  0  0  0  0  0  0  0  0  0  0
    0.4687    3.2596    2.8893 H   0  0  0  0  0  0  0  0  0  0  0  0
   -0.1208    3.3568    4.5563 H   0  0  0  0  0  0  0  0  0  0  0  0
    0.2719    5.5909    2.9825 H   0  0  0  0  0  0  0  0  0  0  0  0
    0.5921    5.6243    4.7172 H   0  0  0  0  0  0  0  0  0  0  0  0
    2.5596    5.7643    2.5233 H   0  0  0  0  0  0  0  0  0  0  0  0
    2.7582    6.1585    4.2269 H   0  0  0  0  0  0  0  0  0  0  0  0
    3.9700    4.1533    4.3655 H   0  0  0  0  0  0  0  0  0  0  0  0
    3.4033    3.6991    2.7547 H   0  0  0  0  0  0  0  0  0  0  0  0
    2.5156   -1.1277   -0.8757 H   0  0  0  0  0  0  0  0  0  0  0  0
  1  2  2  0
  2  3  2  0
  2  4  1  0
  2 14  1  0
  4  5  1  0
  4 19  1  0
  5  6  1  0
  5 20  1  0
  5 21  1  0
  6  7  1  0
  6 22  1  0
  6 23  1  0
  7  8  1  0
  7 24  1  0
  7 25  1  0
  8 13  1  0
  8  9  1  0
  8 43  1  0
  9 10  1  0
  9 26  1  0
  9 27  1  0
 10 11  1  0
 10 28  1  0
 10 29  1  0
 11 12  1  0
 12 13  1  0
 12 30  1  0
 12 31  1  0
 13 32  1  0
 13 33  1  0
 14 18  1  0
 14 15  1  0
 14 34  1  0
 15 16  1  0
 15 35  1  0
 15 36  1  0
 16 17  1  0
 16 37  1  0
 16 38  1  0
 17 18  1  0
 17 39  1  0
 17 40  1  0
 18 41  1  0
 18 42  1  0
M  CHG  1   8   1
M  END
>  <i_m_ct_stereo_status>  (513) 
1

>  <s_m_source_file>  (513) 
/var/tmp/pbs.5102264.sched01/tmpspb9n5yc/161wrz3epul.sdf

>  <i_m_source_file_index>  (513) 
23

>  <i_lp_mmshare_version>  (513) 
48012

>  <i_f3d_flags>  (513) 
0

>  <s_epik_input>  (513) 
W0NIMl0xW0NIMl1bQ0gyXVtDSDJdW0NIXTFTKD1PKSg9TylbTkhdW0NIMl1bQ0gyXVtDSDJdTjJbQ0gyXVtDSDJdT1tDSDJdW0NIMl0y

>  <s_epik_cmdline>  (513) 
J2VwaWtfcHl0aG9uJywgJy1waHQnLCAnMi4wJywgJy1waCcsICc3LjAnLCAnLXRuJywgJzgnLCAnLW1hJywgJzIwMCcsICctaW1hZScsICc8aW5maWxlLm1hZT4nLCAnLW9tYWUnLCAnPG91dGZpbGUubWFlPic=

>  <r_epik_Ionization_Penalty>  (513) 
0.272315

>  <r_epik_Ionization_Penalty_Charging>  (513) 
0.272304

>  <r_epik_Ionization_Penalty_Neutral>  (513) 
1.07541e-05

>  <r_epik_State_Penalty>  (513) 
0.264503

>  <r_epik_Charging_Adjusted_Penalty>  (513) 
0.536807

>  <i_epik_Tot_Q>  (513) 
1

>  <i_epik_Tot_abs_Q>  (513) 
1

>  <s_lp_Force_Field>  (513) 
OPLS3e

>  <r_lp_Energy>  (513) 
14.884

>  <b_lp_Chiralities_Consistent>  (513) 
1

>  <s_lp_Variant>  (513) 
109:0-1

>  <s_i_glide_gridfile>  (513) 
pfpi4k_grid

>  <i_i_glide_lignum>  (513) 
23

>  <i_i_glide_rotatable_bonds>  (513) 
6

>  <r_i_docking_score>  (513) 
-3.28454

>  <r_i_glide_ligand_efficiency>  (513) 
-0.182475

>  <r_i_glide_ligand_efficiency_sa>  (513) 
-0.478219

>  <r_i_glide_ligand_efficiency_ln>  (513) 
-0.844275

>  <r_i_glide_gscore>  (513) 
-3.28454

>  <r_i_glide_lipo>  (513) 
-0.206279

>  <r_i_glide_hbond>  (513) 
-0.2

>  <r_i_glide_metal>  (513) 
-0

>  <r_i_glide_rewards>  (513) 
-1.5177

>  <r_i_glide_evdw>  (513) 
-20.3017

>  <r_i_glide_ecoul>  (513) 
-7.80338

>  <r_i_glide_erotb>  (513) 
0.936064

>  <r_i_glide_esite>  (513) 
-0.11104

>  <r_i_glide_emodel>  (513) 
-32.8958

>  <r_i_glide_energy>  (513) 
-28.1051

>  <r_i_glide_einternal>  (513) 
7.93708

>  <r_i_glide_intrahb_reward>  (513) 
-0

>  <i_i_glide_confnum>  (513) 
5

>  <i_i_glide_posenum>  (513) 
2

>  <r_i_glide_eff_state_penalty>  (513) 
0

>  <ligand_id>  (513) 
109

>  <original_smiles>  (513) 
O=S(=O)(NCCCN1CCOCC1)C1CCCC1

>  <smiles>  (513) 
[H]N(C([H])([H])C([H])([H])C([H])([H])[N+]1([H])C([H])([H])C([H])([H])OC([H])([H])C1([H])[H])S(=O)(=O)C1([H])C([H])([H])C([H])([H])C([H])([H])C1([H])[H]

$$$$
109:1:0
     RDKit          3D

 42 43  0  0  1  0  0  0  0  0999 V2000
    5.2525   -2.7099    0.7840 O   0  0  0  0  0  0  0  0  0  0  0  0
    3.8813   -2.7284    0.2657 S   0  0  0  0  0  0  0  0  0  0  0  0
    2.8080   -3.3878    1.0233 O   0  0  0  0  0  0  0  0  0  0  0  0
    3.4106   -1.0826    0.0664 N   0  0  0  0  0  0  0  0  0  0  0  0
    3.3329   -0.2203    1.2547 C   0  0  0  0  0  0  0  0  0  0  0  0
    1.8699    0.0108    1.6848 C   0  0  0  0  0  0  0  0  0  0  0  0
    1.7372    0.8630    2.9599 C   0  0  0  0  0  0  0  0  0  0  0  0
    0.3519    1.1467    3.3563 N   0  0  0  0  0  0  0  0  0  0  0  0
    0.2279    1.3912    4.7891 C   0  0  0  0  0  0  0  0  0  0  0  0
   -1.2224    1.7209    5.1990 C   0  0  0  0  0  0  0  0  0  0  0  0
   -1.6888    2.8505    4.4690 O   0  0  0  0  0  0  0  0  0  0  0  0
   -1.6230    2.6487    3.0585 C   0  0  0  0  0  0  0  0  0  0  0  0
   -0.1820    2.3056    2.6383 C   0  0  0  0  0  0  0  0  0  0  0  0
    3.9009   -3.4133   -1.4520 C   0  0  0  0  0  0  0  0  0  0  0  0
    5.0151   -2.8262   -2.3203 C   0  0  0  0  0  0  0  0  0  0  0  0
    4.4820   -2.8604   -3.7577 C   0  0  0  0  0  0  0  0  0  0  0  0
    2.9946   -3.2354   -3.6900 C   0  0  0  0  0  0  0  0  0  0  0  0
    2.5978   -3.1608   -2.2151 C   0  0  0  0  0  0  0  0  0  0  0  0
    2.4943   -1.0541   -0.4027 H   0  0  0  0  0  0  0  0  0  0  0  0
    3.9042   -0.6632    2.0714 H   0  0  0  0  0  0  0  0  0  0  0  0
    3.8023    0.7316    1.0137 H   0  0  0  0  0  0  0  0  0  0  0  0
    1.3223    0.4997    0.8797 H   0  0  0  0  0  0  0  0  0  0  0  0
    1.3797   -0.9495    1.8508 H   0  0  0  0  0  0  0  0  0  0  0  0
    2.2473    0.3268    3.7606 H   0  0  0  0  0  0  0  0  0  0  0  0
    2.2858    1.8000    2.8404 H   0  0  0  0  0  0  0  0  0  0  0  0
    0.5540    0.5077    5.3385 H   0  0  0  0  0  0  0  0  0  0  0  0
    0.8847    2.2088    5.0902 H   0  0  0  0  0  0  0  0  0  0  0  0
   -1.8805    0.8696    5.0167 H   0  0  0  0  0  0  0  0  0  0  0  0
   -1.2749    1.9421    6.2648 H   0  0  0  0  0  0  0  0  0  0  0  0
   -2.3002    1.8483    2.7629 H   0  0  0  0  0  0  0  0  0  0  0  0
   -1.9565    3.5565    2.5546 H   0  0  0  0  0  0  0  0  0  0  0  0
    0.4464    3.1773    2.8318 H   0  0  0  0  0  0  0  0  0  0  0  0
   -0.1573    2.1372    1.5621 H   0  0  0  0  0  0  0  0  0  0  0  0
    4.0589   -4.4889   -1.3669 H   0  0  0  0  0  0  0  0  0  0  0  0
    5.2153   -1.7931   -2.0350 H   0  0  0  0  0  0  0  0  0  0  0  0
    5.9420   -3.3912   -2.2153 H   0  0  0  0  0  0  0  0  0  0  0  0
    4.6147   -1.8847   -4.2300 H   0  0  0  0  0  0  0  0  0  0  0  0
    5.0169   -3.6028   -4.3525 H   0  0  0  0  0  0  0  0  0  0  0  0
    2.3771   -2.5773   -4.3089 H   0  0  0  0  0  0  0  0  0  0  0  0
    2.8552   -4.2572   -4.0459 H   0  0  0  0  0  0  0  0  0  0  0  0
    1.8062   -3.8684   -1.9511 H   0  0  0  0  0  0  0  0  0  0  0  0
    2.2277   -2.1563   -2.0160 H   0  0  0  0  0  0  0  0  0  0  0  0
  1  2  2  0
  2  3  2  0
  2  4  1  0
  2 14  1  0
  4  5  1  0
  4 19  1  0
  5  6  1  0
  5 20  1  0
  5 21  1  0
  6  7  1  0
  6 22  1  0
  6 23  1  0
  7  8  1  0
  7 24  1  0
  7 25  1  0
  8 13  1  0
  8  9  1  0
  9 10  1  0
  9 26  1  0
  9 27  1  0
 10 11  1  0
 10 28  1  0
 10 29  1  0
 11 12  1  0
 12 13  1  0
 12 30  1  0
 12 31  1  0
 13 32  1  0
 13 33  1  0
 14 18  1  0
 14 15  1  0
 14 34  1  0
 15 16  1  0
 15 35  1  0
 15 36  1  0
 16 17  1  0
 16 37  1  0
 16 38  1  0
 17 18  1  0
 17 39  1  0
 17 40  1  0
 18 41  1  0
 18 42  1  0
M  END
>  <i_m_ct_stereo_status>  (514) 
1

>  <s_m_source_file>  (514) 
/var/tmp/pbs.5102264.sched01/tmpp_sc680v/18465xhjztf.sdf

>  <i_m_source_file_index>  (514) 
1

>  <i_lp_mmshare_version>  (514) 
48012

>  <i_f3d_flags>  (514) 
0

>  <s_epik_input>  (514) 
W0NIMl0xW0NIMl1bQ0gyXVtDSDJdW0NIXTFTKD1PKSg9TylbTkhdW0NIMl1bQ0gyXVtDSDJdTjJbQ0gyXVtDSDJdT1tDSDJdW0NIMl0y

>  <s_epik_cmdline>  (514) 
J2VwaWtfcHl0aG9uJywgJy1waHQnLCAnMi4wJywgJy1waCcsICc3LjAnLCAnLXRuJywgJzgnLCAnLW1hJywgJzIwMCcsICctaW1hZScsICc8aW5maWxlLm1hZT4nLCAnLW9tYWUnLCAnPG91dGZpbGUubWFlPic=

>  <r_epik_Ionization_Penalty>  (514) 
0.591554

>  <r_epik_Ionization_Penalty_Charging>  (514) 
0

>  <r_epik_Ionization_Penalty_Neutral>  (514) 
0.591554

>  <r_epik_State_Penalty>  (514) 
0.605164

>  <r_epik_Charging_Adjusted_Penalty>  (514) 
0.605164

>  <i_epik_Tot_Q>  (514) 
0

>  <i_epik_Tot_abs_Q>  (514) 
0

>  <s_lp_Force_Field>  (514) 
OPLS3e

>  <r_lp_Energy>  (514) 
9.70646

>  <b_lp_Chiralities_Consistent>  (514) 
1

>  <s_lp_Variant>  (514) 
109:0-2

>  <s_i_glide_gridfile>  (514) 
pfpi4k_grid

>  <i_i_glide_lignum>  (514) 
1

>  <i_i_glide_rotatable_bonds>  (514) 
6

>  <r_i_docking_score>  (514) 
-3.19044

>  <r_i_glide_ligand_efficiency>  (514) 
-0.177247

>  <r_i_glide_ligand_efficiency_sa>  (514) 
-0.464517

>  <r_i_glide_ligand_efficiency_ln>  (514) 
-0.820086

>  <r_i_glide_gscore>  (514) 
-3.19044

>  <r_i_glide_lipo>  (514) 
-0.498066

>  <r_i_glide_hbond>  (514) 
-0.16

>  <r_i_glide_metal>  (514) 
-0

>  <r_i_glide_rewards>  (514) 
-1.52457

>  <r_i_glide_evdw>  (514) 
-21.9451

>  <r_i_glide_ecoul>  (514) 
-5.0144

>  <r_i_glide_erotb>  (514) 
0.941993

>  <r_i_glide_esite>  (514) 
-0.10038

>  <r_i_glide_emodel>  (514) 
-28.6742

>  <r_i_glide_energy>  (514) 
-26.9595

>  <r_i_glide_einternal>  (514) 
8.71804

>  <r_i_glide_intrahb_reward>  (514) 
-0

>  <i_i_glide_confnum>  (514) 
2

>  <i_i_glide_posenum>  (514) 
26

>  <r_i_glide_eff_state_penalty>  (514) 
0

>  <ligand_id>  (514) 
109

>  <original_smiles>  (514) 
O=S(=O)(NCCCN1CCOCC1)C1CCCC1

>  <smiles>  (514) 
[H]N(C([H])([H])C([H])([H])C([H])([H])N1C([H])([H])C([H])([H])OC([H])([H])C1([H])[H])S(=O)(=O)C1([H])C([H])([H])C([H])([H])C([H])([H])C1([H])[H]

$$$$
109:1:1
     RDKit          3D

 42 43  0  0  1  0  0  0  0  0999 V2000
    3.5943    0.5792    4.1400 O   0  0  0  0  0  0  0  0  0  0  0  0
    2.8243    0.3576    2.9047 S   0  0  0  0  0  0  0  0  0  0  0  0
    3.4313    0.6408    1.5970 O   0  0  0  0  0  0  0  0  0  0  0  0
    2.3406   -1.3036    2.9220 N   0  0  0  0  0  0  0  0  0  0  0  0
    3.1486   -2.3091    2.2210 C   0  0  0  0  0  0  0  0  0  0  0  0
    2.8297   -2.2834    0.7183 C   0  0  0  0  0  0  0  0  0  0  0  0
    3.9016   -2.9626   -0.1516 C   0  0  0  0  0  0  0  0  0  0  0  0
    3.6083   -2.9436   -1.5867 N   0  0  0  0  0  0  0  0  0  0  0  0
    3.5140   -1.5875   -2.1315 C   0  0  0  0  0  0  0  0  0  0  0  0
    3.2116   -1.5875   -3.6367 C   0  0  0  0  0  0  0  0  0  0  0  0
    4.2083   -2.3378   -4.3165 O   0  0  0  0  0  0  0  0  0  0  0  0
    4.3039   -3.6816   -3.8531 C   0  0  0  0  0  0  0  0  0  0  0  0
    4.6061   -3.6924   -2.3424 C   0  0  0  0  0  0  0  0  0  0  0  0
    1.2182    1.2681    3.0043 C   0  0  0  0  0  0  0  0  0  0  0  0
    0.3644    0.8399    4.2076 C   0  0  0  0  0  0  0  0  0  0  0  0
   -1.0973    1.0433    3.7630 C   0  0  0  0  0  0  0  0  0  0  0  0
   -1.0735    1.3506    2.2566 C   0  0  0  0  0  0  0  0  0  0  0  0
    0.3422    1.0494    1.7665 C   0  0  0  0  0  0  0  0  0  0  0  0
    1.3467   -1.3972    2.7290 H   0  0  0  0  0  0  0  0  0  0  0  0
    4.2054   -2.1203    2.4208 H   0  0  0  0  0  0  0  0  0  0  0  0
    2.9200   -3.2913    2.6348 H   0  0  0  0  0  0  0  0  0  0  0  0
    1.8474   -2.7212    0.5357 H   0  0  0  0  0  0  0  0  0  0  0  0
    2.7427   -1.2486    0.4023 H   0  0  0  0  0  0  0  0  0  0  0  0
    4.8626   -2.4795    0.0349 H   0  0  0  0  0  0  0  0  0  0  0  0
    4.0115   -3.9969    0.1838 H   0  0  0  0  0  0  0  0  0  0  0  0
    2.7083   -1.0308   -1.6604 H   0  0  0  0  0  0  0  0  0  0  0  0
    4.4376   -1.0396   -1.9380 H   0  0  0  0  0  0  0  0  0  0  0  0
    2.2252   -2.0140   -3.8347 H   0  0  0  0  0  0  0  0  0  0  0  0
    3.2046   -0.5656   -4.0163 H   0  0  0  0  0  0  0  0  0  0  0  0
    3.3730   -4.2091   -4.0676 H   0  0  0  0  0  0  0  0  0  0  0  0
    5.0957   -4.1912   -4.4009 H   0  0  0  0  0  0  0  0  0  0  0  0
    5.5969   -3.2707   -2.1704 H   0  0  0  0  0  0  0  0  0  0  0  0
    4.6392   -4.7203   -1.9862 H   0  0  0  0  0  0  0  0  0  0  0  0
    1.4572    2.3318    3.0777 H   0  0  0  0  0  0  0  0  0  0  0  0
    0.5094   -0.2167    4.4425 H   0  0  0  0  0  0  0  0  0  0  0  0
    0.6134    1.4181    5.0988 H   0  0  0  0  0  0  0  0  0  0  0  0
   -1.6820    0.1480    3.9779 H   0  0  0  0  0  0  0  0  0  0  0  0
   -1.5578    1.8712    4.3042 H   0  0  0  0  0  0  0  0  0  0  0  0
   -1.8099    0.7709    1.6992 H   0  0  0  0  0  0  0  0  0  0  0  0
   -1.2926    2.4078    2.0974 H   0  0  0  0  0  0  0  0  0  0  0  0
    0.6249    1.6901    0.9289 H   0  0  0  0  0  0  0  0  0  0  0  0
    0.4074    0.0132    1.4328 H   0  0  0  0  0  0  0  0  0  0  0  0
  1  2  2  0
  2  3  2  0
  2  4  1  0
  2 14  1  0
  4  5  1  0
  4 19  1  0
  5  6  1  0
  5 20  1  0
  5 21  1  0
  6  7  1  0
  6 22  1  0
  6 23  1  0
  7  8  1  0
  7 24  1  0
  7 25  1  0
  8 13  1  0
  8  9  1  0
  9 10  1  0
  9 26  1  0
  9 27  1  0
 10 11  1  0
 10 28  1  0
 10 29  1  0
 11 12  1  0
 12 13  1  0
 12 30  1  0
 12 31  1  0
 13 32  1  0
 13 33  1  0
 14 18  1  0
 14 15  1  0
 14 34  1  0
 15 16  1  0
 15 35  1  0
 15 36  1  0
 16 17  1  0
 16 37  1  0
 16 38  1  0
 17 18  1  0
 17 39  1  0
 17 40  1  0
 18 41  1  0
 18 42  1  0
M  END
>  <i_m_ct_stereo_status>  (515) 
1

>  <s_m_source_file>  (515) 
/var/tmp/pbs.5102264.sched01/tmpp_sc680v/18465xhjztf.sdf

>  <i_m_source_file_index>  (515) 
1

>  <i_lp_mmshare_version>  (515) 
48012

>  <i_f3d_flags>  (515) 
0

>  <s_epik_input>  (515) 
W0NIMl0xW0NIMl1bQ0gyXVtDSDJdW0NIXTFTKD1PKSg9TylbTkhdW0NIMl1bQ0gyXVtDSDJdTjJbQ0gyXVtDSDJdT1tDSDJdW0NIMl0y

>  <s_epik_cmdline>  (515) 
J2VwaWtfcHl0aG9uJywgJy1waHQnLCAnMi4wJywgJy1waCcsICc3LjAnLCAnLXRuJywgJzgnLCAnLW1hJywgJzIwMCcsICctaW1hZScsICc8aW5maWxlLm1hZT4nLCAnLW9tYWUnLCAnPG91dGZpbGUubWFlPic=

>  <r_epik_Ionization_Penalty>  (515) 
0.591554

>  <r_epik_Ionization_Penalty_Charging>  (515) 
0

>  <r_epik_Ionization_Penalty_Neutral>  (515) 
0.591554

>  <r_epik_State_Penalty>  (515) 
0.605164

>  <r_epik_Charging_Adjusted_Penalty>  (515) 
0.605164

>  <i_epik_Tot_Q>  (515) 
0

>  <i_epik_Tot_abs_Q>  (515) 
0

>  <s_lp_Force_Field>  (515) 
OPLS3e

>  <r_lp_Energy>  (515) 
9.70646

>  <b_lp_Chiralities_Consistent>  (515) 
1

>  <s_lp_Variant>  (515) 
109:0-2

>  <s_i_glide_gridfile>  (515) 
pfpi4k_grid

>  <i_i_glide_lignum>  (515) 
1

>  <i_i_glide_rotatable_bonds>  (515) 
6

>  <r_i_docking_score>  (515) 
-2.9318

>  <r_i_glide_ligand_efficiency>  (515) 
-0.162878

>  <r_i_glide_ligand_efficiency_sa>  (515) 
-0.42686

>  <r_i_glide_ligand_efficiency_ln>  (515) 
-0.753604

>  <r_i_glide_gscore>  (515) 
-2.9318

>  <r_i_glide_lipo>  (515) 
-0.24187

>  <r_i_glide_hbond>  (515) 
-0.32

>  <r_i_glide_metal>  (515) 
-0

>  <r_i_glide_rewards>  (515) 
-1.53706

>  <r_i_glide_evdw>  (515) 
-22.154

>  <r_i_glide_ecoul>  (515) 
-4.38445

>  <r_i_glide_erotb>  (515) 
0.941993

>  <r_i_glide_esite>  (515) 
-0.00949992

>  <r_i_glide_emodel>  (515) 
-28.8436

>  <r_i_glide_energy>  (515) 
-26.5384

>  <r_i_glide_einternal>  (515) 
6.52765

>  <r_i_glide_intrahb_reward>  (515) 
-0

>  <i_i_glide_confnum>  (515) 
2

>  <i_i_glide_posenum>  (515) 
3

>  <r_i_glide_eff_state_penalty>  (515) 
0

>  <ligand_id>  (515) 
109

>  <original_smiles>  (515) 
O=S(=O)(NCCCN1CCOCC1)C1CCCC1

>  <smiles>  (515) 
[H]N(C([H])([H])C([H])([H])C([H])([H])N1C([H])([H])C([H])([H])OC([H])([H])C1([H])[H])S(=O)(=O)C1([H])C([H])([H])C([H])([H])C([H])([H])C1([H])[H]

$$$$
109:1:2
     RDKit          3D

 42 43  0  0  1  0  0  0  0  0999 V2000
    4.9860   -2.5726   -2.1473 O   0  0  0  0  0  0  0  0  0  0  0  0
    5.1394   -2.1561   -0.7440 S   0  0  0  0  0  0  0  0  0  0  0  0
    6.3637   -1.4536   -0.3228 O   0  0  0  0  0  0  0  0  0  0  0  0
    3.8086   -1.1308   -0.3752 N   0  0  0  0  0  0  0  0  0  0  0  0
    3.7371   -0.4581    0.9290 C   0  0  0  0  0  0  0  0  0  0  0  0
    2.2897   -0.0813    1.2786 C   0  0  0  0  0  0  0  0  0  0  0  0
    2.1771    0.6148    2.6491 C   0  0  0  0  0  0  0  0  0  0  0  0
    0.7999    0.8948    3.0693 N   0  0  0  0  0  0  0  0  0  0  0  0
    0.6762    0.9842    4.5198 C   0  0  0  0  0  0  0  0  0  0  0  0
   -0.7661    1.3026    4.9595 C   0  0  0  0  0  0  0  0  0  0  0  0
   -1.2011    2.5142    4.3514 O   0  0  0  0  0  0  0  0  0  0  0  0
   -1.1386    2.4614    2.9271 C   0  0  0  0  0  0  0  0  0  0  0  0
    0.2966    2.1343    2.4734 C   0  0  0  0  0  0  0  0  0  0  0  0
    4.8481   -3.5972    0.3888 C   0  0  0  0  0  0  0  0  0  0  0  0
    6.1303   -4.0504    1.0926 C   0  0  0  0  0  0  0  0  0  0  0  0
    5.9480   -5.5516    1.3611 C   0  0  0  0  0  0  0  0  0  0  0  0
    4.6961   -5.9961    0.5876 C   0  0  0  0  0  0  0  0  0  0  0  0
    4.3297   -4.8368   -0.3388 C   0  0  0  0  0  0  0  0  0  0  0  0
    2.9129   -1.4791   -0.7281 H   0  0  0  0  0  0  0  0  0  0  0  0
    4.1367   -1.1114    1.7048 H   0  0  0  0  0  0  0  0  0  0  0  0
    4.3799    0.4187    0.8907 H   0  0  0  0  0  0  0  0  0  0  0  0
    1.8500    0.5454    0.5004 H   0  0  0  0  0  0  0  0  0  0  0  0
    1.6879   -0.9896    1.3018 H   0  0  0  0  0  0  0  0  0  0  0  0
    2.6596   -0.0321    3.3824 H   0  0  0  0  0  0  0  0  0  0  0  0
    2.7619    1.5368    2.6431 H   0  0  0  0  0  0  0  0  0  0  0  0
    0.9784    0.0382    4.9708 H   0  0  0  0  0  0  0  0  0  0  0  0
    1.3527    1.7469    4.9075 H   0  0  0  0  0  0  0  0  0  0  0  0
   -1.4450    0.4925    4.6873 H   0  0  0  0  0  0  0  0  0  0  0  0
   -0.8171    1.4120    6.0419 H   0  0  0  0  0  0  0  0  0  0  0  0
   -1.8414    1.7164    2.5507 H   0  0  0  0  0  0  0  0  0  0  0  0
   -1.4465    3.4265    2.5249 H   0  0  0  0  0  0  0  0  0  0  0  0
    0.9468    2.9660    2.7496 H   0  0  0  0  0  0  0  0  0  0  0  0
    0.3196    2.0685    1.3856 H   0  0  0  0  0  0  0  0  0  0  0  0
    4.1193   -3.3053    1.1427 H   0  0  0  0  0  0  0  0  0  0  0  0
    7.0000   -3.9158    0.4438 H   0  0  0  0  0  0  0  0  0  0  0  0
    6.2976   -3.4865    2.0105 H   0  0  0  0  0  0  0  0  0  0  0  0
    6.8366   -6.0980    1.0341 H   0  0  0  0  0  0  0  0  0  0  0  0
    5.8181   -5.7466    2.4291 H   0  0  0  0  0  0  0  0  0  0  0  0
    4.8705   -6.9142    0.0242 H   0  0  0  0  0  0  0  0  0  0  0  0
    3.8796   -6.1761    1.2900 H   0  0  0  0  0  0  0  0  0  0  0  0
    3.2546   -4.7715   -0.5342 H   0  0  0  0  0  0  0  0  0  0  0  0
    4.8463   -4.9665   -1.2945 H   0  0  0  0  0  0  0  0  0  0  0  0
  1  2  2  0
  2  3  2  0
  2  4  1  0
  2 14  1  0
  4  5  1  0
  4 19  1  0
  5  6  1  0
  5 20  1  0
  5 21  1  0
  6  7  1  0
  6 22  1  0
  6 23  1  0
  7  8  1  0
  7 24  1  0
  7 25  1  0
  8 13  1  0
  8  9  1  0
  9 10  1  0
  9 26  1  0
  9 27  1  0
 10 11  1  0
 10 28  1  0
 10 29  1  0
 11 12  1  0
 12 13  1  0
 12 30  1  0
 12 31  1  0
 13 32  1  0
 13 33  1  0
 14 18  1  0
 14 15  1  0
 14 34  1  0
 15 16  1  0
 15 35  1  0
 15 36  1  0
 16 17  1  0
 16 37  1  0
 16 38  1  0
 17 18  1  0
 17 39  1  0
 17 40  1  0
 18 41  1  0
 18 42  1  0
M  END
>  <i_m_ct_stereo_status>  (516) 
1

>  <s_m_source_file>  (516) 
/var/tmp/pbs.5102264.sched01/tmpp_sc680v/18465xhjztf.sdf

>  <i_m_source_file_index>  (516) 
1

>  <i_lp_mmshare_version>  (516) 
48012

>  <i_f3d_flags>  (516) 
0

>  <s_epik_input>  (516) 
W0NIMl0xW0NIMl1bQ0gyXVtDSDJdW0NIXTFTKD1PKSg9TylbTkhdW0NIMl1bQ0gyXVtDSDJdTjJbQ0gyXVtDSDJdT1tDSDJdW0NIMl0y

>  <s_epik_cmdline>  (516) 
J2VwaWtfcHl0aG9uJywgJy1waHQnLCAnMi4wJywgJy1waCcsICc3LjAnLCAnLXRuJywgJzgnLCAnLW1hJywgJzIwMCcsICctaW1hZScsICc8aW5maWxlLm1hZT4nLCAnLW9tYWUnLCAnPG91dGZpbGUubWFlPic=

>  <r_epik_Ionization_Penalty>  (516) 
0.591554

>  <r_epik_Ionization_Penalty_Charging>  (516) 
0

>  <r_epik_Ionization_Penalty_Neutral>  (516) 
0.591554

>  <r_epik_State_Penalty>  (516) 
0.605164

>  <r_epik_Charging_Adjusted_Penalty>  (516) 
0.605164

>  <i_epik_Tot_Q>  (516) 
0

>  <i_epik_Tot_abs_Q>  (516) 
0

>  <s_lp_Force_Field>  (516) 
OPLS3e

>  <r_lp_Energy>  (516) 
9.70646

>  <b_lp_Chiralities_Consistent>  (516) 
1

>  <s_lp_Variant>  (516) 
109:0-2

>  <s_i_glide_gridfile>  (516) 
pfpi4k_grid

>  <i_i_glide_lignum>  (516) 
1

>  <i_i_glide_rotatable_bonds>  (516) 
6

>  <r_i_docking_score>  (516) 
-2.7197

>  <r_i_glide_ligand_efficiency>  (516) 
-0.151095

>  <r_i_glide_ligand_efficiency_sa>  (516) 
-0.39598

>  <r_i_glide_ligand_efficiency_ln>  (516) 
-0.699086

>  <r_i_glide_gscore>  (516) 
-2.7197

>  <r_i_glide_lipo>  (516) 
-0.31533

>  <r_i_glide_hbond>  (516) 
-0.0654089

>  <r_i_glide_metal>  (516) 
-0

>  <r_i_glide_rewards>  (516) 
-1.52457

>  <r_i_glide_evdw>  (516) 
-19.8548

>  <r_i_glide_ecoul>  (516) 
-4.20369

>  <r_i_glide_erotb>  (516) 
0.941993

>  <r_i_glide_esite>  (516) 
-0.133096

>  <r_i_glide_emodel>  (516) 
-26.8334

>  <r_i_glide_energy>  (516) 
-24.0585

>  <r_i_glide_einternal>  (516) 
4.85478

>  <r_i_glide_intrahb_reward>  (516) 
-0

>  <i_i_glide_confnum>  (516) 
3

>  <i_i_glide_posenum>  (516) 
22

>  <r_i_glide_eff_state_penalty>  (516) 
0

>  <ligand_id>  (516) 
109

>  <original_smiles>  (516) 
O=S(=O)(NCCCN1CCOCC1)C1CCCC1

>  <smiles>  (516) 
[H]N(C([H])([H])C([H])([H])C([H])([H])N1C([H])([H])C([H])([H])OC([H])([H])C1([H])[H])S(=O)(=O)C1([H])C([H])([H])C([H])([H])C([H])([H])C1([H])[H]

$$$$
110:0:0
     RDKit          3D

 27 29  0  0  1  0  0  0  0  0999 V2000
    5.2813   -3.8543   -3.4210 C   0  0  0  0  0  0  0  0  0  0  0  0
    4.3860   -2.6589   -3.2798 C   0  0  0  0  0  0  0  0  0  0  0  0
    4.2123   -1.8636   -4.3181 N   0  0  0  0  0  0  0  0  0  0  0  0
    3.3880   -0.8799   -3.9105 N   0  0  0  0  0  0  0  0  0  0  0  0
    3.0076    0.1780   -4.8162 C   0  0  0  0  0  0  0  0  0  0  0  0
    3.0178   -1.0675   -2.6071 C   0  0  0  0  0  0  0  0  0  0  0  0
    3.6490   -2.1967   -2.1609 C   0  0  0  0  0  0  0  0  0  0  0  0
    3.5782   -2.7927   -0.8350 C   0  0  0  0  0  0  0  0  0  0  0  0
    2.6282   -2.4110    0.0781 N   0  0  0  0  0  0  0  0  0  0  0  0
    2.8285   -3.1297    1.2273 C   0  0  0  0  0  0  0  0  0  0  0  0
    2.2119   -3.1923    2.4882 C   0  0  0  0  0  0  0  0  0  0  0  0
    2.7129   -4.1317    3.4127 C   0  0  0  0  0  0  0  0  0  0  0  0
    2.0026   -4.2957    4.9804 Cl  0  0  0  0  0  0  0  0  0  0  0  0
    3.8064   -4.9378    3.0229 C   0  0  0  0  0  0  0  0  0  0  0  0
    4.4097   -4.8794    1.8107 N   0  0  0  0  0  0  0  0  0  0  0  0
    3.9176   -3.9858    0.9426 C   0  0  0  0  0  0  0  0  0  0  0  0
    4.3750   -3.7508   -0.3391 N   0  0  0  0  0  0  0  0  0  0  0  0
    1.8939   -1.7128   -0.1244 H   0  0  0  0  0  0  0  0  0  0  0  0
    5.6020   -4.2540   -2.4671 H   0  0  0  0  0  0  0  0  0  0  0  0
    6.2154   -3.5764   -3.8992 H   0  0  0  0  0  0  0  0  0  0  0  0
    4.7893   -4.6489   -3.9887 H   0  0  0  0  0  0  0  0  0  0  0  0
    2.3006    0.8472   -4.3224 H   0  0  0  0  0  0  0  0  0  0  0  0
    2.5209   -0.2401   -5.6980 H   0  0  0  0  0  0  0  0  0  0  0  0
    3.8894    0.7415   -5.1238 H   0  0  0  0  0  0  0  0  0  0  0  0
    2.3452   -0.3846   -2.1193 H   0  0  0  0  0  0  0  0  0  0  0  0
    1.3698   -2.5642    2.7241 H   0  0  0  0  0  0  0  0  0  0  0  0
    4.2309   -5.6645    3.7027 H   0  0  0  0  0  0  0  0  0  0  0  0
  1  2  1  0
  1 19  1  0
  1 20  1  0
  1 21  1  0
  2  7  1  0
  2  3  2  0
  3  4  1  0
  4  5  1  0
  4  6  1  0
  5 22  1  0
  5 23  1  0
  5 24  1  0
  6  7  2  0
  6 25  1  0
  7  8  1  0
  8 17  2  0
  8  9  1  0
  9 18  1  0
  9 10  1  0
 10 16  2  0
 10 11  1  0
 11 26  1  0
 11 12  2  0
 12 13  1  0
 12 14  1  0
 14 27  1  0
 14 15  2  0
 15 16  1  0
 16 17  1  0
M  END
>  <i_m_ct_stereo_status>  (517) 
1

>  <s_m_source_file>  (517) 
/var/tmp/pbs.5102264.sched01/tmpp_sc680v/18465xhjztf.sdf

>  <i_m_source_file_index>  (517) 
2

>  <i_lp_mmshare_version>  (517) 
48012

>  <i_f3d_flags>  (517) 
0

>  <s_epik_input>  (517) 
W0NIM11jMW5uKFtDSDNdKVtjSF1jMS1jKG4yKVtuSF1jKGMyMyluW2NIXWMoQ2wpW2NIXTM=

>  <s_epik_cmdline>  (517) 
J2VwaWtfcHl0aG9uJywgJy1waHQnLCAnMi4wJywgJy1waCcsICc3LjAnLCAnLXRuJywgJzgnLCAnLW1hJywgJzIwMCcsICctaW1hZScsICc8aW5maWxlLm1hZT4nLCAnLW9tYWUnLCAnPG91dGZpbGUubWFlPic=

>  <r_lp_tautomer_probability>  (517) 
0.641916

>  <r_epik_Ionization_Penalty>  (517) 
0.00722949

>  <r_epik_Ionization_Penalty_Charging>  (517) 
0

>  <r_epik_Ionization_Penalty_Neutral>  (517) 
0.00722949

>  <r_epik_State_Penalty>  (517) 
0.254028

>  <r_epik_Charging_Adjusted_Penalty>  (517) 
0.254028

>  <i_epik_Tot_Q>  (517) 
0

>  <i_epik_Tot_abs_Q>  (517) 
0

>  <s_lp_Force_Field>  (517) 
OPLS3e

>  <r_lp_Energy>  (517) 
14.2383

>  <b_lp_Chiralities_Consistent>  (517) 
1

>  <s_lp_Variant>  (517) 
110:0-1

>  <s_i_glide_gridfile>  (517) 
pfpi4k_grid

>  <i_i_glide_lignum>  (517) 
2

>  <i_i_glide_rotatable_bonds>  (517) 
1

>  <r_i_docking_score>  (517) 
-5.02627

>  <r_i_glide_ligand_efficiency>  (517) 
-0.295663

>  <r_i_glide_ligand_efficiency_sa>  (517) 
-0.760233

>  <r_i_glide_ligand_efficiency_ln>  (517) 
-1.31124

>  <r_i_glide_gscore>  (517) 
-5.02627

>  <r_i_glide_lipo>  (517) 
-0.256831

>  <r_i_glide_hbond>  (517) 
-0.454703

>  <r_i_glide_metal>  (517) 
-0

>  <r_i_glide_rewards>  (517) 
-2.00061

>  <r_i_glide_evdw>  (517) 
-15.7277

>  <r_i_glide_ecoul>  (517) 
-11.4099

>  <r_i_glide_erotb>  (517) 
0.284502

>  <r_i_glide_esite>  (517) 
-0.10077

>  <r_i_glide_emodel>  (517) 
-36.0828

>  <r_i_glide_energy>  (517) 
-27.1375

>  <r_i_glide_einternal>  (517) 
0.170094

>  <r_i_glide_intrahb_reward>  (517) 
-0

>  <i_i_glide_confnum>  (517) 
1

>  <i_i_glide_posenum>  (517) 
1

>  <r_i_glide_eff_state_penalty>  (517) 
0

>  <ligand_id>  (517) 
110

>  <original_smiles>  (517) 
Cc1nn(C)cc1-c1nc2cc(Cl)cnc2[nH]1

>  <smiles>  (517) 
[H]c1nc2nc(-c3c(C([H])([H])[H])nn(C([H])([H])[H])c3[H])n([H])c2c([H])c1Cl

$$$$
110:0:1
     RDKit          3D

 27 29  0  0  1  0  0  0  0  0999 V2000
    6.6162   -4.1594    1.9041 C   0  0  0  0  0  0  0  0  0  0  0  0
    5.6736   -5.1530    1.3111 C   0  0  0  0  0  0  0  0  0  0  0  0
    5.5971   -6.3638    1.8543 N   0  0  0  0  0  0  0  0  0  0  0  0
    4.6798   -7.0192    1.1075 N   0  0  0  0  0  0  0  0  0  0  0  0
    4.3440   -8.3903    1.4248 C   0  0  0  0  0  0  0  0  0  0  0  0
    4.1790   -6.2273    0.1031 C   0  0  0  0  0  0  0  0  0  0  0  0
    4.7880   -5.0161    0.2087 C   0  0  0  0  0  0  0  0  0  0  0  0
    4.5611   -3.8475   -0.6224 C   0  0  0  0  0  0  0  0  0  0  0  0
    3.6343   -3.8539   -1.6341 N   0  0  0  0  0  0  0  0  0  0  0  0
    3.6566   -2.6524   -2.2710 C   0  0  0  0  0  0  0  0  0  0  0  0
    2.9913   -2.0674   -3.3758 C   0  0  0  0  0  0  0  0  0  0  0  0
    3.3368   -0.7382   -3.6963 C   0  0  0  0  0  0  0  0  0  0  0  0
    2.6602    0.1497   -5.0176 Cl  0  0  0  0  0  0  0  0  0  0  0  0
    4.2919   -0.1037   -2.8941 C   0  0  0  0  0  0  0  0  0  0  0  0
    4.9925   -0.6696   -1.8876 N   0  0  0  0  0  0  0  0  0  0  0  0
    4.6411   -1.9161   -1.5758 C   0  0  0  0  0  0  0  0  0  0  0  0
    5.1994   -2.6752   -0.5665 N   0  0  0  0  0  0  0  0  0  0  0  0
    3.0931   -4.6875   -1.9028 H   0  0  0  0  0  0  0  0  0  0  0  0
    6.8470   -3.3289    1.2397 H   0  0  0  0  0  0  0  0  0  0  0  0
    7.5577   -4.6626    2.1244 H   0  0  0  0  0  0  0  0  0  0  0  0
    6.1998   -3.7470    2.8194 H   0  0  0  0  0  0  0  0  0  0  0  0
    3.5684   -8.7575    0.7526 H   0  0  0  0  0  0  0  0  0  0  0  0
    3.9778   -8.4476    2.4505 H   0  0  0  0  0  0  0  0  0  0  0  0
    5.2315   -9.0148    1.3184 H   0  0  0  0  0  0  0  0  0  0  0  0
    3.4354   -6.5784   -0.5771 H   0  0  0  0  0  0  0  0  0  0  0  0
    2.2364   -2.5869   -3.9460 H   0  0  0  0  0  0  0  0  0  0  0  0
    4.5633    0.9165   -3.1189 H   0  0  0  0  0  0  0  0  0  0  0  0
  1  2  1  0
  1 19  1  0
  1 20  1  0
  1 21  1  0
  2  7  1  0
  2  3  2  0
  3  4  1  0
  4  5  1  0
  4  6  1  0
  5 22  1  0
  5 23  1  0
  5 24  1  0
  6  7  2  0
  6 25  1  0
  7  8  1  0
  8 17  2  0
  8  9  1  0
  9 18  1  0
  9 10  1  0
 10 16  2  0
 10 11  1  0
 11 26  1  0
 11 12  2  0
 12 13  1  0
 12 14  1  0
 14 27  1  0
 14 15  2  0
 15 16  1  0
 16 17  1  0
M  END
>  <i_m_ct_stereo_status>  (518) 
1

>  <s_m_source_file>  (518) 
/var/tmp/pbs.5102264.sched01/tmpp_sc680v/18465xhjztf.sdf

>  <i_m_source_file_index>  (518) 
2

>  <i_lp_mmshare_version>  (518) 
48012

>  <i_f3d_flags>  (518) 
0

>  <s_epik_input>  (518) 
W0NIM11jMW5uKFtDSDNdKVtjSF1jMS1jKG4yKVtuSF1jKGMyMyluW2NIXWMoQ2wpW2NIXTM=

>  <s_epik_cmdline>  (518) 
J2VwaWtfcHl0aG9uJywgJy1waHQnLCAnMi4wJywgJy1waCcsICc3LjAnLCAnLXRuJywgJzgnLCAnLW1hJywgJzIwMCcsICctaW1hZScsICc8aW5maWxlLm1hZT4nLCAnLW9tYWUnLCAnPG91dGZpbGUubWFlPic=

>  <r_lp_tautomer_probability>  (518) 
0.641916

>  <r_epik_Ionization_Penalty>  (518) 
0.00722949

>  <r_epik_Ionization_Penalty_Charging>  (518) 
0

>  <r_epik_Ionization_Penalty_Neutral>  (518) 
0.00722949

>  <r_epik_State_Penalty>  (518) 
0.254028

>  <r_epik_Charging_Adjusted_Penalty>  (518) 
0.254028

>  <i_epik_Tot_Q>  (518) 
0

>  <i_epik_Tot_abs_Q>  (518) 
0

>  <s_lp_Force_Field>  (518) 
OPLS3e

>  <r_lp_Energy>  (518) 
14.2383

>  <b_lp_Chiralities_Consistent>  (518) 
1

>  <s_lp_Variant>  (518) 
110:0-1

>  <s_i_glide_gridfile>  (518) 
pfpi4k_grid

>  <i_i_glide_lignum>  (518) 
2

>  <i_i_glide_rotatable_bonds>  (518) 
1

>  <r_i_docking_score>  (518) 
-4.59886

>  <r_i_glide_ligand_efficiency>  (518) 
-0.270521

>  <r_i_glide_ligand_efficiency_sa>  (518) 
-0.695586

>  <r_i_glide_ligand_efficiency_ln>  (518) 
-1.19974

>  <r_i_glide_gscore>  (518) 
-4.59886

>  <r_i_glide_lipo>  (518) 
-0.731614

>  <r_i_glide_hbond>  (518) 
-0.32

>  <r_i_glide_metal>  (518) 
-0

>  <r_i_glide_rewards>  (518) 
-1.86488

>  <r_i_glide_evdw>  (518) 
-16.192

>  <r_i_glide_ecoul>  (518) 
-7.36116

>  <r_i_glide_erotb>  (518) 
0.284502

>  <r_i_glide_esite>  (518) 
-0.0530926

>  <r_i_glide_emodel>  (518) 
-31.842

>  <r_i_glide_energy>  (518) 
-23.5532

>  <r_i_glide_einternal>  (518) 
0.00281546

>  <r_i_glide_intrahb_reward>  (518) 
-0

>  <i_i_glide_confnum>  (518) 
3

>  <i_i_glide_posenum>  (518) 
8

>  <r_i_glide_eff_state_penalty>  (518) 
0

>  <ligand_id>  (518) 
110

>  <original_smiles>  (518) 
Cc1nn(C)cc1-c1nc2cc(Cl)cnc2[nH]1

>  <smiles>  (518) 
[H]c1nc2nc(-c3c(C([H])([H])[H])nn(C([H])([H])[H])c3[H])n([H])c2c([H])c1Cl

$$$$
110:0:2
     RDKit          3D

 27 29  0  0  1  0  0  0  0  0999 V2000
    3.9357   -4.3067    3.3101 C   0  0  0  0  0  0  0  0  0  0  0  0
    3.0322   -5.1591    2.4575 C   0  0  0  0  0  0  0  0  0  0  0  0
    2.4613   -6.2239    3.0099 N   0  0  0  0  0  0  0  0  0  0  0  0
    1.7325   -6.7881    2.0218 N   0  0  0  0  0  0  0  0  0  0  0  0
    0.9863   -7.9949    2.2906 C   0  0  0  0  0  0  0  0  0  0  0  0
    1.8181   -6.0810    0.8450 C   0  0  0  0  0  0  0  0  0  0  0  0
    2.6365   -5.0204    1.0924 C   0  0  0  0  0  0  0  0  0  0  0  0
    3.0203   -3.9782    0.1496 C   0  0  0  0  0  0  0  0  0  0  0  0
    2.4376   -3.8517   -1.0925 N   0  0  0  0  0  0  0  0  0  0  0  0
    3.0196   -2.8063   -1.7387 C   0  0  0  0  0  0  0  0  0  0  0  0
    2.8696   -2.2036   -3.0005 C   0  0  0  0  0  0  0  0  0  0  0  0
    3.6901   -1.0921   -3.2733 C   0  0  0  0  0  0  0  0  0  0  0  0
    3.5647   -0.2382   -4.7628 Cl  0  0  0  0  0  0  0  0  0  0  0  0
    4.6074   -0.6778   -2.2854 C   0  0  0  0  0  0  0  0  0  0  0  0
    4.7767   -1.2611   -1.0794 N   0  0  0  0  0  0  0  0  0  0  0  0
    3.9700   -2.2949   -0.8213 C   0  0  0  0  0  0  0  0  0  0  0  0
    3.9566   -3.0402    0.3411 N   0  0  0  0  0  0  0  0  0  0  0  0
    1.7366   -4.4501   -1.5054 H   0  0  0  0  0  0  0  0  0  0  0  0
    4.5795   -3.6555    2.7233 H   0  0  0  0  0  0  0  0  0  0  0  0
    4.5907   -4.9275    3.9193 H   0  0  0  0  0  0  0  0  0  0  0  0
    3.3524   -3.6768    3.9805 H   0  0  0  0  0  0  0  0  0  0  0  0
    0.4221   -8.2764    1.4029 H   0  0  0  0  0  0  0  0  0  0  0  0
    0.2912   -7.8247    3.1138 H   0  0  0  0  0  0  0  0  0  0  0  0
    1.6717   -8.8007    2.5569 H   0  0  0  0  0  0  0  0  0  0  0  0
    1.3045   -6.3832   -0.0511 H   0  0  0  0  0  0  0  0  0  0  0  0
    2.1417   -2.5576   -3.7147 H   0  0  0  0  0  0  0  0  0  0  0  0
    5.2489    0.1636   -2.4647 H   0  0  0  0  0  0  0  0  0  0  0  0
  1  2  1  0
  1 19  1  0
  1 20  1  0
  1 21  1  0
  2  7  1  0
  2  3  2  0
  3  4  1  0
  4  5  1  0
  4  6  1  0
  5 22  1  0
  5 23  1  0
  5 24  1  0
  6  7  2  0
  6 25  1  0
  7  8  1  0
  8 17  2  0
  8  9  1  0
  9 18  1  0
  9 10  1  0
 10 16  2  0
 10 11  1  0
 11 26  1  0
 11 12  2  0
 12 13  1  0
 12 14  1  0
 14 27  1  0
 14 15  2  0
 15 16  1  0
 16 17  1  0
M  END
>  <i_m_ct_stereo_status>  (519) 
1

>  <s_m_source_file>  (519) 
/var/tmp/pbs.5102264.sched01/tmpp_sc680v/18465xhjztf.sdf

>  <i_m_source_file_index>  (519) 
2

>  <i_lp_mmshare_version>  (519) 
48012

>  <i_f3d_flags>  (519) 
0

>  <s_epik_input>  (519) 
W0NIM11jMW5uKFtDSDNdKVtjSF1jMS1jKG4yKVtuSF1jKGMyMyluW2NIXWMoQ2wpW2NIXTM=

>  <s_epik_cmdline>  (519) 
J2VwaWtfcHl0aG9uJywgJy1waHQnLCAnMi4wJywgJy1waCcsICc3LjAnLCAnLXRuJywgJzgnLCAnLW1hJywgJzIwMCcsICctaW1hZScsICc8aW5maWxlLm1hZT4nLCAnLW9tYWUnLCAnPG91dGZpbGUubWFlPic=

>  <r_lp_tautomer_probability>  (519) 
0.641916

>  <r_epik_Ionization_Penalty>  (519) 
0.00722949

>  <r_epik_Ionization_Penalty_Charging>  (519) 
0

>  <r_epik_Ionization_Penalty_Neutral>  (519) 
0.00722949

>  <r_epik_State_Penalty>  (519) 
0.254028

>  <r_epik_Charging_Adjusted_Penalty>  (519) 
0.254028

>  <i_epik_Tot_Q>  (519) 
0

>  <i_epik_Tot_abs_Q>  (519) 
0

>  <s_lp_Force_Field>  (519) 
OPLS3e

>  <r_lp_Energy>  (519) 
14.2383

>  <b_lp_Chiralities_Consistent>  (519) 
1

>  <s_lp_Variant>  (519) 
110:0-1

>  <s_i_glide_gridfile>  (519) 
pfpi4k_grid

>  <i_i_glide_lignum>  (519) 
2

>  <i_i_glide_rotatable_bonds>  (519) 
1

>  <r_i_docking_score>  (519) 
-3.41702

>  <r_i_glide_ligand_efficiency>  (519) 
-0.201001

>  <r_i_glide_ligand_efficiency_sa>  (519) 
-0.51683

>  <r_i_glide_ligand_efficiency_ln>  (519) 
-0.891423

>  <r_i_glide_gscore>  (519) 
-3.41702

>  <r_i_glide_lipo>  (519) 
-0.382572

>  <r_i_glide_hbond>  (519) 
-0.0102688

>  <r_i_glide_metal>  (519) 
-0

>  <r_i_glide_rewards>  (519) 
-1.72034

>  <r_i_glide_evdw>  (519) 
-24.0641

>  <r_i_glide_ecoul>  (519) 
-1.85447

>  <r_i_glide_erotb>  (519) 
0.284502

>  <r_i_glide_esite>  (519) 
-0.106959

>  <r_i_glide_emodel>  (519) 
-32.0244

>  <r_i_glide_energy>  (519) 
-25.9186

>  <r_i_glide_einternal>  (519) 
0.0805832

>  <r_i_glide_intrahb_reward>  (519) 
-0

>  <i_i_glide_confnum>  (519) 
3

>  <i_i_glide_posenum>  (519) 
11

>  <r_i_glide_eff_state_penalty>  (519) 
0

>  <ligand_id>  (519) 
110

>  <original_smiles>  (519) 
Cc1nn(C)cc1-c1nc2cc(Cl)cnc2[nH]1

>  <smiles>  (519) 
[H]c1nc2nc(-c3c(C([H])([H])[H])nn(C([H])([H])[H])c3[H])n([H])c2c([H])c1Cl

$$$$
110:1:0
     RDKit          3D

 27 29  0  0  1  0  0  0  0  0999 V2000
    5.0783   -4.0392   -3.4461 C   0  0  0  0  0  0  0  0  0  0  0  0
    4.2755   -2.7835   -3.3042 C   0  0  0  0  0  0  0  0  0  0  0  0
    4.2148   -1.9456   -4.3196 N   0  0  0  0  0  0  0  0  0  0  0  0
    3.4582   -0.9073   -3.9069 N   0  0  0  0  0  0  0  0  0  0  0  0
    3.1873    0.1883   -4.8089 C   0  0  0  0  0  0  0  0  0  0  0  0
    3.0320   -1.0937   -2.6173 C   0  0  0  0  0  0  0  0  0  0  0  0
    3.5431   -2.2871   -2.1977 C   0  0  0  0  0  0  0  0  0  0  0  0
    3.3632   -2.9064   -0.8955 C   0  0  0  0  0  0  0  0  0  0  0  0
    3.4341   -2.2063    0.2390 N   0  0  0  0  0  0  0  0  0  0  0  0
    3.1726   -3.1576    1.2106 C   0  0  0  0  0  0  0  0  0  0  0  0
    3.0699   -3.0884    2.6178 C   0  0  0  0  0  0  0  0  0  0  0  0
    2.7944   -4.2739    3.3385 C   0  0  0  0  0  0  0  0  0  0  0  0
    2.6790   -4.2314    5.0591 Cl  0  0  0  0  0  0  0  0  0  0  0  0
    2.6132   -5.4928    2.6417 C   0  0  0  0  0  0  0  0  0  0  0  0
    2.6738   -5.6035    1.2878 N   0  0  0  0  0  0  0  0  0  0  0  0
    2.9676   -4.4376    0.6365 C   0  0  0  0  0  0  0  0  0  0  0  0
    3.1112   -4.2243   -0.7208 N   0  0  0  0  0  0  0  0  0  0  0  0
    3.0147   -4.9144   -1.4603 H   0  0  0  0  0  0  0  0  0  0  0  0
    5.3302   -4.4711   -2.4754 H   0  0  0  0  0  0  0  0  0  0  0  0
    6.0158   -3.8384   -3.9561 H   0  0  0  0  0  0  0  0  0  0  0  0
    4.5457   -4.7800   -4.0379 H   0  0  0  0  0  0  0  0  0  0  0  0
    2.5256    0.9099   -4.3309 H   0  0  0  0  0  0  0  0  0  0  0  0
    2.7027   -0.1825   -5.7109 H   0  0  0  0  0  0  0  0  0  0  0  0
    4.1200    0.6844   -5.0781 H   0  0  0  0  0  0  0  0  0  0  0  0
    2.3905   -0.3821   -2.1310 H   0  0  0  0  0  0  0  0  0  0  0  0
    3.2121   -2.1459    3.1219 H   0  0  0  0  0  0  0  0  0  0  0  0
    2.4010   -6.4092    3.1866 H   0  0  0  0  0  0  0  0  0  0  0  0
  1  2  1  0
  1 19  1  0
  1 20  1  0
  1 21  1  0
  2  7  1  0
  2  3  2  0
  3  4  1  0
  4  5  1  0
  4  6  1  0
  5 22  1  0
  5 23  1  0
  5 24  1  0
  6  7  2  0
  6 25  1  0
  7  8  1  0
  8 17  1  0
  8  9  2  0
  9 10  1  0
 10 16  2  0
 10 11  1  0
 11 12  2  0
 11 26  1  0
 12 13  1  0
 12 14  1  0
 14 15  2  0
 14 27  1  0
 15 16  1  0
 16 17  1  0
 17 18  1  0
M  END
>  <i_m_ct_stereo_status>  (520) 
1

>  <s_m_source_file>  (520) 
/var/tmp/pbs.5102264.sched01/tmpp_sc680v/18465xhjztf.sdf

>  <i_m_source_file_index>  (520) 
3

>  <i_lp_mmshare_version>  (520) 
48012

>  <i_f3d_flags>  (520) 
0

>  <s_epik_input>  (520) 
W0NIM11jMW5uKFtDSDNdKVtjSF1jMS1jKG4yKVtuSF1jKGMyMyluW2NIXWMoQ2wpW2NIXTM=

>  <s_epik_cmdline>  (520) 
J2VwaWtfcHl0aG9uJywgJy1waHQnLCAnMi4wJywgJy1waCcsICc3LjAnLCAnLXRuJywgJzgnLCAnLW1hJywgJzIwMCcsICctaW1hZScsICc8aW5maWxlLm1hZT4nLCAnLW9tYWUnLCAnPG91dGZpbGUubWFlPic=

>  <r_lp_tautomer_probability>  (520) 
0.357409

>  <r_epik_Ionization_Penalty>  (520) 
0.00530624

>  <r_epik_Ionization_Penalty_Charging>  (520) 
2.82767e-05

>  <r_epik_Ionization_Penalty_Neutral>  (520) 
0.00527796

>  <r_epik_State_Penalty>  (520) 
0.624248

>  <r_epik_Charging_Adjusted_Penalty>  (520) 
0.624276

>  <i_epik_Tot_Q>  (520) 
0

>  <i_epik_Tot_abs_Q>  (520) 
0

>  <s_lp_Force_Field>  (520) 
OPLS3e

>  <r_lp_Energy>  (520) 
12.6267

>  <b_lp_Chiralities_Consistent>  (520) 
1

>  <s_lp_Variant>  (520) 
110:0-2

>  <s_i_glide_gridfile>  (520) 
pfpi4k_grid

>  <i_i_glide_lignum>  (520) 
3

>  <i_i_glide_rotatable_bonds>  (520) 
1

>  <r_i_docking_score>  (520) 
-5.15831

>  <r_i_glide_ligand_efficiency>  (520) 
-0.30343

>  <r_i_glide_ligand_efficiency_sa>  (520) 
-0.780205

>  <r_i_glide_ligand_efficiency_ln>  (520) 
-1.34569

>  <r_i_glide_gscore>  (520) 
-5.15831

>  <r_i_glide_lipo>  (520) 
-0.234156

>  <r_i_glide_hbond>  (520) 
-0.608

>  <r_i_glide_metal>  (520) 
-0

>  <r_i_glide_rewards>  (520) 
-1.97671

>  <r_i_glide_evdw>  (520) 
-19.5789

>  <r_i_glide_ecoul>  (520) 
-10.4954

>  <r_i_glide_erotb>  (520) 
0.284502

>  <r_i_glide_esite>  (520) 
-0.0706927

>  <r_i_glide_emodel>  (520) 
-39.0136

>  <r_i_glide_energy>  (520) 
-30.0743

>  <r_i_glide_einternal>  (520) 
1.62763

>  <r_i_glide_intrahb_reward>  (520) 
-0

>  <i_i_glide_confnum>  (520) 
4

>  <i_i_glide_posenum>  (520) 
39

>  <r_i_glide_eff_state_penalty>  (520) 
0

>  <ligand_id>  (520) 
110

>  <original_smiles>  (520) 
Cc1nn(C)cc1-c1nc2cc(Cl)cnc2[nH]1

>  <smiles>  (520) 
[H]c1nc2c(nc(-c3c(C([H])([H])[H])nn(C([H])([H])[H])c3[H])n2[H])c([H])c1Cl

$$$$
110:1:1
     RDKit          3D

 27 29  0  0  1  0  0  0  0  0999 V2000
    6.0196   -1.5596   -0.2879 C   0  0  0  0  0  0  0  0  0  0  0  0
    4.9362   -1.6191   -1.3317 C   0  0  0  0  0  0  0  0  0  0  0  0
    4.9564   -0.7249   -2.3111 N   0  0  0  0  0  0  0  0  0  0  0  0
    3.8742   -0.9992   -3.0725 N   0  0  0  0  0  0  0  0  0  0  0  0
    3.5980   -0.1802   -4.2301 C   0  0  0  0  0  0  0  0  0  0  0  0
    3.1663   -2.0790   -2.5927 C   0  0  0  0  0  0  0  0  0  0  0  0
    3.8271   -2.5071   -1.4779 C   0  0  0  0  0  0  0  0  0  0  0  0
    3.4415   -3.6250   -0.6266 C   0  0  0  0  0  0  0  0  0  0  0  0
    4.2558   -4.1593    0.2908 N   0  0  0  0  0  0  0  0  0  0  0  0
    3.4993   -5.1835    0.8298 C   0  0  0  0  0  0  0  0  0  0  0  0
    3.7665   -6.1222    1.8464 C   0  0  0  0  0  0  0  0  0  0  0  0
    2.7666   -7.0603    2.1744 C   0  0  0  0  0  0  0  0  0  0  0  0
    3.0463   -8.2227    3.4134 Cl  0  0  0  0  0  0  0  0  0  0  0  0
    1.5357   -7.0348    1.4785 C   0  0  0  0  0  0  0  0  0  0  0  0
    1.2214   -6.1486    0.5007 N   0  0  0  0  0  0  0  0  0  0  0  0
    2.2223   -5.2592    0.2177 C   0  0  0  0  0  0  0  0  0  0  0  0
    2.2339   -4.2288   -0.7048 N   0  0  0  0  0  0  0  0  0  0  0  0
    1.5303   -3.9946   -1.3893 H   0  0  0  0  0  0  0  0  0  0  0  0
    5.7563   -2.0980    0.6218 H   0  0  0  0  0  0  0  0  0  0  0  0
    6.2210   -0.5305    0.0117 H   0  0  0  0  0  0  0  0  0  0  0  0
    6.9472   -1.9906   -0.6655 H   0  0  0  0  0  0  0  0  0  0  0  0
    2.7165   -0.5568   -4.7497 H   0  0  0  0  0  0  0  0  0  0  0  0
    4.4489   -0.2072   -4.9083 H   0  0  0  0  0  0  0  0  0  0  0  0
    3.4164    0.8495   -3.9211 H   0  0  0  0  0  0  0  0  0  0  0  0
    2.2683   -2.4397   -3.0740 H   0  0  0  0  0  0  0  0  0  0  0  0
    4.7147   -6.1126    2.3620 H   0  0  0  0  0  0  0  0  0  0  0  0
    0.7693   -7.7576    1.7229 H   0  0  0  0  0  0  0  0  0  0  0  0
  1  2  1  0
  1 19  1  0
  1 20  1  0
  1 21  1  0
  2  7  1  0
  2  3  2  0
  3  4  1  0
  4  5  1  0
  4  6  1  0
  5 22  1  0
  5 23  1  0
  5 24  1  0
  6  7  2  0
  6 25  1  0
  7  8  1  0
  8 17  1  0
  8  9  2  0
  9 10  1  0
 10 16  2  0
 10 11  1  0
 11 12  2  0
 11 26  1  0
 12 13  1  0
 12 14  1  0
 14 15  2  0
 14 27  1  0
 15 16  1  0
 16 17  1  0
 17 18  1  0
M  END
>  <i_m_ct_stereo_status>  (521) 
1

>  <s_m_source_file>  (521) 
/var/tmp/pbs.5102264.sched01/tmpp_sc680v/18465xhjztf.sdf

>  <i_m_source_file_index>  (521) 
3

>  <i_lp_mmshare_version>  (521) 
48012

>  <i_f3d_flags>  (521) 
0

>  <s_epik_input>  (521) 
W0NIM11jMW5uKFtDSDNdKVtjSF1jMS1jKG4yKVtuSF1jKGMyMyluW2NIXWMoQ2wpW2NIXTM=

>  <s_epik_cmdline>  (521) 
J2VwaWtfcHl0aG9uJywgJy1waHQnLCAnMi4wJywgJy1waCcsICc3LjAnLCAnLXRuJywgJzgnLCAnLW1hJywgJzIwMCcsICctaW1hZScsICc8aW5maWxlLm1hZT4nLCAnLW9tYWUnLCAnPG91dGZpbGUubWFlPic=

>  <r_lp_tautomer_probability>  (521) 
0.357409

>  <r_epik_Ionization_Penalty>  (521) 
0.00530624

>  <r_epik_Ionization_Penalty_Charging>  (521) 
2.82767e-05

>  <r_epik_Ionization_Penalty_Neutral>  (521) 
0.00527796

>  <r_epik_State_Penalty>  (521) 
0.624248

>  <r_epik_Charging_Adjusted_Penalty>  (521) 
0.624276

>  <i_epik_Tot_Q>  (521) 
0

>  <i_epik_Tot_abs_Q>  (521) 
0

>  <s_lp_Force_Field>  (521) 
OPLS3e

>  <r_lp_Energy>  (521) 
12.6267

>  <b_lp_Chiralities_Consistent>  (521) 
1

>  <s_lp_Variant>  (521) 
110:0-2

>  <s_i_glide_gridfile>  (521) 
pfpi4k_grid

>  <i_i_glide_lignum>  (521) 
3

>  <i_i_glide_rotatable_bonds>  (521) 
1

>  <r_i_docking_score>  (521) 
-3.97776

>  <r_i_glide_ligand_efficiency>  (521) 
-0.233986

>  <r_i_glide_ligand_efficiency_sa>  (521) 
-0.601644

>  <r_i_glide_ligand_efficiency_ln>  (521) 
-1.03771

>  <r_i_glide_gscore>  (521) 
-3.97776

>  <r_i_glide_lipo>  (521) 
-0.27527

>  <r_i_glide_hbond>  (521) 
-0.16

>  <r_i_glide_metal>  (521) 
-0

>  <r_i_glide_rewards>  (521) 
-1.84561

>  <r_i_glide_evdw>  (521) 
-22.0033

>  <r_i_glide_ecoul>  (521) 
-4.96458

>  <r_i_glide_erotb>  (521) 
0.284502

>  <r_i_glide_esite>  (521) 
-0.136535

>  <r_i_glide_emodel>  (521) 
-34.3791

>  <r_i_glide_energy>  (521) 
-26.9679

>  <r_i_glide_einternal>  (521) 
0.159041

>  <r_i_glide_intrahb_reward>  (521) 
-0

>  <i_i_glide_confnum>  (521) 
1

>  <i_i_glide_posenum>  (521) 
35

>  <r_i_glide_eff_state_penalty>  (521) 
0

>  <ligand_id>  (521) 
110

>  <original_smiles>  (521) 
Cc1nn(C)cc1-c1nc2cc(Cl)cnc2[nH]1

>  <smiles>  (521) 
[H]c1nc2c(nc(-c3c(C([H])([H])[H])nn(C([H])([H])[H])c3[H])n2[H])c([H])c1Cl

$$$$
110:1:2
     RDKit          3D

 27 29  0  0  1  0  0  0  0  0999 V2000
    6.7498   -2.9665   -0.4547 C   0  0  0  0  0  0  0  0  0  0  0  0
    5.4850   -2.5137   -1.1259 C   0  0  0  0  0  0  0  0  0  0  0  0
    5.5393   -1.4543   -1.9158 N   0  0  0  0  0  0  0  0  0  0  0  0
    4.2799   -1.2706   -2.3758 N   0  0  0  0  0  0  0  0  0  0  0  0
    3.9979   -0.1741   -3.2766 C   0  0  0  0  0  0  0  0  0  0  0  0
    3.4153   -2.2136   -1.8707 C   0  0  0  0  0  0  0  0  0  0  0  0
    4.1590   -3.0314   -1.0708 C   0  0  0  0  0  0  0  0  0  0  0  0
    3.6648   -4.1746   -0.3199 C   0  0  0  0  0  0  0  0  0  0  0  0
    4.4573   -5.0209    0.3480 N   0  0  0  0  0  0  0  0  0  0  0  0
    3.5671   -5.9354    0.8843 C   0  0  0  0  0  0  0  0  0  0  0  0
    3.7559   -7.0774    1.6864 C   0  0  0  0  0  0  0  0  0  0  0  0
    2.6240   -7.8195    2.0765 C   0  0  0  0  0  0  0  0  0  0  0  0
    2.8098   -9.2158    3.0604 Cl  0  0  0  0  0  0  0  0  0  0  0  0
    1.3403   -7.4007    1.6571 C   0  0  0  0  0  0  0  0  0  0  0  0
    1.0982   -6.3015    0.8903 N   0  0  0  0  0  0  0  0  0  0  0  0
    2.2280   -5.6187    0.5361 C   0  0  0  0  0  0  0  0  0  0  0  0
    2.3512   -4.4803   -0.2384 N   0  0  0  0  0  0  0  0  0  0  0  0
    1.6348   -3.9829   -0.7415 H   0  0  0  0  0  0  0  0  0  0  0  0
    6.5664   -3.6076    0.4057 H   0  0  0  0  0  0  0  0  0  0  0  0
    7.3197   -2.1171   -0.0871 H   0  0  0  0  0  0  0  0  0  0  0  0
    7.3809   -3.5136   -1.1533 H   0  0  0  0  0  0  0  0  0  0  0  0
    2.9457   -0.1872   -3.5552 H   0  0  0  0  0  0  0  0  0  0  0  0
    4.6077   -0.2700   -4.1737 H   0  0  0  0  0  0  0  0  0  0  0  0
    4.2150    0.7717   -2.7871 H   0  0  0  0  0  0  0  0  0  0  0  0
    2.3618   -2.2226   -2.1154 H   0  0  0  0  0  0  0  0  0  0  0  0
    4.7490   -7.3650    1.9955 H   0  0  0  0  0  0  0  0  0  0  0  0
    0.4707   -7.9747    1.9506 H   0  0  0  0  0  0  0  0  0  0  0  0
  1  2  1  0
  1 19  1  0
  1 20  1  0
  1 21  1  0
  2  7  1  0
  2  3  2  0
  3  4  1  0
  4  5  1  0
  4  6  1  0
  5 22  1  0
  5 23  1  0
  5 24  1  0
  6  7  2  0
  6 25  1  0
  7  8  1  0
  8 17  1  0
  8  9  2  0
  9 10  1  0
 10 16  2  0
 10 11  1  0
 11 12  2  0
 11 26  1  0
 12 13  1  0
 12 14  1  0
 14 15  2  0
 14 27  1  0
 15 16  1  0
 16 17  1  0
 17 18  1  0
M  END
>  <i_m_ct_stereo_status>  (522) 
1

>  <s_m_source_file>  (522) 
/var/tmp/pbs.5102264.sched01/tmpp_sc680v/18465xhjztf.sdf

>  <i_m_source_file_index>  (522) 
3

>  <i_lp_mmshare_version>  (522) 
48012

>  <i_f3d_flags>  (522) 
0

>  <s_epik_input>  (522) 
W0NIM11jMW5uKFtDSDNdKVtjSF1jMS1jKG4yKVtuSF1jKGMyMyluW2NIXWMoQ2wpW2NIXTM=

>  <s_epik_cmdline>  (522) 
J2VwaWtfcHl0aG9uJywgJy1waHQnLCAnMi4wJywgJy1waCcsICc3LjAnLCAnLXRuJywgJzgnLCAnLW1hJywgJzIwMCcsICctaW1hZScsICc8aW5maWxlLm1hZT4nLCAnLW9tYWUnLCAnPG91dGZpbGUubWFlPic=

>  <r_lp_tautomer_probability>  (522) 
0.357409

>  <r_epik_Ionization_Penalty>  (522) 
0.00530624

>  <r_epik_Ionization_Penalty_Charging>  (522) 
2.82767e-05

>  <r_epik_Ionization_Penalty_Neutral>  (522) 
0.00527796

>  <r_epik_State_Penalty>  (522) 
0.624248

>  <r_epik_Charging_Adjusted_Penalty>  (522) 
0.624276

>  <i_epik_Tot_Q>  (522) 
0

>  <i_epik_Tot_abs_Q>  (522) 
0

>  <s_lp_Force_Field>  (522) 
OPLS3e

>  <r_lp_Energy>  (522) 
12.6267

>  <b_lp_Chiralities_Consistent>  (522) 
1

>  <s_lp_Variant>  (522) 
110:0-2

>  <s_i_glide_gridfile>  (522) 
pfpi4k_grid

>  <i_i_glide_lignum>  (522) 
3

>  <i_i_glide_rotatable_bonds>  (522) 
1

>  <r_i_docking_score>  (522) 
-3.94013

>  <r_i_glide_ligand_efficiency>  (522) 
-0.231772

>  <r_i_glide_ligand_efficiency_sa>  (522) 
-0.595952

>  <r_i_glide_ligand_efficiency_ln>  (522) 
-1.02789

>  <r_i_glide_gscore>  (522) 
-3.94013

>  <r_i_glide_lipo>  (522) 
-0.285757

>  <r_i_glide_hbond>  (522) 
-0.172371

>  <r_i_glide_metal>  (522) 
-0

>  <r_i_glide_rewards>  (522) 
-1.72034

>  <r_i_glide_evdw>  (522) 
-22.9441

>  <r_i_glide_ecoul>  (522) 
-4.84093

>  <r_i_glide_erotb>  (522) 
0.284502

>  <r_i_glide_esite>  (522) 
-0.172815

>  <r_i_glide_emodel>  (522) 
-35.1965

>  <r_i_glide_energy>  (522) 
-27.7851

>  <r_i_glide_einternal>  (522) 
0.0394822

>  <r_i_glide_intrahb_reward>  (522) 
-0

>  <i_i_glide_confnum>  (522) 
3

>  <i_i_glide_posenum>  (522) 
11

>  <r_i_glide_eff_state_penalty>  (522) 
0

>  <ligand_id>  (522) 
110

>  <original_smiles>  (522) 
Cc1nn(C)cc1-c1nc2cc(Cl)cnc2[nH]1

>  <smiles>  (522) 
[H]c1nc2c(nc(-c3c(C([H])([H])[H])nn(C([H])([H])[H])c3[H])n2[H])c([H])c1Cl

$$$$
111:0:0
     RDKit          3D

 18 19  0  0  1  0  0  0  0  0999 V2000
    7.6491   -2.4164   -0.6514 N   0  0  0  0  0  0  0  0  0  0  0  0
    6.5256   -2.6531   -0.7950 C   0  0  0  0  0  0  0  0  0  0  0  0
    5.1161   -2.9411   -0.9751 C   0  0  0  0  0  0  0  0  0  0  0  0
    4.3885   -2.2767   -1.9851 C   0  0  0  0  0  0  0  0  0  0  0  0
    3.0191   -2.5501   -2.1593 C   0  0  0  0  0  0  0  0  0  0  0  0
    2.3799   -3.4818   -1.3249 C   0  0  0  0  0  0  0  0  0  0  0  0
    3.1048   -4.1638   -0.3182 C   0  0  0  0  0  0  0  0  0  0  0  0
    2.4557   -5.1461    0.4710 N   0  0  0  0  0  0  0  0  0  0  0  0
    2.7897   -5.4782    1.7215 C   0  0  0  0  0  0  0  0  0  0  0  0
    1.9605   -6.3981    2.1942 N   0  0  0  0  0  0  0  0  0  0  0  0
    1.0896   -6.6270    1.1401 N   0  0  0  0  0  0  0  0  0  0  0  0
    1.3625   -5.8585    0.1190 N   0  0  0  0  0  0  0  0  0  0  0  0
    4.4782   -3.8839   -0.1437 C   0  0  0  0  0  0  0  0  0  0  0  0
    4.8643   -1.5495   -2.6230 H   0  0  0  0  0  0  0  0  0  0  0  0
    2.4474   -2.0480   -2.9282 H   0  0  0  0  0  0  0  0  0  0  0  0
    1.3334   -3.6985   -1.4884 H   0  0  0  0  0  0  0  0  0  0  0  0
    3.5904   -5.0439    2.2987 H   0  0  0  0  0  0  0  0  0  0  0  0
    5.0557   -4.4096    0.6073 H   0  0  0  0  0  0  0  0  0  0  0  0
  1  2  3  0
  2  3  1  0
  3 13  2  0
  3  4  1  0
  4  5  2  0
  4 14  1  0
  5  6  1  0
  5 15  1  0
  6  7  2  0
  6 16  1  0
  7  8  1  0
  7 13  1  0
  8 12  1  0
  8  9  1  0
  9 10  2  0
  9 17  1  0
 10 11  1  0
 11 12  2  0
 13 18  1  0
M  END
>  <i_m_ct_stereo_status>  (523) 
1

>  <s_m_source_file>  (523) 
/var/tmp/pbs.5102264.sched01/tmpp_sc680v/18465xhjztf.sdf

>  <i_m_source_file_index>  (523) 
4

>  <i_lp_mmshare_version>  (523) 
48012

>  <i_f3d_flags>  (523) 
0

>  <s_epik_input>  (523) 
TiNDYzFbY0hdW2NIXVtjSF1jKFtjSF0xKS1uMltjSF1ubm4y

>  <s_epik_cmdline>  (523) 
J2VwaWtfcHl0aG9uJywgJy1waHQnLCAnMi4wJywgJy1waCcsICc3LjAnLCAnLXRuJywgJzgnLCAnLW1hJywgJzIwMCcsICctaW1hZScsICc8aW5maWxlLm1hZT4nLCAnLW9tYWUnLCAnPG91dGZpbGUubWFlPic=

>  <r_lp_tautomer_probability>  (523) 
1

>  <r_epik_Ionization_Penalty>  (523) 
3.1481e-10

>  <r_epik_Ionization_Penalty_Charging>  (523) 
0

>  <r_epik_Ionization_Penalty_Neutral>  (523) 
3.1481e-10

>  <r_epik_State_Penalty>  (523) 
-0

>  <r_epik_Charging_Adjusted_Penalty>  (523) 
0

>  <i_epik_Tot_Q>  (523) 
0

>  <i_epik_Tot_abs_Q>  (523) 
0

>  <s_lp_Force_Field>  (523) 
OPLS3e

>  <r_lp_Energy>  (523) 
16.8361

>  <b_lp_Chiralities_Consistent>  (523) 
1

>  <s_lp_Variant>  (523) 
111:0-1

>  <s_i_glide_gridfile>  (523) 
pfpi4k_grid

>  <i_i_glide_lignum>  (523) 
4

>  <i_i_glide_rotatable_bonds>  (523) 
2

>  <r_i_docking_score>  (523) 
-3.5772

>  <r_i_glide_ligand_efficiency>  (523) 
-0.275169

>  <r_i_glide_ligand_efficiency_sa>  (523) 
-0.647015

>  <r_i_glide_ligand_efficiency_ln>  (523) 
-1.00344

>  <r_i_glide_gscore>  (523) 
-3.5772

>  <r_i_glide_lipo>  (523) 
-0.0739372

>  <r_i_glide_hbond>  (523) 
-0.143017

>  <r_i_glide_metal>  (523) 
-0

>  <r_i_glide_rewards>  (523) 
-2.2421

>  <r_i_glide_evdw>  (523) 
-17.6869

>  <r_i_glide_ecoul>  (523) 
-3.26733

>  <r_i_glide_erotb>  (523) 
0.52789

>  <r_i_glide_esite>  (523) 
-0.271591

>  <r_i_glide_emodel>  (523) 
-25.9044

>  <r_i_glide_energy>  (523) 
-20.9542

>  <r_i_glide_einternal>  (523) 
0.485157

>  <r_i_glide_intrahb_reward>  (523) 
-0

>  <i_i_glide_confnum>  (523) 
3

>  <i_i_glide_posenum>  (523) 
3

>  <r_i_glide_eff_state_penalty>  (523) 
0

>  <ligand_id>  (523) 
111

>  <original_smiles>  (523) 
N#Cc1cccc(-n2cnnn2)c1

>  <smiles>  (523) 
[H]c1c([H])c(C#N)c([H])c(-n2nnnc2[H])c1[H]

$$$$
111:0:1
     RDKit          3D

 18 19  0  0  1  0  0  0  0  0999 V2000
    0.2151   -6.6559    0.8810 N   0  0  0  0  0  0  0  0  0  0  0  0
    0.2710   -7.0893    1.9541 C   0  0  0  0  0  0  0  0  0  0  0  0
    0.3414   -7.6192    3.3055 C   0  0  0  0  0  0  0  0  0  0  0  0
    0.5815   -8.9900    3.5168 C   0  0  0  0  0  0  0  0  0  0  0  0
    0.6529   -9.4969    4.8309 C   0  0  0  0  0  0  0  0  0  0  0  0
    0.4875   -8.6351    5.9348 C   0  0  0  0  0  0  0  0  0  0  0  0
    0.2473   -7.2525    5.7288 C   0  0  0  0  0  0  0  0  0  0  0  0
    0.0578   -6.3525    6.8146 N   0  0  0  0  0  0  0  0  0  0  0  0
    0.4643   -6.5638    8.0696 C   0  0  0  0  0  0  0  0  0  0  0  0
    0.1065   -5.5570    8.8545 N   0  0  0  0  0  0  0  0  0  0  0  0
   -0.5451   -4.6878    7.9909 N   0  0  0  0  0  0  0  0  0  0  0  0
   -0.5766   -5.1532    6.7735 N   0  0  0  0  0  0  0  0  0  0  0  0
    0.1719   -6.7576    4.4056 C   0  0  0  0  0  0  0  0  0  0  0  0
    0.7103   -9.6534    2.6755 H   0  0  0  0  0  0  0  0  0  0  0  0
    0.8201  -10.5550    4.9903 H   0  0  0  0  0  0  0  0  0  0  0  0
    0.5290   -9.0667    6.9269 H   0  0  0  0  0  0  0  0  0  0  0  0
    1.0005   -7.4305    8.4240 H   0  0  0  0  0  0  0  0  0  0  0  0
   -0.0123   -5.7040    4.2481 H   0  0  0  0  0  0  0  0  0  0  0  0
  1  2  3  0
  2  3  1  0
  3 13  2  0
  3  4  1  0
  4  5  2  0
  4 14  1  0
  5  6  1  0
  5 15  1  0
  6  7  2  0
  6 16  1  0
  7  8  1  0
  7 13  1  0
  8 12  1  0
  8  9  1  0
  9 10  2  0
  9 17  1  0
 10 11  1  0
 11 12  2  0
 13 18  1  0
M  END
>  <i_m_ct_stereo_status>  (524) 
1

>  <s_m_source_file>  (524) 
/var/tmp/pbs.5102264.sched01/tmpp_sc680v/18465xhjztf.sdf

>  <i_m_source_file_index>  (524) 
4

>  <i_lp_mmshare_version>  (524) 
48012

>  <i_f3d_flags>  (524) 
0

>  <s_epik_input>  (524) 
TiNDYzFbY0hdW2NIXVtjSF1jKFtjSF0xKS1uMltjSF1ubm4y

>  <s_epik_cmdline>  (524) 
J2VwaWtfcHl0aG9uJywgJy1waHQnLCAnMi4wJywgJy1waCcsICc3LjAnLCAnLXRuJywgJzgnLCAnLW1hJywgJzIwMCcsICctaW1hZScsICc8aW5maWxlLm1hZT4nLCAnLW9tYWUnLCAnPG91dGZpbGUubWFlPic=

>  <r_lp_tautomer_probability>  (524) 
1

>  <r_epik_Ionization_Penalty>  (524) 
3.1481e-10

>  <r_epik_Ionization_Penalty_Charging>  (524) 
0

>  <r_epik_Ionization_Penalty_Neutral>  (524) 
3.1481e-10

>  <r_epik_State_Penalty>  (524) 
-0

>  <r_epik_Charging_Adjusted_Penalty>  (524) 
0

>  <i_epik_Tot_Q>  (524) 
0

>  <i_epik_Tot_abs_Q>  (524) 
0

>  <s_lp_Force_Field>  (524) 
OPLS3e

>  <r_lp_Energy>  (524) 
16.8361

>  <b_lp_Chiralities_Consistent>  (524) 
1

>  <s_lp_Variant>  (524) 
111:0-1

>  <s_i_glide_gridfile>  (524) 
pfpi4k_grid

>  <i_i_glide_lignum>  (524) 
4

>  <i_i_glide_rotatable_bonds>  (524) 
2

>  <r_i_docking_score>  (524) 
-3.29773

>  <r_i_glide_ligand_efficiency>  (524) 
-0.253672

>  <r_i_glide_ligand_efficiency_sa>  (524) 
-0.596467

>  <r_i_glide_ligand_efficiency_ln>  (524) 
-0.925043

>  <r_i_glide_gscore>  (524) 
-3.29773

>  <r_i_glide_lipo>  (524) 
0

>  <r_i_glide_hbond>  (524) 
-0.16

>  <r_i_glide_metal>  (524) 
-0

>  <r_i_glide_rewards>  (524) 
-2.2421

>  <r_i_glide_evdw>  (524) 
-15.9767

>  <r_i_glide_ecoul>  (524) 
-3.38476

>  <r_i_glide_erotb>  (524) 
0.52789

>  <r_i_glide_esite>  (524) 
-0.116977

>  <r_i_glide_emodel>  (524) 
-24.008

>  <r_i_glide_energy>  (524) 
-19.3614

>  <r_i_glide_einternal>  (524) 
0.293862

>  <r_i_glide_intrahb_reward>  (524) 
-0

>  <i_i_glide_confnum>  (524) 
2

>  <i_i_glide_posenum>  (524) 
26

>  <r_i_glide_eff_state_penalty>  (524) 
0

>  <ligand_id>  (524) 
111

>  <original_smiles>  (524) 
N#Cc1cccc(-n2cnnn2)c1

>  <smiles>  (524) 
[H]c1c([H])c(C#N)c([H])c(-n2nnnc2[H])c1[H]

$$$$
111:0:2
     RDKit          3D

 18 19  0  0  1  0  0  0  0  0999 V2000
    4.3216  -12.6992    3.8771 N   0  0  0  0  0  0  0  0  0  0  0  0
    3.6608  -11.8595    4.3197 C   0  0  0  0  0  0  0  0  0  0  0  0
    2.8353  -10.8012    4.8768 C   0  0  0  0  0  0  0  0  0  0  0  0
    3.1509  -10.2589    6.1391 C   0  0  0  0  0  0  0  0  0  0  0  0
    2.3547   -9.2356    6.6843 C   0  0  0  0  0  0  0  0  0  0  0  0
    1.2484   -8.7462    5.9649 C   0  0  0  0  0  0  0  0  0  0  0  0
    0.9238   -9.2761    4.6930 C   0  0  0  0  0  0  0  0  0  0  0  0
   -0.1855   -8.7441    3.9760 N   0  0  0  0  0  0  0  0  0  0  0  0
   -0.7644   -9.3105    2.9106 C   0  0  0  0  0  0  0  0  0  0  0  0
   -1.7722   -8.5654    2.4769 N   0  0  0  0  0  0  0  0  0  0  0  0
   -1.7860   -7.4909    3.3511 N   0  0  0  0  0  0  0  0  0  0  0  0
   -0.8415   -7.5887    4.2473 N   0  0  0  0  0  0  0  0  0  0  0  0
    1.7277  -10.3109    4.1545 C   0  0  0  0  0  0  0  0  0  0  0  0
    3.9874  -10.6394    6.7055 H   0  0  0  0  0  0  0  0  0  0  0  0
    2.5871   -8.8318    7.6602 H   0  0  0  0  0  0  0  0  0  0  0  0
    0.6477   -7.9599    6.3993 H   0  0  0  0  0  0  0  0  0  0  0  0
   -0.4813  -10.2468    2.4552 H   0  0  0  0  0  0  0  0  0  0  0  0
    1.5222  -10.7323    3.1802 H   0  0  0  0  0  0  0  0  0  0  0  0
  1  2  3  0
  2  3  1  0
  3 13  2  0
  3  4  1  0
  4  5  2  0
  4 14  1  0
  5  6  1  0
  5 15  1  0
  6  7  2  0
  6 16  1  0
  7  8  1  0
  7 13  1  0
  8 12  1  0
  8  9  1  0
  9 10  2  0
  9 17  1  0
 10 11  1  0
 11 12  2  0
 13 18  1  0
M  END
>  <i_m_ct_stereo_status>  (525) 
1

>  <s_m_source_file>  (525) 
/var/tmp/pbs.5102264.sched01/tmpp_sc680v/18465xhjztf.sdf

>  <i_m_source_file_index>  (525) 
4

>  <i_lp_mmshare_version>  (525) 
48012

>  <i_f3d_flags>  (525) 
0

>  <s_epik_input>  (525) 
TiNDYzFbY0hdW2NIXVtjSF1jKFtjSF0xKS1uMltjSF1ubm4y

>  <s_epik_cmdline>  (525) 
J2VwaWtfcHl0aG9uJywgJy1waHQnLCAnMi4wJywgJy1waCcsICc3LjAnLCAnLXRuJywgJzgnLCAnLW1hJywgJzIwMCcsICctaW1hZScsICc8aW5maWxlLm1hZT4nLCAnLW9tYWUnLCAnPG91dGZpbGUubWFlPic=

>  <r_lp_tautomer_probability>  (525) 
1

>  <r_epik_Ionization_Penalty>  (525) 
3.1481e-10

>  <r_epik_Ionization_Penalty_Charging>  (525) 
0

>  <r_epik_Ionization_Penalty_Neutral>  (525) 
3.1481e-10

>  <r_epik_State_Penalty>  (525) 
-0

>  <r_epik_Charging_Adjusted_Penalty>  (525) 
0

>  <i_epik_Tot_Q>  (525) 
0

>  <i_epik_Tot_abs_Q>  (525) 
0

>  <s_lp_Force_Field>  (525) 
OPLS3e

>  <r_lp_Energy>  (525) 
16.8361

>  <b_lp_Chiralities_Consistent>  (525) 
1

>  <s_lp_Variant>  (525) 
111:0-1

>  <s_i_glide_gridfile>  (525) 
pfpi4k_grid

>  <i_i_glide_lignum>  (525) 
4

>  <i_i_glide_rotatable_bonds>  (525) 
2

>  <r_i_docking_score>  (525) 
-3.15293

>  <r_i_glide_ligand_efficiency>  (525) 
-0.242533

>  <r_i_glide_ligand_efficiency_sa>  (525) 
-0.570277

>  <r_i_glide_ligand_efficiency_ln>  (525) 
-0.884426

>  <r_i_glide_gscore>  (525) 
-3.15293

>  <r_i_glide_lipo>  (525) 
0

>  <r_i_glide_hbond>  (525) 
0

>  <r_i_glide_metal>  (525) 
-0

>  <r_i_glide_rewards>  (525) 
-2.2421

>  <r_i_glide_evdw>  (525) 
-18.8668

>  <r_i_glide_ecoul>  (525) 
-1.84921

>  <r_i_glide_erotb>  (525) 
0.52789

>  <r_i_glide_esite>  (525) 
-0.218001

>  <r_i_glide_emodel>  (525) 
-25.2538

>  <r_i_glide_energy>  (525) 
-20.7161

>  <r_i_glide_einternal>  (525) 
0.116661

>  <r_i_glide_intrahb_reward>  (525) 
-0

>  <i_i_glide_confnum>  (525) 
4

>  <i_i_glide_posenum>  (525) 
31

>  <r_i_glide_eff_state_penalty>  (525) 
0

>  <ligand_id>  (525) 
111

>  <original_smiles>  (525) 
N#Cc1cccc(-n2cnnn2)c1

>  <smiles>  (525) 
[H]c1c([H])c(C#N)c([H])c(-n2nnnc2[H])c1[H]

$$$$
112:0:0
     RDKit          3D

 45 48  0  0  1  0  0  0  0  0999 V2000
   -2.5086    1.6268    7.3370 C   0  0  0  0  0  0  0  0  0  0  0  0
   -1.5705    1.3486    6.1827 C   0  0  0  0  0  0  0  0  0  0  0  0
   -1.2776    2.3411    5.2346 C   0  0  0  0  0  0  0  0  0  0  0  0
   -0.3993    2.0322    4.1758 C   0  0  0  0  0  0  0  0  0  0  0  0
   -0.0914    3.1325    3.1817 C   0  0  0  0  0  0  0  0  0  0  0  0
    0.1401    0.7115    4.0995 C   0  0  0  0  0  0  0  0  0  0  0  0
    1.0566    0.2123    3.0010 C   0  0  0  0  0  0  0  0  0  0  0  0
    1.1962    0.9050    1.9917 O   0  0  0  0  0  0  0  0  0  0  0  0
    1.6778   -1.0114    3.2036 N   0  0  0  0  0  0  0  0  0  0  0  0
    2.7829   -1.5142    2.3896 C   0  0  0  0  0  0  0  0  0  0  0  0
    3.4161   -0.5699    1.8520 O   0  0  0  0  0  0  0  0  0  0  0  0
    3.0954   -2.8800    2.3407 C   0  0  0  0  0  0  0  0  0  0  0  0
    4.2423   -3.4866    1.5237 C   0  0  2  0  0  0  0  0  0  0  0  0
    5.3780   -3.0736    2.0247 O   0  0  0  0  0  0  0  0  0  0  0  0
    4.2591   -3.0413    0.0994 N   0  0  0  0  0  0  0  0  0  0  0  0
    5.3308   -3.6958   -0.7054 C   0  0  0  0  0  0  0  0  0  0  0  0
    5.3249   -3.2072   -2.1609 C   0  0  0  0  0  0  0  0  0  0  0  0
    4.0516   -3.4315   -2.7477 O   0  0  0  0  0  0  0  0  0  0  0  0
    3.0121   -2.7523   -2.0540 C   0  0  0  0  0  0  0  0  0  0  0  0
    2.9518   -3.2222   -0.5920 C   0  0  0  0  0  0  0  0  0  0  0  0
    2.3062   -3.7481    3.1780 C   0  0  0  0  0  0  0  0  0  0  0  0
    1.4065   -3.2929    4.0523 C   0  0  0  0  0  0  0  0  0  0  0  0
    1.0707   -1.8952    4.1609 C   0  0  0  0  0  0  0  0  0  0  0  0
    0.2302   -1.5184    5.0725 N   0  0  0  0  0  0  0  0  0  0  0  0
   -0.2252   -0.2038    5.1083 C   0  0  0  0  0  0  0  0  0  0  0  0
   -1.0614    0.1032    6.1261 N   0  0  0  0  0  0  0  0  0  0  0  0
   -2.8516    2.6615    7.3358 H   0  0  0  0  0  0  0  0  0  0  0  0
   -2.0090    1.4335    8.2876 H   0  0  0  0  0  0  0  0  0  0  0  0
   -3.3820    0.9842    7.2645 H   0  0  0  0  0  0  0  0  0  0  0  0
   -1.7205    3.3214    5.3180 H   0  0  0  0  0  0  0  0  0  0  0  0
    0.9837    3.2726    3.0605 H   0  0  0  0  0  0  0  0  0  0  0  0
   -0.5135    4.0899    3.4845 H   0  0  0  0  0  0  0  0  0  0  0  0
   -0.5336    2.8760    2.2203 H   0  0  0  0  0  0  0  0  0  0  0  0
    4.0059   -4.5526    1.4555 H   0  0  0  0  0  0  0  0  0  0  0  0
    6.3179   -3.4983   -0.2822 H   0  0  0  0  0  0  0  0  0  0  0  0
    5.1867   -4.7762   -0.6758 H   0  0  0  0  0  0  0  0  0  0  0  0
    5.5878   -2.1513   -2.2204 H   0  0  0  0  0  0  0  0  0  0  0  0
    6.0743   -3.7562   -2.7297 H   0  0  0  0  0  0  0  0  0  0  0  0
    3.1561   -1.6740   -2.1142 H   0  0  0  0  0  0  0  0  0  0  0  0
    2.0633   -2.9738   -2.5452 H   0  0  0  0  0  0  0  0  0  0  0  0
    2.6727   -4.2747   -0.5541 H   0  0  0  0  0  0  0  0  0  0  0  0
    2.1719   -2.6605   -0.0818 H   0  0  0  0  0  0  0  0  0  0  0  0
    2.4869   -4.8124    3.1496 H   0  0  0  0  0  0  0  0  0  0  0  0
    0.9008   -4.0193    4.6760 H   0  0  0  0  0  0  0  0  0  0  0  0
    4.4538   -2.0527    0.1476 H   0  0  0  0  0  0  0  0  0  0  0  0
  1  2  1  0
  1 27  1  0
  1 28  1  0
  1 29  1  0
  2 26  2  0
  2  3  1  0
  3  4  2  0
  3 30  1  0
  4  5  1  0
  4  6  1  0
  5 31  1  0
  5 32  1  0
  5 33  1  0
  6 25  2  0
  6  7  1  0
  7  8  2  0
  7  9  1  0
  9 23  1  0
  9 10  1  0
 10 11  1  0
 10 12  2  0
 12 13  1  0
 12 21  1  0
 13 14  1  0
 13 15  1  0
 13 34  1  6
 15 20  1  0
 15 16  1  0
 15 45  1  0
 16 17  1  0
 16 35  1  0
 16 36  1  0
 17 18  1  0
 17 37  1  0
 17 38  1  0
 18 19  1  0
 19 20  1  0
 19 39  1  0
 19 40  1  0
 20 41  1  0
 20 42  1  0
 21 22  2  0
 21 43  1  0
 22 23  1  0
 22 44  1  0
 23 24  2  0
 24 25  1  0
 25 26  1  0
M  CHG  3  11  -1  14  -1  15   1
M  END
>  <i_m_ct_stereo_status>  (526) 
1

>  <s_m_source_file>  (526) 
/var/tmp/pbs.5102264.sched01/tmpp_sc680v/18465xhjztf.sdf

>  <i_m_source_file_index>  (526) 
5

>  <i_lp_mmshare_version>  (526) 
48012

>  <i_f3d_flags>  (526) 
0

>  <s_epik_input>  (526) 
W0NIM11jMVtjSF1jKFtDSDNdKW5jKGMxMiluYzNuKGMyPU8pYyhbT0hdKWMoW2NIXVtjSF0zKVtDQEhdKFtPSF0pTjRbQ0gyXVtDSDJdT1tDSDJdW0NIMl00

>  <s_epik_cmdline>  (526) 
J2VwaWtfcHl0aG9uJywgJy1waHQnLCAnMi4wJywgJy1waCcsICc3LjAnLCAnLXRuJywgJzgnLCAnLW1hJywgJzIwMCcsICctaW1hZScsICc8aW5maWxlLm1hZT4nLCAnLW9tYWUnLCAnPG91dGZpbGUubWFlPic=

>  <r_lp_tautomer_probability>  (526) 
1

>  <r_epik_Ionization_Penalty>  (526) 
0.0028966

>  <r_epik_Ionization_Penalty_Charging>  (526) 
5.00225e-05

>  <r_epik_Ionization_Penalty_Neutral>  (526) 
0.00284658

>  <r_epik_State_Penalty>  (526) 
-0

>  <r_epik_Charging_Adjusted_Penalty>  (526) 
5.00225e-05

>  <i_epik_Tot_Q>  (526) 
-1

>  <i_epik_Tot_abs_Q>  (526) 
3

>  <s_epik_Chemistry_Notes>  (526) 
This compound contains an acetal/aminal-like group ( X-CH(R)-Y where X, Y are N, S, or O) that may be acid/base labile, releasing an aldehyde.

>  <s_lp_Force_Field>  (526) 
OPLS3e

>  <r_lp_Energy>  (526) 
61.7287

>  <b_lp_Chiralities_Consistent>  (526) 
1

>  <s_lp_Variant>  (526) 
112:0-1

>  <s_i_glide_gridfile>  (526) 
pfpi4k_grid

>  <i_i_glide_lignum>  (526) 
5

>  <i_i_glide_rotatable_bonds>  (526) 
2

>  <r_i_docking_score>  (526) 
-2.88183

>  <r_i_glide_ligand_efficiency>  (526) 
-0.110839

>  <r_i_glide_ligand_efficiency_sa>  (526) 
-0.328362

>  <r_i_glide_ligand_efficiency_ln>  (526) 
-0.676788

>  <r_i_glide_gscore>  (526) 
-2.88183

>  <r_i_glide_lipo>  (526) 
-0.241147

>  <r_i_glide_hbond>  (526) 
-0.0163254

>  <r_i_glide_metal>  (526) 
-0

>  <r_i_glide_rewards>  (526) 
-1.51182

>  <r_i_glide_evdw>  (526) 
-24.6625

>  <r_i_glide_ecoul>  (526) 
-1.03594

>  <r_i_glide_erotb>  (526) 
0.3028

>  <r_i_glide_esite>  (526) 
-0.0268233

>  <r_i_glide_emodel>  (526) 
-37.3301

>  <r_i_glide_energy>  (526) 
-25.6984

>  <r_i_glide_einternal>  (526) 
0.492866

>  <r_i_glide_intrahb_reward>  (526) 
-0.5

>  <i_i_glide_confnum>  (526) 
1

>  <i_i_glide_posenum>  (526) 
37

>  <r_i_glide_eff_state_penalty>  (526) 
0

>  <ligand_id>  (526) 
112

>  <original_smiles>  (526) 
Cc1cc(C)c2c(=O)n3c(O)c(C(O)N4CCOCC4)ccc3nc2n1

>  <smiles>  (526) 
[H]c1c(C([H])([H])[H])nc2nc3c([H])c([H])c(C([H])([O-])[N+]4([H])C([H])([H])C([H])([H])OC([H])([H])C4([H])[H])c([O-])n3c(=O)c2c1C([H])([H])[H]

$$$$
112:0:1
     RDKit          3D

 45 48  0  0  1  0  0  0  0  0999 V2000
   -1.5635    0.7669    6.1535 C   0  0  0  0  0  0  0  0  0  0  0  0
   -0.6647   -0.2139    5.4284 C   0  0  0  0  0  0  0  0  0  0  0  0
   -0.6823   -1.5907    5.7161 C   0  0  0  0  0  0  0  0  0  0  0  0
    0.1965   -2.4458    5.0163 C   0  0  0  0  0  0  0  0  0  0  0  0
    0.1426   -3.9286    5.3436 C   0  0  0  0  0  0  0  0  0  0  0  0
    1.0747   -1.8713    4.0465 C   0  0  0  0  0  0  0  0  0  0  0  0
    2.1028   -2.6385    3.2441 C   0  0  0  0  0  0  0  0  0  0  0  0
    2.3465   -3.7983    3.5752 O   0  0  0  0  0  0  0  0  0  0  0  0
    2.7160   -1.9805    2.1890 N   0  0  0  0  0  0  0  0  0  0  0  0
    3.5551   -2.6337    1.1846 C   0  0  0  0  0  0  0  0  0  0  0  0
    3.2117   -3.8377    1.0442 O   0  0  0  0  0  0  0  0  0  0  0  0
    4.4893   -1.9237    0.4165 C   0  0  0  0  0  0  0  0  0  0  0  0
    5.3779   -2.5723   -0.6691 C   0  0  2  0  0  0  0  0  0  0  0  0
    6.5343   -1.9562   -0.8124 O   0  0  0  0  0  0  0  0  0  0  0  0
    4.7343   -2.4707   -2.0166 N   0  0  0  0  0  0  0  0  0  0  0  0
    3.4471   -3.2104   -2.1142 C   0  0  0  0  0  0  0  0  0  0  0  0
    2.8523   -3.1437   -3.5303 C   0  0  0  0  0  0  0  0  0  0  0  0
    2.7012   -1.7882   -3.9206 O   0  0  0  0  0  0  0  0  0  0  0  0
    3.9344   -1.0889   -3.9450 C   0  0  0  0  0  0  0  0  0  0  0  0
    4.5539   -1.0865   -2.5500 C   0  0  0  0  0  0  0  0  0  0  0  0
    4.5403   -0.5047    0.6608 C   0  0  0  0  0  0  0  0  0  0  0  0
    3.6697    0.1436    1.4406 C   0  0  0  0  0  0  0  0  0  0  0  0
    2.6762   -0.5440    2.2224 C   0  0  0  0  0  0  0  0  0  0  0  0
    1.8533    0.1514    2.9411 N   0  0  0  0  0  0  0  0  0  0  0  0
    0.9982   -0.4813    3.8363 C   0  0  0  0  0  0  0  0  0  0  0  0
    0.1487    0.3240    4.5052 N   0  0  0  0  0  0  0  0  0  0  0  0
   -2.2318    0.2581    6.8406 H   0  0  0  0  0  0  0  0  0  0  0  0
   -2.1776    1.3150    5.4385 H   0  0  0  0  0  0  0  0  0  0  0  0
   -0.9735    1.4863    6.7248 H   0  0  0  0  0  0  0  0  0  0  0  0
   -1.3483   -1.9833    6.4672 H   0  0  0  0  0  0  0  0  0  0  0  0
   -0.0070   -4.5172    4.4388 H   0  0  0  0  0  0  0  0  0  0  0  0
   -0.6788   -4.1539    6.0236 H   0  0  0  0  0  0  0  0  0  0  0  0
    1.0637   -4.2456    5.8312 H   0  0  0  0  0  0  0  0  0  0  0  0
    5.3873   -3.6372   -0.4207 H   0  0  0  0  0  0  0  0  0  0  0  0
    3.6029   -4.2371   -1.8032 H   0  0  0  0  0  0  0  0  0  0  0  0
    2.7129   -2.7673   -1.4348 H   0  0  0  0  0  0  0  0  0  0  0  0
    3.4656   -3.6864   -4.2491 H   0  0  0  0  0  0  0  0  0  0  0  0
    1.8656   -3.6023   -3.5288 H   0  0  0  0  0  0  0  0  0  0  0  0
    4.6117   -1.5245   -4.6805 H   0  0  0  0  0  0  0  0  0  0  0  0
    3.7560   -0.0547   -4.2415 H   0  0  0  0  0  0  0  0  0  0  0  0
    3.8971   -0.5320   -1.8895 H   0  0  0  0  0  0  0  0  0  0  0  0
    5.4929   -0.5487   -2.5909 H   0  0  0  0  0  0  0  0  0  0  0  0
    5.2395    0.0990    0.1092 H   0  0  0  0  0  0  0  0  0  0  0  0
    3.7486    1.2175    1.4944 H   0  0  0  0  0  0  0  0  0  0  0  0
    5.3872   -2.9423   -2.6253 H   0  0  0  0  0  0  0  0  0  0  0  0
  1  2  1  0
  1 27  1  0
  1 28  1  0
  1 29  1  0
  2 26  2  0
  2  3  1  0
  3  4  2  0
  3 30  1  0
  4  5  1  0
  4  6  1  0
  5 31  1  0
  5 32  1  0
  5 33  1  0
  6 25  2  0
  6  7  1  0
  7  8  2  0
  7  9  1  0
  9 23  1  0
  9 10  1  0
 10 11  1  0
 10 12  2  0
 12 13  1  0
 12 21  1  0
 13 14  1  0
 13 15  1  0
 13 34  1  1
 15 20  1  0
 15 16  1  0
 15 45  1  0
 16 17  1  0
 16 35  1  0
 16 36  1  0
 17 18  1  0
 17 37  1  0
 17 38  1  0
 18 19  1  0
 19 20  1  0
 19 39  1  0
 19 40  1  0
 20 41  1  0
 20 42  1  0
 21 22  2  0
 21 43  1  0
 22 23  1  0
 22 44  1  0
 23 24  2  0
 24 25  1  0
 25 26  1  0
M  CHG  3  11  -1  14  -1  15   1
M  END
>  <i_m_ct_stereo_status>  (527) 
1

>  <s_m_source_file>  (527) 
/var/tmp/pbs.5102264.sched01/tmpp_sc680v/18465xhjztf.sdf

>  <i_m_source_file_index>  (527) 
5

>  <i_lp_mmshare_version>  (527) 
48012

>  <i_f3d_flags>  (527) 
0

>  <s_epik_input>  (527) 
W0NIM11jMVtjSF1jKFtDSDNdKW5jKGMxMiluYzNuKGMyPU8pYyhbT0hdKWMoW2NIXVtjSF0zKVtDQEhdKFtPSF0pTjRbQ0gyXVtDSDJdT1tDSDJdW0NIMl00

>  <s_epik_cmdline>  (527) 
J2VwaWtfcHl0aG9uJywgJy1waHQnLCAnMi4wJywgJy1waCcsICc3LjAnLCAnLXRuJywgJzgnLCAnLW1hJywgJzIwMCcsICctaW1hZScsICc8aW5maWxlLm1hZT4nLCAnLW9tYWUnLCAnPG91dGZpbGUubWFlPic=

>  <r_lp_tautomer_probability>  (527) 
1

>  <r_epik_Ionization_Penalty>  (527) 
0.0028966

>  <r_epik_Ionization_Penalty_Charging>  (527) 
5.00225e-05

>  <r_epik_Ionization_Penalty_Neutral>  (527) 
0.00284658

>  <r_epik_State_Penalty>  (527) 
-0

>  <r_epik_Charging_Adjusted_Penalty>  (527) 
5.00225e-05

>  <i_epik_Tot_Q>  (527) 
-1

>  <i_epik_Tot_abs_Q>  (527) 
3

>  <s_epik_Chemistry_Notes>  (527) 
This compound contains an acetal/aminal-like group ( X-CH(R)-Y where X, Y are N, S, or O) that may be acid/base labile, releasing an aldehyde.

>  <s_lp_Force_Field>  (527) 
OPLS3e

>  <r_lp_Energy>  (527) 
61.7287

>  <b_lp_Chiralities_Consistent>  (527) 
1

>  <s_lp_Variant>  (527) 
112:0-1

>  <s_i_glide_gridfile>  (527) 
pfpi4k_grid

>  <i_i_glide_lignum>  (527) 
5

>  <i_i_glide_rotatable_bonds>  (527) 
2

>  <r_i_docking_score>  (527) 
-2.86057

>  <r_i_glide_ligand_efficiency>  (527) 
-0.110022

>  <r_i_glide_ligand_efficiency_sa>  (527) 
-0.32594

>  <r_i_glide_ligand_efficiency_ln>  (527) 
-0.671796

>  <r_i_glide_gscore>  (527) 
-2.86057

>  <r_i_glide_lipo>  (527) 
-0.527712

>  <r_i_glide_hbond>  (527) 
-0.2

>  <r_i_glide_metal>  (527) 
-0

>  <r_i_glide_rewards>  (527) 
-0.986128

>  <r_i_glide_evdw>  (527) 
-27.3281

>  <r_i_glide_ecoul>  (527) 
-0.208682

>  <r_i_glide_erotb>  (527) 
0.3028

>  <r_i_glide_esite>  (527) 
-0.0518255

>  <r_i_glide_emodel>  (527) 
-31.6205

>  <r_i_glide_energy>  (527) 
-27.5368

>  <r_i_glide_einternal>  (527) 
5.07765

>  <r_i_glide_intrahb_reward>  (527) 
-0

>  <i_i_glide_confnum>  (527) 
6

>  <i_i_glide_posenum>  (527) 
11

>  <r_i_glide_eff_state_penalty>  (527) 
0

>  <ligand_id>  (527) 
112

>  <original_smiles>  (527) 
Cc1cc(C)c2c(=O)n3c(O)c(C(O)N4CCOCC4)ccc3nc2n1

>  <smiles>  (527) 
[H]c1c(C([H])([H])[H])nc2nc3c([H])c([H])c(C([H])([O-])[N+]4([H])C([H])([H])C([H])([H])OC([H])([H])C4([H])[H])c([O-])n3c(=O)c2c1C([H])([H])[H]

$$$$
112:0:2
     RDKit          3D

 45 48  0  0  1  0  0  0  0  0999 V2000
   -0.7493   -8.3075    4.6868 C   0  0  0  0  0  0  0  0  0  0  0  0
    0.4309   -7.9786    3.8016 C   0  0  0  0  0  0  0  0  0  0  0  0
    1.3062   -8.9774    3.3432 C   0  0  0  0  0  0  0  0  0  0  0  0
    2.4115   -8.6095    2.5423 C   0  0  0  0  0  0  0  0  0  0  0  0
    3.3185   -9.7192    2.0408 C   0  0  0  0  0  0  0  0  0  0  0  0
    2.6044   -7.2180    2.2609 C   0  0  0  0  0  0  0  0  0  0  0  0
    3.7583   -6.6480    1.4630 C   0  0  0  0  0  0  0  0  0  0  0  0
    4.7006   -7.3869    1.2010 O   0  0  0  0  0  0  0  0  0  0  0  0
    3.6791   -5.3012    1.1015 N   0  0  0  0  0  0  0  0  0  0  0  0
    4.5998   -4.6609    0.1664 C   0  0  0  0  0  0  0  0  0  0  0  0
    5.0556   -5.4841   -0.6379 O   0  0  0  0  0  0  0  0  0  0  0  0
    4.7845   -3.2660    0.1216 C   0  0  0  0  0  0  0  0  0  0  0  0
    5.7143   -2.6085   -0.9237 C   0  0  2  0  0  0  0  0  0  0  0  0
    6.3481   -1.5450   -0.4890 O   0  0  0  0  0  0  0  0  0  0  0  0
    4.9199   -2.1023   -2.0864 N   0  0  0  0  0  0  0  0  0  0  0  0
    4.3168   -3.1940   -2.8976 C   0  0  0  0  0  0  0  0  0  0  0  0
    3.5815   -2.6312   -4.1090 C   0  0  0  0  0  0  0  0  0  0  0  0
    2.6217   -1.6779   -3.7231 O   0  0  0  0  0  0  0  0  0  0  0  0
    3.2072   -0.5586   -3.0835 C   0  0  0  0  0  0  0  0  0  0  0  0
    3.9055   -1.0341   -1.8095 C   0  0  0  0  0  0  0  0  0  0  0  0
    3.9883   -2.5218    1.0561 C   0  0  0  0  0  0  0  0  0  0  0  0
    3.0280   -3.0648    1.8119 C   0  0  0  0  0  0  0  0  0  0  0  0
    2.7872   -4.4870    1.8576 C   0  0  0  0  0  0  0  0  0  0  0  0
    1.8244   -4.9429    2.5951 N   0  0  0  0  0  0  0  0  0  0  0  0
    1.6666   -6.3115    2.7796 C   0  0  0  0  0  0  0  0  0  0  0  0
    0.5889   -6.6760    3.5058 N   0  0  0  0  0  0  0  0  0  0  0  0
   -0.8220   -9.3831    4.8243 H   0  0  0  0  0  0  0  0  0  0  0  0
   -1.6792   -7.9544    4.2381 H   0  0  0  0  0  0  0  0  0  0  0  0
   -0.6255   -7.8483    5.6695 H   0  0  0  0  0  0  0  0  0  0  0  0
    1.1255  -10.0092    3.6095 H   0  0  0  0  0  0  0  0  0  0  0  0
    3.4318   -9.6719    0.9564 H   0  0  0  0  0  0  0  0  0  0  0  0
    2.9136  -10.7018    2.2838 H   0  0  0  0  0  0  0  0  0  0  0  0
    4.2978   -9.6528    2.5143 H   0  0  0  0  0  0  0  0  0  0  0  0
    6.3390   -3.4262   -1.2898 H   0  0  0  0  0  0  0  0  0  0  0  0
    5.0838   -3.9066   -3.2150 H   0  0  0  0  0  0  0  0  0  0  0  0
    3.5856   -3.7302   -2.2977 H   0  0  0  0  0  0  0  0  0  0  0  0
    4.2869   -2.1507   -4.7727 H   0  0  0  0  0  0  0  0  0  0  0  0
    3.0683   -3.4334   -4.6388 H   0  0  0  0  0  0  0  0  0  0  0  0
    3.8924   -0.0208   -3.7409 H   0  0  0  0  0  0  0  0  0  0  0  0
    2.4065    0.1250   -2.8095 H   0  0  0  0  0  0  0  0  0  0  0  0
    3.1183   -1.4143   -1.1641 H   0  0  0  0  0  0  0  0  0  0  0  0
    4.3525   -0.1641   -1.3246 H   0  0  0  0  0  0  0  0  0  0  0  0
    4.0883   -1.4524    1.0727 H   0  0  0  0  0  0  0  0  0  0  0  0
    2.4249   -2.3971    2.4135 H   0  0  0  0  0  0  0  0  0  0  0  0
    5.6180   -1.6611   -2.6576 H   0  0  0  0  0  0  0  0  0  0  0  0
  1  2  1  0
  1 27  1  0
  1 28  1  0
  1 29  1  0
  2 26  2  0
  2  3  1  0
  3  4  2  0
  3 30  1  0
  4  5  1  0
  4  6  1  0
  5 31  1  0
  5 32  1  0
  5 33  1  0
  6 25  2  0
  6  7  1  0
  7  8  2  0
  7  9  1  0
  9 23  1  0
  9 10  1  0
 10 11  1  0
 10 12  2  0
 12 13  1  0
 12 21  1  0
 13 14  1  0
 13 15  1  0
 13 34  1  6
 15 20  1  0
 15 16  1  0
 15 45  1  0
 16 17  1  0
 16 35  1  0
 16 36  1  0
 17 18  1  0
 17 37  1  0
 17 38  1  0
 18 19  1  0
 19 20  1  0
 19 39  1  0
 19 40  1  0
 20 41  1  0
 20 42  1  0
 21 22  2  0
 21 43  1  0
 22 23  1  0
 22 44  1  0
 23 24  2  0
 24 25  1  0
 25 26  1  0
M  CHG  3  11  -1  14  -1  15   1
M  END
>  <i_m_ct_stereo_status>  (528) 
1

>  <s_m_source_file>  (528) 
/var/tmp/pbs.5102264.sched01/tmpp_sc680v/18465xhjztf.sdf

>  <i_m_source_file_index>  (528) 
5

>  <i_lp_mmshare_version>  (528) 
48012

>  <i_f3d_flags>  (528) 
0

>  <s_epik_input>  (528) 
W0NIM11jMVtjSF1jKFtDSDNdKW5jKGMxMiluYzNuKGMyPU8pYyhbT0hdKWMoW2NIXVtjSF0zKVtDQEhdKFtPSF0pTjRbQ0gyXVtDSDJdT1tDSDJdW0NIMl00

>  <s_epik_cmdline>  (528) 
J2VwaWtfcHl0aG9uJywgJy1waHQnLCAnMi4wJywgJy1waCcsICc3LjAnLCAnLXRuJywgJzgnLCAnLW1hJywgJzIwMCcsICctaW1hZScsICc8aW5maWxlLm1hZT4nLCAnLW9tYWUnLCAnPG91dGZpbGUubWFlPic=

>  <r_lp_tautomer_probability>  (528) 
1

>  <r_epik_Ionization_Penalty>  (528) 
0.0028966

>  <r_epik_Ionization_Penalty_Charging>  (528) 
5.00225e-05

>  <r_epik_Ionization_Penalty_Neutral>  (528) 
0.00284658

>  <r_epik_State_Penalty>  (528) 
-0

>  <r_epik_Charging_Adjusted_Penalty>  (528) 
5.00225e-05

>  <i_epik_Tot_Q>  (528) 
-1

>  <i_epik_Tot_abs_Q>  (528) 
3

>  <s_epik_Chemistry_Notes>  (528) 
This compound contains an acetal/aminal-like group ( X-CH(R)-Y where X, Y are N, S, or O) that may be acid/base labile, releasing an aldehyde.

>  <s_lp_Force_Field>  (528) 
OPLS3e

>  <r_lp_Energy>  (528) 
61.7287

>  <b_lp_Chiralities_Consistent>  (528) 
1

>  <s_lp_Variant>  (528) 
112:0-1

>  <s_i_glide_gridfile>  (528) 
pfpi4k_grid

>  <i_i_glide_lignum>  (528) 
5

>  <i_i_glide_rotatable_bonds>  (528) 
2

>  <r_i_docking_score>  (528) 
-2.64314

>  <r_i_glide_ligand_efficiency>  (528) 
-0.101659

>  <r_i_glide_ligand_efficiency_sa>  (528) 
-0.301165

>  <r_i_glide_ligand_efficiency_ln>  (528) 
-0.620732

>  <r_i_glide_gscore>  (528) 
-2.64314

>  <r_i_glide_lipo>  (528) 
-0.184975

>  <r_i_glide_hbond>  (528) 
-0.136807

>  <r_i_glide_metal>  (528) 
-0

>  <r_i_glide_rewards>  (528) 
-0.995839

>  <r_i_glide_evdw>  (528) 
-26.8326

>  <r_i_glide_ecoul>  (528) 
-1.62654

>  <r_i_glide_erotb>  (528) 
0.3028

>  <r_i_glide_esite>  (528) 
-0.0427027

>  <r_i_glide_emodel>  (528) 
-32.0566

>  <r_i_glide_energy>  (528) 
-28.4592

>  <r_i_glide_einternal>  (528) 
4.87973

>  <r_i_glide_intrahb_reward>  (528) 
-0

>  <i_i_glide_confnum>  (528) 
6

>  <i_i_glide_posenum>  (528) 
8

>  <r_i_glide_eff_state_penalty>  (528) 
0

>  <ligand_id>  (528) 
112

>  <original_smiles>  (528) 
Cc1cc(C)c2c(=O)n3c(O)c(C(O)N4CCOCC4)ccc3nc2n1

>  <smiles>  (528) 
[H]c1c(C([H])([H])[H])nc2nc3c([H])c([H])c(C([H])([O-])[N+]4([H])C([H])([H])C([H])([H])OC([H])([H])C4([H])[H])c([O-])n3c(=O)c2c1C([H])([H])[H]

$$$$
113:0:0
     RDKit          3D

 45 45  0  0  1  0  0  0  0  0999 V2000
    1.8453    3.4167    2.4875 N   0  0  0  0  0  0  0  0  0  0  0  0
    1.2702    2.1533    2.9933 C   0  0  0  0  0  0  0  0  0  0  0  0
    1.2937    1.0217    1.9491 C   0  0  0  0  0  0  0  0  0  0  0  0
    2.6524    0.5500    1.7027 N   0  0  0  0  0  0  0  0  0  0  0  0
    3.0451   -0.7288    1.7501 C   0  0  0  0  0  0  0  0  0  0  0  0
    2.2955   -1.6583    2.0493 O   0  0  0  0  0  0  0  0  0  0  0  0
    4.5241   -0.9551    1.4135 C   0  0  0  0  0  0  0  0  0  0  0  0
    4.8286   -2.3812    0.9453 C   0  0  0  0  0  0  0  0  0  0  0  0
    4.2684   -2.7947   -0.4500 C   0  0  2  0  0  0  0  0  0  0  0  0
    4.3098   -4.2613   -0.6599 N   0  0  0  0  0  0  0  0  0  0  0  0
    4.5971   -5.4613    0.5629 S   0  0  0  0  0  0  0  0  0  0  0  0
    4.5573   -6.7736   -0.0976 O   0  0  0  0  0  0  0  0  0  0  0  0
    5.7887   -5.0833    1.3267 O   0  0  0  0  0  0  0  0  0  0  0  0
    3.1700   -5.3899    1.6831 C   0  0  0  0  0  0  0  0  0  0  0  0
    2.3838   -6.4648    1.8572 C   0  0  0  0  0  0  0  0  0  0  0  0
    1.2356   -6.5247    2.7659 C   0  0  0  0  0  0  0  0  0  0  0  0
    0.1918   -7.4419    2.5076 C   0  0  0  0  0  0  0  0  0  0  0  0
   -0.9172   -7.5115    3.3714 C   0  0  0  0  0  0  0  0  0  0  0  0
   -0.9872   -6.6667    4.4937 C   0  0  0  0  0  0  0  0  0  0  0  0
    0.0442   -5.7451    4.7546 C   0  0  0  0  0  0  0  0  0  0  0  0
    1.1440   -5.6655    3.8838 C   0  0  0  0  0  0  0  0  0  0  0  0
    5.0083   -2.0655   -1.6000 C   0  0  0  0  0  0  0  0  0  0  0  0
    4.5099   -2.1156   -2.7451 O   0  0  0  0  0  0  0  0  0  0  0  0
    6.0913   -1.4945   -1.3375 O   0  0  0  0  0  0  0  0  0  0  0  0
    1.7758    4.1409    3.1907 H   0  0  0  0  0  0  0  0  0  0  0  0
    1.2515    3.7367    1.7022 H   0  0  0  0  0  0  0  0  0  0  0  0
    1.8233    1.8605    3.8874 H   0  0  0  0  0  0  0  0  0  0  0  0
    0.2411    2.3429    3.3001 H   0  0  0  0  0  0  0  0  0  0  0  0
    0.6513    0.2183    2.3117 H   0  0  0  0  0  0  0  0  0  0  0  0
    0.8510    1.3438    1.0054 H   0  0  0  0  0  0  0  0  0  0  0  0
    3.3584    1.2164    1.4407 H   0  0  0  0  0  0  0  0  0  0  0  0
    4.8712   -0.2241    0.6768 H   0  0  0  0  0  0  0  0  0  0  0  0
    5.0885   -0.7953    2.3329 H   0  0  0  0  0  0  0  0  0  0  0  0
    5.9116   -2.5312    0.9495 H   0  0  0  0  0  0  0  0  0  0  0  0
    4.4494   -3.0136    1.7430 H   0  0  0  0  0  0  0  0  0  0  0  0
    3.2206   -2.4886   -0.5209 H   0  0  0  0  0  0  0  0  0  0  0  0
    3.7026   -4.5898   -1.4115 H   0  0  0  0  0  0  0  0  0  0  0  0
    2.9909   -4.4477    2.1773 H   0  0  0  0  0  0  0  0  0  0  0  0
    2.6153   -7.3667    1.3084 H   0  0  0  0  0  0  0  0  0  0  0  0
    0.2497   -8.0954    1.6518 H   0  0  0  0  0  0  0  0  0  0  0  0
   -1.7061   -8.2209    3.1737 H   0  0  0  0  0  0  0  0  0  0  0  0
   -1.8357   -6.7206    5.1534 H   0  0  0  0  0  0  0  0  0  0  0  0
   -0.0137   -5.0960    5.6124 H   0  0  0  0  0  0  0  0  0  0  0  0
    1.9225   -4.9516    4.1014 H   0  0  0  0  0  0  0  0  0  0  0  0
    2.7859    3.3055    2.1740 H   0  0  0  0  0  0  0  0  0  0  0  0
  1  2  1  0
  1 25  1  0
  1 26  1  0
  1 45  1  0
  2  3  1  0
  2 27  1  0
  2 28  1  0
  3  4  1  0
  3 29  1  0
  3 30  1  0
  4  5  1  0
  4 31  1  0
  5  6  2  0
  5  7  1  0
  7  8  1  0
  7 32  1  0
  7 33  1  0
  8  9  1  0
  8 34  1  0
  8 35  1  0
  9 10  1  0
  9 22  1  0
  9 36  1  1
 10 11  1  0
 10 37  1  0
 11 12  2  0
 11 13  2  0
 11 14  1  0
 14 15  2  3
 14 38  1  0
 15 16  1  0
 15 39  1  0
 16 21  2  0
 16 17  1  0
 17 18  2  0
 17 40  1  0
 18 19  1  0
 18 41  1  0
 19 20  2  0
 19 42  1  0
 20 21  1  0
 20 43  1  0
 21 44  1  0
 22 23  2  0
 22 24  1  0
M  CHG  2   1   1  24  -1
M  END
>  <i_m_ct_stereo_status>  (529) 
1

>  <s_m_source_file>  (529) 
/var/tmp/pbs.5102264.sched01/tmpp_sc680v/18465xhjztf.sdf

>  <i_m_source_file_index>  (529) 
6

>  <i_lp_mmshare_version>  (529) 
48012

>  <i_f3d_flags>  (529) 
0

>  <s_epik_input>  (529) 
W05IMl1bQ0gyXVtDSDJdW05IXUMoPU8pW0NIMl1bQ0gyXVtDQEBIXShDKD1PKVtPSF0pW05IXVMoPU8pKD1PKS9bQ0hdPVtDSF0vYzFbY0hdW2NIXVtjSF1bY0hdW2NIXTE=

>  <s_epik_cmdline>  (529) 
J2VwaWtfcHl0aG9uJywgJy1waHQnLCAnMi4wJywgJy1waCcsICc3LjAnLCAnLXRuJywgJzgnLCAnLW1hJywgJzIwMCcsICctaW1hZScsICc8aW5maWxlLm1hZT4nLCAnLW9tYWUnLCAnPG91dGZpbGUubWFlPic=

>  <r_epik_Ionization_Penalty>  (529) 
0.00201365

>  <r_epik_Ionization_Penalty_Charging>  (529) 
0.00199542

>  <r_epik_Ionization_Penalty_Neutral>  (529) 
1.82346e-05

>  <r_epik_State_Penalty>  (529) 
0.00128591

>  <r_epik_Charging_Adjusted_Penalty>  (529) 
0.00328133

>  <i_epik_Tot_Q>  (529) 
0

>  <i_epik_Tot_abs_Q>  (529) 
2

>  <s_lp_Force_Field>  (529) 
OPLS3e

>  <r_lp_Energy>  (529) 
11.3206

>  <b_lp_Chiralities_Consistent>  (529) 
1

>  <s_lp_Variant>  (529) 
113:0-1

>  <s_i_glide_gridfile>  (529) 
pfpi4k_grid

>  <i_i_glide_lignum>  (529) 
6

>  <i_i_glide_rotatable_bonds>  (529) 
11

>  <r_i_docking_score>  (529) 
-3.71623

>  <r_i_glide_ligand_efficiency>  (529) 
-0.154843

>  <r_i_glide_ligand_efficiency_sa>  (529) 
-0.446644

>  <r_i_glide_ligand_efficiency_ln>  (529) 
-0.889464

>  <r_i_glide_gscore>  (529) 
-3.71623

>  <r_i_glide_lipo>  (529) 
-0.0939523

>  <r_i_glide_hbond>  (529) 
-0.630865

>  <r_i_glide_metal>  (529) 
-0

>  <r_i_glide_rewards>  (529) 
-1.08526

>  <r_i_glide_evdw>  (529) 
-24.3619

>  <r_i_glide_ecoul>  (529) 
-11.4715

>  <r_i_glide_erotb>  (529) 
1.21094

>  <r_i_glide_esite>  (529) 
-0.17828

>  <r_i_glide_emodel>  (529) 
-43.8039

>  <r_i_glide_energy>  (529) 
-35.8333

>  <r_i_glide_einternal>  (529) 
13.6531

>  <r_i_glide_intrahb_reward>  (529) 
-0

>  <i_i_glide_confnum>  (529) 
1

>  <i_i_glide_posenum>  (529) 
3

>  <r_i_glide_eff_state_penalty>  (529) 
0

>  <ligand_id>  (529) 
113

>  <original_smiles>  (529) 
NCCNC(=O)CCC(NS(=O)(=O)C=Cc1ccccc1)C(=O)O

>  <smiles>  (529) 
[H]C(=C([H])S(=O)(=O)N([H])C([H])(C(=O)[O-])C([H])([H])C([H])([H])C(=O)N([H])C([H])([H])C([H])([H])[N+]([H])([H])[H])c1c([H])c([H])c([H])c([H])c1[H]

$$$$
113:0:1
     RDKit          3D

 45 45  0  0  1  0  0  0  0  0999 V2000
    1.8120    3.3193    2.4880 N   0  0  0  0  0  0  0  0  0  0  0  0
    1.3348    2.0217    2.9335 C   0  0  0  0  0  0  0  0  0  0  0  0
    1.4543    0.9157    1.8623 C   0  0  0  0  0  0  0  0  0  0  0  0
    2.8519    0.5645    1.6178 N   0  0  0  0  0  0  0  0  0  0  0  0
    3.3470   -0.6813    1.6465 C   0  0  0  0  0  0  0  0  0  0  0  0
    2.6728   -1.6701    1.9290 O   0  0  0  0  0  0  0  0  0  0  0  0
    4.8383   -0.7813    1.3174 C   0  0  0  0  0  0  0  0  0  0  0  0
    5.3140   -2.2343    1.1143 C   0  0  0  0  0  0  0  0  0  0  0  0
    4.7928   -2.9742   -0.1534 C   0  0  2  0  0  0  0  0  0  0  0  0
    5.2160   -4.3908   -0.1446 N   0  0  0  0  0  0  0  0  0  0  0  0
    5.3141   -5.4097    1.2494 S   0  0  0  0  0  0  0  0  0  0  0  0
    5.6797   -6.7598    0.7985 O   0  0  0  0  0  0  0  0  0  0  0  0
    6.1626   -4.7364    2.2578 O   0  0  0  0  0  0  0  0  0  0  0  0
    3.6596   -5.5365    1.9386 C   0  0  0  0  0  0  0  0  0  0  0  0
    3.0311   -6.7357    1.9977 C   0  0  0  0  0  0  0  0  0  0  0  0
    1.7041   -6.9738    2.5722 C   0  0  0  0  0  0  0  0  0  0  0  0
    0.9892   -8.1540    2.2191 C   0  0  0  0  0  0  0  0  0  0  0  0
   -0.2944   -8.3910    2.7563 C   0  0  0  0  0  0  0  0  0  0  0  0
   -0.8786   -7.4657    3.6437 C   0  0  0  0  0  0  0  0  0  0  0  0
   -0.1684   -6.2962    3.9966 C   0  0  0  0  0  0  0  0  0  0  0  0
    1.1024   -6.0531    3.4457 C   0  0  0  0  0  0  0  0  0  0  0  0
    5.2314   -2.2751   -1.4560 C   0  0  0  0  0  0  0  0  0  0  0  0
    4.6217   -2.5445   -2.4992 O   0  0  0  0  0  0  0  0  0  0  0  0
    6.2149   -1.4769   -1.4030 O   0  0  0  0  0  0  0  0  0  0  0  0
    1.7175    4.0108    3.2176 H   0  0  0  0  0  0  0  0  0  0  0  0
    1.2451    3.6533    1.6864 H   0  0  0  0  0  0  0  0  0  0  0  0
    1.8797    1.7171    3.8334 H   0  0  0  0  0  0  0  0  0  0  0  0
    0.2864    2.1212    3.2244 H   0  0  0  0  0  0  0  0  0  0  0  0
    0.8772    0.0509    2.1889 H   0  0  0  0  0  0  0  0  0  0  0  0
    0.9932    1.2331    0.9249 H   0  0  0  0  0  0  0  0  0  0  0  0
    3.4979    1.2841    1.3450 H   0  0  0  0  0  0  0  0  0  0  0  0
    5.0801   -0.1502    0.4601 H   0  0  0  0  0  0  0  0  0  0  0  0
    5.3886   -0.3810    2.1692 H   0  0  0  0  0  0  0  0  0  0  0  0
    6.4080   -2.2638    1.1039 H   0  0  0  0  0  0  0  0  0  0  0  0
    5.0079   -2.7587    2.0116 H   0  0  0  0  0  0  0  0  0  0  0  0
    3.7009   -2.9490   -0.1516 H   0  0  0  0  0  0  0  0  0  0  0  0
    4.8382   -4.8850   -0.9624 H   0  0  0  0  0  0  0  0  0  0  0  0
    3.2348   -4.6097    2.2815 H   0  0  0  0  0  0  0  0  0  0  0  0
    3.5475   -7.6005    1.6136 H   0  0  0  0  0  0  0  0  0  0  0  0
    1.4245   -8.8713    1.5457 H   0  0  0  0  0  0  0  0  0  0  0  0
   -0.8277   -9.2945    2.4904 H   0  0  0  0  0  0  0  0  0  0  0  0
   -1.8516   -7.6588    4.0612 H   0  0  0  0  0  0  0  0  0  0  0  0
   -0.5916   -5.5834    4.6809 H   0  0  0  0  0  0  0  0  0  0  0  0
    1.6229   -5.1507    3.7338 H   0  0  0  0  0  0  0  0  0  0  0  0
    2.7855    3.2674    2.2118 H   0  0  0  0  0  0  0  0  0  0  0  0
  1  2  1  0
  1 25  1  0
  1 26  1  0
  1 45  1  0
  2  3  1  0
  2 27  1  0
  2 28  1  0
  3  4  1  0
  3 29  1  0
  3 30  1  0
  4  5  1  0
  4 31  1  0
  5  6  2  0
  5  7  1  0
  7  8  1  0
  7 32  1  0
  7 33  1  0
  8  9  1  0
  8 34  1  0
  8 35  1  0
  9 10  1  0
  9 22  1  0
  9 36  1  1
 10 11  1  0
 10 37  1  0
 11 12  2  0
 11 13  2  0
 11 14  1  0
 14 15  2  3
 14 38  1  0
 15 16  1  0
 15 39  1  0
 16 21  2  0
 16 17  1  0
 17 18  2  0
 17 40  1  0
 18 19  1  0
 18 41  1  0
 19 20  2  0
 19 42  1  0
 20 21  1  0
 20 43  1  0
 21 44  1  0
 22 23  2  0
 22 24  1  0
M  CHG  2   1   1  24  -1
M  END
>  <i_m_ct_stereo_status>  (530) 
1

>  <s_m_source_file>  (530) 
/var/tmp/pbs.5102264.sched01/tmpp_sc680v/18465xhjztf.sdf

>  <i_m_source_file_index>  (530) 
6

>  <i_lp_mmshare_version>  (530) 
48012

>  <i_f3d_flags>  (530) 
0

>  <s_epik_input>  (530) 
W05IMl1bQ0gyXVtDSDJdW05IXUMoPU8pW0NIMl1bQ0gyXVtDQEBIXShDKD1PKVtPSF0pW05IXVMoPU8pKD1PKS9bQ0hdPVtDSF0vYzFbY0hdW2NIXVtjSF1bY0hdW2NIXTE=

>  <s_epik_cmdline>  (530) 
J2VwaWtfcHl0aG9uJywgJy1waHQnLCAnMi4wJywgJy1waCcsICc3LjAnLCAnLXRuJywgJzgnLCAnLW1hJywgJzIwMCcsICctaW1hZScsICc8aW5maWxlLm1hZT4nLCAnLW9tYWUnLCAnPG91dGZpbGUubWFlPic=

>  <r_epik_Ionization_Penalty>  (530) 
0.00201365

>  <r_epik_Ionization_Penalty_Charging>  (530) 
0.00199542

>  <r_epik_Ionization_Penalty_Neutral>  (530) 
1.82346e-05

>  <r_epik_State_Penalty>  (530) 
0.00128591

>  <r_epik_Charging_Adjusted_Penalty>  (530) 
0.00328133

>  <i_epik_Tot_Q>  (530) 
0

>  <i_epik_Tot_abs_Q>  (530) 
2

>  <s_lp_Force_Field>  (530) 
OPLS3e

>  <r_lp_Energy>  (530) 
11.3206

>  <b_lp_Chiralities_Consistent>  (530) 
1

>  <s_lp_Variant>  (530) 
113:0-1

>  <s_i_glide_gridfile>  (530) 
pfpi4k_grid

>  <i_i_glide_lignum>  (530) 
6

>  <i_i_glide_rotatable_bonds>  (530) 
11

>  <r_i_docking_score>  (530) 
-3.37138

>  <r_i_glide_ligand_efficiency>  (530) 
-0.140474

>  <r_i_glide_ligand_efficiency_sa>  (530) 
-0.405198

>  <r_i_glide_ligand_efficiency_ln>  (530) 
-0.806926

>  <r_i_glide_gscore>  (530) 
-3.37138

>  <r_i_glide_lipo>  (530) 
-0.219314

>  <r_i_glide_hbond>  (530) 
-0.346775

>  <r_i_glide_metal>  (530) 
-0

>  <r_i_glide_rewards>  (530) 
-1.07065

>  <r_i_glide_evdw>  (530) 
-23.3981

>  <r_i_glide_ecoul>  (530) 
-10.8858

>  <r_i_glide_erotb>  (530) 
1.21094

>  <r_i_glide_esite>  (530) 
-0.142816

>  <r_i_glide_emodel>  (530) 
-41.7857

>  <r_i_glide_energy>  (530) 
-34.2838

>  <r_i_glide_einternal>  (530) 
11.6276

>  <r_i_glide_intrahb_reward>  (530) 
-0

>  <i_i_glide_confnum>  (530) 
1

>  <i_i_glide_posenum>  (530) 
35

>  <r_i_glide_eff_state_penalty>  (530) 
0

>  <ligand_id>  (530) 
113

>  <original_smiles>  (530) 
NCCNC(=O)CCC(NS(=O)(=O)C=Cc1ccccc1)C(=O)O

>  <smiles>  (530) 
[H]C(=C([H])S(=O)(=O)N([H])C([H])(C(=O)[O-])C([H])([H])C([H])([H])C(=O)N([H])C([H])([H])C([H])([H])[N+]([H])([H])[H])c1c([H])c([H])c([H])c([H])c1[H]

$$$$
113:0:2
     RDKit          3D

 45 45  0  0  1  0  0  0  0  0999 V2000
   -0.7413    2.5356    2.4830 N   0  0  0  0  0  0  0  0  0  0  0  0
    0.5177    1.9123    2.9086 C   0  0  0  0  0  0  0  0  0  0  0  0
    1.4624    1.7006    1.7137 C   0  0  0  0  0  0  0  0  0  0  0  0
    2.6851    1.0066    2.0853 N   0  0  0  0  0  0  0  0  0  0  0  0
    2.7768   -0.3007    2.3219 C   0  0  0  0  0  0  0  0  0  0  0  0
    1.7882   -1.0329    2.3962 O   0  0  0  0  0  0  0  0  0  0  0  0
    4.2086   -0.8405    2.4682 C   0  0  0  0  0  0  0  0  0  0  0  0
    4.3853   -2.2214    1.8224 C   0  0  0  0  0  0  0  0  0  0  0  0
    4.7561   -2.2889    0.3192 C   0  0  2  0  0  0  0  0  0  0  0  0
    4.4434   -3.6335   -0.2084 N   0  0  0  0  0  0  0  0  0  0  0  0
    4.7645   -5.1223    0.6266 S   0  0  0  0  0  0  0  0  0  0  0  0
    4.6421   -6.2092   -0.3462 O   0  0  0  0  0  0  0  0  0  0  0  0
    5.9925   -4.9645    1.4133 O   0  0  0  0  0  0  0  0  0  0  0  0
    3.3929   -5.3533    1.7757 C   0  0  0  0  0  0  0  0  0  0  0  0
    2.4732   -6.3283    1.6160 C   0  0  0  0  0  0  0  0  0  0  0  0
    1.3238   -6.4934    2.5186 C   0  0  0  0  0  0  0  0  0  0  0  0
    0.3077   -7.4045    2.1673 C   0  0  0  0  0  0  0  0  0  0  0  0
   -0.8025   -7.5973    3.0135 C   0  0  0  0  0  0  0  0  0  0  0  0
   -0.9098   -6.8718    4.2163 C   0  0  0  0  0  0  0  0  0  0  0  0
    0.0825   -5.9393    4.5639 C   0  0  0  0  0  0  0  0  0  0  0  0
    1.1871   -5.7444    3.7182 C   0  0  0  0  0  0  0  0  0  0  0  0
    6.2093   -1.8386    0.0267 C   0  0  0  0  0  0  0  0  0  0  0  0
    6.6120   -1.8592   -1.1586 O   0  0  0  0  0  0  0  0  0  0  0  0
    6.9121   -1.4472    0.9797 O   0  0  0  0  0  0  0  0  0  0  0  0
   -1.3612    2.6764    3.2660 H   0  0  0  0  0  0  0  0  0  0  0  0
   -1.1839    1.9246    1.8064 H   0  0  0  0  0  0  0  0  0  0  0  0
    0.9896    2.5465    3.6630 H   0  0  0  0  0  0  0  0  0  0  0  0
    0.2873    0.9611    3.3943 H   0  0  0  0  0  0  0  0  0  0  0  0
    0.9584    1.1518    0.9133 H   0  0  0  0  0  0  0  0  0  0  0  0
    1.7669    2.6658    1.3105 H   0  0  0  0  0  0  0  0  0  0  0  0
    3.5522    1.5195    2.0380 H   0  0  0  0  0  0  0  0  0  0  0  0
    4.9470   -0.1390    2.0773 H   0  0  0  0  0  0  0  0  0  0  0  0
    4.3960   -0.9546    3.5348 H   0  0  0  0  0  0  0  0  0  0  0  0
    5.1159   -2.7874    2.4069 H   0  0  0  0  0  0  0  0  0  0  0  0
    3.4297   -2.7297    1.9266 H   0  0  0  0  0  0  0  0  0  0  0  0
    4.1037   -1.5890   -0.2058 H   0  0  0  0  0  0  0  0  0  0  0  0
    3.8423   -3.6832   -1.0292 H   0  0  0  0  0  0  0  0  0  0  0  0
    3.3602   -4.6420    2.5848 H   0  0  0  0  0  0  0  0  0  0  0  0
    2.5688   -7.0232    0.7891 H   0  0  0  0  0  0  0  0  0  0  0  0
    0.3978   -7.9694    1.2515 H   0  0  0  0  0  0  0  0  0  0  0  0
   -1.5543   -8.3195    2.7414 H   0  0  0  0  0  0  0  0  0  0  0  0
   -1.7518   -7.0332    4.8684 H   0  0  0  0  0  0  0  0  0  0  0  0
    0.0096   -5.3728    5.4806 H   0  0  0  0  0  0  0  0  0  0  0  0
    1.9185   -5.0194    4.0379 H   0  0  0  0  0  0  0  0  0  0  0  0
   -0.5290    3.4140    1.9878 H   0  0  0  0  0  0  0  0  0  0  0  0
  1  2  1  0
  1 25  1  0
  1 26  1  0
  1 45  1  0
  2  3  1  0
  2 27  1  0
  2 28  1  0
  3  4  1  0
  3 29  1  0
  3 30  1  0
  4  5  1  0
  4 31  1  0
  5  6  2  0
  5  7  1  0
  7  8  1  0
  7 32  1  0
  7 33  1  0
  8  9  1  0
  8 34  1  0
  8 35  1  0
  9 10  1  0
  9 22  1  0
  9 36  1  6
 10 11  1  0
 10 37  1  0
 11 12  2  0
 11 13  2  0
 11 14  1  0
 14 15  2  3
 14 38  1  0
 15 16  1  0
 15 39  1  0
 16 21  2  0
 16 17  1  0
 17 18  2  0
 17 40  1  0
 18 19  1  0
 18 41  1  0
 19 20  2  0
 19 42  1  0
 20 21  1  0
 20 43  1  0
 21 44  1  0
 22 23  2  0
 22 24  1  0
M  CHG  2   1   1  24  -1
M  END
>  <i_m_ct_stereo_status>  (531) 
1

>  <s_m_source_file>  (531) 
/var/tmp/pbs.5102264.sched01/tmpp_sc680v/18465xhjztf.sdf

>  <i_m_source_file_index>  (531) 
6

>  <i_lp_mmshare_version>  (531) 
48012

>  <i_f3d_flags>  (531) 
0

>  <s_epik_input>  (531) 
W05IMl1bQ0gyXVtDSDJdW05IXUMoPU8pW0NIMl1bQ0gyXVtDQEBIXShDKD1PKVtPSF0pW05IXVMoPU8pKD1PKS9bQ0hdPVtDSF0vYzFbY0hdW2NIXVtjSF1bY0hdW2NIXTE=

>  <s_epik_cmdline>  (531) 
J2VwaWtfcHl0aG9uJywgJy1waHQnLCAnMi4wJywgJy1waCcsICc3LjAnLCAnLXRuJywgJzgnLCAnLW1hJywgJzIwMCcsICctaW1hZScsICc8aW5maWxlLm1hZT4nLCAnLW9tYWUnLCAnPG91dGZpbGUubWFlPic=

>  <r_epik_Ionization_Penalty>  (531) 
0.00201365

>  <r_epik_Ionization_Penalty_Charging>  (531) 
0.00199542

>  <r_epik_Ionization_Penalty_Neutral>  (531) 
1.82346e-05

>  <r_epik_State_Penalty>  (531) 
0.00128591

>  <r_epik_Charging_Adjusted_Penalty>  (531) 
0.00328133

>  <i_epik_Tot_Q>  (531) 
0

>  <i_epik_Tot_abs_Q>  (531) 
2

>  <s_lp_Force_Field>  (531) 
OPLS3e

>  <r_lp_Energy>  (531) 
11.3206

>  <b_lp_Chiralities_Consistent>  (531) 
1

>  <s_lp_Variant>  (531) 
113:0-1

>  <s_i_glide_gridfile>  (531) 
pfpi4k_grid

>  <i_i_glide_lignum>  (531) 
6

>  <i_i_glide_rotatable_bonds>  (531) 
11

>  <r_i_docking_score>  (531) 
-3.01092

>  <r_i_glide_ligand_efficiency>  (531) 
-0.125455

>  <r_i_glide_ligand_efficiency_sa>  (531) 
-0.361874

>  <r_i_glide_ligand_efficiency_ln>  (531) 
-0.72065

>  <r_i_glide_gscore>  (531) 
-3.01092

>  <r_i_glide_lipo>  (531) 
-0.0599781

>  <r_i_glide_hbond>  (531) 
-0.565734

>  <r_i_glide_metal>  (531) 
-0

>  <r_i_glide_rewards>  (531) 
-1.07185

>  <r_i_glide_evdw>  (531) 
-23.5152

>  <r_i_glide_ecoul>  (531) 
-8.14437

>  <r_i_glide_erotb>  (531) 
1.21094

>  <r_i_glide_esite>  (531) 
-0.126881

>  <r_i_glide_emodel>  (531) 
-41.1879

>  <r_i_glide_energy>  (531) 
-31.6595

>  <r_i_glide_einternal>  (531) 
4.50055

>  <r_i_glide_intrahb_reward>  (531) 
-0

>  <i_i_glide_confnum>  (531) 
6

>  <i_i_glide_posenum>  (531) 
30

>  <r_i_glide_eff_state_penalty>  (531) 
0

>  <ligand_id>  (531) 
113

>  <original_smiles>  (531) 
NCCNC(=O)CCC(NS(=O)(=O)C=Cc1ccccc1)C(=O)O

>  <smiles>  (531) 
[H]C(=C([H])S(=O)(=O)N([H])C([H])(C(=O)[O-])C([H])([H])C([H])([H])C(=O)N([H])C([H])([H])C([H])([H])[N+]([H])([H])[H])c1c([H])c([H])c([H])c([H])c1[H]

$$$$
113:1:0
     RDKit          3D

 45 45  0  0  1  0  0  0  0  0999 V2000
   -0.0849    1.7472    1.5000 N   0  0  0  0  0  0  0  0  0  0  0  0
    0.7125    1.1965    2.6053 C   0  0  0  0  0  0  0  0  0  0  0  0
    0.2320   -0.2104    2.9689 C   0  0  0  0  0  0  0  0  0  0  0  0
    0.9400   -0.7389    4.1339 N   0  0  0  0  0  0  0  0  0  0  0  0
    0.3601   -1.5499    5.0373 C   0  0  0  0  0  0  0  0  0  0  0  0
   -0.8030   -1.9316    4.9453 O   0  0  0  0  0  0  0  0  0  0  0  0
    1.2309   -1.9723    6.2218 C   0  0  0  0  0  0  0  0  0  0  0  0
    1.7040   -3.4428    6.1823 C   0  0  0  0  0  0  0  0  0  0  0  0
    0.6474   -4.5916    6.2076 C   0  0  2  0  0  0  0  0  0  0  0  0
    0.2322   -4.8755    4.8386 N   0  0  0  0  0  0  0  0  0  0  0  0
    0.6532   -6.3330    4.0158 S   0  0  0  0  0  0  0  0  0  0  0  0
    0.0617   -6.2416    2.6764 O   0  0  0  0  0  0  0  0  0  0  0  0
    2.1034   -6.5543    4.1827 O   0  0  0  0  0  0  0  0  0  0  0  0
   -0.2473   -7.6685    4.8496 C   0  0  0  0  0  0  0  0  0  0  0  0
    0.0937   -8.9762    4.8516 C   0  0  0  0  0  0  0  0  0  0  0  0
    1.1869   -9.6617    4.1363 C   0  0  0  0  0  0  0  0  0  0  0  0
    1.7281   -9.2037    2.9147 C   0  0  0  0  0  0  0  0  0  0  0  0
    2.8324   -9.8415    2.3311 C   0  0  0  0  0  0  0  0  0  0  0  0
    3.3947  -10.9717    2.9494 C   0  0  0  0  0  0  0  0  0  0  0  0
    2.8462  -11.4596    4.1460 C   0  0  0  0  0  0  0  0  0  0  0  0
    1.7526  -10.8071    4.7393 C   0  0  0  0  0  0  0  0  0  0  0  0
   -0.5455   -4.4371    7.1615 C   0  0  0  0  0  0  0  0  0  0  0  0
   -0.8649   -5.4614    7.8257 O   0  0  0  0  0  0  0  0  0  0  0  0
   -1.1224   -3.3405    7.2063 O   0  0  0  0  0  0  0  0  0  0  0  0
    0.2108    2.7059    1.2669 H   0  0  0  0  0  0  0  0  0  0  0  0
   -1.0592    1.7881    1.7659 H   0  0  0  0  0  0  0  0  0  0  0  0
    1.7637    1.1641    2.3170 H   0  0  0  0  0  0  0  0  0  0  0  0
    0.6156    1.8601    3.4686 H   0  0  0  0  0  0  0  0  0  0  0  0
   -0.8444   -0.1701    3.1574 H   0  0  0  0  0  0  0  0  0  0  0  0
    0.3859   -0.9050    2.1399 H   0  0  0  0  0  0  0  0  0  0  0  0
    1.9227   -0.5204    4.2533 H   0  0  0  0  0  0  0  0  0  0  0  0
    2.1020   -1.3287    6.2683 H   0  0  0  0  0  0  0  0  0  0  0  0
    0.6827   -1.8145    7.1492 H   0  0  0  0  0  0  0  0  0  0  0  0
    2.3401   -3.5704    5.3003 H   0  0  0  0  0  0  0  0  0  0  0  0
    2.4082   -3.6074    6.9995 H   0  0  0  0  0  0  0  0  0  0  0  0
    1.1823   -5.4738    6.5513 H   0  0  0  0  0  0  0  0  0  0  0  0
   -0.5065   -4.3003    4.4303 H   0  0  0  0  0  0  0  0  0  0  0  0
   -1.1100   -7.2983    5.3814 H   0  0  0  0  0  0  0  0  0  0  0  0
   -0.5520   -9.6254    5.4273 H   0  0  0  0  0  0  0  0  0  0  0  0
    1.3122   -8.3566    2.3956 H   0  0  0  0  0  0  0  0  0  0  0  0
    3.2403   -9.4588    1.4122 H   0  0  0  0  0  0  0  0  0  0  0  0
    4.2335  -11.4709    2.4945 H   0  0  0  0  0  0  0  0  0  0  0  0
    3.2674  -12.3341    4.6177 H   0  0  0  0  0  0  0  0  0  0  0  0
    1.3519  -11.1826    5.6690 H   0  0  0  0  0  0  0  0  0  0  0  0
   -0.0209    1.1588    0.6729 H   0  0  0  0  0  0  0  0  0  0  0  0
  1  2  1  0
  1 25  1  0
  1 26  1  0
  1 45  1  0
  2  3  1  0
  2 27  1  0
  2 28  1  0
  3  4  1  0
  3 29  1  0
  3 30  1  0
  4  5  1  0
  4 31  1  0
  5  6  2  0
  5  7  1  0
  7  8  1  0
  7 32  1  0
  7 33  1  0
  8  9  1  0
  8 34  1  0
  8 35  1  0
  9 10  1  0
  9 22  1  0
  9 36  1  1
 10 11  1  0
 10 37  1  0
 11 12  2  0
 11 13  2  0
 11 14  1  0
 14 15  2  3
 14 38  1  0
 15 16  1  0
 15 39  1  0
 16 21  2  0
 16 17  1  0
 17 18  2  0
 17 40  1  0
 18 19  1  0
 18 41  1  0
 19 20  2  0
 19 42  1  0
 20 21  1  0
 20 43  1  0
 21 44  1  0
 22 23  2  0
 22 24  1  0
M  CHG  2   1   1  24  -1
M  END
>  <i_m_ct_stereo_status>  (532) 
1

>  <s_m_source_file>  (532) 
/var/tmp/pbs.5102264.sched01/tmpp_sc680v/18465xhjztf.sdf

>  <i_m_source_file_index>  (532) 
7

>  <i_lp_mmshare_version>  (532) 
48012

>  <i_f3d_flags>  (532) 
0

>  <s_epik_input>  (532) 
W05IMl1bQ0gyXVtDSDJdW05IXUMoPU8pW0NIMl1bQ0gyXVtDQEBIXShDKD1PKVtPSF0pW05IXVMoPU8pKD1PKS9bQ0hdPVtDSF0vYzFbY0hdW2NIXVtjSF1bY0hdW2NIXTE=

>  <s_epik_cmdline>  (532) 
J2VwaWtfcHl0aG9uJywgJy1waHQnLCAnMi4wJywgJy1waCcsICc3LjAnLCAnLXRuJywgJzgnLCAnLW1hJywgJzIwMCcsICctaW1hZScsICc8aW5maWxlLm1hZT4nLCAnLW9tYWUnLCAnPG91dGZpbGUubWFlPic=

>  <r_epik_Ionization_Penalty>  (532) 
0.00201365

>  <r_epik_Ionization_Penalty_Charging>  (532) 
0.00199542

>  <r_epik_Ionization_Penalty_Neutral>  (532) 
1.82346e-05

>  <r_epik_State_Penalty>  (532) 
0.00128591

>  <r_epik_Charging_Adjusted_Penalty>  (532) 
0.00328133

>  <i_epik_Tot_Q>  (532) 
0

>  <i_epik_Tot_abs_Q>  (532) 
2

>  <s_lp_Force_Field>  (532) 
OPLS3e

>  <r_lp_Energy>  (532) 
9.47619

>  <b_lp_Chiralities_Consistent>  (532) 
1

>  <s_lp_Variant>  (532) 
113:0-2

>  <s_i_glide_gridfile>  (532) 
pfpi4k_grid

>  <i_i_glide_lignum>  (532) 
7

>  <i_i_glide_rotatable_bonds>  (532) 
11

>  <r_i_docking_score>  (532) 
-3.90643

>  <r_i_glide_ligand_efficiency>  (532) 
-0.162768

>  <r_i_glide_ligand_efficiency_sa>  (532) 
-0.469504

>  <r_i_glide_ligand_efficiency_ln>  (532) 
-0.934988

>  <r_i_glide_gscore>  (532) 
-3.90643

>  <r_i_glide_lipo>  (532) 
-0.00705151

>  <r_i_glide_hbond>  (532) 
-0.384133

>  <r_i_glide_metal>  (532) 
-0

>  <r_i_glide_rewards>  (532) 
-1.48584

>  <r_i_glide_evdw>  (532) 
-17.9702

>  <r_i_glide_ecoul>  (532) 
-14.0188

>  <r_i_glide_erotb>  (532) 
1.21094

>  <r_i_glide_esite>  (532) 
-0.239011

>  <r_i_glide_emodel>  (532) 
-47.332

>  <r_i_glide_energy>  (532) 
-31.989

>  <r_i_glide_einternal>  (532) 
8.67069

>  <r_i_glide_intrahb_reward>  (532) 
-0.5

>  <i_i_glide_confnum>  (532) 
3

>  <i_i_glide_posenum>  (532) 
3

>  <r_i_glide_eff_state_penalty>  (532) 
0

>  <ligand_id>  (532) 
113

>  <original_smiles>  (532) 
NCCNC(=O)CCC(NS(=O)(=O)C=Cc1ccccc1)C(=O)O

>  <smiles>  (532) 
[H]C(=C([H])S(=O)(=O)N([H])C([H])(C(=O)[O-])C([H])([H])C([H])([H])C(=O)N([H])C([H])([H])C([H])([H])[N+]([H])([H])[H])c1c([H])c([H])c([H])c([H])c1[H]

$$$$
113:1:1
     RDKit          3D

 45 45  0  0  1  0  0  0  0  0999 V2000
    0.6141  -10.8262    4.6047 N   0  0  0  0  0  0  0  0  0  0  0  0
    0.7199  -10.4349    3.1909 C   0  0  0  0  0  0  0  0  0  0  0  0
    0.0794   -9.0555    2.9106 C   0  0  0  0  0  0  0  0  0  0  0  0
    0.8729   -7.9437    3.4433 N   0  0  0  0  0  0  0  0  0  0  0  0
    0.8882   -6.6971    2.9362 C   0  0  0  0  0  0  0  0  0  0  0  0
    0.2007   -6.3443    1.9759 O   0  0  0  0  0  0  0  0  0  0  0  0
    1.8067   -5.6868    3.6312 C   0  0  0  0  0  0  0  0  0  0  0  0
    2.9581   -5.1775    2.7111 C   0  0  0  0  0  0  0  0  0  0  0  0
    4.0311   -4.2533    3.3734 C   0  0  2  0  0  0  0  0  0  0  0  0
    5.0970   -3.9391    2.4218 N   0  0  0  0  0  0  0  0  0  0  0  0
    5.1160   -2.4945    1.5081 S   0  0  0  0  0  0  0  0  0  0  0  0
    3.8516   -2.4942    0.7604 O   0  0  0  0  0  0  0  0  0  0  0  0
    5.4178   -1.3979    2.4343 O   0  0  0  0  0  0  0  0  0  0  0  0
    6.5508   -2.6729    0.3813 C   0  0  0  0  0  0  0  0  0  0  0  0
    6.5532   -2.7125   -0.9709 C   0  0  0  0  0  0  0  0  0  0  0  0
    5.4364   -2.5229   -1.8976 C   0  0  0  0  0  0  0  0  0  0  0  0
    4.4910   -1.4920   -1.7274 C   0  0  0  0  0  0  0  0  0  0  0  0
    3.3931   -1.3863   -2.5926 C   0  0  0  0  0  0  0  0  0  0  0  0
    3.2504   -2.2729   -3.6770 C   0  0  0  0  0  0  0  0  0  0  0  0
    4.2101   -3.2809   -3.8817 C   0  0  0  0  0  0  0  0  0  0  0  0
    5.2907   -3.4071   -2.9906 C   0  0  0  0  0  0  0  0  0  0  0  0
    4.6909   -4.8241    4.6361 C   0  0  0  0  0  0  0  0  0  0  0  0
    5.3604   -4.0099    5.3109 O   0  0  0  0  0  0  0  0  0  0  0  0
    4.5739   -6.0462    4.8810 O   0  0  0  0  0  0  0  0  0  0  0  0
    1.0274  -11.7394    4.7513 H   0  0  0  0  0  0  0  0  0  0  0  0
   -0.3625  -10.8752    4.8798 H   0  0  0  0  0  0  0  0  0  0  0  0
    1.7696  -10.4362    2.8803 H   0  0  0  0  0  0  0  0  0  0  0  0
    0.2229  -11.1973    2.5830 H   0  0  0  0  0  0  0  0  0  0  0  0
   -0.0251   -8.9439    1.8316 H   0  0  0  0  0  0  0  0  0  0  0  0
   -0.9347   -9.0256    3.3204 H   0  0  0  0  0  0  0  0  0  0  0  0
    1.4584   -8.1283    4.2463 H   0  0  0  0  0  0  0  0  0  0  0  0
    1.2148   -4.8356    3.9723 H   0  0  0  0  0  0  0  0  0  0  0  0
    2.1880   -6.1685    4.5320 H   0  0  0  0  0  0  0  0  0  0  0  0
    3.4542   -6.0227    2.2297 H   0  0  0  0  0  0  0  0  0  0  0  0
    2.4996   -4.6210    1.8871 H   0  0  0  0  0  0  0  0  0  0  0  0
    3.5381   -3.3214    3.6528 H   0  0  0  0  0  0  0  0  0  0  0  0
    5.9167   -4.5485    2.3896 H   0  0  0  0  0  0  0  0  0  0  0  0
    7.4814   -2.7748    0.9122 H   0  0  0  0  0  0  0  0  0  0  0  0
    7.5138   -2.8860   -1.4492 H   0  0  0  0  0  0  0  0  0  0  0  0
    4.5794   -0.7941   -0.9060 H   0  0  0  0  0  0  0  0  0  0  0  0
    2.6304   -0.6448   -2.4009 H   0  0  0  0  0  0  0  0  0  0  0  0
    2.3886   -2.1857   -4.3173 H   0  0  0  0  0  0  0  0  0  0  0  0
    4.1118   -3.9691   -4.7041 H   0  0  0  0  0  0  0  0  0  0  0  0
    6.0012   -4.2089   -3.1156 H   0  0  0  0  0  0  0  0  0  0  0  0
    1.0862  -10.1641    5.2017 H   0  0  0  0  0  0  0  0  0  0  0  0
  1  2  1  0
  1 25  1  0
  1 26  1  0
  1 45  1  0
  2  3  1  0
  2 27  1  0
  2 28  1  0
  3  4  1  0
  3 29  1  0
  3 30  1  0
  4  5  1  0
  4 31  1  0
  5  6  2  0
  5  7  1  0
  7  8  1  0
  7 32  1  0
  7 33  1  0
  8  9  1  0
  8 34  1  0
  8 35  1  0
  9 10  1  0
  9 22  1  0
  9 36  1  1
 10 11  1  0
 10 37  1  0
 11 12  2  0
 11 13  2  0
 11 14  1  0
 14 15  2  3
 14 38  1  0
 15 16  1  0
 15 39  1  0
 16 21  2  0
 16 17  1  0
 17 18  2  0
 17 40  1  0
 18 19  1  0
 18 41  1  0
 19 20  2  0
 19 42  1  0
 20 21  1  0
 20 43  1  0
 21 44  1  0
 22 23  2  0
 22 24  1  0
M  CHG  2   1   1  24  -1
M  END
>  <i_m_ct_stereo_status>  (533) 
1

>  <s_m_source_file>  (533) 
/var/tmp/pbs.5102264.sched01/tmpp_sc680v/18465xhjztf.sdf

>  <i_m_source_file_index>  (533) 
7

>  <i_lp_mmshare_version>  (533) 
48012

>  <i_f3d_flags>  (533) 
0

>  <s_epik_input>  (533) 
W05IMl1bQ0gyXVtDSDJdW05IXUMoPU8pW0NIMl1bQ0gyXVtDQEBIXShDKD1PKVtPSF0pW05IXVMoPU8pKD1PKS9bQ0hdPVtDSF0vYzFbY0hdW2NIXVtjSF1bY0hdW2NIXTE=

>  <s_epik_cmdline>  (533) 
J2VwaWtfcHl0aG9uJywgJy1waHQnLCAnMi4wJywgJy1waCcsICc3LjAnLCAnLXRuJywgJzgnLCAnLW1hJywgJzIwMCcsICctaW1hZScsICc8aW5maWxlLm1hZT4nLCAnLW9tYWUnLCAnPG91dGZpbGUubWFlPic=

>  <r_epik_Ionization_Penalty>  (533) 
0.00201365

>  <r_epik_Ionization_Penalty_Charging>  (533) 
0.00199542

>  <r_epik_Ionization_Penalty_Neutral>  (533) 
1.82346e-05

>  <r_epik_State_Penalty>  (533) 
0.00128591

>  <r_epik_Charging_Adjusted_Penalty>  (533) 
0.00328133

>  <i_epik_Tot_Q>  (533) 
0

>  <i_epik_Tot_abs_Q>  (533) 
2

>  <s_lp_Force_Field>  (533) 
OPLS3e

>  <r_lp_Energy>  (533) 
9.47619

>  <b_lp_Chiralities_Consistent>  (533) 
1

>  <s_lp_Variant>  (533) 
113:0-2

>  <s_i_glide_gridfile>  (533) 
pfpi4k_grid

>  <i_i_glide_lignum>  (533) 
7

>  <i_i_glide_rotatable_bonds>  (533) 
11

>  <r_i_docking_score>  (533) 
-3.64742

>  <r_i_glide_ligand_efficiency>  (533) 
-0.151976

>  <r_i_glide_ligand_efficiency_sa>  (533) 
-0.438374

>  <r_i_glide_ligand_efficiency_ln>  (533) 
-0.872995

>  <r_i_glide_gscore>  (533) 
-3.64742

>  <r_i_glide_lipo>  (533) 
-0.703794

>  <r_i_glide_hbond>  (533) 
-0.443555

>  <r_i_glide_metal>  (533) 
-0

>  <r_i_glide_rewards>  (533) 
-1.04483

>  <r_i_glide_evdw>  (533) 
-27.2527

>  <r_i_glide_ecoul>  (533) 
-7.8341

>  <r_i_glide_erotb>  (533) 
1.21094

>  <r_i_glide_esite>  (533) 
-0.128435

>  <r_i_glide_emodel>  (533) 
-40.8957

>  <r_i_glide_energy>  (533) 
-35.0868

>  <r_i_glide_einternal>  (533) 
14.4332

>  <r_i_glide_intrahb_reward>  (533) 
-0

>  <i_i_glide_confnum>  (533) 
4

>  <i_i_glide_posenum>  (533) 
4

>  <r_i_glide_eff_state_penalty>  (533) 
0

>  <ligand_id>  (533) 
113

>  <original_smiles>  (533) 
NCCNC(=O)CCC(NS(=O)(=O)C=Cc1ccccc1)C(=O)O

>  <smiles>  (533) 
[H]C(=C([H])S(=O)(=O)N([H])C([H])(C(=O)[O-])C([H])([H])C([H])([H])C(=O)N([H])C([H])([H])C([H])([H])[N+]([H])([H])[H])c1c([H])c([H])c([H])c([H])c1[H]

$$$$
113:1:2
     RDKit          3D

 45 45  0  0  1  0  0  0  0  0999 V2000
    2.6177   -0.5204    0.8856 N   0  0  0  0  0  0  0  0  0  0  0  0
    3.2359   -1.8383    1.1158 C   0  0  0  0  0  0  0  0  0  0  0  0
    3.7765   -2.4284   -0.1934 C   0  0  0  0  0  0  0  0  0  0  0  0
    4.3513   -3.7577   -0.0052 N   0  0  0  0  0  0  0  0  0  0  0  0
    3.6471   -4.8691    0.2285 C   0  0  0  0  0  0  0  0  0  0  0  0
    2.4234   -4.8564    0.3774 O   0  0  0  0  0  0  0  0  0  0  0  0
    4.4443   -6.1906    0.2824 C   0  0  0  0  0  0  0  0  0  0  0  0
    3.8938   -7.1363    1.3615 C   0  0  0  0  0  0  0  0  0  0  0  0
    4.2986   -8.6437    1.2763 C   0  0  2  0  0  0  0  0  0  0  0  0
    3.4254   -9.5113    2.0944 N   0  0  0  0  0  0  0  0  0  0  0  0
    2.1210   -8.9130    3.0571 S   0  0  0  0  0  0  0  0  0  0  0  0
    2.7079   -7.9469    3.9916 O   0  0  0  0  0  0  0  0  0  0  0  0
    1.0666   -8.5000    2.1191 O   0  0  0  0  0  0  0  0  0  0  0  0
    1.4598  -10.3077    3.9959 C   0  0  0  0  0  0  0  0  0  0  0  0
    0.9912  -10.2416    5.2655 C   0  0  0  0  0  0  0  0  0  0  0  0
    0.7853   -9.0701    6.1547 C   0  0  0  0  0  0  0  0  0  0  0  0
    0.4738   -7.7760    5.6767 C   0  0  0  0  0  0  0  0  0  0  0  0
    0.3735   -6.6820    6.5506 C   0  0  0  0  0  0  0  0  0  0  0  0
    0.5108   -6.8731    7.9393 C   0  0  0  0  0  0  0  0  0  0  0  0
    0.7738   -8.1636    8.4360 C   0  0  0  0  0  0  0  0  0  0  0  0
    0.9222   -9.2479    7.5514 C   0  0  0  0  0  0  0  0  0  0  0  0
    5.7780   -8.8556    1.6533 C   0  0  0  0  0  0  0  0  0  0  0  0
    6.4618   -9.5610    0.8782 O   0  0  0  0  0  0  0  0  0  0  0  0
    6.2233   -8.2995    2.6850 O   0  0  0  0  0  0  0  0  0  0  0  0
    2.2428   -0.1519    1.7494 H   0  0  0  0  0  0  0  0  0  0  0  0
    1.8485   -0.6432    0.2154 H   0  0  0  0  0  0  0  0  0  0  0  0
    4.0387   -1.7352    1.8464 H   0  0  0  0  0  0  0  0  0  0  0  0
    2.4761   -2.4815    1.5611 H   0  0  0  0  0  0  0  0  0  0  0  0
    2.9910   -2.4632   -0.9567 H   0  0  0  0  0  0  0  0  0  0  0  0
    4.5616   -1.7802   -0.5877 H   0  0  0  0  0  0  0  0  0  0  0  0
    5.3350   -3.8732   -0.1881 H   0  0  0  0  0  0  0  0  0  0  0  0
    4.3674   -6.6919   -0.6850 H   0  0  0  0  0  0  0  0  0  0  0  0
    5.5033   -6.0115    0.4781 H   0  0  0  0  0  0  0  0  0  0  0  0
    4.1580   -6.7130    2.3369 H   0  0  0  0  0  0  0  0  0  0  0  0
    2.8101   -7.0788    1.2634 H   0  0  0  0  0  0  0  0  0  0  0  0
    4.1556   -8.9932    0.2598 H   0  0  0  0  0  0  0  0  0  0  0  0
    3.6791  -10.4994    2.1850 H   0  0  0  0  0  0  0  0  0  0  0  0
    1.4854  -11.2367    3.4480 H   0  0  0  0  0  0  0  0  0  0  0  0
    0.6839  -11.1936    5.6858 H   0  0  0  0  0  0  0  0  0  0  0  0
    0.3132   -7.5956    4.6231 H   0  0  0  0  0  0  0  0  0  0  0  0
    0.1961   -5.6980    6.1432 H   0  0  0  0  0  0  0  0  0  0  0  0
    0.4094   -6.0336    8.6092 H   0  0  0  0  0  0  0  0  0  0  0  0
    0.8709   -8.3301    9.4987 H   0  0  0  0  0  0  0  0  0  0  0  0
    1.1617  -10.2306    7.9344 H   0  0  0  0  0  0  0  0  0  0  0  0
    3.2910    0.1342    0.5144 H   0  0  0  0  0  0  0  0  0  0  0  0
  1  2  1  0
  1 25  1  0
  1 26  1  0
  1 45  1  0
  2  3  1  0
  2 27  1  0
  2 28  1  0
  3  4  1  0
  3 29  1  0
  3 30  1  0
  4  5  1  0
  4 31  1  0
  5  6  2  0
  5  7  1  0
  7  8  1  0
  7 32  1  0
  7 33  1  0
  8  9  1  0
  8 34  1  0
  8 35  1  0
  9 10  1  0
  9 22  1  0
  9 36  1  6
 10 11  1  0
 10 37  1  0
 11 12  2  0
 11 13  2  0
 11 14  1  0
 14 15  2  3
 14 38  1  0
 15 16  1  0
 15 39  1  0
 16 21  2  0
 16 17  1  0
 17 18  2  0
 17 40  1  0
 18 19  1  0
 18 41  1  0
 19 20  2  0
 19 42  1  0
 20 21  1  0
 20 43  1  0
 21 44  1  0
 22 23  2  0
 22 24  1  0
M  CHG  2   1   1  24  -1
M  END
>  <i_m_ct_stereo_status>  (534) 
1

>  <s_m_source_file>  (534) 
/var/tmp/pbs.5102264.sched01/tmpp_sc680v/18465xhjztf.sdf

>  <i_m_source_file_index>  (534) 
7

>  <i_lp_mmshare_version>  (534) 
48012

>  <i_f3d_flags>  (534) 
0

>  <s_epik_input>  (534) 
W05IMl1bQ0gyXVtDSDJdW05IXUMoPU8pW0NIMl1bQ0gyXVtDQEBIXShDKD1PKVtPSF0pW05IXVMoPU8pKD1PKS9bQ0hdPVtDSF0vYzFbY0hdW2NIXVtjSF1bY0hdW2NIXTE=

>  <s_epik_cmdline>  (534) 
J2VwaWtfcHl0aG9uJywgJy1waHQnLCAnMi4wJywgJy1waCcsICc3LjAnLCAnLXRuJywgJzgnLCAnLW1hJywgJzIwMCcsICctaW1hZScsICc8aW5maWxlLm1hZT4nLCAnLW9tYWUnLCAnPG91dGZpbGUubWFlPic=

>  <r_epik_Ionization_Penalty>  (534) 
0.00201365

>  <r_epik_Ionization_Penalty_Charging>  (534) 
0.00199542

>  <r_epik_Ionization_Penalty_Neutral>  (534) 
1.82346e-05

>  <r_epik_State_Penalty>  (534) 
0.00128591

>  <r_epik_Charging_Adjusted_Penalty>  (534) 
0.00328133

>  <i_epik_Tot_Q>  (534) 
0

>  <i_epik_Tot_abs_Q>  (534) 
2

>  <s_lp_Force_Field>  (534) 
OPLS3e

>  <r_lp_Energy>  (534) 
9.47619

>  <b_lp_Chiralities_Consistent>  (534) 
1

>  <s_lp_Variant>  (534) 
113:0-2

>  <s_i_glide_gridfile>  (534) 
pfpi4k_grid

>  <i_i_glide_lignum>  (534) 
7

>  <i_i_glide_rotatable_bonds>  (534) 
11

>  <r_i_docking_score>  (534) 
-2.91465

>  <r_i_glide_ligand_efficiency>  (534) 
-0.121444

>  <r_i_glide_ligand_efficiency_sa>  (534) 
-0.350304

>  <r_i_glide_ligand_efficiency_ln>  (534) 
-0.697608

>  <r_i_glide_gscore>  (534) 
-2.91465

>  <r_i_glide_lipo>  (534) 
-0.193776

>  <r_i_glide_hbond>  (534) 
-0.2

>  <r_i_glide_metal>  (534) 
-0

>  <r_i_glide_rewards>  (534) 
-1.04304

>  <r_i_glide_evdw>  (534) 
-22.2439

>  <r_i_glide_ecoul>  (534) 
-9.45807

>  <r_i_glide_erotb>  (534) 
1.21094

>  <r_i_glide_esite>  (534) 
-0.157861

>  <r_i_glide_emodel>  (534) 
-38.8616

>  <r_i_glide_energy>  (534) 
-31.702

>  <r_i_glide_einternal>  (534) 
7.08372

>  <r_i_glide_intrahb_reward>  (534) 
-0

>  <i_i_glide_confnum>  (534) 
4

>  <i_i_glide_posenum>  (534) 
24

>  <r_i_glide_eff_state_penalty>  (534) 
0

>  <ligand_id>  (534) 
113

>  <original_smiles>  (534) 
NCCNC(=O)CCC(NS(=O)(=O)C=Cc1ccccc1)C(=O)O

>  <smiles>  (534) 
[H]C(=C([H])S(=O)(=O)N([H])C([H])(C(=O)[O-])C([H])([H])C([H])([H])C(=O)N([H])C([H])([H])C([H])([H])[N+]([H])([H])[H])c1c([H])c([H])c([H])c([H])c1[H]

$$$$
114:0:0
     RDKit          3D

 29 30  0  0  1  0  0  0  0  0999 V2000
    0.0427    0.8993    2.3075 C   0  0  0  0  0  0  0  0  0  0  0  0
    1.3702    0.2617    2.1149 C   0  0  0  0  0  0  0  0  0  0  0  0
    2.4046    0.9824    1.7059 N   0  0  0  0  0  0  0  0  0  0  0  0
    3.4554    0.0574    1.6843 O   0  0  0  0  0  0  0  0  0  0  0  0
    2.9037   -1.1309    2.0385 C   0  0  0  0  0  0  0  0  0  0  0  0
    3.7694   -2.3634    2.0997 C   0  0  2  0  0  0  0  0  0  0  0  0
    4.4301   -2.5154    3.4714 C   0  0  0  0  0  0  0  0  0  0  0  0
    4.7677   -2.4838    1.0284 N   0  0  0  0  0  0  0  0  0  0  0  0
    4.3566   -2.1850   -0.2823 C   0  0  0  0  0  0  0  0  0  0  0  0
    4.9901   -1.1459   -0.8611 N   0  0  0  0  0  0  0  0  0  0  0  0
    4.6175   -0.8161   -2.0942 C   0  0  0  0  0  0  0  0  0  0  0  0
    3.7430   -1.4536   -2.8635 N   0  0  0  0  0  0  0  0  0  0  0  0
    3.1027   -2.4970   -2.3152 C   0  0  0  0  0  0  0  0  0  0  0  0
    2.2087   -3.1437   -3.1682 N   0  0  0  0  0  0  0  0  0  0  0  0
    3.3703   -2.9233   -0.9871 C   0  0  0  0  0  0  0  0  0  0  0  0
    2.7207   -4.0839   -0.3941 C   0  0  0  0  0  0  0  0  0  0  0  0
    2.2028   -5.0042    0.0822 N   0  0  0  0  0  0  0  0  0  0  0  0
    1.6129   -1.0557    2.3643 N   0  0  0  0  0  0  0  0  0  0  0  0
    0.1254    1.9847    2.2474 H   0  0  0  0  0  0  0  0  0  0  0  0
   -0.3587    0.6215    3.2826 H   0  0  0  0  0  0  0  0  0  0  0  0
   -0.6366    0.5850    1.5208 H   0  0  0  0  0  0  0  0  0  0  0  0
    3.0840   -3.2014    2.0216 H   0  0  0  0  0  0  0  0  0  0  0  0
    3.6780   -2.4835    4.2602 H   0  0  0  0  0  0  0  0  0  0  0  0
    5.1529   -1.7203    3.6608 H   0  0  0  0  0  0  0  0  0  0  0  0
    4.9372   -3.4749    3.5520 H   0  0  0  0  0  0  0  0  0  0  0  0
    5.0854    0.0428   -2.5471 H   0  0  0  0  0  0  0  0  0  0  0  0
    1.7132   -3.9817   -2.8698 H   0  0  0  0  0  0  0  0  0  0  0  0
    2.0340   -2.8299   -4.1168 H   0  0  0  0  0  0  0  0  0  0  0  0
    5.6510   -2.0617    1.2757 H   0  0  0  0  0  0  0  0  0  0  0  0
  1  2  1  0
  1 19  1  0
  1 20  1  0
  1 21  1  0
  2 18  1  0
  2  3  2  0
  3  4  1  0
  4  5  1  0
  5  6  1  0
  5 18  2  0
  6  7  1  0
  6  8  1  0
  6 22  1  6
  7 23  1  0
  7 24  1  0
  7 25  1  0
  8  9  1  0
  8 29  1  0
  9 15  1  0
  9 10  2  0
 10 11  1  0
 11 12  2  0
 11 26  1  0
 12 13  1  0
 13 14  1  0
 13 15  2  0
 14 27  1  0
 14 28  1  0
 15 16  1  0
 16 17  3  0
M  END
>  <i_m_ct_stereo_status>  (535) 
1

>  <s_m_source_file>  (535) 
/var/tmp/pbs.5102264.sched01/tmpp_sc680v/18465xhjztf.sdf

>  <i_m_source_file_index>  (535) 
8

>  <i_lp_mmshare_version>  (535) 
48012

>  <i_f3d_flags>  (535) 
0

>  <s_epik_input>  (535) 
W0NIM11jMW5vYyhuMSlbQ0BIXShbQ0gzXSkvTj1jMlxbbkhdW2NIXW5jKFtOSDJdKWMyQyNO

>  <s_epik_cmdline>  (535) 
J2VwaWtfcHl0aG9uJywgJy1waHQnLCAnMi4wJywgJy1waCcsICc3LjAnLCAnLXRuJywgJzgnLCAnLW1hJywgJzIwMCcsICctaW1hZScsICc8aW5maWxlLm1hZT4nLCAnLW9tYWUnLCAnPG91dGZpbGUubWFlPic=

>  <r_lp_tautomer_probability>  (535) 
1

>  <r_epik_Ionization_Penalty>  (535) 
0.000413157

>  <r_epik_Ionization_Penalty_Charging>  (535) 
0

>  <r_epik_Ionization_Penalty_Neutral>  (535) 
0.000413157

>  <r_epik_State_Penalty>  (535) 
-0

>  <r_epik_Charging_Adjusted_Penalty>  (535) 
0

>  <i_epik_Tot_Q>  (535) 
0

>  <i_epik_Tot_abs_Q>  (535) 
0

>  <s_lp_Force_Field>  (535) 
OPLS3e

>  <r_lp_Energy>  (535) 
12.7011

>  <b_lp_Chiralities_Consistent>  (535) 
1

>  <s_lp_Variant>  (535) 
114:0-1

>  <s_i_glide_gridfile>  (535) 
pfpi4k_grid

>  <i_i_glide_lignum>  (535) 
8

>  <i_i_glide_rotatable_bonds>  (535) 
4

>  <r_i_docking_score>  (535) 
-2.86573

>  <r_i_glide_ligand_efficiency>  (535) 
-0.159207

>  <r_i_glide_ligand_efficiency_sa>  (535) 
-0.41724

>  <r_i_glide_ligand_efficiency_ln>  (535) 
-0.73662

>  <r_i_glide_gscore>  (535) 
-2.86573

>  <r_i_glide_lipo>  (535) 
-0.0189671

>  <r_i_glide_hbond>  (535) 
-0.108004

>  <r_i_glide_metal>  (535) 
-0

>  <r_i_glide_rewards>  (535) 
-1.737

>  <r_i_glide_evdw>  (535) 
-23.9304

>  <r_i_glide_ecoul>  (535) 
-3.55586

>  <r_i_glide_erotb>  (535) 
0.868106

>  <r_i_glide_esite>  (535) 
-0.139966

>  <r_i_glide_emodel>  (535) 
-28.4641

>  <r_i_glide_energy>  (535) 
-27.4863

>  <r_i_glide_einternal>  (535) 
7.85725

>  <r_i_glide_intrahb_reward>  (535) 
-0

>  <i_i_glide_confnum>  (535) 
4

>  <i_i_glide_posenum>  (535) 
28

>  <r_i_glide_eff_state_penalty>  (535) 
0

>  <ligand_id>  (535) 
114

>  <original_smiles>  (535) 
Cc1noc(C(C)N=c2[nH]cnc(N)c2C#N)n1

>  <smiles>  (535) 
[H]c1nc(N([H])[H])c(C#N)c(N([H])C([H])(c2nc(C([H])([H])[H])no2)C([H])([H])[H])n1

$$$$
114:0:1
     RDKit          3D

 29 30  0  0  1  0  0  0  0  0999 V2000
    1.1498   -6.9971    1.9102 C   0  0  0  0  0  0  0  0  0  0  0  0
    2.3110   -6.1375    1.5539 C   0  0  0  0  0  0  0  0  0  0  0  0
    2.3437   -4.8528    1.8825 N   0  0  0  0  0  0  0  0  0  0  0  0
    3.5827   -4.4218    1.3810 O   0  0  0  0  0  0  0  0  0  0  0  0
    4.1308   -5.5023    0.7698 C   0  0  0  0  0  0  0  0  0  0  0  0
    5.4864   -5.4092    0.1310 C   0  0  2  0  0  0  0  0  0  0  0  0
    6.5793   -6.0005    1.0372 C   0  0  0  0  0  0  0  0  0  0  0  0
    5.8714   -4.0567   -0.2632 N   0  0  0  0  0  0  0  0  0  0  0  0
    5.2560   -3.4575   -1.3768 C   0  0  0  0  0  0  0  0  0  0  0  0
    5.0137   -4.2312   -2.4484 N   0  0  0  0  0  0  0  0  0  0  0  0
    4.4935   -3.6546   -3.5270 C   0  0  0  0  0  0  0  0  0  0  0  0
    4.2153   -2.3690   -3.6887 N   0  0  0  0  0  0  0  0  0  0  0  0
    4.4419   -1.5761   -2.6272 C   0  0  0  0  0  0  0  0  0  0  0  0
    4.2022   -0.2264   -2.8466 N   0  0  0  0  0  0  0  0  0  0  0  0
    4.9652   -2.0724   -1.4086 C   0  0  0  0  0  0  0  0  0  0  0  0
    5.2226   -1.2107   -0.2588 C   0  0  0  0  0  0  0  0  0  0  0  0
    5.4374   -0.5362    0.6521 N   0  0  0  0  0  0  0  0  0  0  0  0
    3.3910   -6.6041    0.8723 N   0  0  0  0  0  0  0  0  0  0  0  0
    0.4909   -6.4882    2.6129 H   0  0  0  0  0  0  0  0  0  0  0  0
    1.5034   -7.9226    2.3641 H   0  0  0  0  0  0  0  0  0  0  0  0
    0.5738   -7.2308    1.0170 H   0  0  0  0  0  0  0  0  0  0  0  0
    5.4159   -6.0362   -0.7544 H   0  0  0  0  0  0  0  0  0  0  0  0
    6.3397   -7.0229    1.3262 H   0  0  0  0  0  0  0  0  0  0  0  0
    6.7075   -5.4227    1.9540 H   0  0  0  0  0  0  0  0  0  0  0  0
    7.5429   -6.0339    0.5271 H   0  0  0  0  0  0  0  0  0  0  0  0
    4.3161   -4.2834   -4.3868 H   0  0  0  0  0  0  0  0  0  0  0  0
    4.2470    0.4293   -2.0759 H   0  0  0  0  0  0  0  0  0  0  0  0
    3.6924    0.0857   -3.6642 H   0  0  0  0  0  0  0  0  0  0  0  0
    5.9800   -3.4358    0.5244 H   0  0  0  0  0  0  0  0  0  0  0  0
  1  2  1  0
  1 19  1  0
  1 20  1  0
  1 21  1  0
  2 18  1  0
  2  3  2  0
  3  4  1  0
  4  5  1  0
  5  6  1  0
  5 18  2  0
  6  7  1  0
  6  8  1  0
  6 22  1  6
  7 23  1  0
  7 24  1  0
  7 25  1  0
  8  9  1  0
  8 29  1  0
  9 15  1  0
  9 10  2  0
 10 11  1  0
 11 12  2  0
 11 26  1  0
 12 13  1  0
 13 14  1  0
 13 15  2  0
 14 27  1  0
 14 28  1  0
 15 16  1  0
 16 17  3  0
M  END
>  <i_m_ct_stereo_status>  (536) 
1

>  <s_m_source_file>  (536) 
/var/tmp/pbs.5102264.sched01/tmpp_sc680v/18465xhjztf.sdf

>  <i_m_source_file_index>  (536) 
8

>  <i_lp_mmshare_version>  (536) 
48012

>  <i_f3d_flags>  (536) 
0

>  <s_epik_input>  (536) 
W0NIM11jMW5vYyhuMSlbQ0BIXShbQ0gzXSkvTj1jMlxbbkhdW2NIXW5jKFtOSDJdKWMyQyNO

>  <s_epik_cmdline>  (536) 
J2VwaWtfcHl0aG9uJywgJy1waHQnLCAnMi4wJywgJy1waCcsICc3LjAnLCAnLXRuJywgJzgnLCAnLW1hJywgJzIwMCcsICctaW1hZScsICc8aW5maWxlLm1hZT4nLCAnLW9tYWUnLCAnPG91dGZpbGUubWFlPic=

>  <r_lp_tautomer_probability>  (536) 
1

>  <r_epik_Ionization_Penalty>  (536) 
0.000413157

>  <r_epik_Ionization_Penalty_Charging>  (536) 
0

>  <r_epik_Ionization_Penalty_Neutral>  (536) 
0.000413157

>  <r_epik_State_Penalty>  (536) 
-0

>  <r_epik_Charging_Adjusted_Penalty>  (536) 
0

>  <i_epik_Tot_Q>  (536) 
0

>  <i_epik_Tot_abs_Q>  (536) 
0

>  <s_lp_Force_Field>  (536) 
OPLS3e

>  <r_lp_Energy>  (536) 
12.7011

>  <b_lp_Chiralities_Consistent>  (536) 
1

>  <s_lp_Variant>  (536) 
114:0-1

>  <s_i_glide_gridfile>  (536) 
pfpi4k_grid

>  <i_i_glide_lignum>  (536) 
8

>  <i_i_glide_rotatable_bonds>  (536) 
4

>  <r_i_docking_score>  (536) 
-2.73429

>  <r_i_glide_ligand_efficiency>  (536) 
-0.151905

>  <r_i_glide_ligand_efficiency_sa>  (536) 
-0.398104

>  <r_i_glide_ligand_efficiency_ln>  (536) 
-0.702836

>  <r_i_glide_gscore>  (536) 
-2.73429

>  <r_i_glide_lipo>  (536) 
-0.27478

>  <r_i_glide_hbond>  (536) 
-0.149954

>  <r_i_glide_metal>  (536) 
-0

>  <r_i_glide_rewards>  (536) 
-1.86321

>  <r_i_glide_evdw>  (536) 
-23.7689

>  <r_i_glide_ecoul>  (536) 
-0.483504

>  <r_i_glide_erotb>  (536) 
0.868106

>  <r_i_glide_esite>  (536) 
-0.0534913

>  <r_i_glide_emodel>  (536) 
-26.7658

>  <r_i_glide_energy>  (536) 
-24.2524

>  <r_i_glide_einternal>  (536) 
4.26848

>  <r_i_glide_intrahb_reward>  (536) 
-0

>  <i_i_glide_confnum>  (536) 
6

>  <i_i_glide_posenum>  (536) 
15

>  <r_i_glide_eff_state_penalty>  (536) 
0

>  <ligand_id>  (536) 
114

>  <original_smiles>  (536) 
Cc1noc(C(C)N=c2[nH]cnc(N)c2C#N)n1

>  <smiles>  (536) 
[H]c1nc(N([H])[H])c(C#N)c(N([H])C([H])(c2nc(C([H])([H])[H])no2)C([H])([H])[H])n1

$$$$
114:0:2
     RDKit          3D

 29 30  0  0  1  0  0  0  0  0999 V2000
    2.9515   -1.4828   -4.1819 C   0  0  0  0  0  0  0  0  0  0  0  0
    3.8988   -1.5673   -3.0522 C   0  0  0  0  0  0  0  0  0  0  0  0
    4.4297   -0.4794   -2.5165 N   0  0  0  0  0  0  0  0  0  0  0  0
    5.2258   -0.9774   -1.4815 O   0  0  0  0  0  0  0  0  0  0  0  0
    5.1074   -2.3188   -1.5283 C   0  0  0  0  0  0  0  0  0  0  0  0
    5.9464   -3.1424   -0.5972 C   0  0  2  0  0  0  0  0  0  0  0  0
    7.4000   -3.1964   -1.1568 C   0  0  0  0  0  0  0  0  0  0  0  0
    5.3087   -4.4386   -0.3518 N   0  0  0  0  0  0  0  0  0  0  0  0
    5.8240   -5.4360    0.5078 C   0  0  0  0  0  0  0  0  0  0  0  0
    7.1517   -5.5091    0.6502 N   0  0  0  0  0  0  0  0  0  0  0  0
    7.6464   -6.4722    1.4114 C   0  0  0  0  0  0  0  0  0  0  0  0
    6.9579   -7.3699    2.0962 N   0  0  0  0  0  0  0  0  0  0  0  0
    5.6084   -7.3234    1.9968 C   0  0  0  0  0  0  0  0  0  0  0  0
    4.9248   -8.2617    2.7492 N   0  0  0  0  0  0  0  0  0  0  0  0
    4.9661   -6.3470    1.1687 C   0  0  0  0  0  0  0  0  0  0  0  0
    3.5003   -6.2933    1.0495 C   0  0  0  0  0  0  0  0  0  0  0  0
    2.3574   -6.2339    0.9463 N   0  0  0  0  0  0  0  0  0  0  0  0
    4.3201   -2.7514   -2.5195 N   0  0  0  0  0  0  0  0  0  0  0  0
    2.5943   -0.4609   -4.3402 H   0  0  0  0  0  0  0  0  0  0  0  0
    2.0943   -2.1362   -3.9971 H   0  0  0  0  0  0  0  0  0  0  0  0
    3.4425   -1.7875   -5.0966 H   0  0  0  0  0  0  0  0  0  0  0  0
    5.9548   -2.6273    0.3696 H   0  0  0  0  0  0  0  0  0  0  0  0
    7.7717   -2.1983   -1.3909 H   0  0  0  0  0  0  0  0  0  0  0  0
    7.4155   -3.7706   -2.0852 H   0  0  0  0  0  0  0  0  0  0  0  0
    8.1326   -3.6013   -0.4755 H   0  0  0  0  0  0  0  0  0  0  0  0
    8.7275   -6.5083    1.4995 H   0  0  0  0  0  0  0  0  0  0  0  0
    3.9141   -8.3319    2.7154 H   0  0  0  0  0  0  0  0  0  0  0  0
    5.4396   -8.9381    3.3066 H   0  0  0  0  0  0  0  0  0  0  0  0
    4.3120   -4.4444   -0.5268 H   0  0  0  0  0  0  0  0  0  0  0  0
  1  2  1  0
  1 19  1  0
  1 20  1  0
  1 21  1  0
  2 18  1  0
  2  3  2  0
  3  4  1  0
  4  5  1  0
  5  6  1  0
  5 18  2  0
  6  7  1  0
  6  8  1  0
  6 22  1  1
  7 23  1  0
  7 24  1  0
  7 25  1  0
  8  9  1  0
  8 29  1  0
  9 15  1  0
  9 10  2  0
 10 11  1  0
 11 12  2  0
 11 26  1  0
 12 13  1  0
 13 14  1  0
 13 15  2  0
 14 27  1  0
 14 28  1  0
 15 16  1  0
 16 17  3  0
M  END
>  <i_m_ct_stereo_status>  (537) 
1

>  <s_m_source_file>  (537) 
/var/tmp/pbs.5102264.sched01/tmpp_sc680v/18465xhjztf.sdf

>  <i_m_source_file_index>  (537) 
8

>  <i_lp_mmshare_version>  (537) 
48012

>  <i_f3d_flags>  (537) 
0

>  <s_epik_input>  (537) 
W0NIM11jMW5vYyhuMSlbQ0BIXShbQ0gzXSkvTj1jMlxbbkhdW2NIXW5jKFtOSDJdKWMyQyNO

>  <s_epik_cmdline>  (537) 
J2VwaWtfcHl0aG9uJywgJy1waHQnLCAnMi4wJywgJy1waCcsICc3LjAnLCAnLXRuJywgJzgnLCAnLW1hJywgJzIwMCcsICctaW1hZScsICc8aW5maWxlLm1hZT4nLCAnLW9tYWUnLCAnPG91dGZpbGUubWFlPic=

>  <r_lp_tautomer_probability>  (537) 
1

>  <r_epik_Ionization_Penalty>  (537) 
0.000413157

>  <r_epik_Ionization_Penalty_Charging>  (537) 
0

>  <r_epik_Ionization_Penalty_Neutral>  (537) 
0.000413157

>  <r_epik_State_Penalty>  (537) 
-0

>  <r_epik_Charging_Adjusted_Penalty>  (537) 
0

>  <i_epik_Tot_Q>  (537) 
0

>  <i_epik_Tot_abs_Q>  (537) 
0

>  <s_lp_Force_Field>  (537) 
OPLS3e

>  <r_lp_Energy>  (537) 
12.7011

>  <b_lp_Chiralities_Consistent>  (537) 
1

>  <s_lp_Variant>  (537) 
114:0-1

>  <s_i_glide_gridfile>  (537) 
pfpi4k_grid

>  <i_i_glide_lignum>  (537) 
8

>  <i_i_glide_rotatable_bonds>  (537) 
4

>  <r_i_docking_score>  (537) 
-2.62772

>  <r_i_glide_ligand_efficiency>  (537) 
-0.145985

>  <r_i_glide_ligand_efficiency_sa>  (537) 
-0.382588

>  <r_i_glide_ligand_efficiency_ln>  (537) 
-0.675443

>  <r_i_glide_gscore>  (537) 
-2.62772

>  <r_i_glide_lipo>  (537) 
-0.357247

>  <r_i_glide_hbond>  (537) 
0

>  <r_i_glide_metal>  (537) 
-0

>  <r_i_glide_rewards>  (537) 
-1.84571

>  <r_i_glide_evdw>  (537) 
-24.2298

>  <r_i_glide_ecoul>  (537) 
-0.114403

>  <r_i_glide_erotb>  (537) 
0.868106

>  <r_i_glide_esite>  (537) 
-0.064218

>  <r_i_glide_emodel>  (537) 
-26.9752

>  <r_i_glide_energy>  (537) 
-24.3442

>  <r_i_glide_einternal>  (537) 
3.2288

>  <r_i_glide_intrahb_reward>  (537) 
-0

>  <i_i_glide_confnum>  (537) 
2

>  <i_i_glide_posenum>  (537) 
1

>  <r_i_glide_eff_state_penalty>  (537) 
0

>  <ligand_id>  (537) 
114

>  <original_smiles>  (537) 
Cc1noc(C(C)N=c2[nH]cnc(N)c2C#N)n1

>  <smiles>  (537) 
[H]c1nc(N([H])[H])c(C#N)c(N([H])C([H])(c2nc(C([H])([H])[H])no2)C([H])([H])[H])n1

$$$$
115:0:0
     RDKit          3D

 36 39  0  0  1  0  0  0  0  0999 V2000
   -8.1702   -5.1352   -7.9767 C   0  0  0  0  0  0  0  0  0  0  0  0
   -8.0277   -5.9208   -6.6842 C   0  0  2  0  0  0  0  0  0  0  0  0
   -8.8571   -5.4219   -5.5215 C   0  0  0  0  0  0  0  0  0  0  0  0
   -8.2171   -4.2091   -4.8228 C   0  0  0  0  0  0  0  0  0  0  0  0
   -6.7643   -4.4712   -4.3517 C   0  0  0  0  0  0  0  0  0  0  0  0
   -5.8744   -4.9754   -5.5028 C   0  0  0  0  0  0  0  0  0  0  0  0
   -6.6336   -6.0138   -6.1974 N   0  0  0  0  0  0  0  0  0  0  0  0
   -6.6246   -7.4018   -6.3139 C   0  0  0  0  0  0  0  0  0  0  0  0
   -5.8704   -8.3121   -6.0303 O   0  0  0  0  0  0  0  0  0  0  0  0
   -7.9473   -7.3941   -6.8656 C   0  0  0  0  0  0  0  0  0  0  0  0
   -8.8020   -8.3159   -7.3771 C   0  0  0  0  0  0  0  0  0  0  0  0
   -8.6307   -9.7495   -7.5235 C   0  0  0  0  0  0  0  0  0  0  0  0
   -7.5247  -10.6449   -7.3062 C   0  0  0  0  0  0  0  0  0  0  0  0
   -7.7646  -11.9432   -7.5480 N   0  0  0  0  0  0  0  0  0  0  0  0
   -9.0528  -11.9905   -7.9420 N   0  0  0  0  0  0  0  0  0  0  0  0
   -9.7488  -13.1418   -8.3103 C   0  0  0  0  0  0  0  0  0  0  0  0
  -11.0943  -12.8479   -8.6806 C   0  0  0  0  0  0  0  0  0  0  0  0
  -11.6781  -11.6335   -8.6934 N   0  0  0  0  0  0  0  0  0  0  0  0
  -10.9530  -10.5483   -8.3192 C   0  0  0  0  0  0  0  0  0  0  0  0
   -9.5980  -10.7209   -7.9365 C   0  0  0  0  0  0  0  0  0  0  0  0
   -9.1885   -5.2388   -8.3410 H   0  0  0  0  0  0  0  0  0  0  0  0
   -7.5002   -5.5112   -8.7569 H   0  0  0  0  0  0  0  0  0  0  0  0
   -7.9646   -4.0738   -7.8189 H   0  0  0  0  0  0  0  0  0  0  0  0
   -9.8703   -5.2054   -5.8580 H   0  0  0  0  0  0  0  0  0  0  0  0
   -8.9063   -6.2070   -4.7704 H   0  0  0  0  0  0  0  0  0  0  0  0
   -8.2431   -3.3532   -5.5005 H   0  0  0  0  0  0  0  0  0  0  0  0
   -8.8360   -3.9671   -3.9623 H   0  0  0  0  0  0  0  0  0  0  0  0
   -6.3345   -3.5658   -3.9152 H   0  0  0  0  0  0  0  0  0  0  0  0
   -6.7834   -5.2294   -3.5678 H   0  0  0  0  0  0  0  0  0  0  0  0
   -5.7093   -4.1380   -6.1879 H   0  0  0  0  0  0  0  0  0  0  0  0
   -4.8959   -5.3157   -5.1425 H   0  0  0  0  0  0  0  0  0  0  0  0
   -9.7233   -7.8578   -7.7025 H   0  0  0  0  0  0  0  0  0  0  0  0
   -6.5370  -10.3799   -6.9747 H   0  0  0  0  0  0  0  0  0  0  0  0
   -9.3007  -14.1229   -8.3152 H   0  0  0  0  0  0  0  0  0  0  0  0
  -11.7560  -13.6519   -8.9896 H   0  0  0  0  0  0  0  0  0  0  0  0
  -11.4465   -9.5837   -8.3343 H   0  0  0  0  0  0  0  0  0  0  0  0
  2  1  1  6
  1 21  1  0
  1 22  1  0
  1 23  1  0
  2  7  1  0
  2 10  1  0
  2  3  1  0
  3  4  1  0
  3 24  1  0
  3 25  1  0
  4  5  1  0
  4 26  1  0
  4 27  1  0
  5  6  1  0
  5 28  1  0
  5 29  1  0
  6  7  1  0
  6 30  1  0
  6 31  1  0
  7  8  1  0
  8  9  2  0
  8 10  1  0
 10 11  2  3
 11 12  1  0
 11 32  1  0
 12 20  2  0
 12 13  1  0
 13 14  2  0
 13 33  1  0
 14 15  1  0
 15 20  1  0
 15 16  1  0
 16 17  2  0
 16 34  1  0
 17 18  1  0
 17 35  1  0
 18 19  2  0
 19 20  1  0
 19 36  1  0
M  END
>  <i_m_ct_stereo_status>  (538) 
1

>  <s_m_source_file>  (538) 
/var/tmp/pbs.5102264.sched01/tmpp_sc680v/18465xhjztf.sdf

>  <i_m_source_file_index>  (538) 
9

>  <i_lp_mmshare_version>  (538) 
48012

>  <i_f3d_flags>  (538) 
0

>  <s_epik_input>  (538) 
W0NIMl0xW0NIMl1bQ0gyXVtDSDJdTihbQ0BdMTJbQ0gzXSlDKD1PKUNcMj1bQ0hdL2MoW2NIXW4zKWMobjM0KVtjSF1uW2NIXVtjSF00

>  <s_epik_cmdline>  (538) 
J2VwaWtfcHl0aG9uJywgJy1waHQnLCAnMi4wJywgJy1waCcsICc3LjAnLCAnLXRuJywgJzgnLCAnLW1hJywgJzIwMCcsICctaW1hZScsICc8aW5maWxlLm1hZT4nLCAnLW9tYWUnLCAnPG91dGZpbGUubWFlPic=

>  <r_lp_tautomer_probability>  (538) 
1

>  <r_epik_Ionization_Penalty>  (538) 
0.000172229

>  <r_epik_Ionization_Penalty_Charging>  (538) 
0

>  <r_epik_Ionization_Penalty_Neutral>  (538) 
0.000172229

>  <r_epik_State_Penalty>  (538) 
-0

>  <r_epik_Charging_Adjusted_Penalty>  (538) 
0

>  <i_epik_Tot_Q>  (538) 
0

>  <i_epik_Tot_abs_Q>  (538) 
0

>  <s_lp_Force_Field>  (538) 
OPLS3e

>  <r_lp_Energy>  (538) 
23.086

>  <b_lp_Chiralities_Consistent>  (538) 
1

>  <s_lp_Variant>  (538) 
115:0-1

>  <s_i_glide_gridfile>  (538) 
pfpi4k_grid

>  <i_i_glide_lignum>  (538) 
9

>  <i_i_glide_rotatable_bonds>  (538) 
1

>  <r_i_docking_score>  (538) 
-5.23794

>  <r_i_glide_ligand_efficiency>  (538) 
-0.261897

>  <r_i_glide_ligand_efficiency_sa>  (538) 
-0.710898

>  <r_i_glide_ligand_efficiency_ln>  (538) 
-1.31088

>  <r_i_glide_gscore>  (538) 
-5.23794

>  <r_i_glide_lipo>  (538) 
-2.01301

>  <r_i_glide_hbond>  (538) 
0

>  <r_i_glide_metal>  (538) 
-0

>  <r_i_glide_rewards>  (538) 
-2.22796

>  <r_i_glide_evdw>  (538) 
-20.9337

>  <r_i_glide_ecoul>  (538) 
0.331414

>  <r_i_glide_erotb>  (538) 
0

>  <r_i_glide_esite>  (538) 
0

>  <r_i_glide_emodel>  (538) 
-28.8032

>  <r_i_glide_energy>  (538) 
-20.6023

>  <r_i_glide_einternal>  (538) 
0.0985503

>  <r_i_glide_intrahb_reward>  (538) 
-0

>  <i_i_glide_confnum>  (538) 
1

>  <i_i_glide_posenum>  (538) 
3

>  <r_i_glide_eff_state_penalty>  (538) 
0

>  <ligand_id>  (538) 
115

>  <original_smiles>  (538) 
CC12CCCCN1C(=O)C2=Cc1cnn2ccncc12

>  <smiles>  (538) 
[H]C(=C1C(=O)N2C([H])([H])C([H])([H])C([H])([H])C([H])([H])C12C([H])([H])[H])c1c([H])nn2c([H])c([H])nc([H])c12

$$$$
115:0:1
     RDKit          3D

 36 39  0  0  1  0  0  0  0  0999 V2000
    2.2311    2.1144    3.0365 C   0  0  0  0  0  0  0  0  0  0  0  0
    1.2354    0.9920    2.7697 C   0  0  2  0  0  0  0  0  0  0  0  0
   -0.0481    1.3869    2.0442 C   0  0  0  0  0  0  0  0  0  0  0  0
   -1.0712    2.0224    3.0132 C   0  0  0  0  0  0  0  0  0  0  0  0
   -1.3755    1.1196    4.2409 C   0  0  0  0  0  0  0  0  0  0  0  0
   -0.1013    0.6935    5.0020 C   0  0  0  0  0  0  0  0  0  0  0  0
    0.8704    0.2690    3.9948 N   0  0  0  0  0  0  0  0  0  0  0  0
    1.3837   -0.9325    3.5174 C   0  0  0  0  0  0  0  0  0  0  0  0
    1.3791   -2.0975    3.8541 O   0  0  0  0  0  0  0  0  0  0  0  0
    1.8710   -0.2787    2.3285 C   0  0  0  0  0  0  0  0  0  0  0  0
    2.6186   -0.6407    1.2583 C   0  0  0  0  0  0  0  0  0  0  0  0
    3.2106   -1.9003    0.9118 C   0  0  0  0  0  0  0  0  0  0  0  0
    3.2632   -3.1750    1.5862 C   0  0  0  0  0  0  0  0  0  0  0  0
    3.9019   -4.1643    0.9227 N   0  0  0  0  0  0  0  0  0  0  0  0
    4.3096   -3.5903   -0.2324 N   0  0  0  0  0  0  0  0  0  0  0  0
    5.0219   -4.2378   -1.2439 C   0  0  0  0  0  0  0  0  0  0  0  0
    5.3176   -3.3569   -2.3215 C   0  0  0  0  0  0  0  0  0  0  0  0
    4.9709   -2.0506   -2.4182 N   0  0  0  0  0  0  0  0  0  0  0  0
    4.2662   -1.4929   -1.4138 C   0  0  0  0  0  0  0  0  0  0  0  0
    3.9283   -2.2757   -0.2773 C   0  0  0  0  0  0  0  0  0  0  0  0
    2.5879    2.5099    2.0873 H   0  0  0  0  0  0  0  0  0  0  0  0
    3.0950    1.7711    3.6082 H   0  0  0  0  0  0  0  0  0  0  0  0
    1.7565    2.9296    3.5853 H   0  0  0  0  0  0  0  0  0  0  0  0
    0.1922    2.0665    1.2303 H   0  0  0  0  0  0  0  0  0  0  0  0
   -0.5068    0.5132    1.5790 H   0  0  0  0  0  0  0  0  0  0  0  0
   -0.6771    2.9777    3.3586 H   0  0  0  0  0  0  0  0  0  0  0  0
   -1.9915    2.2375    2.4702 H   0  0  0  0  0  0  0  0  0  0  0  0
   -2.0765    1.6220    4.9092 H   0  0  0  0  0  0  0  0  0  0  0  0
   -1.8708    0.2179    3.8805 H   0  0  0  0  0  0  0  0  0  0  0  0
    0.3120    1.5535    5.5356 H   0  0  0  0  0  0  0  0  0  0  0  0
   -0.3095   -0.0825    5.7470 H   0  0  0  0  0  0  0  0  0  0  0  0
    2.7563    0.1992    0.5768 H   0  0  0  0  0  0  0  0  0  0  0  0
    2.8479   -3.4269    2.5383 H   0  0  0  0  0  0  0  0  0  0  0  0
    5.3091   -5.2722   -1.1764 H   0  0  0  0  0  0  0  0  0  0  0  0
    5.8767   -3.7351   -3.1689 H   0  0  0  0  0  0  0  0  0  0  0  0
    3.9933   -0.4474   -1.5189 H   0  0  0  0  0  0  0  0  0  0  0  0
  2  1  1  1
  1 21  1  0
  1 22  1  0
  1 23  1  0
  2  7  1  0
  2 10  1  0
  2  3  1  0
  3  4  1  0
  3 24  1  0
  3 25  1  0
  4  5  1  0
  4 26  1  0
  4 27  1  0
  5  6  1  0
  5 28  1  0
  5 29  1  0
  6  7  1  0
  6 30  1  0
  6 31  1  0
  7  8  1  0
  8  9  2  0
  8 10  1  0
 10 11  2  3
 11 12  1  0
 11 32  1  0
 12 20  2  0
 12 13  1  0
 13 14  2  0
 13 33  1  0
 14 15  1  0
 15 20  1  0
 15 16  1  0
 16 17  2  0
 16 34  1  0
 17 18  1  0
 17 35  1  0
 18 19  2  0
 19 20  1  0
 19 36  1  0
M  END
>  <i_m_ct_stereo_status>  (539) 
1

>  <s_m_source_file>  (539) 
/var/tmp/pbs.5102264.sched01/tmpp_sc680v/18465xhjztf.sdf

>  <i_m_source_file_index>  (539) 
9

>  <i_lp_mmshare_version>  (539) 
48012

>  <i_f3d_flags>  (539) 
0

>  <s_epik_input>  (539) 
W0NIMl0xW0NIMl1bQ0gyXVtDSDJdTihbQ0BdMTJbQ0gzXSlDKD1PKUNcMj1bQ0hdL2MoW2NIXW4zKWMobjM0KVtjSF1uW2NIXVtjSF00

>  <s_epik_cmdline>  (539) 
J2VwaWtfcHl0aG9uJywgJy1waHQnLCAnMi4wJywgJy1waCcsICc3LjAnLCAnLXRuJywgJzgnLCAnLW1hJywgJzIwMCcsICctaW1hZScsICc8aW5maWxlLm1hZT4nLCAnLW9tYWUnLCAnPG91dGZpbGUubWFlPic=

>  <r_lp_tautomer_probability>  (539) 
1

>  <r_epik_Ionization_Penalty>  (539) 
0.000172229

>  <r_epik_Ionization_Penalty_Charging>  (539) 
0

>  <r_epik_Ionization_Penalty_Neutral>  (539) 
0.000172229

>  <r_epik_State_Penalty>  (539) 
-0

>  <r_epik_Charging_Adjusted_Penalty>  (539) 
0

>  <i_epik_Tot_Q>  (539) 
0

>  <i_epik_Tot_abs_Q>  (539) 
0

>  <s_lp_Force_Field>  (539) 
OPLS3e

>  <r_lp_Energy>  (539) 
23.086

>  <b_lp_Chiralities_Consistent>  (539) 
1

>  <s_lp_Variant>  (539) 
115:0-1

>  <s_i_glide_gridfile>  (539) 
pfpi4k_grid

>  <i_i_glide_lignum>  (539) 
9

>  <i_i_glide_rotatable_bonds>  (539) 
1

>  <r_i_docking_score>  (539) 
-3.08944

>  <r_i_glide_ligand_efficiency>  (539) 
-0.154472

>  <r_i_glide_ligand_efficiency_sa>  (539) 
-0.419302

>  <r_i_glide_ligand_efficiency_ln>  (539) 
-0.773186

>  <r_i_glide_gscore>  (539) 
-3.08944

>  <r_i_glide_lipo>  (539) 
-0.200944

>  <r_i_glide_hbond>  (539) 
0

>  <r_i_glide_metal>  (539) 
-0

>  <r_i_glide_rewards>  (539) 
-1.61154

>  <r_i_glide_evdw>  (539) 
-22.5195

>  <r_i_glide_ecoul>  (539) 
-0.90733

>  <r_i_glide_erotb>  (539) 
0

>  <r_i_glide_esite>  (539) 
-0.0148788

>  <r_i_glide_emodel>  (539) 
-28.2051

>  <r_i_glide_energy>  (539) 
-23.4269

>  <r_i_glide_einternal>  (539) 
0.0369309

>  <r_i_glide_intrahb_reward>  (539) 
-0

>  <i_i_glide_confnum>  (539) 
1

>  <i_i_glide_posenum>  (539) 
20

>  <r_i_glide_eff_state_penalty>  (539) 
0

>  <ligand_id>  (539) 
115

>  <original_smiles>  (539) 
CC12CCCCN1C(=O)C2=Cc1cnn2ccncc12

>  <smiles>  (539) 
[H]C(=C1C(=O)N2C([H])([H])C([H])([H])C([H])([H])C([H])([H])C12C([H])([H])[H])c1c([H])nn2c([H])c([H])nc([H])c12

$$$$
115:0:2
     RDKit          3D

 36 39  0  0  1  0  0  0  0  0999 V2000
    1.7850    2.3814    3.0417 C   0  0  0  0  0  0  0  0  0  0  0  0
    0.6385    1.3740    3.0116 C   0  0  2  0  0  0  0  0  0  0  0  0
   -0.5530    1.7272    2.1334 C   0  0  0  0  0  0  0  0  0  0  0  0
   -1.4946    2.7364    2.8424 C   0  0  0  0  0  0  0  0  0  0  0  0
   -1.9590    2.2411    4.2366 C   0  0  0  0  0  0  0  0  0  0  0  0
   -0.7795    1.8638    5.1605 C   0  0  0  0  0  0  0  0  0  0  0  0
    0.1433    1.0582    4.3565 N   0  0  0  0  0  0  0  0  0  0  0  0
    0.4821   -0.2821    4.2422 C   0  0  0  0  0  0  0  0  0  0  0  0
    0.2968   -1.3057    4.8680 O   0  0  0  0  0  0  0  0  0  0  0  0
    1.0969   -0.0434    2.9530 C   0  0  0  0  0  0  0  0  0  0  0  0
    1.8104   -0.7649    2.0651 C   0  0  0  0  0  0  0  0  0  0  0  0
    2.2118   -2.1520    2.0918 C   0  0  0  0  0  0  0  0  0  0  0  0
    1.9420   -3.2253    3.0107 C   0  0  0  0  0  0  0  0  0  0  0  0
    2.4669   -4.4271    2.6783 N   0  0  0  0  0  0  0  0  0  0  0  0
    3.1450   -4.2003    1.5340 N   0  0  0  0  0  0  0  0  0  0  0  0
    3.8817   -5.1503    0.8217 C   0  0  0  0  0  0  0  0  0  0  0  0
    4.4778   -4.5912   -0.3339 C   0  0  0  0  0  0  0  0  0  0  0  0
    4.3808   -3.3054   -0.7601 N   0  0  0  0  0  0  0  0  0  0  0  0
    3.6479   -2.4439   -0.0369 C   0  0  0  0  0  0  0  0  0  0  0  0
    3.0155   -2.8775    1.1563 C   0  0  0  0  0  0  0  0  0  0  0  0
    2.2176    2.4588    2.0459 H   0  0  0  0  0  0  0  0  0  0  0  0
    2.5724    2.0919    3.7346 H   0  0  0  0  0  0  0  0  0  0  0  0
    1.4201    3.3720    3.3283 H   0  0  0  0  0  0  0  0  0  0  0  0
   -0.1944    2.1292    1.1887 H   0  0  0  0  0  0  0  0  0  0  0  0
   -1.1298    0.8356    1.8777 H   0  0  0  0  0  0  0  0  0  0  0  0
   -0.9701    3.6855    2.9490 H   0  0  0  0  0  0  0  0  0  0  0  0
   -2.3596    2.9202    2.2086 H   0  0  0  0  0  0  0  0  0  0  0  0
   -2.5920    2.9932    4.7113 H   0  0  0  0  0  0  0  0  0  0  0  0
   -2.5798    1.3583    4.0857 H   0  0  0  0  0  0  0  0  0  0  0  0
   -0.2537    2.7697    5.4771 H   0  0  0  0  0  0  0  0  0  0  0  0
   -1.1157    1.3502    6.0670 H   0  0  0  0  0  0  0  0  0  0  0  0
    2.0893   -0.1581    1.2003 H   0  0  0  0  0  0  0  0  0  0  0  0
    1.3516   -3.1918    3.9024 H   0  0  0  0  0  0  0  0  0  0  0  0
    3.9631   -6.1800    1.1415 H   0  0  0  0  0  0  0  0  0  0  0  0
    5.0634   -5.2310   -0.9914 H   0  0  0  0  0  0  0  0  0  0  0  0
    3.5717   -1.4164   -0.3997 H   0  0  0  0  0  0  0  0  0  0  0  0
  2  1  1  1
  1 21  1  0
  1 22  1  0
  1 23  1  0
  2  7  1  0
  2 10  1  0
  2  3  1  0
  3  4  1  0
  3 24  1  0
  3 25  1  0
  4  5  1  0
  4 26  1  0
  4 27  1  0
  5  6  1  0
  5 28  1  0
  5 29  1  0
  6  7  1  0
  6 30  1  0
  6 31  1  0
  7  8  1  0
  8  9  2  0
  8 10  1  0
 10 11  2  3
 11 12  1  0
 11 32  1  0
 12 20  2  0
 12 13  1  0
 13 14  2  0
 13 33  1  0
 14 15  1  0
 15 20  1  0
 15 16  1  0
 16 17  2  0
 16 34  1  0
 17 18  1  0
 17 35  1  0
 18 19  2  0
 19 20  1  0
 19 36  1  0
M  END
>  <i_m_ct_stereo_status>  (540) 
1

>  <s_m_source_file>  (540) 
/var/tmp/pbs.5102264.sched01/tmpp_sc680v/18465xhjztf.sdf

>  <i_m_source_file_index>  (540) 
9

>  <i_lp_mmshare_version>  (540) 
48012

>  <i_f3d_flags>  (540) 
0

>  <s_epik_input>  (540) 
W0NIMl0xW0NIMl1bQ0gyXVtDSDJdTihbQ0BdMTJbQ0gzXSlDKD1PKUNcMj1bQ0hdL2MoW2NIXW4zKWMobjM0KVtjSF1uW2NIXVtjSF00

>  <s_epik_cmdline>  (540) 
J2VwaWtfcHl0aG9uJywgJy1waHQnLCAnMi4wJywgJy1waCcsICc3LjAnLCAnLXRuJywgJzgnLCAnLW1hJywgJzIwMCcsICctaW1hZScsICc8aW5maWxlLm1hZT4nLCAnLW9tYWUnLCAnPG91dGZpbGUubWFlPic=

>  <r_lp_tautomer_probability>  (540) 
1

>  <r_epik_Ionization_Penalty>  (540) 
0.000172229

>  <r_epik_Ionization_Penalty_Charging>  (540) 
0

>  <r_epik_Ionization_Penalty_Neutral>  (540) 
0.000172229

>  <r_epik_State_Penalty>  (540) 
-0

>  <r_epik_Charging_Adjusted_Penalty>  (540) 
0

>  <i_epik_Tot_Q>  (540) 
0

>  <i_epik_Tot_abs_Q>  (540) 
0

>  <s_lp_Force_Field>  (540) 
OPLS3e

>  <r_lp_Energy>  (540) 
23.086

>  <b_lp_Chiralities_Consistent>  (540) 
1

>  <s_lp_Variant>  (540) 
115:0-1

>  <s_i_glide_gridfile>  (540) 
pfpi4k_grid

>  <i_i_glide_lignum>  (540) 
9

>  <i_i_glide_rotatable_bonds>  (540) 
1

>  <r_i_docking_score>  (540) 
-2.83729

>  <r_i_glide_ligand_efficiency>  (540) 
-0.141865

>  <r_i_glide_ligand_efficiency_sa>  (540) 
-0.38508

>  <r_i_glide_ligand_efficiency_ln>  (540) 
-0.710081

>  <r_i_glide_gscore>  (540) 
-2.83729

>  <r_i_glide_lipo>  (540) 
-0.0180782

>  <r_i_glide_hbond>  (540) 
0

>  <r_i_glide_metal>  (540) 
-0

>  <r_i_glide_rewards>  (540) 
-1.58116

>  <r_i_glide_evdw>  (540) 
-19.7807

>  <r_i_glide_ecoul>  (540) 
-1.52285

>  <r_i_glide_erotb>  (540) 
0

>  <r_i_glide_esite>  (540) 
-0.020589

>  <r_i_glide_emodel>  (540) 
-25.6256

>  <r_i_glide_energy>  (540) 
-21.3035

>  <r_i_glide_einternal>  (540) 
0.0199244

>  <r_i_glide_intrahb_reward>  (540) 
-0

>  <i_i_glide_confnum>  (540) 
2

>  <i_i_glide_posenum>  (540) 
30

>  <r_i_glide_eff_state_penalty>  (540) 
0

>  <ligand_id>  (540) 
115

>  <original_smiles>  (540) 
CC12CCCCN1C(=O)C2=Cc1cnn2ccncc12

>  <smiles>  (540) 
[H]C(=C1C(=O)N2C([H])([H])C([H])([H])C([H])([H])C([H])([H])C12C([H])([H])[H])c1c([H])nn2c([H])c([H])nc([H])c12

$$$$
115:1:0
     RDKit          3D

 36 39  0  0  1  0  0  0  0  0999 V2000
   -7.7300   -5.6404   -7.9770 C   0  0  0  0  0  0  0  0  0  0  0  0
   -7.6740   -6.2038   -6.5409 C   0  0  2  0  0  0  0  0  0  0  0  0
   -8.7172   -5.6006   -5.6027 C   0  0  0  0  0  0  0  0  0  0  0  0
   -8.3523   -4.1998   -5.1090 C   0  0  0  0  0  0  0  0  0  0  0  0
   -6.9443   -4.1518   -4.4799 C   0  0  0  0  0  0  0  0  0  0  0  0
   -5.8670   -4.6956   -5.4101 C   0  0  0  0  0  0  0  0  0  0  0  0
   -6.3763   -5.9557   -5.8921 N   0  0  0  0  0  0  0  0  0  0  0  0
   -6.1191   -7.3015   -5.6662 C   0  0  0  0  0  0  0  0  0  0  0  0
   -5.2856   -7.9473   -5.0853 O   0  0  0  0  0  0  0  0  0  0  0  0
   -7.3195   -7.6817   -6.3600 C   0  0  0  0  0  0  0  0  0  0  0  0
   -7.8401   -8.8933   -6.7527 C   0  0  0  0  0  0  0  0  0  0  0  0
   -9.0769   -8.9774   -7.5204 C   0  0  0  0  0  0  0  0  0  0  0  0
   -9.9735   -7.9267   -7.9971 C   0  0  0  0  0  0  0  0  0  0  0  0
  -11.0460   -8.3218   -8.6917 N   0  0  0  0  0  0  0  0  0  0  0  0
  -11.0530   -9.6519   -8.5976 N   0  0  0  0  0  0  0  0  0  0  0  0
  -12.0678  -10.4553   -9.0877 C   0  0  0  0  0  0  0  0  0  0  0  0
  -11.7663  -11.8098   -8.7799 C   0  0  0  0  0  0  0  0  0  0  0  0
  -10.7018  -12.3108   -8.1063 N   0  0  0  0  0  0  0  0  0  0  0  0
   -9.7728  -11.4516   -7.6454 C   0  0  0  0  0  0  0  0  0  0  0  0
   -9.9218  -10.0794   -7.9234 C   0  0  0  0  0  0  0  0  0  0  0  0
   -8.5732   -5.8045   -8.6011 H   0  0  0  0  0  0  0  0  0  0  0  0
   -6.9938   -6.1542   -8.5909 H   0  0  0  0  0  0  0  0  0  0  0  0
   -7.6894   -4.5455   -7.9541 H   0  0  0  0  0  0  0  0  0  0  0  0
   -9.6807   -5.5584   -6.1031 H   0  0  0  0  0  0  0  0  0  0  0  0
   -8.8088   -6.2352   -4.7167 H   0  0  0  0  0  0  0  0  0  0  0  0
   -8.4153   -3.5039   -5.9375 H   0  0  0  0  0  0  0  0  0  0  0  0
   -9.0971   -3.8717   -4.3916 H   0  0  0  0  0  0  0  0  0  0  0  0
   -6.6798   -3.1318   -4.2274 H   0  0  0  0  0  0  0  0  0  0  0  0
   -6.9550   -4.7293   -3.5541 H   0  0  0  0  0  0  0  0  0  0  0  0
   -5.7458   -4.0246   -6.2570 H   0  0  0  0  0  0  0  0  0  0  0  0
   -4.9021   -4.7898   -4.9204 H   0  0  0  0  0  0  0  0  0  0  0  0
   -7.3109   -9.8266   -6.5075 H   0  0  0  0  0  0  0  0  0  0  0  0
  -10.0133   -6.8702   -7.8007 H   0  0  0  0  0  0  0  0  0  0  0  0
  -12.8990   -9.9939   -9.6253 H   0  0  0  0  0  0  0  0  0  0  0  0
  -12.4897  -12.5046   -9.1387 H   0  0  0  0  0  0  0  0  0  0  0  0
   -8.9439  -11.8569   -7.1055 H   0  0  0  0  0  0  0  0  0  0  0  0
  2  1  1  6
  1 21  1  0
  1 22  1  0
  1 23  1  0
  2  7  1  0
  2 10  1  0
  2  3  1  0
  3  4  1  0
  3 24  1  0
  3 25  1  0
  4  5  1  0
  4 26  1  0
  4 27  1  0
  5  6  1  0
  5 28  1  0
  5 29  1  0
  6  7  1  0
  6 30  1  0
  6 31  1  0
  7  8  1  0
  8  9  2  0
  8 10  1  0
 10 11  2  3
 11 12  1  0
 11 32  1  0
 12 20  2  0
 12 13  1  0
 13 14  2  0
 13 33  1  0
 14 15  1  0
 15 20  1  0
 15 16  1  0
 16 17  2  0
 16 34  1  0
 17 18  1  0
 17 35  1  0
 18 19  2  0
 19 20  1  0
 19 36  1  0
M  END
>  <i_m_ct_stereo_status>  (541) 
1

>  <s_m_source_file>  (541) 
/var/tmp/pbs.5102264.sched01/tmpp_sc680v/18465xhjztf.sdf

>  <i_m_source_file_index>  (541) 
10

>  <i_lp_mmshare_version>  (541) 
48012

>  <i_f3d_flags>  (541) 
0

>  <s_epik_input>  (541) 
W0NIMl0xW0NIMl1bQ0gyXVtDSDJdTihbQ0BdMTJbQ0gzXSlDKD1PKUNcMj1bQ0hdL2MoW2NIXW4zKWMobjM0KVtjSF1uW2NIXVtjSF00

>  <s_epik_cmdline>  (541) 
J2VwaWtfcHl0aG9uJywgJy1waHQnLCAnMi4wJywgJy1waCcsICc3LjAnLCAnLXRuJywgJzgnLCAnLW1hJywgJzIwMCcsICctaW1hZScsICc8aW5maWxlLm1hZT4nLCAnLW9tYWUnLCAnPG91dGZpbGUubWFlPic=

>  <r_lp_tautomer_probability>  (541) 
1

>  <r_epik_Ionization_Penalty>  (541) 
0.000172229

>  <r_epik_Ionization_Penalty_Charging>  (541) 
0

>  <r_epik_Ionization_Penalty_Neutral>  (541) 
0.000172229

>  <r_epik_State_Penalty>  (541) 
-0

>  <r_epik_Charging_Adjusted_Penalty>  (541) 
0

>  <i_epik_Tot_Q>  (541) 
0

>  <i_epik_Tot_abs_Q>  (541) 
0

>  <s_lp_Force_Field>  (541) 
OPLS3e

>  <r_lp_Energy>  (541) 
25.2172

>  <b_lp_Chiralities_Consistent>  (541) 
1

>  <s_lp_Variant>  (541) 
115:0-2

>  <s_i_glide_gridfile>  (541) 
pfpi4k_grid

>  <i_i_glide_lignum>  (541) 
10

>  <i_i_glide_rotatable_bonds>  (541) 
1

>  <r_i_docking_score>  (541) 
-4.98889

>  <r_i_glide_ligand_efficiency>  (541) 
-0.249445

>  <r_i_glide_ligand_efficiency_sa>  (541) 
-0.677097

>  <r_i_glide_ligand_efficiency_ln>  (541) 
-1.24856

>  <r_i_glide_gscore>  (541) 
-4.98889

>  <r_i_glide_lipo>  (541) 
-2.05734

>  <r_i_glide_hbond>  (541) 
0

>  <r_i_glide_metal>  (541) 
-0

>  <r_i_glide_rewards>  (541) 
-2.28256

>  <r_i_glide_evdw>  (541) 
-15.2434

>  <r_i_glide_ecoul>  (541) 
0.79733

>  <r_i_glide_erotb>  (541) 
0

>  <r_i_glide_esite>  (541) 
-0.00642417

>  <r_i_glide_emodel>  (541) 
-18.0385

>  <r_i_glide_energy>  (541) 
-14.446

>  <r_i_glide_einternal>  (541) 
0.071833

>  <r_i_glide_intrahb_reward>  (541) 
-0

>  <i_i_glide_confnum>  (541) 
2

>  <i_i_glide_posenum>  (541) 
12

>  <r_i_glide_eff_state_penalty>  (541) 
0

>  <ligand_id>  (541) 
115

>  <original_smiles>  (541) 
CC12CCCCN1C(=O)C2=Cc1cnn2ccncc12

>  <smiles>  (541) 
[H]C(=C1C(=O)N2C([H])([H])C([H])([H])C([H])([H])C([H])([H])C12C([H])([H])[H])c1c([H])nn2c([H])c([H])nc([H])c12

$$$$
115:1:1
     RDKit          3D

 36 39  0  0  1  0  0  0  0  0999 V2000
    1.6589    2.7748    4.4425 C   0  0  0  0  0  0  0  0  0  0  0  0
    0.9926    1.3858    4.4060 C   0  0  2  0  0  0  0  0  0  0  0  0
    1.0931    0.6046    3.0718 C   0  0  0  0  0  0  0  0  0  0  0  0
    0.1295    1.1475    1.9968 C   0  0  0  0  0  0  0  0  0  0  0  0
   -1.3391    1.1868    2.4743 C   0  0  0  0  0  0  0  0  0  0  0  0
   -1.5005    1.9726    3.7909 C   0  0  0  0  0  0  0  0  0  0  0  0
   -0.4528    1.5022    4.6949 N   0  0  0  0  0  0  0  0  0  0  0  0
   -0.3775    0.6673    5.8128 C   0  0  0  0  0  0  0  0  0  0  0  0
   -1.1508    0.1203    6.5689 O   0  0  0  0  0  0  0  0  0  0  0  0
    1.0555    0.5991    5.6988 C   0  0  0  0  0  0  0  0  0  0  0  0
    2.0135    0.0717    6.4975 C   0  0  0  0  0  0  0  0  0  0  0  0
    3.4210    0.1335    6.1218 C   0  0  0  0  0  0  0  0  0  0  0  0
    4.0553    0.5003    4.8814 C   0  0  0  0  0  0  0  0  0  0  0  0
    5.3822    0.5222    4.8683 N   0  0  0  0  0  0  0  0  0  0  0  0
    5.7383    0.1543    6.1034 N   0  0  0  0  0  0  0  0  0  0  0  0
    7.0395    0.0236    6.5333 C   0  0  0  0  0  0  0  0  0  0  0  0
    7.0864   -0.4253    7.8824 C   0  0  0  0  0  0  0  0  0  0  0  0
    6.0367   -0.6770    8.6876 N   0  0  0  0  0  0  0  0  0  0  0  0
    4.7765   -0.5060    8.2039 C   0  0  0  0  0  0  0  0  0  0  0  0
    4.6119   -0.0905    6.8798 C   0  0  0  0  0  0  0  0  0  0  0  0
    2.7401    2.7088    4.3362 H   0  0  0  0  0  0  0  0  0  0  0  0
    1.4646    3.2923    5.3854 H   0  0  0  0  0  0  0  0  0  0  0  0
    1.3148    3.4012    3.6134 H   0  0  0  0  0  0  0  0  0  0  0  0
    2.0823    0.6705    2.6281 H   0  0  0  0  0  0  0  0  0  0  0  0
    0.8935   -0.4611    3.2336 H   0  0  0  0  0  0  0  0  0  0  0  0
    0.4458    2.1484    1.7057 H   0  0  0  0  0  0  0  0  0  0  0  0
    0.2240    0.5335    1.1045 H   0  0  0  0  0  0  0  0  0  0  0  0
   -1.9776    1.5900    1.6862 H   0  0  0  0  0  0  0  0  0  0  0  0
   -1.6563    0.1597    2.6516 H   0  0  0  0  0  0  0  0  0  0  0  0
   -1.3520    3.0408    3.5956 H   0  0  0  0  0  0  0  0  0  0  0  0
   -2.5118    1.8548    4.2021 H   0  0  0  0  0  0  0  0  0  0  0  0
    1.6654   -0.4118    7.4051 H   0  0  0  0  0  0  0  0  0  0  0  0
    3.6166    0.7749    3.9466 H   0  0  0  0  0  0  0  0  0  0  0  0
    7.8839    0.2193    5.8870 H   0  0  0  0  0  0  0  0  0  0  0  0
    8.0472   -0.5912    8.3374 H   0  0  0  0  0  0  0  0  0  0  0  0
    3.9280   -0.7186    8.8456 H   0  0  0  0  0  0  0  0  0  0  0  0
  2  1  1  1
  1 21  1  0
  1 22  1  0
  1 23  1  0
  2  7  1  0
  2 10  1  0
  2  3  1  0
  3  4  1  0
  3 24  1  0
  3 25  1  0
  4  5  1  0
  4 26  1  0
  4 27  1  0
  5  6  1  0
  5 28  1  0
  5 29  1  0
  6  7  1  0
  6 30  1  0
  6 31  1  0
  7  8  1  0
  8  9  2  0
  8 10  1  0
 10 11  2  3
 11 12  1  0
 11 32  1  0
 12 20  2  0
 12 13  1  0
 13 14  2  0
 13 33  1  0
 14 15  1  0
 15 20  1  0
 15 16  1  0
 16 17  2  0
 16 34  1  0
 17 18  1  0
 17 35  1  0
 18 19  2  0
 19 20  1  0
 19 36  1  0
M  END
>  <i_m_ct_stereo_status>  (542) 
1

>  <s_m_source_file>  (542) 
/var/tmp/pbs.5102264.sched01/tmpp_sc680v/18465xhjztf.sdf

>  <i_m_source_file_index>  (542) 
10

>  <i_lp_mmshare_version>  (542) 
48012

>  <i_f3d_flags>  (542) 
0

>  <s_epik_input>  (542) 
W0NIMl0xW0NIMl1bQ0gyXVtDSDJdTihbQ0BdMTJbQ0gzXSlDKD1PKUNcMj1bQ0hdL2MoW2NIXW4zKWMobjM0KVtjSF1uW2NIXVtjSF00

>  <s_epik_cmdline>  (542) 
J2VwaWtfcHl0aG9uJywgJy1waHQnLCAnMi4wJywgJy1waCcsICc3LjAnLCAnLXRuJywgJzgnLCAnLW1hJywgJzIwMCcsICctaW1hZScsICc8aW5maWxlLm1hZT4nLCAnLW9tYWUnLCAnPG91dGZpbGUubWFlPic=

>  <r_lp_tautomer_probability>  (542) 
1

>  <r_epik_Ionization_Penalty>  (542) 
0.000172229

>  <r_epik_Ionization_Penalty_Charging>  (542) 
0

>  <r_epik_Ionization_Penalty_Neutral>  (542) 
0.000172229

>  <r_epik_State_Penalty>  (542) 
-0

>  <r_epik_Charging_Adjusted_Penalty>  (542) 
0

>  <i_epik_Tot_Q>  (542) 
0

>  <i_epik_Tot_abs_Q>  (542) 
0

>  <s_lp_Force_Field>  (542) 
OPLS3e

>  <r_lp_Energy>  (542) 
25.2172

>  <b_lp_Chiralities_Consistent>  (542) 
1

>  <s_lp_Variant>  (542) 
115:0-2

>  <s_i_glide_gridfile>  (542) 
pfpi4k_grid

>  <i_i_glide_lignum>  (542) 
10

>  <i_i_glide_rotatable_bonds>  (542) 
1

>  <r_i_docking_score>  (542) 
-3.26647

>  <r_i_glide_ligand_efficiency>  (542) 
-0.163324

>  <r_i_glide_ligand_efficiency_sa>  (542) 
-0.443329

>  <r_i_glide_ligand_efficiency_ln>  (542) 
-0.81749

>  <r_i_glide_gscore>  (542) 
-3.26647

>  <r_i_glide_lipo>  (542) 
-0.164417

>  <r_i_glide_hbond>  (542) 
-0.139662

>  <r_i_glide_metal>  (542) 
-0

>  <r_i_glide_rewards>  (542) 
-1.64601

>  <r_i_glide_evdw>  (542) 
-14.0462

>  <r_i_glide_ecoul>  (542) 
-3.87277

>  <r_i_glide_erotb>  (542) 
0

>  <r_i_glide_esite>  (542) 
-0.0331603

>  <r_i_glide_emodel>  (542) 
-20.8965

>  <r_i_glide_energy>  (542) 
-17.919

>  <r_i_glide_einternal>  (542) 
0.270115

>  <r_i_glide_intrahb_reward>  (542) 
-0

>  <i_i_glide_confnum>  (542) 
2

>  <i_i_glide_posenum>  (542) 
3

>  <r_i_glide_eff_state_penalty>  (542) 
0

>  <ligand_id>  (542) 
115

>  <original_smiles>  (542) 
CC12CCCCN1C(=O)C2=Cc1cnn2ccncc12

>  <smiles>  (542) 
[H]C(=C1C(=O)N2C([H])([H])C([H])([H])C([H])([H])C([H])([H])C12C([H])([H])[H])c1c([H])nn2c([H])c([H])nc([H])c12

$$$$
115:1:2
     RDKit          3D

 36 39  0  0  1  0  0  0  0  0999 V2000
    2.6424    0.1990    3.8310 C   0  0  0  0  0  0  0  0  0  0  0  0
    1.2291   -0.2635    3.3957 C   0  0  2  0  0  0  0  0  0  0  0  0
    0.6965    0.3158    2.0686 C   0  0  0  0  0  0  0  0  0  0  0  0
    0.2373    1.7874    2.2148 C   0  0  0  0  0  0  0  0  0  0  0  0
   -0.7822    2.0009    3.3569 C   0  0  0  0  0  0  0  0  0  0  0  0
   -0.2683    1.4532    4.7022 C   0  0  0  0  0  0  0  0  0  0  0  0
    0.2573    0.1055    4.4280 N   0  0  0  0  0  0  0  0  0  0  0  0
   -0.1586   -1.1876    4.6431 C   0  0  0  0  0  0  0  0  0  0  0  0
   -1.0495   -1.7564    5.2787 O   0  0  0  0  0  0  0  0  0  0  0  0
    0.8366   -1.6908    3.7247 C   0  0  0  0  0  0  0  0  0  0  0  0
    1.2350   -2.9392    3.3798 C   0  0  0  0  0  0  0  0  0  0  0  0
    2.2998   -3.1568    2.4163 C   0  0  0  0  0  0  0  0  0  0  0  0
    3.0678   -2.2060    1.6315 C   0  0  0  0  0  0  0  0  0  0  0  0
    4.0512   -2.7154    0.8749 N   0  0  0  0  0  0  0  0  0  0  0  0
    3.8968   -4.0250    0.9784 N   0  0  0  0  0  0  0  0  0  0  0  0
    4.6295   -4.9578    0.2371 C   0  0  0  0  0  0  0  0  0  0  0  0
    4.1834   -6.2722    0.5062 C   0  0  0  0  0  0  0  0  0  0  0  0
    3.1772   -6.6554    1.3526 N   0  0  0  0  0  0  0  0  0  0  0  0
    2.5263   -5.6993    2.0455 C   0  0  0  0  0  0  0  0  0  0  0  0
    2.8895   -4.3282    1.8571 C   0  0  0  0  0  0  0  0  0  0  0  0
    3.4603   -0.0926    3.1623 H   0  0  0  0  0  0  0  0  0  0  0  0
    2.9225   -0.2063    4.8058 H   0  0  0  0  0  0  0  0  0  0  0  0
    2.7077    1.2838    3.8314 H   0  0  0  0  0  0  0  0  0  0  0  0
    1.4303    0.2486    1.2782 H   0  0  0  0  0  0  0  0  0  0  0  0
   -0.1679   -0.2490    1.7056 H   0  0  0  0  0  0  0  0  0  0  0  0
    1.1103    2.4203    2.3850 H   0  0  0  0  0  0  0  0  0  0  0  0
   -0.1909    2.1288    1.2715 H   0  0  0  0  0  0  0  0  0  0  0  0
   -1.0314    3.0577    3.4462 H   0  0  0  0  0  0  0  0  0  0  0  0
   -1.7027    1.4798    3.0977 H   0  0  0  0  0  0  0  0  0  0  0  0
    0.5601    2.0682    5.0636 H   0  0  0  0  0  0  0  0  0  0  0  0
   -1.0401    1.4523    5.4757 H   0  0  0  0  0  0  0  0  0  0  0  0
    0.7431   -3.7930    3.8661 H   0  0  0  0  0  0  0  0  0  0  0  0
    2.9781   -1.1575    1.5157 H   0  0  0  0  0  0  0  0  0  0  0  0
    5.4087   -4.6349   -0.4450 H   0  0  0  0  0  0  0  0  0  0  0  0
    4.6784   -7.0788   -0.0082 H   0  0  0  0  0  0  0  0  0  0  0  0
    1.7234   -6.0013    2.7095 H   0  0  0  0  0  0  0  0  0  0  0  0
  2  1  1  1
  1 21  1  0
  1 22  1  0
  1 23  1  0
  2  7  1  0
  2 10  1  0
  2  3  1  0
  3  4  1  0
  3 24  1  0
  3 25  1  0
  4  5  1  0
  4 26  1  0
  4 27  1  0
  5  6  1  0
  5 28  1  0
  5 29  1  0
  6  7  1  0
  6 30  1  0
  6 31  1  0
  7  8  1  0
  8  9  2  0
  8 10  1  0
 10 11  2  3
 11 12  1  0
 11 32  1  0
 12 20  2  0
 12 13  1  0
 13 14  2  0
 13 33  1  0
 14 15  1  0
 15 20  1  0
 15 16  1  0
 16 17  2  0
 16 34  1  0
 17 18  1  0
 17 35  1  0
 18 19  2  0
 19 20  1  0
 19 36  1  0
M  END
>  <i_m_ct_stereo_status>  (543) 
1

>  <s_m_source_file>  (543) 
/var/tmp/pbs.5102264.sched01/tmpp_sc680v/18465xhjztf.sdf

>  <i_m_source_file_index>  (543) 
10

>  <i_lp_mmshare_version>  (543) 
48012

>  <i_f3d_flags>  (543) 
0

>  <s_epik_input>  (543) 
W0NIMl0xW0NIMl1bQ0gyXVtDSDJdTihbQ0BdMTJbQ0gzXSlDKD1PKUNcMj1bQ0hdL2MoW2NIXW4zKWMobjM0KVtjSF1uW2NIXVtjSF00

>  <s_epik_cmdline>  (543) 
J2VwaWtfcHl0aG9uJywgJy1waHQnLCAnMi4wJywgJy1waCcsICc3LjAnLCAnLXRuJywgJzgnLCAnLW1hJywgJzIwMCcsICctaW1hZScsICc8aW5maWxlLm1hZT4nLCAnLW9tYWUnLCAnPG91dGZpbGUubWFlPic=

>  <r_lp_tautomer_probability>  (543) 
1

>  <r_epik_Ionization_Penalty>  (543) 
0.000172229

>  <r_epik_Ionization_Penalty_Charging>  (543) 
0

>  <r_epik_Ionization_Penalty_Neutral>  (543) 
0.000172229

>  <r_epik_State_Penalty>  (543) 
-0

>  <r_epik_Charging_Adjusted_Penalty>  (543) 
0

>  <i_epik_Tot_Q>  (543) 
0

>  <i_epik_Tot_abs_Q>  (543) 
0

>  <s_lp_Force_Field>  (543) 
OPLS3e

>  <r_lp_Energy>  (543) 
25.2172

>  <b_lp_Chiralities_Consistent>  (543) 
1

>  <s_lp_Variant>  (543) 
115:0-2

>  <s_i_glide_gridfile>  (543) 
pfpi4k_grid

>  <i_i_glide_lignum>  (543) 
10

>  <i_i_glide_rotatable_bonds>  (543) 
1

>  <r_i_docking_score>  (543) 
-3.06951

>  <r_i_glide_ligand_efficiency>  (543) 
-0.153476

>  <r_i_glide_ligand_efficiency_sa>  (543) 
-0.416597

>  <r_i_glide_ligand_efficiency_ln>  (543) 
-0.768198

>  <r_i_glide_gscore>  (543) 
-3.06951

>  <r_i_glide_lipo>  (543) 
-0.225285

>  <r_i_glide_hbond>  (543) 
0

>  <r_i_glide_metal>  (543) 
-0

>  <r_i_glide_rewards>  (543) 
-1.59531

>  <r_i_glide_evdw>  (543) 
-19.1059

>  <r_i_glide_ecoul>  (543) 
-1.78121

>  <r_i_glide_erotb>  (543) 
0

>  <r_i_glide_esite>  (543) 
-0.0264339

>  <r_i_glide_emodel>  (543) 
-22.8767

>  <r_i_glide_energy>  (543) 
-20.8872

>  <r_i_glide_einternal>  (543) 
0.0263806

>  <r_i_glide_intrahb_reward>  (543) 
-0

>  <i_i_glide_confnum>  (543) 
1

>  <i_i_glide_posenum>  (543) 
10

>  <r_i_glide_eff_state_penalty>  (543) 
0

>  <ligand_id>  (543) 
115

>  <original_smiles>  (543) 
CC12CCCCN1C(=O)C2=Cc1cnn2ccncc12

>  <smiles>  (543) 
[H]C(=C1C(=O)N2C([H])([H])C([H])([H])C([H])([H])C([H])([H])C12C([H])([H])[H])c1c([H])nn2c([H])c([H])nc([H])c12

$$$$
116:1:0
     RDKit          3D

 27 30  0  0  1  0  0  0  0  0999 V2000
    2.5514   -4.9105    2.1561 C   0  0  0  0  0  0  0  0  0  0  0  0
    1.9354   -5.5569    1.1561 N   0  0  0  0  0  0  0  0  0  0  0  0
    2.7521   -5.4138    0.0795 N   0  0  0  0  0  0  0  0  0  0  0  0
    3.8485   -4.6587    0.4021 C   0  0  0  0  0  0  0  0  0  0  0  0
    3.7664   -4.3260    1.6936 C   0  0  0  0  0  0  0  0  0  0  0  0
    4.9204   -3.5096    2.1487 C   0  0  0  0  0  0  0  0  0  0  0  0
    5.7335   -3.3577    0.8130 C   0  0  2  0  0  0  0  0  0  0  0  0
    5.8457   -1.9459    0.1912 C   0  0  2  0  0  0  0  0  0  0  0  0
    4.4710   -1.2630    0.0275 C   0  0  0  0  0  0  0  0  0  0  0  0
    3.8132   -2.0749   -1.1002 C   0  0  0  0  0  0  0  0  0  0  0  0
    4.8895   -3.1250   -1.4439 C   0  0  1  0  0  0  0  0  0  0  0  0
    6.1611   -2.2991   -1.2597 C   0  0  0  0  0  0  0  0  0  0  0  0
    5.0407   -4.1829   -0.3172 C   0  0  2  0  0  0  0  0  0  0  0  0
    2.5763   -5.7983   -0.8448 H   0  0  0  0  0  0  0  0  0  0  0  0
    2.1072   -4.8853    3.1399 H   0  0  0  0  0  0  0  0  0  0  0  0
    5.5056   -4.0482    2.8963 H   0  0  0  0  0  0  0  0  0  0  0  0
    4.6209   -2.5569    2.5869 H   0  0  0  0  0  0  0  0  0  0  0  0
    6.7322   -3.7439    0.9698 H   0  0  0  0  0  0  0  0  0  0  0  0
    6.5868   -1.3147    0.6799 H   0  0  0  0  0  0  0  0  0  0  0  0
    3.8793   -1.2558    0.9398 H   0  0  0  0  0  0  0  0  0  0  0  0
    4.5958   -0.2230   -0.2780 H   0  0  0  0  0  0  0  0  0  0  0  0
    2.8617   -2.5128   -0.7968 H   0  0  0  0  0  0  0  0  0  0  0  0
    3.6122   -1.4304   -1.9569 H   0  0  0  0  0  0  0  0  0  0  0  0
    4.7607   -3.5562   -2.4382 H   0  0  0  0  0  0  0  0  0  0  0  0
    6.1973   -1.4265   -1.9106 H   0  0  0  0  0  0  0  0  0  0  0  0
    7.0874   -2.8666   -1.3809 H   0  0  0  0  0  0  0  0  0  0  0  0
    5.6598   -5.0236   -0.6407 H   0  0  0  0  0  0  0  0  0  0  0  0
  1 15  1  0
  1  2  2  0
  1  5  1  0
  2  3  1  0
  3 14  1  0
  3  4  1  0
  4 13  1  0
  4  5  2  0
  5  6  1  0
  6  7  1  0
  6 16  1  0
  6 17  1  0
  7 13  1  0
  7  8  1  0
  7 18  1  1
  8 12  1  0
  8  9  1  0
  8 19  1  1
  9 10  1  0
  9 20  1  0
  9 21  1  0
 10 11  1  0
 10 22  1  0
 10 23  1  0
 11 12  1  0
 11 13  1  0
 11 24  1  6
 12 25  1  0
 12 26  1  0
 13 27  1  6
M  END
>  <i_m_ct_stereo_status>  (544) 
1

>  <s_m_source_file>  (544) 
/var/tmp/pbs.5102264.sched01/tmpp_sc680v/18465xhjztf.sdf

>  <i_m_source_file_index>  (544) 
12

>  <i_lp_mmshare_version>  (544) 
48012

>  <i_f3d_flags>  (544) 
0

>  <s_epik_input>  (544) 
bjFbbkhdW2NIXWMoYzEyKVtDSDJdW0NAQEhdM1tDQEBIXTRbQ0gyXVtDSDJdW0NAQEhdKFtDSDJdNClbQ0BIXTIz

>  <s_epik_cmdline>  (544) 
J2VwaWtfcHl0aG9uJywgJy1waHQnLCAnMi4wJywgJy1waCcsICc3LjAnLCAnLXRuJywgJzgnLCAnLW1hJywgJzIwMCcsICctaW1hZScsICc8aW5maWxlLm1hZT4nLCAnLW9tYWUnLCAnPG91dGZpbGUubWFlPic=

>  <r_lp_tautomer_probability>  (544) 
0.5

>  <r_epik_Ionization_Penalty>  (544) 
0.0079931

>  <r_epik_Ionization_Penalty_Charging>  (544) 
0

>  <r_epik_Ionization_Penalty_Neutral>  (544) 
0.0079931

>  <r_epik_State_Penalty>  (544) 
0.533517

>  <r_epik_Charging_Adjusted_Penalty>  (544) 
0.533517

>  <i_epik_Tot_Q>  (544) 
0

>  <i_epik_Tot_abs_Q>  (544) 
0

>  <s_lp_Force_Field>  (544) 
OPLS3e

>  <r_lp_Energy>  (544) 
39.8751

>  <b_lp_Chiralities_Consistent>  (544) 
1

>  <s_lp_Variant>  (544) 
116:0-2

>  <s_i_glide_gridfile>  (544) 
pfpi4k_grid

>  <i_i_glide_lignum>  (544) 
12

>  <i_i_glide_rotatable_bonds>  (544) 
0

>  <r_i_docking_score>  (544) 
-4.32383

>  <r_i_glide_ligand_efficiency>  (544) 
-0.332602

>  <r_i_glide_ligand_efficiency_sa>  (544) 
-0.782059

>  <r_i_glide_ligand_efficiency_ln>  (544) 
-1.21287

>  <r_i_glide_gscore>  (544) 
-4.32383

>  <r_i_glide_lipo>  (544) 
-0.232017

>  <r_i_glide_hbond>  (544) 
-0.371127

>  <r_i_glide_metal>  (544) 
-0

>  <r_i_glide_rewards>  (544) 
-2.22108

>  <r_i_glide_evdw>  (544) 
-15.1317

>  <r_i_glide_ecoul>  (544) 
-4.6053

>  <r_i_glide_erotb>  (544) 
0

>  <r_i_glide_esite>  (544) 
-0.0522274

>  <r_i_glide_emodel>  (544) 
-25.5128

>  <r_i_glide_energy>  (544) 
-19.737

>  <r_i_glide_einternal>  (544) 
0

>  <r_i_glide_intrahb_reward>  (544) 
-0

>  <i_i_glide_confnum>  (544) 
1

>  <i_i_glide_posenum>  (544) 
1

>  <r_i_glide_eff_state_penalty>  (544) 
0

>  <ligand_id>  (544) 
116

>  <original_smiles>  (544) 
c1[nH]nc2c1CC1C3CCC(C3)C21

>  <smiles>  (544) 
[H]c1nn([H])c2c1C([H])([H])C1([H])C2([H])C2([H])C([H])([H])C([H])([H])C1([H])C2([H])[H]

$$$$
116:1:1
     RDKit          3D

 27 30  0  0  1  0  0  0  0  0999 V2000
    3.8211   -2.5571   -3.8823 C   0  0  0  0  0  0  0  0  0  0  0  0
    3.0803   -1.4507   -3.8548 N   0  0  0  0  0  0  0  0  0  0  0  0
    3.4204   -0.8266   -2.6963 N   0  0  0  0  0  0  0  0  0  0  0  0
    4.3826   -1.5358   -2.0306 C   0  0  0  0  0  0  0  0  0  0  0  0
    4.6826   -2.6169   -2.7556 C   0  0  0  0  0  0  0  0  0  0  0  0
    5.7383   -3.4612   -2.1442 C   0  0  0  0  0  0  0  0  0  0  0  0
    6.0281   -2.6955   -0.8089 C   0  0  2  0  0  0  0  0  0  0  0  0
    5.6471   -3.3952    0.5222 C   0  0  2  0  0  0  0  0  0  0  0  0
    4.1901   -3.9110    0.5246 C   0  0  0  0  0  0  0  0  0  0  0  0
    3.3644   -2.6135    0.5744 C   0  0  0  0  0  0  0  0  0  0  0  0
    4.4477   -1.5168    0.5926 C   0  0  1  0  0  0  0  0  0  0  0  0
    5.5241   -2.1869    1.4479 C   0  0  0  0  0  0  0  0  0  0  0  0
    5.1640   -1.3935   -0.7751 C   0  0  2  0  0  0  0  0  0  0  0  0
    2.9553    0.0150   -2.3789 H   0  0  0  0  0  0  0  0  0  0  0  0
    3.7228   -3.2482   -4.7062 H   0  0  0  0  0  0  0  0  0  0  0  0
    6.6271   -3.4872   -2.7757 H   0  0  0  0  0  0  0  0  0  0  0  0
    5.4121   -4.4926   -1.9935 H   0  0  0  0  0  0  0  0  0  0  0  0
    7.0850   -2.4425   -0.7738 H   0  0  0  0  0  0  0  0  0  0  0  0
    6.3746   -4.1426    0.8448 H   0  0  0  0  0  0  0  0  0  0  0  0
    3.9487   -4.5325   -0.3365 H   0  0  0  0  0  0  0  0  0  0  0  0
    4.0059   -4.5130    1.4158 H   0  0  0  0  0  0  0  0  0  0  0  0
    2.6735   -2.5235   -0.2631 H   0  0  0  0  0  0  0  0  0  0  0  0
    2.7755   -2.5779    1.4904 H   0  0  0  0  0  0  0  0  0  0  0  0
    4.0824   -0.5626    0.9752 H   0  0  0  0  0  0  0  0  0  0  0  0
    5.1823   -2.4487    2.4501 H   0  0  0  0  0  0  0  0  0  0  0  0
    6.4477   -1.6099    1.5336 H   0  0  0  0  0  0  0  0  0  0  0  0
    5.7920   -0.5045   -0.8116 H   0  0  0  0  0  0  0  0  0  0  0  0
  1 15  1  0
  1  2  2  0
  1  5  1  0
  2  3  1  0
  3 14  1  0
  3  4  1  0
  4 13  1  0
  4  5  2  0
  5  6  1  0
  6  7  1  0
  6 16  1  0
  6 17  1  0
  7 13  1  0
  7  8  1  0
  7 18  1  1
  8 12  1  0
  8  9  1  0
  8 19  1  1
  9 10  1  0
  9 20  1  0
  9 21  1  0
 10 11  1  0
 10 22  1  0
 10 23  1  0
 11 12  1  0
 11 13  1  0
 11 24  1  1
 12 25  1  0
 12 26  1  0
 13 27  1  6
M  END
>  <i_m_ct_stereo_status>  (545) 
1

>  <s_m_source_file>  (545) 
/var/tmp/pbs.5102264.sched01/tmpp_sc680v/18465xhjztf.sdf

>  <i_m_source_file_index>  (545) 
12

>  <i_lp_mmshare_version>  (545) 
48012

>  <i_f3d_flags>  (545) 
0

>  <s_epik_input>  (545) 
bjFbbkhdW2NIXWMoYzEyKVtDSDJdW0NAQEhdM1tDQEBIXTRbQ0gyXVtDSDJdW0NAQEhdKFtDSDJdNClbQ0BIXTIz

>  <s_epik_cmdline>  (545) 
J2VwaWtfcHl0aG9uJywgJy1waHQnLCAnMi4wJywgJy1waCcsICc3LjAnLCAnLXRuJywgJzgnLCAnLW1hJywgJzIwMCcsICctaW1hZScsICc8aW5maWxlLm1hZT4nLCAnLW9tYWUnLCAnPG91dGZpbGUubWFlPic=

>  <r_lp_tautomer_probability>  (545) 
0.5

>  <r_epik_Ionization_Penalty>  (545) 
0.0079931

>  <r_epik_Ionization_Penalty_Charging>  (545) 
0

>  <r_epik_Ionization_Penalty_Neutral>  (545) 
0.0079931

>  <r_epik_State_Penalty>  (545) 
0.533517

>  <r_epik_Charging_Adjusted_Penalty>  (545) 
0.533517

>  <i_epik_Tot_Q>  (545) 
0

>  <i_epik_Tot_abs_Q>  (545) 
0

>  <s_lp_Force_Field>  (545) 
OPLS3e

>  <r_lp_Energy>  (545) 
39.8751

>  <b_lp_Chiralities_Consistent>  (545) 
1

>  <s_lp_Variant>  (545) 
116:0-2

>  <s_i_glide_gridfile>  (545) 
pfpi4k_grid

>  <i_i_glide_lignum>  (545) 
12

>  <i_i_glide_rotatable_bonds>  (545) 
0

>  <r_i_docking_score>  (545) 
-3.92108

>  <r_i_glide_ligand_efficiency>  (545) 
-0.301621

>  <r_i_glide_ligand_efficiency_sa>  (545) 
-0.709212

>  <r_i_glide_ligand_efficiency_ln>  (545) 
-1.0999

>  <r_i_glide_gscore>  (545) 
-3.92108

>  <r_i_glide_lipo>  (545) 
-0.56368

>  <r_i_glide_hbond>  (545) 
0

>  <r_i_glide_metal>  (545) 
-0

>  <r_i_glide_rewards>  (545) 
-2.22108

>  <r_i_glide_evdw>  (545) 
-21.8813

>  <r_i_glide_ecoul>  (545) 
-0.0798105

>  <r_i_glide_erotb>  (545) 
0

>  <r_i_glide_esite>  (545) 
-0.0302831

>  <r_i_glide_emodel>  (545) 
-27.1902

>  <r_i_glide_energy>  (545) 
-21.9611

>  <r_i_glide_einternal>  (545) 
0

>  <r_i_glide_intrahb_reward>  (545) 
-0

>  <i_i_glide_confnum>  (545) 
1

>  <i_i_glide_posenum>  (545) 
2

>  <r_i_glide_eff_state_penalty>  (545) 
0

>  <ligand_id>  (545) 
116

>  <original_smiles>  (545) 
c1[nH]nc2c1CC1C3CCC(C3)C21

>  <smiles>  (545) 
[H]c1nn([H])c2c1C([H])([H])C1([H])C2([H])C2([H])C([H])([H])C([H])([H])C1([H])C2([H])[H]

$$$$
116:1:2
     RDKit          3D

 27 30  0  0  1  0  0  0  0  0999 V2000
    3.7838   -2.6439    2.7669 C   0  0  0  0  0  0  0  0  0  0  0  0
    2.8361   -1.7075    2.6846 N   0  0  0  0  0  0  0  0  0  0  0  0
    2.4969   -1.6483    1.3690 N   0  0  0  0  0  0  0  0  0  0  0  0
    3.2241   -2.5525    0.6473 C   0  0  0  0  0  0  0  0  0  0  0  0
    4.0509   -3.2024    1.4829 C   0  0  0  0  0  0  0  0  0  0  0  0
    4.8918   -4.2099    0.7910 C   0  0  0  0  0  0  0  0  0  0  0  0
    4.4390   -4.0097   -0.6953 C   0  0  2  0  0  0  0  0  0  0  0  0
    5.4626   -3.4390   -1.6946 C   0  0  2  0  0  0  0  0  0  0  0  0
    6.1296   -2.1471   -1.1869 C   0  0  0  0  0  0  0  0  0  0  0  0
    4.9894   -1.1186   -1.2714 C   0  0  0  0  0  0  0  0  0  0  0  0
    3.8124   -1.9550   -1.8167 C   0  0  1  0  0  0  0  0  0  0  0  0
    4.5400   -2.8843   -2.7795 C   0  0  0  0  0  0  0  0  0  0  0  0
    3.2889   -2.9655   -0.7632 C   0  0  2  0  0  0  0  0  0  0  0  0
    1.7846   -1.0328    0.9812 H   0  0  0  0  0  0  0  0  0  0  0  0
    4.2322   -2.8870    3.7187 H   0  0  0  0  0  0  0  0  0  0  0  0
    4.6509   -5.2197    1.1349 H   0  0  0  0  0  0  0  0  0  0  0  0
    5.9627   -4.0577    0.9549 H   0  0  0  0  0  0  0  0  0  0  0  0
    4.0963   -4.9581   -1.0728 H   0  0  0  0  0  0  0  0  0  0  0  0
    6.1739   -4.1766   -2.0595 H   0  0  0  0  0  0  0  0  0  0  0  0
    6.5458   -2.2453   -0.1870 H   0  0  0  0  0  0  0  0  0  0  0  0
    6.9465   -1.8766   -1.8571 H   0  0  0  0  0  0  0  0  0  0  0  0
    4.7785   -0.6525   -0.3105 H   0  0  0  0  0  0  0  0  0  0  0  0
    5.2435   -0.3248   -1.9738 H   0  0  0  0  0  0  0  0  0  0  0  0
    3.0280   -1.3445   -2.2665 H   0  0  0  0  0  0  0  0  0  0  0  0
    5.0796   -2.3579   -3.5684 H   0  0  0  0  0  0  0  0  0  0  0  0
    3.9067   -3.6513   -3.2361 H   0  0  0  0  0  0  0  0  0  0  0  0
    2.3442   -3.4160   -1.0742 H   0  0  0  0  0  0  0  0  0  0  0  0
  1 15  1  0
  1  2  2  0
  1  5  1  0
  2  3  1  0
  3 14  1  0
  3  4  1  0
  4 13  1  0
  4  5  2  0
  5  6  1  0
  6  7  1  0
  6 16  1  0
  6 17  1  0
  7 13  1  0
  7  8  1  0
  7 18  1  6
  8 12  1  0
  8  9  1  0
  8 19  1  6
  9 10  1  0
  9 20  1  0
  9 21  1  0
 10 11  1  0
 10 22  1  0
 10 23  1  0
 11 12  1  0
 11 13  1  0
 11 24  1  6
 12 25  1  0
 12 26  1  0
 13 27  1  6
M  END
>  <i_m_ct_stereo_status>  (546) 
1

>  <s_m_source_file>  (546) 
/var/tmp/pbs.5102264.sched01/tmpp_sc680v/18465xhjztf.sdf

>  <i_m_source_file_index>  (546) 
12

>  <i_lp_mmshare_version>  (546) 
48012

>  <i_f3d_flags>  (546) 
0

>  <s_epik_input>  (546) 
bjFbbkhdW2NIXWMoYzEyKVtDSDJdW0NAQEhdM1tDQEBIXTRbQ0gyXVtDSDJdW0NAQEhdKFtDSDJdNClbQ0BIXTIz

>  <s_epik_cmdline>  (546) 
J2VwaWtfcHl0aG9uJywgJy1waHQnLCAnMi4wJywgJy1waCcsICc3LjAnLCAnLXRuJywgJzgnLCAnLW1hJywgJzIwMCcsICctaW1hZScsICc8aW5maWxlLm1hZT4nLCAnLW9tYWUnLCAnPG91dGZpbGUubWFlPic=

>  <r_lp_tautomer_probability>  (546) 
0.5

>  <r_epik_Ionization_Penalty>  (546) 
0.0079931

>  <r_epik_Ionization_Penalty_Charging>  (546) 
0

>  <r_epik_Ionization_Penalty_Neutral>  (546) 
0.0079931

>  <r_epik_State_Penalty>  (546) 
0.533517

>  <r_epik_Charging_Adjusted_Penalty>  (546) 
0.533517

>  <i_epik_Tot_Q>  (546) 
0

>  <i_epik_Tot_abs_Q>  (546) 
0

>  <s_lp_Force_Field>  (546) 
OPLS3e

>  <r_lp_Energy>  (546) 
39.8751

>  <b_lp_Chiralities_Consistent>  (546) 
1

>  <s_lp_Variant>  (546) 
116:0-2

>  <s_i_glide_gridfile>  (546) 
pfpi4k_grid

>  <i_i_glide_lignum>  (546) 
12

>  <i_i_glide_rotatable_bonds>  (546) 
0

>  <r_i_docking_score>  (546) 
-3.75049

>  <r_i_glide_ligand_efficiency>  (546) 
-0.288499

>  <r_i_glide_ligand_efficiency_sa>  (546) 
-0.678359

>  <r_i_glide_ligand_efficiency_ln>  (546) 
-1.05205

>  <r_i_glide_gscore>  (546) 
-3.75049

>  <r_i_glide_lipo>  (546) 
-0.249334

>  <r_i_glide_hbond>  (546) 
-0.104711

>  <r_i_glide_metal>  (546) 
-0

>  <r_i_glide_rewards>  (546) 
-2.22108

>  <r_i_glide_evdw>  (546) 
-15.8175

>  <r_i_glide_ecoul>  (546) 
-2.13492

>  <r_i_glide_erotb>  (546) 
0

>  <r_i_glide_esite>  (546) 
-0.0642583

>  <r_i_glide_emodel>  (546) 
-22.9602

>  <r_i_glide_energy>  (546) 
-17.9524

>  <r_i_glide_einternal>  (546) 
0

>  <r_i_glide_intrahb_reward>  (546) 
-0

>  <i_i_glide_confnum>  (546) 
2

>  <i_i_glide_posenum>  (546) 
6

>  <r_i_glide_eff_state_penalty>  (546) 
0

>  <ligand_id>  (546) 
116

>  <original_smiles>  (546) 
c1[nH]nc2c1CC1C3CCC(C3)C21

>  <smiles>  (546) 
[H]c1nn([H])c2c1C([H])([H])C1([H])C2([H])C2([H])C([H])([H])C([H])([H])C1([H])C2([H])[H]

$$$$
117:0:0
     RDKit          3D

 22 23  0  0  1  0  0  0  0  0999 V2000
    3.2570   -2.6670   -0.7106 C   0  0  0  0  0  0  0  0  0  0  0  0
    3.5554   -3.9580    0.0298 C   0  0  0  0  0  0  0  0  0  0  0  0
    4.8997   -4.3204    0.2948 C   0  0  0  0  0  0  0  0  0  0  0  0
    5.1321   -5.4959    0.9647 C   0  0  0  0  0  0  0  0  0  0  0  0
    6.5284   -5.9771    1.3132 C   0  0  0  0  0  0  0  0  0  0  0  0
    4.0599   -6.2510    1.3391 N   0  0  0  0  0  0  0  0  0  0  0  0
    4.1028   -7.4454    2.0251 N   0  0  0  0  0  0  0  0  0  0  0  0
    2.8413   -7.7719    2.1658 C   0  0  0  0  0  0  0  0  0  0  0  0
    1.9547   -6.8410    1.5846 C   0  0  0  0  0  0  0  0  0  0  0  0
    0.4705   -6.8966    1.5478 C   0  0  0  0  0  0  0  0  0  0  0  0
   -0.1261   -7.5921    2.3919 O   0  0  0  0  0  0  0  0  0  0  0  0
   -0.1746   -6.2651    0.6863 O   0  0  0  0  0  0  0  0  0  0  0  0
    2.7360   -5.8427    1.0447 C   0  0  0  0  0  0  0  0  0  0  0  0
    2.5032   -4.6847    0.3964 N   0  0  0  0  0  0  0  0  0  0  0  0
    4.1754   -2.1347   -0.9698 H   0  0  0  0  0  0  0  0  0  0  0  0
    2.6501   -2.0042   -0.0904 H   0  0  0  0  0  0  0  0  0  0  0  0
    2.7138   -2.8709   -1.6361 H   0  0  0  0  0  0  0  0  0  0  0  0
    5.7273   -3.6966   -0.0180 H   0  0  0  0  0  0  0  0  0  0  0  0
    7.2855   -5.2833    0.9496 H   0  0  0  0  0  0  0  0  0  0  0  0
    6.7185   -6.9547    0.8718 H   0  0  0  0  0  0  0  0  0  0  0  0
    6.6445   -6.0736    2.3932 H   0  0  0  0  0  0  0  0  0  0  0  0
    2.5624   -8.6843    2.6676 H   0  0  0  0  0  0  0  0  0  0  0  0
  1  2  1  0
  1 15  1  0
  1 16  1  0
  1 17  1  0
  2 14  2  0
  2  3  1  0
  3  4  2  0
  3 18  1  0
  4  5  1  0
  4  6  1  0
  5 19  1  0
  5 20  1  0
  5 21  1  0
  6 13  1  0
  6  7  1  0
  7  8  2  0
  8  9  1  0
  8 22  1  0
  9 10  1  0
  9 13  2  0
 10 11  2  0
 10 12  1  0
 13 14  1  0
M  CHG  1  12  -1
M  END
>  <i_m_ct_stereo_status>  (547) 
1

>  <s_m_source_file>  (547) 
/var/tmp/pbs.5102264.sched01/tmpp_sc680v/18465xhjztf.sdf

>  <i_m_source_file_index>  (547) 
13

>  <i_lp_mmshare_version>  (547) 
48012

>  <i_f3d_flags>  (547) 
0

>  <s_epik_input>  (547) 
W0NIM11jMVtjSF1jKFtDSDNdKW5jKG4xMiljKFtjSF1uMilDKD1PKVtPSF0=

>  <s_epik_cmdline>  (547) 
J2VwaWtfcHl0aG9uJywgJy1waHQnLCAnMi4wJywgJy1waCcsICc3LjAnLCAnLXRuJywgJzgnLCAnLW1hJywgJzIwMCcsICctaW1hZScsICc8aW5maWxlLm1hZT4nLCAnLW9tYWUnLCAnPG91dGZpbGUubWFlPic=

>  <r_lp_tautomer_probability>  (547) 
1

>  <r_epik_Ionization_Penalty>  (547) 
1.51434e-05

>  <r_epik_Ionization_Penalty_Charging>  (547) 
1.486e-05

>  <r_epik_Ionization_Penalty_Neutral>  (547) 
2.8336e-07

>  <r_epik_State_Penalty>  (547) 
-0

>  <r_epik_Charging_Adjusted_Penalty>  (547) 
1.486e-05

>  <i_epik_Tot_Q>  (547) 
-1

>  <i_epik_Tot_abs_Q>  (547) 
1

>  <s_lp_Force_Field>  (547) 
OPLS3e

>  <r_lp_Energy>  (547) 
7.7718

>  <b_lp_Chiralities_Consistent>  (547) 
1

>  <s_lp_Variant>  (547) 
117:0-1

>  <s_i_glide_gridfile>  (547) 
pfpi4k_grid

>  <i_i_glide_lignum>  (547) 
13

>  <i_i_glide_rotatable_bonds>  (547) 
1

>  <r_i_docking_score>  (547) 
-4.07148

>  <r_i_glide_ligand_efficiency>  (547) 
-0.29082

>  <r_i_glide_ligand_efficiency_sa>  (547) 
-0.700918

>  <r_i_glide_ligand_efficiency_ln>  (547) 
-1.11883

>  <r_i_glide_gscore>  (547) 
-4.07148

>  <r_i_glide_lipo>  (547) 
-0.211927

>  <r_i_glide_hbond>  (547) 
-0.218295

>  <r_i_glide_metal>  (547) 
-0

>  <r_i_glide_rewards>  (547) 
-2.19947

>  <r_i_glide_evdw>  (547) 
-13.3928

>  <r_i_glide_ecoul>  (547) 
-4.39804

>  <r_i_glide_erotb>  (547) 
0

>  <r_i_glide_esite>  (547) 
-0.112443

>  <r_i_glide_emodel>  (547) 
-26.143

>  <r_i_glide_energy>  (547) 
-17.7909

>  <r_i_glide_einternal>  (547) 
0.902961

>  <r_i_glide_intrahb_reward>  (547) 
-0

>  <i_i_glide_confnum>  (547) 
1

>  <i_i_glide_posenum>  (547) 
5

>  <r_i_glide_eff_state_penalty>  (547) 
0

>  <ligand_id>  (547) 
117

>  <original_smiles>  (547) 
Cc1cc(C)n2ncc(C(=O)O)c2n1

>  <smiles>  (547) 
[H]c1nn2c(C([H])([H])[H])c([H])c(C([H])([H])[H])nc2c1C(=O)[O-]

$$$$
117:0:1
     RDKit          3D

 22 23  0  0  1  0  0  0  0  0999 V2000
   -1.9955   -9.0013    2.6956 C   0  0  0  0  0  0  0  0  0  0  0  0
   -0.4850   -8.9386    2.7631 C   0  0  0  0  0  0  0  0  0  0  0  0
    0.2282   -9.9009    3.5105 C   0  0  0  0  0  0  0  0  0  0  0  0
    1.5989   -9.8291    3.5474 C   0  0  0  0  0  0  0  0  0  0  0  0
    2.4477  -10.7976    4.3482 C   0  0  0  0  0  0  0  0  0  0  0  0
    2.2025   -8.8300    2.8534 N   0  0  0  0  0  0  0  0  0  0  0  0
    3.5554   -8.5845    2.7862 N   0  0  0  0  0  0  0  0  0  0  0  0
    3.6391   -7.5240    2.0199 C   0  0  0  0  0  0  0  0  0  0  0  0
    2.3834   -7.0556    1.5763 C   0  0  0  0  0  0  0  0  0  0  0  0
    2.0803   -5.9211    0.6875 C   0  0  0  0  0  0  0  0  0  0  0  0
    0.9714   -5.8677    0.0957 O   0  0  0  0  0  0  0  0  0  0  0  0
    2.9495   -5.0529    0.5194 O   0  0  0  0  0  0  0  0  0  0  0  0
    1.4410   -7.8879    2.1173 C   0  0  0  0  0  0  0  0  0  0  0  0
    0.0859   -7.9397    2.0942 N   0  0  0  0  0  0  0  0  0  0  0  0
   -2.3795   -9.8378    3.2757 H   0  0  0  0  0  0  0  0  0  0  0  0
   -2.3304   -9.1435    1.6664 H   0  0  0  0  0  0  0  0  0  0  0  0
   -2.4412   -8.0829    3.0868 H   0  0  0  0  0  0  0  0  0  0  0  0
   -0.2713  -10.6825    4.0678 H   0  0  0  0  0  0  0  0  0  0  0  0
    1.8356  -11.5410    4.8606 H   0  0  0  0  0  0  0  0  0  0  0  0
    3.0289  -10.2692    5.1047 H   0  0  0  0  0  0  0  0  0  0  0  0
    3.1408  -11.3235    3.6897 H   0  0  0  0  0  0  0  0  0  0  0  0
    4.6032   -7.1065    1.7728 H   0  0  0  0  0  0  0  0  0  0  0  0
  1  2  1  0
  1 15  1  0
  1 16  1  0
  1 17  1  0
  2 14  2  0
  2  3  1  0
  3  4  2  0
  3 18  1  0
  4  5  1  0
  4  6  1  0
  5 19  1  0
  5 20  1  0
  5 21  1  0
  6 13  1  0
  6  7  1  0
  7  8  2  0
  8  9  1  0
  8 22  1  0
  9 10  1  0
  9 13  2  0
 10 11  2  0
 10 12  1  0
 13 14  1  0
M  CHG  1  12  -1
M  END
>  <i_m_ct_stereo_status>  (548) 
1

>  <s_m_source_file>  (548) 
/var/tmp/pbs.5102264.sched01/tmpp_sc680v/18465xhjztf.sdf

>  <i_m_source_file_index>  (548) 
13

>  <i_lp_mmshare_version>  (548) 
48012

>  <i_f3d_flags>  (548) 
0

>  <s_epik_input>  (548) 
W0NIM11jMVtjSF1jKFtDSDNdKW5jKG4xMiljKFtjSF1uMilDKD1PKVtPSF0=

>  <s_epik_cmdline>  (548) 
J2VwaWtfcHl0aG9uJywgJy1waHQnLCAnMi4wJywgJy1waCcsICc3LjAnLCAnLXRuJywgJzgnLCAnLW1hJywgJzIwMCcsICctaW1hZScsICc8aW5maWxlLm1hZT4nLCAnLW9tYWUnLCAnPG91dGZpbGUubWFlPic=

>  <r_lp_tautomer_probability>  (548) 
1

>  <r_epik_Ionization_Penalty>  (548) 
1.51434e-05

>  <r_epik_Ionization_Penalty_Charging>  (548) 
1.486e-05

>  <r_epik_Ionization_Penalty_Neutral>  (548) 
2.8336e-07

>  <r_epik_State_Penalty>  (548) 
-0

>  <r_epik_Charging_Adjusted_Penalty>  (548) 
1.486e-05

>  <i_epik_Tot_Q>  (548) 
-1

>  <i_epik_Tot_abs_Q>  (548) 
1

>  <s_lp_Force_Field>  (548) 
OPLS3e

>  <r_lp_Energy>  (548) 
7.7718

>  <b_lp_Chiralities_Consistent>  (548) 
1

>  <s_lp_Variant>  (548) 
117:0-1

>  <s_i_glide_gridfile>  (548) 
pfpi4k_grid

>  <i_i_glide_lignum>  (548) 
13

>  <i_i_glide_rotatable_bonds>  (548) 
1

>  <r_i_docking_score>  (548) 
-3.90277

>  <r_i_glide_ligand_efficiency>  (548) 
-0.278769

>  <r_i_glide_ligand_efficiency_sa>  (548) 
-0.671874

>  <r_i_glide_ligand_efficiency_ln>  (548) 
-1.07247

>  <r_i_glide_gscore>  (548) 
-3.90277

>  <r_i_glide_lipo>  (548) 
-0.106061

>  <r_i_glide_hbond>  (548) 
-0.307666

>  <r_i_glide_metal>  (548) 
-0

>  <r_i_glide_rewards>  (548) 
-2.11242

>  <r_i_glide_evdw>  (548) 
-15.6819

>  <r_i_glide_ecoul>  (548) 
-3.43615

>  <r_i_glide_erotb>  (548) 
0

>  <r_i_glide_esite>  (548) 
-0.0771109

>  <r_i_glide_emodel>  (548) 
-27.3792

>  <r_i_glide_energy>  (548) 
-19.118

>  <r_i_glide_einternal>  (548) 
0.684859

>  <r_i_glide_intrahb_reward>  (548) 
-0

>  <i_i_glide_confnum>  (548) 
2

>  <i_i_glide_posenum>  (548) 
20

>  <r_i_glide_eff_state_penalty>  (548) 
0

>  <ligand_id>  (548) 
117

>  <original_smiles>  (548) 
Cc1cc(C)n2ncc(C(=O)O)c2n1

>  <smiles>  (548) 
[H]c1nn2c(C([H])([H])[H])c([H])c(C([H])([H])[H])nc2c1C(=O)[O-]

$$$$
117:0:2
     RDKit          3D

 22 23  0  0  1  0  0  0  0  0999 V2000
   -1.2897   -4.7218    7.7462 C   0  0  0  0  0  0  0  0  0  0  0  0
   -0.6110   -3.9548    6.6258 C   0  0  0  0  0  0  0  0  0  0  0  0
    0.3489   -4.5978    5.8095 C   0  0  0  0  0  0  0  0  0  0  0  0
    0.9383   -3.8722    4.8031 C   0  0  0  0  0  0  0  0  0  0  0  0
    1.9812   -4.4589    3.8730 C   0  0  0  0  0  0  0  0  0  0  0  0
    0.5644   -2.5704    4.6383 N   0  0  0  0  0  0  0  0  0  0  0  0
    1.0419   -1.6965    3.6864 N   0  0  0  0  0  0  0  0  0  0  0  0
    0.3936   -0.5817    3.9327 C   0  0  0  0  0  0  0  0  0  0  0  0
   -0.5116   -0.6837    5.0117 C   0  0  0  0  0  0  0  0  0  0  0  0
   -1.4024    0.3736    5.5526 C   0  0  0  0  0  0  0  0  0  0  0  0
   -2.1936    0.1312    6.4803 O   0  0  0  0  0  0  0  0  0  0  0  0
   -1.3452    1.5120    5.0489 O   0  0  0  0  0  0  0  0  0  0  0  0
   -0.4079   -1.9720    5.4822 C   0  0  0  0  0  0  0  0  0  0  0  0
   -0.9861   -2.6871    6.4725 N   0  0  0  0  0  0  0  0  0  0  0  0
   -0.9271   -5.7495    7.7975 H   0  0  0  0  0  0  0  0  0  0  0  0
   -2.3677   -4.7544    7.5909 H   0  0  0  0  0  0  0  0  0  0  0  0
   -1.0882   -4.2502    8.7067 H   0  0  0  0  0  0  0  0  0  0  0  0
    0.6257   -5.6339    5.9653 H   0  0  0  0  0  0  0  0  0  0  0  0
    2.1832   -5.4992    4.1162 H   0  0  0  0  0  0  0  0  0  0  0  0
    2.9181   -3.9076    3.9508 H   0  0  0  0  0  0  0  0  0  0  0  0
    1.6423   -4.4128    2.8387 H   0  0  0  0  0  0  0  0  0  0  0  0
    0.5652    0.3015    3.3308 H   0  0  0  0  0  0  0  0  0  0  0  0
  1  2  1  0
  1 15  1  0
  1 16  1  0
  1 17  1  0
  2 14  2  0
  2  3  1  0
  3  4  2  0
  3 18  1  0
  4  5  1  0
  4  6  1  0
  5 19  1  0
  5 20  1  0
  5 21  1  0
  6 13  1  0
  6  7  1  0
  7  8  2  0
  8  9  1  0
  8 22  1  0
  9 10  1  0
  9 13  2  0
 10 11  2  0
 10 12  1  0
 13 14  1  0
M  CHG  1  12  -1
M  END
>  <i_m_ct_stereo_status>  (549) 
1

>  <s_m_source_file>  (549) 
/var/tmp/pbs.5102264.sched01/tmpp_sc680v/18465xhjztf.sdf

>  <i_m_source_file_index>  (549) 
13

>  <i_lp_mmshare_version>  (549) 
48012

>  <i_f3d_flags>  (549) 
0

>  <s_epik_input>  (549) 
W0NIM11jMVtjSF1jKFtDSDNdKW5jKG4xMiljKFtjSF1uMilDKD1PKVtPSF0=

>  <s_epik_cmdline>  (549) 
J2VwaWtfcHl0aG9uJywgJy1waHQnLCAnMi4wJywgJy1waCcsICc3LjAnLCAnLXRuJywgJzgnLCAnLW1hJywgJzIwMCcsICctaW1hZScsICc8aW5maWxlLm1hZT4nLCAnLW9tYWUnLCAnPG91dGZpbGUubWFlPic=

>  <r_lp_tautomer_probability>  (549) 
1

>  <r_epik_Ionization_Penalty>  (549) 
1.51434e-05

>  <r_epik_Ionization_Penalty_Charging>  (549) 
1.486e-05

>  <r_epik_Ionization_Penalty_Neutral>  (549) 
2.8336e-07

>  <r_epik_State_Penalty>  (549) 
-0

>  <r_epik_Charging_Adjusted_Penalty>  (549) 
1.486e-05

>  <i_epik_Tot_Q>  (549) 
-1

>  <i_epik_Tot_abs_Q>  (549) 
1

>  <s_lp_Force_Field>  (549) 
OPLS3e

>  <r_lp_Energy>  (549) 
7.7718

>  <b_lp_Chiralities_Consistent>  (549) 
1

>  <s_lp_Variant>  (549) 
117:0-1

>  <s_i_glide_gridfile>  (549) 
pfpi4k_grid

>  <i_i_glide_lignum>  (549) 
13

>  <i_i_glide_rotatable_bonds>  (549) 
1

>  <r_i_docking_score>  (549) 
-3.80749

>  <r_i_glide_ligand_efficiency>  (549) 
-0.271964

>  <r_i_glide_ligand_efficiency_sa>  (549) 
-0.655472

>  <r_i_glide_ligand_efficiency_ln>  (549) 
-1.04629

>  <r_i_glide_gscore>  (549) 
-3.80749

>  <r_i_glide_lipo>  (549) 
-0.0139248

>  <r_i_glide_hbond>  (549) 
-0.2

>  <r_i_glide_metal>  (549) 
-0

>  <r_i_glide_rewards>  (549) 
-2.15059

>  <r_i_glide_evdw>  (549) 
-11.9351

>  <r_i_glide_ecoul>  (549) 
-5.17698

>  <r_i_glide_erotb>  (549) 
0

>  <r_i_glide_esite>  (549) 
-0.0696724

>  <r_i_glide_emodel>  (549) 
-25.5831

>  <r_i_glide_energy>  (549) 
-17.1121

>  <r_i_glide_einternal>  (549) 
0.0139594

>  <r_i_glide_intrahb_reward>  (549) 
-0

>  <i_i_glide_confnum>  (549) 
1

>  <i_i_glide_posenum>  (549) 
2

>  <r_i_glide_eff_state_penalty>  (549) 
0

>  <ligand_id>  (549) 
117

>  <original_smiles>  (549) 
Cc1cc(C)n2ncc(C(=O)O)c2n1

>  <smiles>  (549) 
[H]c1nn2c(C([H])([H])[H])c([H])c(C([H])([H])[H])nc2c1C(=O)[O-]

$$$$
118:0:0
     RDKit          3D

 32 34  0  0  1  0  0  0  0  0999 V2000
    7.3425   -2.8032   -1.5252 O   0  0  0  0  0  0  0  0  0  0  0  0
    6.0851   -2.2190   -1.2608 C   0  0  2  0  0  0  0  0  0  0  0  0
    6.1539   -1.5119    0.1025 C   0  0  0  0  0  0  0  0  0  0  0  0
    4.8906   -0.9256    0.3841 O   0  0  0  0  0  0  0  0  0  0  0  0
    3.8507   -1.8502    0.5003 C   0  0  1  0  0  0  0  0  0  0  0  0
    2.6164   -1.2205    0.8908 N   0  0  0  0  0  0  0  0  0  0  0  0
    2.1189   -1.0651    2.1839 C   0  0  0  0  0  0  0  0  0  0  0  0
    2.4666   -1.5838    3.4177 C   0  0  0  0  0  0  0  0  0  0  0  0
    1.6080   -1.2008    4.4813 N   0  0  0  0  0  0  0  0  0  0  0  0
    0.7991   -0.4202    3.8310 C   0  0  0  0  0  0  0  0  0  0  0  0
   -0.3221    0.3303    4.2588 C   0  0  0  0  0  0  0  0  0  0  0  0
   -1.1334    0.5077    5.9755 Br  0  0  0  0  0  0  0  0  0  0  0  0
   -0.6716    0.9098    2.9686 C   0  0  0  0  0  0  0  0  0  0  0  0
    0.1617    0.5114    1.9549 N   0  0  0  0  0  0  0  0  0  0  0  0
    1.0355   -0.2949    2.5244 N   0  0  0  0  0  0  0  0  0  0  0  0
    3.6446   -2.5875   -0.8377 C   0  0  1  0  0  0  0  0  0  0  0  0
    3.1662   -1.7148   -1.8580 O   0  0  0  0  0  0  0  0  0  0  0  0
    4.9683   -3.2695   -1.2374 C   0  0  1  0  0  0  0  0  0  0  0  0
    4.8166   -3.8577   -2.5143 O   0  0  0  0  0  0  0  0  0  0  0  0
    0.0729    0.7553    0.9698 H   0  0  0  0  0  0  0  0  0  0  0  0
    7.3107   -3.1664   -2.4004 H   0  0  0  0  0  0  0  0  0  0  0  0
    5.8729   -1.4860   -2.0421 H   0  0  0  0  0  0  0  0  0  0  0  0
    6.4404   -2.1917    0.9071 H   0  0  0  0  0  0  0  0  0  0  0  0
    6.8927   -0.7117    0.0883 H   0  0  0  0  0  0  0  0  0  0  0  0
    4.1173   -2.5345    1.3040 H   0  0  0  0  0  0  0  0  0  0  0  0
    1.9575   -0.9737    0.1464 H   0  0  0  0  0  0  0  0  0  0  0  0
    3.2759   -2.2613    3.6080 H   0  0  0  0  0  0  0  0  0  0  0  0
   -1.4741    1.5592    2.6927 H   0  0  0  0  0  0  0  0  0  0  0  0
    2.8782   -3.3381   -0.6561 H   0  0  0  0  0  0  0  0  0  0  0  0
    2.3285   -1.3575   -1.5753 H   0  0  0  0  0  0  0  0  0  0  0  0
    5.2023   -4.0510   -0.5088 H   0  0  0  0  0  0  0  0  0  0  0  0
    4.1274   -4.5166   -2.4649 H   0  0  0  0  0  0  0  0  0  0  0  0
  1  2  1  0
  1 21  1  0
  2 18  1  0
  2  3  1  0
  2 22  1  6
  3  4  1  0
  3 23  1  0
  3 24  1  0
  4  5  1  0
  5  6  1  0
  5 16  1  0
  5 25  1  1
  6  7  1  0
  6 26  1  0
  7 15  1  0
  7  8  2  0
  8  9  1  0
  8 27  1  0
  9 10  2  0
 10 15  1  0
 10 11  1  0
 11 12  1  0
 11 13  2  0
 13 14  1  0
 13 28  1  0
 14 20  1  0
 14 15  1  0
 16 17  1  0
 16 18  1  0
 16 29  1  1
 17 30  1  0
 18 19  1  0
 18 31  1  1
 19 32  1  0
M  END
>  <i_m_ct_stereo_status>  (550) 
1

>  <s_m_source_file>  (550) 
/var/tmp/pbs.5102264.sched01/tmpp_sc680v/18465xhjztf.sdf

>  <i_m_source_file_index>  (550) 
14

>  <i_lp_mmshare_version>  (550) 
48012

>  <i_f3d_flags>  (550) 
0

>  <s_epik_input>  (550) 
W09IXVtDQEBIXTFbQ0gyXU9bQ0BIXShbQ0BASF0oW09IXSlbQ0BIXTFbT0hdKVtOSF1jKFtjSF1uMiluKGMyMylbbkhdW2NIXWMzQnI=

>  <s_epik_cmdline>  (550) 
J2VwaWtfcHl0aG9uJywgJy1waHQnLCAnMi4wJywgJy1waCcsICc3LjAnLCAnLXRuJywgJzgnLCAnLW1hJywgJzIwMCcsICctaW1hZScsICc8aW5maWxlLm1hZT4nLCAnLW9tYWUnLCAnPG91dGZpbGUubWFlPic=

>  <r_lp_tautomer_probability>  (550) 
1

>  <r_epik_Ionization_Penalty>  (550) 
0.00017133

>  <r_epik_Ionization_Penalty_Charging>  (550) 
8.76066e-05

>  <r_epik_Ionization_Penalty_Neutral>  (550) 
8.37234e-05

>  <r_epik_State_Penalty>  (550) 
-0

>  <r_epik_Charging_Adjusted_Penalty>  (550) 
8.76066e-05

>  <i_epik_Tot_Q>  (550) 
0

>  <i_epik_Tot_abs_Q>  (550) 
0

>  <s_epik_Chemistry_Notes>  (550) 
This compound contains an acetal/aminal-like group ( X-CH(R)-Y where X, Y are N, S, or O) that may be acid/base labile, releasing an aldehyde.

>  <s_lp_Force_Field>  (550) 
OPLS3e

>  <r_lp_Energy>  (550) 
22.9688

>  <b_lp_Chiralities_Consistent>  (550) 
1

>  <s_lp_Variant>  (550) 
118:0-1

>  <s_i_glide_gridfile>  (550) 
pfpi4k_grid

>  <i_i_glide_lignum>  (550) 
14

>  <i_i_glide_rotatable_bonds>  (550) 
5

>  <r_i_docking_score>  (550) 
-4.75261

>  <r_i_glide_ligand_efficiency>  (550) 
-0.250138

>  <r_i_glide_ligand_efficiency_sa>  (550) 
-0.667467

>  <r_i_glide_ligand_efficiency_ln>  (550) 
-1.20489

>  <r_i_glide_gscore>  (550) 
-4.75261

>  <r_i_glide_lipo>  (550) 
-0.0547691

>  <r_i_glide_hbond>  (550) 
-0.252221

>  <r_i_glide_metal>  (550) 
-0

>  <r_i_glide_rewards>  (550) 
-1.13769

>  <r_i_glide_evdw>  (550) 
-21.2011

>  <r_i_glide_ecoul>  (550) 
-15.7757

>  <r_i_glide_erotb>  (550) 
0.339582

>  <r_i_glide_esite>  (550) 
-0.221105

>  <r_i_glide_emodel>  (550) 
-49.9153

>  <r_i_glide_energy>  (550) 
-36.9768

>  <r_i_glide_einternal>  (550) 
2.39083

>  <r_i_glide_intrahb_reward>  (550) 
-0

>  <i_i_glide_confnum>  (550) 
1

>  <i_i_glide_posenum>  (550) 
16

>  <r_i_glide_eff_state_penalty>  (550) 
0

>  <ligand_id>  (550) 
118

>  <original_smiles>  (550) 
OC1COC(Nc2cnc3c(Br)c[nH]n23)C(O)C1O

>  <smiles>  (550) 
[H]OC1([H])C([H])([H])OC([H])(N([H])c2c([H])nc3c(Br)c([H])n([H])n23)C([H])(O[H])C1([H])O[H]

$$$$
118:0:1
     RDKit          3D

 32 34  0  0  1  0  0  0  0  0999 V2000
    4.6089   -4.2566   -3.9031 O   0  0  0  0  0  0  0  0  0  0  0  0
    4.7509   -3.1741   -3.0150 C   0  0  2  0  0  0  0  0  0  0  0  0
    4.9049   -3.6919   -1.5727 C   0  0  0  0  0  0  0  0  0  0  0  0
    4.9834   -2.5992   -0.6714 O   0  0  0  0  0  0  0  0  0  0  0  0
    3.8499   -1.7911   -0.6459 C   0  0  1  0  0  0  0  0  0  0  0  0
    3.9670   -0.7426    0.3405 N   0  0  0  0  0  0  0  0  0  0  0  0
    3.1575   -0.5745    1.4495 C   0  0  0  0  0  0  0  0  0  0  0  0
    2.6840    0.5356    2.1323 C   0  0  0  0  0  0  0  0  0  0  0  0
    1.8439    0.2174    3.2344 N   0  0  0  0  0  0  0  0  0  0  0  0
    1.8579   -1.0772    3.1525 C   0  0  0  0  0  0  0  0  0  0  0  0
    1.2580   -2.0881    3.9365 C   0  0  0  0  0  0  0  0  0  0  0  0
    0.1112   -1.9741    5.4536 Br  0  0  0  0  0  0  0  0  0  0  0  0
    1.7730   -3.2522    3.2269 C   0  0  0  0  0  0  0  0  0  0  0  0
    2.5664   -2.9021    2.1615 N   0  0  0  0  0  0  0  0  0  0  0  0
    2.5809   -1.5891    2.1627 N   0  0  0  0  0  0  0  0  0  0  0  0
    3.6143   -1.1734   -2.0385 C   0  0  1  0  0  0  0  0  0  0  0  0
    4.6407   -0.2593   -2.3671 O   0  0  0  0  0  0  0  0  0  0  0  0
    3.5088   -2.2849   -3.0900 C   0  0  1  0  0  0  0  0  0  0  0  0
    3.4226   -1.6899   -4.3694 O   0  0  0  0  0  0  0  0  0  0  0  0
    3.0510   -3.5196    1.5223 H   0  0  0  0  0  0  0  0  0  0  0  0
    3.9914   -4.8705   -3.5140 H   0  0  0  0  0  0  0  0  0  0  0  0
    5.6418   -2.6087   -3.2911 H   0  0  0  0  0  0  0  0  0  0  0  0
    4.0782   -4.3396   -1.2742 H   0  0  0  0  0  0  0  0  0  0  0  0
    5.8225   -4.2663   -1.4713 H   0  0  0  0  0  0  0  0  0  0  0  0
    2.9848   -2.4025   -0.3789 H   0  0  0  0  0  0  0  0  0  0  0  0
    4.4803    0.0710    0.0259 H   0  0  0  0  0  0  0  0  0  0  0  0
    2.8749    1.5724    1.8969 H   0  0  0  0  0  0  0  0  0  0  0  0
    1.6174   -4.3051    3.4039 H   0  0  0  0  0  0  0  0  0  0  0  0
    2.6537   -0.6621   -2.0132 H   0  0  0  0  0  0  0  0  0  0  0  0
    4.6227    0.4661   -1.7531 H   0  0  0  0  0  0  0  0  0  0  0  0
    2.6025   -2.8710   -2.9145 H   0  0  0  0  0  0  0  0  0  0  0  0
    2.5555   -1.3385   -4.4893 H   0  0  0  0  0  0  0  0  0  0  0  0
  1  2  1  0
  1 21  1  0
  2 18  1  0
  2  3  1  0
  2 22  1  6
  3  4  1  0
  3 23  1  0
  3 24  1  0
  4  5  1  0
  5  6  1  0
  5 16  1  0
  5 25  1  1
  6  7  1  0
  6 26  1  0
  7 15  1  0
  7  8  2  0
  8  9  1  0
  8 27  1  0
  9 10  2  0
 10 15  1  0
 10 11  1  0
 11 12  1  0
 11 13  2  0
 13 14  1  0
 13 28  1  0
 14 20  1  0
 14 15  1  0
 16 17  1  0
 16 18  1  0
 16 29  1  1
 17 30  1  0
 18 19  1  0
 18 31  1  1
 19 32  1  0
M  END
>  <i_m_ct_stereo_status>  (551) 
1

>  <s_m_source_file>  (551) 
/var/tmp/pbs.5102264.sched01/tmpp_sc680v/18465xhjztf.sdf

>  <i_m_source_file_index>  (551) 
14

>  <i_lp_mmshare_version>  (551) 
48012

>  <i_f3d_flags>  (551) 
0

>  <s_epik_input>  (551) 
W09IXVtDQEBIXTFbQ0gyXU9bQ0BIXShbQ0BASF0oW09IXSlbQ0BIXTFbT0hdKVtOSF1jKFtjSF1uMiluKGMyMylbbkhdW2NIXWMzQnI=

>  <s_epik_cmdline>  (551) 
J2VwaWtfcHl0aG9uJywgJy1waHQnLCAnMi4wJywgJy1waCcsICc3LjAnLCAnLXRuJywgJzgnLCAnLW1hJywgJzIwMCcsICctaW1hZScsICc8aW5maWxlLm1hZT4nLCAnLW9tYWUnLCAnPG91dGZpbGUubWFlPic=

>  <r_lp_tautomer_probability>  (551) 
1

>  <r_epik_Ionization_Penalty>  (551) 
0.00017133

>  <r_epik_Ionization_Penalty_Charging>  (551) 
8.76066e-05

>  <r_epik_Ionization_Penalty_Neutral>  (551) 
8.37234e-05

>  <r_epik_State_Penalty>  (551) 
-0

>  <r_epik_Charging_Adjusted_Penalty>  (551) 
8.76066e-05

>  <i_epik_Tot_Q>  (551) 
0

>  <i_epik_Tot_abs_Q>  (551) 
0

>  <s_epik_Chemistry_Notes>  (551) 
This compound contains an acetal/aminal-like group ( X-CH(R)-Y where X, Y are N, S, or O) that may be acid/base labile, releasing an aldehyde.

>  <s_lp_Force_Field>  (551) 
OPLS3e

>  <r_lp_Energy>  (551) 
22.9688

>  <b_lp_Chiralities_Consistent>  (551) 
1

>  <s_lp_Variant>  (551) 
118:0-1

>  <s_i_glide_gridfile>  (551) 
pfpi4k_grid

>  <i_i_glide_lignum>  (551) 
14

>  <i_i_glide_rotatable_bonds>  (551) 
5

>  <r_i_docking_score>  (551) 
-4.63283

>  <r_i_glide_ligand_efficiency>  (551) 
-0.243833

>  <r_i_glide_ligand_efficiency_sa>  (551) 
-0.650645

>  <r_i_glide_ligand_efficiency_ln>  (551) 
-1.17452

>  <r_i_glide_gscore>  (551) 
-4.63283

>  <r_i_glide_lipo>  (551) 
-0.293953

>  <r_i_glide_hbond>  (551) 
0

>  <r_i_glide_metal>  (551) 
-0

>  <r_i_glide_rewards>  (551) 
-1.13769

>  <r_i_glide_evdw>  (551) 
-25.4157

>  <r_i_glide_ecoul>  (551) 
-13.7879

>  <r_i_glide_erotb>  (551) 
0.237707

>  <r_i_glide_esite>  (551) 
-0.0999294

>  <r_i_glide_emodel>  (551) 
-51.8223

>  <r_i_glide_energy>  (551) 
-39.2035

>  <r_i_glide_einternal>  (551) 
2.84982

>  <r_i_glide_intrahb_reward>  (551) 
-0

>  <i_i_glide_confnum>  (551) 
4

>  <i_i_glide_posenum>  (551) 
18

>  <r_i_glide_eff_state_penalty>  (551) 
0

>  <ligand_id>  (551) 
118

>  <original_smiles>  (551) 
OC1COC(Nc2cnc3c(Br)c[nH]n23)C(O)C1O

>  <smiles>  (551) 
[H]OC1([H])C([H])([H])OC([H])(N([H])c2c([H])nc3c(Br)c([H])n([H])n23)C([H])(O[H])C1([H])O[H]

$$$$
118:0:2
     RDKit          3D

 32 34  0  0  1  0  0  0  0  0999 V2000
    4.6123   -4.2636   -3.9379 O   0  0  0  0  0  0  0  0  0  0  0  0
    4.7044   -3.2460   -2.9593 C   0  0  2  0  0  0  0  0  0  0  0  0
    4.6937   -3.8804   -1.5533 C   0  0  0  0  0  0  0  0  0  0  0  0
    4.7157   -2.8678   -0.5572 O   0  0  0  0  0  0  0  0  0  0  0  0
    3.6067   -2.0215   -0.5841 C   0  0  1  0  0  0  0  0  0  0  0  0
    3.6396   -1.0461    0.4850 N   0  0  0  0  0  0  0  0  0  0  0  0
    2.8713   -1.0690    1.6357 C   0  0  0  0  0  0  0  0  0  0  0  0
    2.1137   -2.0424    2.2708 C   0  0  0  0  0  0  0  0  0  0  0  0
    1.4295   -1.5787    3.4278 N   0  0  0  0  0  0  0  0  0  0  0  0
    1.8272   -0.3431    3.4263 C   0  0  0  0  0  0  0  0  0  0  0  0
    1.5511    0.7444    4.2849 C   0  0  0  0  0  0  0  0  0  0  0  0
    0.4676    0.8525    5.8423 Br  0  0  0  0  0  0  0  0  0  0  0  0
    2.3602    1.7617    3.6195 C   0  0  0  0  0  0  0  0  0  0  0  0
    3.0081    1.2717    2.5176 N   0  0  0  0  0  0  0  0  0  0  0  0
    2.6556    0.0077    2.4465 N   0  0  0  0  0  0  0  0  0  0  0  0
    3.5447   -1.2841   -1.9411 C   0  0  1  0  0  0  0  0  0  0  0  0
    4.6466   -0.4066   -2.0961 O   0  0  0  0  0  0  0  0  0  0  0  0
    3.5059   -2.3021   -3.0916 C   0  0  1  0  0  0  0  0  0  0  0  0
    3.5645   -1.6106   -4.3257 O   0  0  0  0  0  0  0  0  0  0  0  0
    3.6364    1.7888    1.9064 H   0  0  0  0  0  0  0  0  0  0  0  0
    3.9863   -4.8976   -3.6283 H   0  0  0  0  0  0  0  0  0  0  0  0
    5.6390   -2.7033   -3.1065 H   0  0  0  0  0  0  0  0  0  0  0  0
    3.8161   -4.5095   -1.3937 H   0  0  0  0  0  0  0  0  0  0  0  0
    5.5635   -4.5228   -1.4207 H   0  0  0  0  0  0  0  0  0  0  0  0
    2.7073   -2.6242   -0.4379 H   0  0  0  0  0  0  0  0  0  0  0  0
    4.1407   -0.2041    0.2740 H   0  0  0  0  0  0  0  0  0  0  0  0
    1.9827   -3.0728    1.9726 H   0  0  0  0  0  0  0  0  0  0  0  0
    2.5261    2.8024    3.8598 H   0  0  0  0  0  0  0  0  0  0  0  0
    2.6284   -0.6936   -1.9518 H   0  0  0  0  0  0  0  0  0  0  0  0
    4.5715    0.3051   -1.4759 H   0  0  0  0  0  0  0  0  0  0  0  0
    2.5695   -2.8628   -3.0506 H   0  0  0  0  0  0  0  0  0  0  0  0
    2.7488   -1.1452   -4.4493 H   0  0  0  0  0  0  0  0  0  0  0  0
  1  2  1  0
  1 21  1  0
  2 18  1  0
  2  3  1  0
  2 22  1  6
  3  4  1  0
  3 23  1  0
  3 24  1  0
  4  5  1  0
  5  6  1  0
  5 16  1  0
  5 25  1  1
  6  7  1  0
  6 26  1  0
  7 15  1  0
  7  8  2  0
  8  9  1  0
  8 27  1  0
  9 10  2  0
 10 15  1  0
 10 11  1  0
 11 12  1  0
 11 13  2  0
 13 14  1  0
 13 28  1  0
 14 20  1  0
 14 15  1  0
 16 17  1  0
 16 18  1  0
 16 29  1  1
 17 30  1  0
 18 19  1  0
 18 31  1  6
 19 32  1  0
M  END
>  <i_m_ct_stereo_status>  (552) 
1

>  <s_m_source_file>  (552) 
/var/tmp/pbs.5102264.sched01/tmpp_sc680v/18465xhjztf.sdf

>  <i_m_source_file_index>  (552) 
14

>  <i_lp_mmshare_version>  (552) 
48012

>  <i_f3d_flags>  (552) 
0

>  <s_epik_input>  (552) 
W09IXVtDQEBIXTFbQ0gyXU9bQ0BIXShbQ0BASF0oW09IXSlbQ0BIXTFbT0hdKVtOSF1jKFtjSF1uMiluKGMyMylbbkhdW2NIXWMzQnI=

>  <s_epik_cmdline>  (552) 
J2VwaWtfcHl0aG9uJywgJy1waHQnLCAnMi4wJywgJy1waCcsICc3LjAnLCAnLXRuJywgJzgnLCAnLW1hJywgJzIwMCcsICctaW1hZScsICc8aW5maWxlLm1hZT4nLCAnLW9tYWUnLCAnPG91dGZpbGUubWFlPic=

>  <r_lp_tautomer_probability>  (552) 
1

>  <r_epik_Ionization_Penalty>  (552) 
0.00017133

>  <r_epik_Ionization_Penalty_Charging>  (552) 
8.76066e-05

>  <r_epik_Ionization_Penalty_Neutral>  (552) 
8.37234e-05

>  <r_epik_State_Penalty>  (552) 
-0

>  <r_epik_Charging_Adjusted_Penalty>  (552) 
8.76066e-05

>  <i_epik_Tot_Q>  (552) 
0

>  <i_epik_Tot_abs_Q>  (552) 
0

>  <s_epik_Chemistry_Notes>  (552) 
This compound contains an acetal/aminal-like group ( X-CH(R)-Y where X, Y are N, S, or O) that may be acid/base labile, releasing an aldehyde.

>  <s_lp_Force_Field>  (552) 
OPLS3e

>  <r_lp_Energy>  (552) 
22.9688

>  <b_lp_Chiralities_Consistent>  (552) 
1

>  <s_lp_Variant>  (552) 
118:0-1

>  <s_i_glide_gridfile>  (552) 
pfpi4k_grid

>  <i_i_glide_lignum>  (552) 
14

>  <i_i_glide_rotatable_bonds>  (552) 
5

>  <r_i_docking_score>  (552) 
-4.60205

>  <r_i_glide_ligand_efficiency>  (552) 
-0.242213

>  <r_i_glide_ligand_efficiency_sa>  (552) 
-0.646322

>  <r_i_glide_ligand_efficiency_ln>  (552) 
-1.16672

>  <r_i_glide_gscore>  (552) 
-4.60205

>  <r_i_glide_lipo>  (552) 
-0.224226

>  <r_i_glide_hbond>  (552) 
-0.216999

>  <r_i_glide_metal>  (552) 
-0

>  <r_i_glide_rewards>  (552) 
-1.13769

>  <r_i_glide_evdw>  (552) 
-22.5668

>  <r_i_glide_ecoul>  (552) 
-13.3729

>  <r_i_glide_erotb>  (552) 
0.237707

>  <r_i_glide_esite>  (552) 
-0.126568

>  <r_i_glide_emodel>  (552) 
-49.2811

>  <r_i_glide_energy>  (552) 
-35.9397

>  <r_i_glide_einternal>  (552) 
1.39451

>  <r_i_glide_intrahb_reward>  (552) 
-0

>  <i_i_glide_confnum>  (552) 
5

>  <i_i_glide_posenum>  (552) 
22

>  <r_i_glide_eff_state_penalty>  (552) 
0

>  <ligand_id>  (552) 
118

>  <original_smiles>  (552) 
OC1COC(Nc2cnc3c(Br)c[nH]n23)C(O)C1O

>  <smiles>  (552) 
[H]OC1([H])C([H])([H])OC([H])(N([H])c2c([H])nc3c(Br)c([H])n([H])n23)C([H])(O[H])C1([H])O[H]

$$$$
119:0:0
     RDKit          3D

 32 34  0  0  1  0  0  0  0  0999 V2000
   -0.4646   -9.8181    3.1244 C   0  0  0  0  0  0  0  0  0  0  0  0
    0.3772   -8.7516    2.5396 N   0  0  0  0  0  0  0  0  0  0  0  0
   -0.1800   -7.5699    2.2575 C   0  0  0  0  0  0  0  0  0  0  0  0
    0.4720   -6.5450    1.7104 N   0  0  0  0  0  0  0  0  0  0  0  0
    1.7800   -6.6791    1.4249 C   0  0  0  0  0  0  0  0  0  0  0  0
    2.4172   -5.6292    0.8810 N   0  0  0  0  0  0  0  0  0  0  0  0
    3.7334   -5.7173    0.5744 C   0  0  0  0  0  0  0  0  0  0  0  0
    4.3524   -4.4990   -0.0071 C   0  0  0  0  0  0  0  0  0  0  0  0
    5.7566   -4.3186   -0.0535 C   0  0  0  0  0  0  0  0  0  0  0  0
    6.2896   -3.1538   -0.6345 C   0  0  0  0  0  0  0  0  0  0  0  0
    5.5330   -2.1748   -1.1689 N   0  0  0  0  0  0  0  0  0  0  0  0
    4.1930   -2.3392   -1.1386 C   0  0  0  0  0  0  0  0  0  0  0  0
    3.4221   -1.3590   -1.7525 N   0  0  0  0  0  0  0  0  0  0  0  0
    3.5696   -3.4583   -0.5623 C   0  0  0  0  0  0  0  0  0  0  0  0
    4.4620   -6.9046    0.8054 C   0  0  0  0  0  0  0  0  0  0  0  0
    3.8042   -8.0069    1.3687 C   0  0  0  0  0  0  0  0  0  0  0  0
    2.4359   -7.8815    1.6846 C   0  0  0  0  0  0  0  0  0  0  0  0
    1.6920   -8.9379    2.2515 C   0  0  0  0  0  0  0  0  0  0  0  0
    2.2688  -10.1802    2.5370 N   0  0  0  0  0  0  0  0  0  0  0  0
    3.8374   -0.4906   -2.0528 H   0  0  0  0  0  0  0  0  0  0  0  0
   -1.4853   -9.4574    3.2723 H   0  0  0  0  0  0  0  0  0  0  0  0
   -0.0549  -10.1187    4.0910 H   0  0  0  0  0  0  0  0  0  0  0  0
   -0.4867  -10.6562    2.4285 H   0  0  0  0  0  0  0  0  0  0  0  0
   -1.2265   -7.4565    2.4956 H   0  0  0  0  0  0  0  0  0  0  0  0
    6.4441   -5.0478    0.3462 H   0  0  0  0  0  0  0  0  0  0  0  0
    7.3573   -3.0087   -0.6753 H   0  0  0  0  0  0  0  0  0  0  0  0
    2.4168   -1.3203   -1.5790 H   0  0  0  0  0  0  0  0  0  0  0  0
    2.4941   -3.5231   -0.5879 H   0  0  0  0  0  0  0  0  0  0  0  0
    5.5032   -6.9935    0.5401 H   0  0  0  0  0  0  0  0  0  0  0  0
    4.3490   -8.9275    1.5309 H   0  0  0  0  0  0  0  0  0  0  0  0
    3.2234  -10.4191    2.2965 H   0  0  0  0  0  0  0  0  0  0  0  0
    1.6962  -10.9219    2.9175 H   0  0  0  0  0  0  0  0  0  0  0  0
  1  2  1  0
  1 21  1  0
  1 22  1  0
  1 23  1  0
  2 18  2  0
  2  3  1  0
  3  4  2  0
  3 24  1  0
  4  5  1  0
  5 17  2  0
  5  6  1  0
  6  7  2  0
  7 15  1  0
  7  8  1  0
  8 14  1  0
  8  9  2  0
  9 25  1  0
  9 10  1  0
 10 11  2  0
 10 26  1  0
 11 12  1  0
 12 13  1  0
 12 14  2  0
 13 27  1  0
 13 20  1  0
 14 28  1  0
 15 16  2  0
 15 29  1  0
 16 17  1  0
 16 30  1  0
 17 18  1  0
 18 19  1  0
 19 31  1  0
 19 32  1  0
M  CHG  1   2   1
M  END
>  <i_m_ct_stereo_status>  (553) 
1

>  <s_m_source_file>  (553) 
/var/tmp/pbs.5102264.sched01/tmpp_sc680v/18465xhjztf.sdf

>  <i_m_source_file_index>  (553) 
15

>  <i_lp_mmshare_version>  (553) 
48012

>  <i_f3d_flags>  (553) 
0

>  <s_epik_input>  (553) 
bjFbY0hdbihbQ0gzXSkvYyg9Ti9bSF0pYyhjMTIpW2NIXVtjSF1jKG4yKS1jM1tjSF1bY0hdW25IXS9jKD1OXFtIXSlbY0hdMw==

>  <s_epik_cmdline>  (553) 
J2VwaWtfcHl0aG9uJywgJy1waHQnLCAnMi4wJywgJy1waCcsICc3LjAnLCAnLXRuJywgJzgnLCAnLW1hJywgJzIwMCcsICctaW1hZScsICc8aW5maWxlLm1hZT4nLCAnLW9tYWUnLCAnPG91dGZpbGUubWFlPic=

>  <r_lp_tautomer_probability>  (553) 
1

>  <r_epik_Ionization_Penalty>  (553) 
0.206659

>  <r_epik_Ionization_Penalty_Charging>  (553) 
0

>  <r_epik_Ionization_Penalty_Neutral>  (553) 
0.206659

>  <r_epik_State_Penalty>  (553) 
0.19643

>  <r_epik_Charging_Adjusted_Penalty>  (553) 
0.19643

>  <i_epik_Tot_Q>  (553) 
1

>  <i_epik_Tot_abs_Q>  (553) 
1

>  <s_lp_Force_Field>  (553) 
OPLS3e

>  <r_lp_Energy>  (553) 
42.6469

>  <b_lp_Chiralities_Consistent>  (553) 
1

>  <s_lp_Variant>  (553) 
119:0-1

>  <s_i_glide_gridfile>  (553) 
pfpi4k_grid

>  <i_i_glide_lignum>  (553) 
15

>  <i_i_glide_rotatable_bonds>  (553) 
1

>  <r_i_docking_score>  (553) 
-4.40207

>  <r_i_glide_ligand_efficiency>  (553) 
-0.231688

>  <r_i_glide_ligand_efficiency_sa>  (553) 
-0.618236

>  <r_i_glide_ligand_efficiency_ln>  (553) 
-1.11602

>  <r_i_glide_gscore>  (553) 
-4.40207

>  <r_i_glide_lipo>  (553) 
-0.322139

>  <r_i_glide_hbond>  (553) 
-0.252974

>  <r_i_glide_metal>  (553) 
-0

>  <r_i_glide_rewards>  (553) 
-1.68216

>  <r_i_glide_evdw>  (553) 
-24.7854

>  <r_i_glide_ecoul>  (553) 
-6.27624

>  <r_i_glide_erotb>  (553) 
0.273803

>  <r_i_glide_esite>  (553) 
-0.237887

>  <r_i_glide_emodel>  (553) 
-42.4011

>  <r_i_glide_energy>  (553) 
-31.0616

>  <r_i_glide_einternal>  (553) 
0.101882

>  <r_i_glide_intrahb_reward>  (553) 
-0

>  <i_i_glide_confnum>  (553) 
5

>  <i_i_glide_posenum>  (553) 
31

>  <r_i_glide_eff_state_penalty>  (553) 
0

>  <ligand_id>  (553) 
119

>  <original_smiles>  (553) 
Cn1cnc2nc(-c3cc[nH]c(=N)c3)ccc2c1=N

>  <smiles>  (553) 
[H]c1nc(N([H])[H])c([H])c(-c2nc3nc([H])[n+](C([H])([H])[H])c(N([H])[H])c3c([H])c2[H])c1[H]

$$$$
119:0:1
     RDKit          3D

 32 34  0  0  1  0  0  0  0  0999 V2000
    0.7312  -11.9559    4.5339 C   0  0  0  0  0  0  0  0  0  0  0  0
    1.1922  -10.6989    3.9132 N   0  0  0  0  0  0  0  0  0  0  0  0
    0.5079   -9.5700    4.1369 C   0  0  0  0  0  0  0  0  0  0  0  0
    0.8413   -8.3873    3.6276 N   0  0  0  0  0  0  0  0  0  0  0  0
    1.9193   -8.2887    2.8326 C   0  0  0  0  0  0  0  0  0  0  0  0
    2.2348   -7.0815    2.3289 N   0  0  0  0  0  0  0  0  0  0  0  0
    3.3308   -6.9337    1.5501 C   0  0  0  0  0  0  0  0  0  0  0  0
    3.5948   -5.5590    1.0558 C   0  0  0  0  0  0  0  0  0  0  0  0
    4.4988   -5.3112   -0.0063 C   0  0  0  0  0  0  0  0  0  0  0  0
    4.7095   -3.9914   -0.4446 C   0  0  0  0  0  0  0  0  0  0  0  0
    4.1079   -2.9235    0.1112 N   0  0  0  0  0  0  0  0  0  0  0  0
    3.2548   -3.1414    1.1265 C   0  0  0  0  0  0  0  0  0  0  0  0
    2.6699   -2.0206    1.6980 N   0  0  0  0  0  0  0  0  0  0  0  0
    2.9651   -4.4239    1.6244 C   0  0  0  0  0  0  0  0  0  0  0  0
    4.1564   -8.0332    1.2260 C   0  0  0  0  0  0  0  0  0  0  0  0
    3.8235   -9.2994    1.7294 C   0  0  0  0  0  0  0  0  0  0  0  0
    2.6873   -9.4165    2.5565 C   0  0  0  0  0  0  0  0  0  0  0  0
    2.3038  -10.6506    3.1279 C   0  0  0  0  0  0  0  0  0  0  0  0
    3.0432  -11.8239    2.9313 N   0  0  0  0  0  0  0  0  0  0  0  0
    2.7905   -1.1052    1.2879 H   0  0  0  0  0  0  0  0  0  0  0  0
   -0.1484  -11.7783    5.1529 H   0  0  0  0  0  0  0  0  0  0  0  0
    1.5279  -12.3447    5.1733 H   0  0  0  0  0  0  0  0  0  0  0  0
    0.4682  -12.6525    3.7390 H   0  0  0  0  0  0  0  0  0  0  0  0
   -0.3587   -9.6376    4.7822 H   0  0  0  0  0  0  0  0  0  0  0  0
    5.0108   -6.1014   -0.5322 H   0  0  0  0  0  0  0  0  0  0  0  0
    5.3840   -3.7913   -1.2634 H   0  0  0  0  0  0  0  0  0  0  0  0
    1.9735   -2.1013    2.4245 H   0  0  0  0  0  0  0  0  0  0  0  0
    2.2710   -4.5259    2.4446 H   0  0  0  0  0  0  0  0  0  0  0  0
    5.0278   -7.9311    0.6000 H   0  0  0  0  0  0  0  0  0  0  0  0
    4.4371  -10.1515    1.4755 H   0  0  0  0  0  0  0  0  0  0  0  0
    3.7609  -11.8782    2.2089 H   0  0  0  0  0  0  0  0  0  0  0  0
    2.6647  -12.7103    3.2569 H   0  0  0  0  0  0  0  0  0  0  0  0
  1  2  1  0
  1 21  1  0
  1 22  1  0
  1 23  1  0
  2 18  2  0
  2  3  1  0
  3  4  2  0
  3 24  1  0
  4  5  1  0
  5 17  2  0
  5  6  1  0
  6  7  2  0
  7 15  1  0
  7  8  1  0
  8 14  1  0
  8  9  2  0
  9 25  1  0
  9 10  1  0
 10 11  2  0
 10 26  1  0
 11 12  1  0
 12 13  1  0
 12 14  2  0
 13 27  1  0
 13 20  1  0
 14 28  1  0
 15 16  2  0
 15 29  1  0
 16 17  1  0
 16 30  1  0
 17 18  1  0
 18 19  1  0
 19 31  1  0
 19 32  1  0
M  CHG  1   2   1
M  END
>  <i_m_ct_stereo_status>  (554) 
1

>  <s_m_source_file>  (554) 
/var/tmp/pbs.5102264.sched01/tmpp_sc680v/18465xhjztf.sdf

>  <i_m_source_file_index>  (554) 
15

>  <i_lp_mmshare_version>  (554) 
48012

>  <i_f3d_flags>  (554) 
0

>  <s_epik_input>  (554) 
bjFbY0hdbihbQ0gzXSkvYyg9Ti9bSF0pYyhjMTIpW2NIXVtjSF1jKG4yKS1jM1tjSF1bY0hdW25IXS9jKD1OXFtIXSlbY0hdMw==

>  <s_epik_cmdline>  (554) 
J2VwaWtfcHl0aG9uJywgJy1waHQnLCAnMi4wJywgJy1waCcsICc3LjAnLCAnLXRuJywgJzgnLCAnLW1hJywgJzIwMCcsICctaW1hZScsICc8aW5maWxlLm1hZT4nLCAnLW9tYWUnLCAnPG91dGZpbGUubWFlPic=

>  <r_lp_tautomer_probability>  (554) 
1

>  <r_epik_Ionization_Penalty>  (554) 
0.206659

>  <r_epik_Ionization_Penalty_Charging>  (554) 
0

>  <r_epik_Ionization_Penalty_Neutral>  (554) 
0.206659

>  <r_epik_State_Penalty>  (554) 
0.19643

>  <r_epik_Charging_Adjusted_Penalty>  (554) 
0.19643

>  <i_epik_Tot_Q>  (554) 
1

>  <i_epik_Tot_abs_Q>  (554) 
1

>  <s_lp_Force_Field>  (554) 
OPLS3e

>  <r_lp_Energy>  (554) 
42.6469

>  <b_lp_Chiralities_Consistent>  (554) 
1

>  <s_lp_Variant>  (554) 
119:0-1

>  <s_i_glide_gridfile>  (554) 
pfpi4k_grid

>  <i_i_glide_lignum>  (554) 
15

>  <i_i_glide_rotatable_bonds>  (554) 
1

>  <r_i_docking_score>  (554) 
-4.36256

>  <r_i_glide_ligand_efficiency>  (554) 
-0.229609

>  <r_i_glide_ligand_efficiency_sa>  (554) 
-0.612688

>  <r_i_glide_ligand_efficiency_ln>  (554) 
-1.106

>  <r_i_glide_gscore>  (554) 
-4.36256

>  <r_i_glide_lipo>  (554) 
-0.121656

>  <r_i_glide_hbond>  (554) 
-0.404108

>  <r_i_glide_metal>  (554) 
-0

>  <r_i_glide_rewards>  (554) 
-1.78261

>  <r_i_glide_evdw>  (554) 
-19.7682

>  <r_i_glide_ecoul>  (554) 
-7.90845

>  <r_i_glide_erotb>  (554) 
0.273803

>  <r_i_glide_esite>  (554) 
-0.153314

>  <r_i_glide_emodel>  (554) 
-38.9279

>  <r_i_glide_energy>  (554) 
-27.6766

>  <r_i_glide_einternal>  (554) 
0.0971147

>  <r_i_glide_intrahb_reward>  (554) 
-0

>  <i_i_glide_confnum>  (554) 
2

>  <i_i_glide_posenum>  (554) 
38

>  <r_i_glide_eff_state_penalty>  (554) 
0

>  <ligand_id>  (554) 
119

>  <original_smiles>  (554) 
Cn1cnc2nc(-c3cc[nH]c(=N)c3)ccc2c1=N

>  <smiles>  (554) 
[H]c1nc(N([H])[H])c([H])c(-c2nc3nc([H])[n+](C([H])([H])[H])c(N([H])[H])c3c([H])c2[H])c1[H]

$$$$
119:0:2
     RDKit          3D

 32 34  0  0  1  0  0  0  0  0999 V2000
   -0.1834   -9.9065    3.0616 C   0  0  0  0  0  0  0  0  0  0  0  0
    0.5734   -8.7661    2.4909 N   0  0  0  0  0  0  0  0  0  0  0  0
   -0.0754   -7.6292    2.2135 C   0  0  0  0  0  0  0  0  0  0  0  0
    0.4998   -6.5476    1.6874 N   0  0  0  0  0  0  0  0  0  0  0  0
    1.8165   -6.5705    1.4124 C   0  0  0  0  0  0  0  0  0  0  0  0
    2.3672   -5.4629    0.8804 N   0  0  0  0  0  0  0  0  0  0  0  0
    3.6822   -5.4539    0.5670 C   0  0  0  0  0  0  0  0  0  0  0  0
    4.2060   -4.1932    0.0015 C   0  0  0  0  0  0  0  0  0  0  0  0
    5.0129   -4.1850   -1.1564 C   0  0  0  0  0  0  0  0  0  0  0  0
    5.4906   -2.9604   -1.6594 C   0  0  0  0  0  0  0  0  0  0  0  0
    5.2438   -1.7730   -1.0698 N   0  0  0  0  0  0  0  0  0  0  0  0
    4.4808   -1.7743    0.0403 C   0  0  0  0  0  0  0  0  0  0  0  0
    4.2703   -0.5411    0.6470 N   0  0  0  0  0  0  0  0  0  0  0  0
    3.9429   -2.9466    0.6084 C   0  0  0  0  0  0  0  0  0  0  0  0
    4.5094   -6.5750    0.7785 C   0  0  0  0  0  0  0  0  0  0  0  0
    3.9407   -7.7312    1.3395 C   0  0  0  0  0  0  0  0  0  0  0  0
    2.5661   -7.7177    1.6660 C   0  0  0  0  0  0  0  0  0  0  0  0
    1.9027   -8.8418    2.2141 C   0  0  0  0  0  0  0  0  0  0  0  0
    2.5704  -10.0423    2.4843 N   0  0  0  0  0  0  0  0  0  0  0  0
    4.5766    0.3177    0.2120 H   0  0  0  0  0  0  0  0  0  0  0  0
   -1.2296   -9.6315    3.2089 H   0  0  0  0  0  0  0  0  0  0  0  0
    0.2451  -10.1772    4.0301 H   0  0  0  0  0  0  0  0  0  0  0  0
   -0.1372  -10.7461    2.3636 H   0  0  0  0  0  0  0  0  0  0  0  0
   -1.1296   -7.5981    2.4453 H   0  0  0  0  0  0  0  0  0  0  0  0
    5.2250   -5.1012   -1.6823 H   0  0  0  0  0  0  0  0  0  0  0  0
    6.0922   -2.9271   -2.5554 H   0  0  0  0  0  0  0  0  0  0  0  0
    3.6495   -0.4512    1.4377 H   0  0  0  0  0  0  0  0  0  0  0  0
    3.3460   -2.8983    1.5060 H   0  0  0  0  0  0  0  0  0  0  0  0
    5.5593   -6.5381    0.5244 H   0  0  0  0  0  0  0  0  0  0  0  0
    4.5543   -8.6043    1.5013 H   0  0  0  0  0  0  0  0  0  0  0  0
    3.5414  -10.1994    2.2512 H   0  0  0  0  0  0  0  0  0  0  0  0
    2.0599  -10.8357    2.8483 H   0  0  0  0  0  0  0  0  0  0  0  0
  1  2  1  0
  1 21  1  0
  1 22  1  0
  1 23  1  0
  2 18  2  0
  2  3  1  0
  3  4  2  0
  3 24  1  0
  4  5  1  0
  5 17  2  0
  5  6  1  0
  6  7  2  0
  7 15  1  0
  7  8  1  0
  8 14  1  0
  8  9  2  0
  9 25  1  0
  9 10  1  0
 10 11  2  0
 10 26  1  0
 11 12  1  0
 12 13  1  0
 12 14  2  0
 13 27  1  0
 13 20  1  0
 14 28  1  0
 15 16  2  0
 15 29  1  0
 16 17  1  0
 16 30  1  0
 17 18  1  0
 18 19  1  0
 19 31  1  0
 19 32  1  0
M  CHG  1   2   1
M  END
>  <i_m_ct_stereo_status>  (555) 
1

>  <s_m_source_file>  (555) 
/var/tmp/pbs.5102264.sched01/tmpp_sc680v/18465xhjztf.sdf

>  <i_m_source_file_index>  (555) 
15

>  <i_lp_mmshare_version>  (555) 
48012

>  <i_f3d_flags>  (555) 
0

>  <s_epik_input>  (555) 
bjFbY0hdbihbQ0gzXSkvYyg9Ti9bSF0pYyhjMTIpW2NIXVtjSF1jKG4yKS1jM1tjSF1bY0hdW25IXS9jKD1OXFtIXSlbY0hdMw==

>  <s_epik_cmdline>  (555) 
J2VwaWtfcHl0aG9uJywgJy1waHQnLCAnMi4wJywgJy1waCcsICc3LjAnLCAnLXRuJywgJzgnLCAnLW1hJywgJzIwMCcsICctaW1hZScsICc8aW5maWxlLm1hZT4nLCAnLW9tYWUnLCAnPG91dGZpbGUubWFlPic=

>  <r_lp_tautomer_probability>  (555) 
1

>  <r_epik_Ionization_Penalty>  (555) 
0.206659

>  <r_epik_Ionization_Penalty_Charging>  (555) 
0

>  <r_epik_Ionization_Penalty_Neutral>  (555) 
0.206659

>  <r_epik_State_Penalty>  (555) 
0.19643

>  <r_epik_Charging_Adjusted_Penalty>  (555) 
0.19643

>  <i_epik_Tot_Q>  (555) 
1

>  <i_epik_Tot_abs_Q>  (555) 
1

>  <s_lp_Force_Field>  (555) 
OPLS3e

>  <r_lp_Energy>  (555) 
42.6469

>  <b_lp_Chiralities_Consistent>  (555) 
1

>  <s_lp_Variant>  (555) 
119:0-1

>  <s_i_glide_gridfile>  (555) 
pfpi4k_grid

>  <i_i_glide_lignum>  (555) 
15

>  <i_i_glide_rotatable_bonds>  (555) 
1

>  <r_i_docking_score>  (555) 
-3.93708

>  <r_i_glide_ligand_efficiency>  (555) 
-0.207215

>  <r_i_glide_ligand_efficiency_sa>  (555) 
-0.552932

>  <r_i_glide_ligand_efficiency_ln>  (555) 
-0.998134

>  <r_i_glide_gscore>  (555) 
-3.93708

>  <r_i_glide_lipo>  (555) 
-0.199037

>  <r_i_glide_hbond>  (555) 
-0.175908

>  <r_i_glide_metal>  (555) 
-0

>  <r_i_glide_rewards>  (555) 
-1.68216

>  <r_i_glide_evdw>  (555) 
-25.3391

>  <r_i_glide_ecoul>  (555) 
-4.98961

>  <r_i_glide_erotb>  (555) 
0.273803

>  <r_i_glide_esite>  (555) 
-0.138375

>  <r_i_glide_emodel>  (555) 
-40.1537

>  <r_i_glide_energy>  (555) 
-30.3287

>  <r_i_glide_einternal>  (555) 
0.709608

>  <r_i_glide_intrahb_reward>  (555) 
-0

>  <i_i_glide_confnum>  (555) 
3

>  <i_i_glide_posenum>  (555) 
37

>  <r_i_glide_eff_state_penalty>  (555) 
0

>  <ligand_id>  (555) 
119

>  <original_smiles>  (555) 
Cn1cnc2nc(-c3cc[nH]c(=N)c3)ccc2c1=N

>  <smiles>  (555) 
[H]c1nc(N([H])[H])c([H])c(-c2nc3nc([H])[n+](C([H])([H])[H])c(N([H])[H])c3c([H])c2[H])c1[H]

$$$$
119:1:0
     RDKit          3D

 33 35  0  0  1  0  0  0  0  0999 V2000
   -0.5439   -9.8039    3.1800 C   0  0  0  0  0  0  0  0  0  0  0  0
    0.3067   -8.7581    2.5758 N   0  0  0  0  0  0  0  0  0  0  0  0
   -0.2366   -7.5725    2.2782 C   0  0  0  0  0  0  0  0  0  0  0  0
    0.4302   -6.5590    1.7180 N   0  0  0  0  0  0  0  0  0  0  0  0
    1.7335   -6.7189    1.4329 C   0  0  0  0  0  0  0  0  0  0  0  0
    2.3847   -5.6810    0.8773 N   0  0  0  0  0  0  0  0  0  0  0  0
    3.6966   -5.7946    0.5531 C   0  0  0  0  0  0  0  0  0  0  0  0
    4.3235   -4.5912   -0.0532 C   0  0  0  0  0  0  0  0  0  0  0  0
    5.7312   -4.4713   -0.1897 C   0  0  0  0  0  0  0  0  0  0  0  0
    6.2997   -3.3319   -0.7875 C   0  0  0  0  0  0  0  0  0  0  0  0
    5.4980   -2.3427   -1.2299 N   0  0  0  0  0  0  0  0  0  0  0  0
    4.1543   -2.3940   -1.1294 C   0  0  0  0  0  0  0  0  0  0  0  0
    3.4133   -1.3364   -1.6450 N   0  0  0  0  0  0  0  0  0  0  0  0
    3.5406   -3.5110   -0.5332 C   0  0  0  0  0  0  0  0  0  0  0  0
    4.4038   -6.9929    0.7867 C   0  0  0  0  0  0  0  0  0  0  0  0
    3.7352   -8.0775    1.3707 C   0  0  0  0  0  0  0  0  0  0  0  0
    2.3727   -7.9273    1.6998 C   0  0  0  0  0  0  0  0  0  0  0  0
    1.6188   -8.9642    2.2878 C   0  0  0  0  0  0  0  0  0  0  0  0
    2.1819  -10.2093    2.5926 N   0  0  0  0  0  0  0  0  0  0  0  0
    3.8346   -0.4933   -1.9989 H   0  0  0  0  0  0  0  0  0  0  0  0
   -1.5625   -9.4330    3.3166 H   0  0  0  0  0  0  0  0  0  0  0  0
   -0.1375  -10.0859    4.1531 H   0  0  0  0  0  0  0  0  0  0  0  0
   -0.5719  -10.6548    2.5009 H   0  0  0  0  0  0  0  0  0  0  0  0
   -1.2792   -7.4426    2.5159 H   0  0  0  0  0  0  0  0  0  0  0  0
    6.4057   -5.2474    0.1461 H   0  0  0  0  0  0  0  0  0  0  0  0
    7.3629   -3.2070   -0.9344 H   0  0  0  0  0  0  0  0  0  0  0  0
    2.4040   -1.2719   -1.4822 H   0  0  0  0  0  0  0  0  0  0  0  0
    2.4629   -3.5375   -0.4666 H   0  0  0  0  0  0  0  0  0  0  0  0
    5.4428   -7.1180    0.5217 H   0  0  0  0  0  0  0  0  0  0  0  0
    4.2706   -9.0014    1.5421 H   0  0  0  0  0  0  0  0  0  0  0  0
    3.1371  -10.4566    2.3593 H   0  0  0  0  0  0  0  0  0  0  0  0
    1.6063  -10.9398    2.9913 H   0  0  0  0  0  0  0  0  0  0  0  0
    5.9208   -1.5275   -1.6693 H   0  0  0  0  0  0  0  0  0  0  0  0
  1  2  1  0
  1 21  1  0
  1 22  1  0
  1 23  1  0
  2 18  2  0
  2  3  1  0
  3  4  2  0
  3 24  1  0
  4  5  1  0
  5 17  2  0
  5  6  1  0
  6  7  2  0
  7 15  1  0
  7  8  1  0
  8 14  1  0
  8  9  2  0
  9 25  1  0
  9 10  1  0
 10 11  2  0
 10 26  1  0
 11 12  1  0
 11 33  1  0
 12 13  1  0
 12 14  2  0
 13 27  1  0
 13 20  1  0
 14 28  1  0
 15 16  2  0
 15 29  1  0
 16 17  1  0
 16 30  1  0
 17 18  1  0
 18 19  1  0
 19 31  1  0
 19 32  1  0
M  CHG  2   2   1  11   1
M  END
>  <i_m_ct_stereo_status>  (556) 
1

>  <s_m_source_file>  (556) 
/var/tmp/pbs.5102264.sched01/tmpp_sc680v/18465xhjztf.sdf

>  <i_m_source_file_index>  (556) 
16

>  <i_lp_mmshare_version>  (556) 
48012

>  <i_f3d_flags>  (556) 
0

>  <s_epik_input>  (556) 
bjFbY0hdbihbQ0gzXSkvYyg9Ti9bSF0pYyhjMTIpW2NIXVtjSF1jKG4yKS1jM1tjSF1bY0hdW25IXS9jKD1OXFtIXSlbY0hdMw==

>  <s_epik_cmdline>  (556) 
J2VwaWtfcHl0aG9uJywgJy1waHQnLCAnMi4wJywgJy1waCcsICc3LjAnLCAnLXRuJywgJzgnLCAnLW1hJywgJzIwMCcsICctaW1hZScsICc8aW5maWxlLm1hZT4nLCAnLW9tYWUnLCAnPG91dGZpbGUubWFlPic=

>  <r_lp_tautomer_probability>  (556) 
0.999994

>  <r_epik_Ionization_Penalty>  (556) 
0.725171

>  <r_epik_Ionization_Penalty_Charging>  (556) 
0.724866

>  <r_epik_Ionization_Penalty_Neutral>  (556) 
0.000305089

>  <r_epik_State_Penalty>  (556) 
0.74962

>  <r_epik_Charging_Adjusted_Penalty>  (556) 
1.47449

>  <i_epik_Tot_Q>  (556) 
2

>  <i_epik_Tot_abs_Q>  (556) 
2

>  <s_lp_Force_Field>  (556) 
OPLS3e

>  <r_lp_Energy>  (556) 
48.791

>  <b_lp_Chiralities_Consistent>  (556) 
1

>  <s_lp_Variant>  (556) 
119:0-2

>  <s_i_glide_gridfile>  (556) 
pfpi4k_grid

>  <i_i_glide_lignum>  (556) 
16

>  <i_i_glide_rotatable_bonds>  (556) 
1

>  <r_i_docking_score>  (556) 
-4.49278

>  <r_i_glide_ligand_efficiency>  (556) 
-0.236462

>  <r_i_glide_ligand_efficiency_sa>  (556) 
-0.630976

>  <r_i_glide_ligand_efficiency_ln>  (556) 
-1.13902

>  <r_i_glide_gscore>  (556) 
-4.49278

>  <r_i_glide_lipo>  (556) 
-0.355883

>  <r_i_glide_hbond>  (556) 
-0.291849

>  <r_i_glide_metal>  (556) 
-0

>  <r_i_glide_rewards>  (556) 
-1.67529

>  <r_i_glide_evdw>  (556) 
-21.878

>  <r_i_glide_ecoul>  (556) 
-7.19828

>  <r_i_glide_erotb>  (556) 
0.271942

>  <r_i_glide_esite>  (556) 
-0.268058

>  <r_i_glide_emodel>  (556) 
-40.955

>  <r_i_glide_energy>  (556) 
-29.0762

>  <r_i_glide_einternal>  (556) 
0.137133

>  <r_i_glide_intrahb_reward>  (556) 
-0

>  <i_i_glide_confnum>  (556) 
3

>  <i_i_glide_posenum>  (556) 
35

>  <r_i_glide_eff_state_penalty>  (556) 
0

>  <ligand_id>  (556) 
119

>  <original_smiles>  (556) 
Cn1cnc2nc(-c3cc[nH]c(=N)c3)ccc2c1=N

>  <smiles>  (556) 
[H]c1c(-c2c([H])c([H])[n+]([H])c(N([H])[H])c2[H])nc2nc([H])[n+](C([H])([H])[H])c(N([H])[H])c2c1[H]

$$$$
119:1:1
     RDKit          3D

 33 35  0  0  1  0  0  0  0  0999 V2000
    4.3853   -2.3938   -0.6140 C   0  0  0  0  0  0  0  0  0  0  0  0
    4.0264   -3.6436    0.0912 N   0  0  0  0  0  0  0  0  0  0  0  0
    4.6063   -4.7995   -0.2708 C   0  0  0  0  0  0  0  0  0  0  0  0
    4.3535   -5.9683    0.3158 N   0  0  0  0  0  0  0  0  0  0  0  0
    3.4438   -6.0472    1.2994 C   0  0  0  0  0  0  0  0  0  0  0  0
    3.1778   -7.2484    1.8507 N   0  0  0  0  0  0  0  0  0  0  0  0
    2.2712   -7.3632    2.8510 C   0  0  0  0  0  0  0  0  0  0  0  0
    2.0778   -8.7463    3.3829 C   0  0  0  0  0  0  0  0  0  0  0  0
    1.1843   -9.0079    4.4574 C   0  0  0  0  0  0  0  0  0  0  0  0
    1.0136  -10.3190    4.9383 C   0  0  0  0  0  0  0  0  0  0  0  0
    1.7235  -11.3257    4.3962 N   0  0  0  0  0  0  0  0  0  0  0  0
    2.6149  -11.1586    3.3928 C   0  0  0  0  0  0  0  0  0  0  0  0
    3.3567  -12.2525    2.9279 N   0  0  0  0  0  0  0  0  0  0  0  0
    2.7848   -9.8637    2.8545 C   0  0  0  0  0  0  0  0  0  0  0  0
    1.5818   -6.2254    3.3389 C   0  0  0  0  0  0  0  0  0  0  0  0
    1.8503   -4.9730    2.7721 C   0  0  0  0  0  0  0  0  0  0  0  0
    2.7929   -4.8910    1.7300 C   0  0  0  0  0  0  0  0  0  0  0  0
    3.1212   -3.6645    1.1074 C   0  0  0  0  0  0  0  0  0  0  0  0
    2.5523   -2.4485    1.5008 N   0  0  0  0  0  0  0  0  0  0  0  0
    3.0366  -13.1855    3.1999 H   0  0  0  0  0  0  0  0  0  0  0  0
    5.1294   -2.6046   -1.3852 H   0  0  0  0  0  0  0  0  0  0  0  0
    4.8093   -1.6815    0.1014 H   0  0  0  0  0  0  0  0  0  0  0  0
    3.4927   -1.9709   -1.0886 H   0  0  0  0  0  0  0  0  0  0  0  0
    5.3169   -4.7680   -1.0824 H   0  0  0  0  0  0  0  0  0  0  0  0
    0.6109   -8.2340    4.9473 H   0  0  0  0  0  0  0  0  0  0  0  0
    0.3476  -10.5854    5.7546 H   0  0  0  0  0  0  0  0  0  0  0  0
    3.7895  -12.2065    1.9880 H   0  0  0  0  0  0  0  0  0  0  0  0
    3.4853   -9.7354    2.0437 H   0  0  0  0  0  0  0  0  0  0  0  0
    0.8694   -6.2751    4.1470 H   0  0  0  0  0  0  0  0  0  0  0  0
    1.3373   -4.1017    3.1456 H   0  0  0  0  0  0  0  0  0  0  0  0
    1.8161   -2.3977    2.1989 H   0  0  0  0  0  0  0  0  0  0  0  0
    2.7210   -1.6167    0.9433 H   0  0  0  0  0  0  0  0  0  0  0  0
    1.5839  -12.2553    4.7971 H   0  0  0  0  0  0  0  0  0  0  0  0
  1  2  1  0
  1 21  1  0
  1 22  1  0
  1 23  1  0
  2 18  2  0
  2  3  1  0
  3  4  2  0
  3 24  1  0
  4  5  1  0
  5 17  2  0
  5  6  1  0
  6  7  2  0
  7 15  1  0
  7  8  1  0
  8 14  1  0
  8  9  2  0
  9 25  1  0
  9 10  1  0
 10 11  2  0
 10 26  1  0
 11 12  1  0
 11 33  1  0
 12 13  1  0
 12 14  2  0
 13 27  1  0
 13 20  1  0
 14 28  1  0
 15 16  2  0
 15 29  1  0
 16 17  1  0
 16 30  1  0
 17 18  1  0
 18 19  1  0
 19 31  1  0
 19 32  1  0
M  CHG  2   2   1  11   1
M  END
>  <i_m_ct_stereo_status>  (557) 
1

>  <s_m_source_file>  (557) 
/var/tmp/pbs.5102264.sched01/tmpp_sc680v/18465xhjztf.sdf

>  <i_m_source_file_index>  (557) 
16

>  <i_lp_mmshare_version>  (557) 
48012

>  <i_f3d_flags>  (557) 
0

>  <s_epik_input>  (557) 
bjFbY0hdbihbQ0gzXSkvYyg9Ti9bSF0pYyhjMTIpW2NIXVtjSF1jKG4yKS1jM1tjSF1bY0hdW25IXS9jKD1OXFtIXSlbY0hdMw==

>  <s_epik_cmdline>  (557) 
J2VwaWtfcHl0aG9uJywgJy1waHQnLCAnMi4wJywgJy1waCcsICc3LjAnLCAnLXRuJywgJzgnLCAnLW1hJywgJzIwMCcsICctaW1hZScsICc8aW5maWxlLm1hZT4nLCAnLW9tYWUnLCAnPG91dGZpbGUubWFlPic=

>  <r_lp_tautomer_probability>  (557) 
0.999994

>  <r_epik_Ionization_Penalty>  (557) 
0.725171

>  <r_epik_Ionization_Penalty_Charging>  (557) 
0.724866

>  <r_epik_Ionization_Penalty_Neutral>  (557) 
0.000305089

>  <r_epik_State_Penalty>  (557) 
0.74962

>  <r_epik_Charging_Adjusted_Penalty>  (557) 
1.47449

>  <i_epik_Tot_Q>  (557) 
2

>  <i_epik_Tot_abs_Q>  (557) 
2

>  <s_lp_Force_Field>  (557) 
OPLS3e

>  <r_lp_Energy>  (557) 
48.791

>  <b_lp_Chiralities_Consistent>  (557) 
1

>  <s_lp_Variant>  (557) 
119:0-2

>  <s_i_glide_gridfile>  (557) 
pfpi4k_grid

>  <i_i_glide_lignum>  (557) 
16

>  <i_i_glide_rotatable_bonds>  (557) 
1

>  <r_i_docking_score>  (557) 
-4.37688

>  <r_i_glide_ligand_efficiency>  (557) 
-0.230362

>  <r_i_glide_ligand_efficiency_sa>  (557) 
-0.614699

>  <r_i_glide_ligand_efficiency_ln>  (557) 
-1.10963

>  <r_i_glide_gscore>  (557) 
-4.37688

>  <r_i_glide_lipo>  (557) 
-0.0097212

>  <r_i_glide_hbond>  (557) 
-0.2

>  <r_i_glide_metal>  (557) 
-0

>  <r_i_glide_rewards>  (557) 
-1.74794

>  <r_i_glide_evdw>  (557) 
-16.6831

>  <r_i_glide_ecoul>  (557) 
-11.5346

>  <r_i_glide_erotb>  (557) 
0.271942

>  <r_i_glide_esite>  (557) 
-0.126817

>  <r_i_glide_emodel>  (557) 
-39.6431

>  <r_i_glide_energy>  (557) 
-28.2177

>  <r_i_glide_einternal>  (557) 
0.30481

>  <r_i_glide_intrahb_reward>  (557) 
-0

>  <i_i_glide_confnum>  (557) 
3

>  <i_i_glide_posenum>  (557) 
2

>  <r_i_glide_eff_state_penalty>  (557) 
0

>  <ligand_id>  (557) 
119

>  <original_smiles>  (557) 
Cn1cnc2nc(-c3cc[nH]c(=N)c3)ccc2c1=N

>  <smiles>  (557) 
[H]c1c(-c2c([H])c([H])[n+]([H])c(N([H])[H])c2[H])nc2nc([H])[n+](C([H])([H])[H])c(N([H])[H])c2c1[H]

$$$$
119:1:2
     RDKit          3D

 33 35  0  0  1  0  0  0  0  0999 V2000
   -0.1485  -10.0948    3.0375 C   0  0  0  0  0  0  0  0  0  0  0  0
    0.5293   -8.8999    2.4800 N   0  0  0  0  0  0  0  0  0  0  0  0
   -0.1975   -7.8109    2.2027 C   0  0  0  0  0  0  0  0  0  0  0  0
    0.3047   -6.6834    1.6902 N   0  0  0  0  0  0  0  0  0  0  0  0
    1.6206   -6.6187    1.4210 C   0  0  0  0  0  0  0  0  0  0  0  0
    2.0956   -5.4728    0.8905 N   0  0  0  0  0  0  0  0  0  0  0  0
    3.4150   -5.3554    0.6188 C   0  0  0  0  0  0  0  0  0  0  0  0
    3.8462   -4.0536    0.0644 C   0  0  0  0  0  0  0  0  0  0  0  0
    4.9360   -3.3419    0.6206 C   0  0  0  0  0  0  0  0  0  0  0  0
    5.3287   -2.1080    0.0600 C   0  0  0  0  0  0  0  0  0  0  0  0
    4.6759   -1.6201   -1.0191 N   0  0  0  0  0  0  0  0  0  0  0  0
    3.6386   -2.2650   -1.5978 C   0  0  0  0  0  0  0  0  0  0  0  0
    3.0561   -1.7085   -2.7379 N   0  0  0  0  0  0  0  0  0  0  0  0
    3.1949   -3.4877   -1.0567 C   0  0  0  0  0  0  0  0  0  0  0  0
    4.3211   -6.4097    0.8500 C   0  0  0  0  0  0  0  0  0  0  0  0
    3.8282   -7.6140    1.3821 C   0  0  0  0  0  0  0  0  0  0  0  0
    2.4504   -7.7084    1.6789 C   0  0  0  0  0  0  0  0  0  0  0  0
    1.8634   -8.8801    2.2184 C   0  0  0  0  0  0  0  0  0  0  0  0
    2.6145  -10.0267    2.5039 N   0  0  0  0  0  0  0  0  0  0  0  0
    3.2970   -0.7875   -3.0718 H   0  0  0  0  0  0  0  0  0  0  0  0
   -1.2158   -9.8964    3.1623 H   0  0  0  0  0  0  0  0  0  0  0  0
    0.2764  -10.3341    4.0158 H   0  0  0  0  0  0  0  0  0  0  0  0
   -0.0210  -10.9294    2.3437 H   0  0  0  0  0  0  0  0  0  0  0  0
   -1.2551   -7.8623    2.4134 H   0  0  0  0  0  0  0  0  0  0  0  0
    5.4581   -3.7283    1.4854 H   0  0  0  0  0  0  0  0  0  0  0  0
    6.1369   -1.5019    0.4454 H   0  0  0  0  0  0  0  0  0  0  0  0
    2.2287   -2.1185   -3.1463 H   0  0  0  0  0  0  0  0  0  0  0  0
    2.3759   -4.0249   -1.5123 H   0  0  0  0  0  0  0  0  0  0  0  0
    5.3693   -6.3048    0.6052 H   0  0  0  0  0  0  0  0  0  0  0  0
    4.5017   -8.4402    1.5498 H   0  0  0  0  0  0  0  0  0  0  0  0
    3.6021  -10.1051    2.3045 H   0  0  0  0  0  0  0  0  0  0  0  0
    2.1646  -10.8540    2.8732 H   0  0  0  0  0  0  0  0  0  0  0  0
    4.9664   -0.7184   -1.3963 H   0  0  0  0  0  0  0  0  0  0  0  0
  1  2  1  0
  1 21  1  0
  1 22  1  0
  1 23  1  0
  2 18  2  0
  2  3  1  0
  3  4  2  0
  3 24  1  0
  4  5  1  0
  5 17  2  0
  5  6  1  0
  6  7  2  0
  7 15  1  0
  7  8  1  0
  8 14  1  0
  8  9  2  0
  9 25  1  0
  9 10  1  0
 10 11  2  0
 10 26  1  0
 11 12  1  0
 11 33  1  0
 12 13  1  0
 12 14  2  0
 13 27  1  0
 13 20  1  0
 14 28  1  0
 15 16  2  0
 15 29  1  0
 16 17  1  0
 16 30  1  0
 17 18  1  0
 18 19  1  0
 19 31  1  0
 19 32  1  0
M  CHG  2   2   1  11   1
M  END
>  <i_m_ct_stereo_status>  (558) 
1

>  <s_m_source_file>  (558) 
/var/tmp/pbs.5102264.sched01/tmpp_sc680v/18465xhjztf.sdf

>  <i_m_source_file_index>  (558) 
16

>  <i_lp_mmshare_version>  (558) 
48012

>  <i_f3d_flags>  (558) 
0

>  <s_epik_input>  (558) 
bjFbY0hdbihbQ0gzXSkvYyg9Ti9bSF0pYyhjMTIpW2NIXVtjSF1jKG4yKS1jM1tjSF1bY0hdW25IXS9jKD1OXFtIXSlbY0hdMw==

>  <s_epik_cmdline>  (558) 
J2VwaWtfcHl0aG9uJywgJy1waHQnLCAnMi4wJywgJy1waCcsICc3LjAnLCAnLXRuJywgJzgnLCAnLW1hJywgJzIwMCcsICctaW1hZScsICc8aW5maWxlLm1hZT4nLCAnLW9tYWUnLCAnPG91dGZpbGUubWFlPic=

>  <r_lp_tautomer_probability>  (558) 
0.999994

>  <r_epik_Ionization_Penalty>  (558) 
0.725171

>  <r_epik_Ionization_Penalty_Charging>  (558) 
0.724866

>  <r_epik_Ionization_Penalty_Neutral>  (558) 
0.000305089

>  <r_epik_State_Penalty>  (558) 
0.74962

>  <r_epik_Charging_Adjusted_Penalty>  (558) 
1.47449

>  <i_epik_Tot_Q>  (558) 
2

>  <i_epik_Tot_abs_Q>  (558) 
2

>  <s_lp_Force_Field>  (558) 
OPLS3e

>  <r_lp_Energy>  (558) 
48.791

>  <b_lp_Chiralities_Consistent>  (558) 
1

>  <s_lp_Variant>  (558) 
119:0-2

>  <s_i_glide_gridfile>  (558) 
pfpi4k_grid

>  <i_i_glide_lignum>  (558) 
16

>  <i_i_glide_rotatable_bonds>  (558) 
1

>  <r_i_docking_score>  (558) 
-4.18662

>  <r_i_glide_ligand_efficiency>  (558) 
-0.220348

>  <r_i_glide_ligand_efficiency_sa>  (558) 
-0.587978

>  <r_i_glide_ligand_efficiency_ln>  (558) 
-1.0614

>  <r_i_glide_gscore>  (558) 
-4.18662

>  <r_i_glide_lipo>  (558) 
-0.273267

>  <r_i_glide_hbond>  (558) 
-0.0967423

>  <r_i_glide_metal>  (558) 
-0

>  <r_i_glide_rewards>  (558) 
-1.67529

>  <r_i_glide_evdw>  (558) 
-22.6145

>  <r_i_glide_ecoul>  (558) 
-7.01675

>  <r_i_glide_erotb>  (558) 
0.271942

>  <r_i_glide_esite>  (558) 
-0.230024

>  <r_i_glide_emodel>  (558) 
-40.3051

>  <r_i_glide_energy>  (558) 
-29.6312

>  <r_i_glide_einternal>  (558) 
0.865814

>  <r_i_glide_intrahb_reward>  (558) 
-0

>  <i_i_glide_confnum>  (558) 
3

>  <i_i_glide_posenum>  (558) 
17

>  <r_i_glide_eff_state_penalty>  (558) 
0

>  <ligand_id>  (558) 
119

>  <original_smiles>  (558) 
Cn1cnc2nc(-c3cc[nH]c(=N)c3)ccc2c1=N

>  <smiles>  (558) 
[H]c1c(-c2c([H])c([H])[n+]([H])c(N([H])[H])c2[H])nc2nc([H])[n+](C([H])([H])[H])c(N([H])[H])c2c1[H]

$$$$
120:0:0
     RDKit          3D

 30 33  0  0  1  0  0  0  0  0999 V2000
    8.6129   -2.4789   -0.5140 C   0  0  0  0  0  0  0  0  0  0  0  0
    7.9781   -3.6361    0.2189 C   0  0  0  0  0  0  0  0  0  0  0  0
    8.7377   -4.4198    1.1060 C   0  0  0  0  0  0  0  0  0  0  0  0
    8.1462   -5.5022    1.7787 C   0  0  0  0  0  0  0  0  0  0  0  0
    6.7831   -5.8180    1.5916 C   0  0  0  0  0  0  0  0  0  0  0  0
    6.0836   -6.8492    2.2027 N   0  0  0  0  0  0  0  0  0  0  0  0
    4.8087   -6.8545    1.7966 C   0  0  0  0  0  0  0  0  0  0  0  0
    3.8637   -7.8577    2.2849 C   0  0  0  0  0  0  0  0  0  0  0  0
    4.1935   -9.0455    2.9803 C   0  0  0  0  0  0  0  0  0  0  0  0
    3.1517   -9.7645    3.3243 N   0  0  0  0  0  0  0  0  0  0  0  0
    2.0859   -9.0481    2.8494 N   0  0  0  0  0  0  0  0  0  0  0  0
    0.7858   -9.4171    2.9872 C   0  0  0  0  0  0  0  0  0  0  0  0
   -0.1855   -8.5947    2.4746 C   0  0  0  0  0  0  0  0  0  0  0  0
   -1.8351   -9.0521    2.5849 Cl  0  0  0  0  0  0  0  0  0  0  0  0
    0.1554   -7.3919    1.8103 C   0  0  0  0  0  0  0  0  0  0  0  0
    1.4706   -7.0123    1.6759 C   0  0  0  0  0  0  0  0  0  0  0  0
    2.4934   -7.8562    2.2014 C   0  0  0  0  0  0  0  0  0  0  0  0
    4.3691   -5.6051    0.6166 S   0  0  0  0  0  0  0  0  0  0  0  0
    6.0270   -5.0100    0.6951 C   0  0  0  0  0  0  0  0  0  0  0  0
    6.6159   -3.9286    0.0179 C   0  0  0  0  0  0  0  0  0  0  0  0
    9.6611   -2.3759   -0.2420 H   0  0  0  0  0  0  0  0  0  0  0  0
    8.1062   -1.5492   -0.2517 H   0  0  0  0  0  0  0  0  0  0  0  0
    8.5554   -2.6327   -1.5941 H   0  0  0  0  0  0  0  0  0  0  0  0
    9.7752   -4.1864    1.2903 H   0  0  0  0  0  0  0  0  0  0  0  0
    8.7407   -6.0965    2.4591 H   0  0  0  0  0  0  0  0  0  0  0  0
    5.1854   -9.3828    3.2418 H   0  0  0  0  0  0  0  0  0  0  0  0
    0.5807  -10.3571    3.4917 H   0  0  0  0  0  0  0  0  0  0  0  0
   -0.6319   -6.7810    1.3866 H   0  0  0  0  0  0  0  0  0  0  0  0
    1.7321   -6.0926    1.1699 H   0  0  0  0  0  0  0  0  0  0  0  0
    6.0204   -3.3419   -0.6607 H   0  0  0  0  0  0  0  0  0  0  0  0
  1  2  1  0
  1 21  1  0
  1 22  1  0
  1 23  1  0
  2 20  2  0
  2  3  1  0
  3  4  2  0
  3 24  1  0
  4  5  1  0
  4 25  1  0
  5 19  2  0
  5  6  1  0
  6  7  2  0
  7  8  1  0
  7 18  1  0
  8 17  2  0
  8  9  1  0
  9 10  2  0
  9 26  1  0
 10 11  1  0
 11 17  1  0
 11 12  1  0
 12 13  2  0
 12 27  1  0
 13 14  1  0
 13 15  1  0
 15 16  2  0
 15 28  1  0
 16 17  1  0
 16 29  1  0
 18 19  1  0
 19 20  1  0
 20 30  1  0
M  END
>  <i_m_ct_stereo_status>  (559) 
1

>  <s_m_source_file>  (559) 
/var/tmp/pbs.5102264.sched01/tmpp_sc680v/18465xhjztf.sdf

>  <i_m_source_file_index>  (559) 
17

>  <i_lp_mmshare_version>  (559) 
48012

>  <i_f3d_flags>  (559) 
0

>  <s_epik_input>  (559) 
W2NIXTFbY0hdYyhbQ0gzXSlbY0hdYyhjMTIpc2MobjIpLWMoW2NIXW4zKWMobjM0KVtjSF1bY0hdYyhDbClbY0hdNA==

>  <s_epik_cmdline>  (559) 
J2VwaWtfcHl0aG9uJywgJy1waHQnLCAnMi4wJywgJy1waCcsICc3LjAnLCAnLXRuJywgJzgnLCAnLW1hJywgJzIwMCcsICctaW1hZScsICc8aW5maWxlLm1hZT4nLCAnLW9tYWUnLCAnPG91dGZpbGUubWFlPic=

>  <r_lp_tautomer_probability>  (559) 
1

>  <r_epik_Ionization_Penalty>  (559) 
2.05262e-06

>  <r_epik_Ionization_Penalty_Charging>  (559) 
0

>  <r_epik_Ionization_Penalty_Neutral>  (559) 
2.05262e-06

>  <r_epik_State_Penalty>  (559) 
-0

>  <r_epik_Charging_Adjusted_Penalty>  (559) 
0

>  <i_epik_Tot_Q>  (559) 
0

>  <i_epik_Tot_abs_Q>  (559) 
0

>  <s_lp_Force_Field>  (559) 
OPLS3e

>  <r_lp_Energy>  (559) 
16.3329

>  <b_lp_Chiralities_Consistent>  (559) 
1

>  <s_lp_Variant>  (559) 
120:0-1

>  <s_i_glide_gridfile>  (559) 
pfpi4k_grid

>  <i_i_glide_lignum>  (559) 
17

>  <i_i_glide_rotatable_bonds>  (559) 
1

>  <r_i_docking_score>  (559) 
-3.2296

>  <r_i_glide_ligand_efficiency>  (559) 
-0.16148

>  <r_i_glide_ligand_efficiency_sa>  (559) 
-0.438324

>  <r_i_glide_ligand_efficiency_ln>  (559) 
-0.808262

>  <r_i_glide_gscore>  (559) 
-3.2296

>  <r_i_glide_lipo>  (559) 
-0.827874

>  <r_i_glide_hbond>  (559) 
0

>  <r_i_glide_metal>  (559) 
-0

>  <r_i_glide_rewards>  (559) 
-1.37194

>  <r_i_glide_evdw>  (559) 
-27.424

>  <r_i_glide_ecoul>  (559) 
0.913236

>  <r_i_glide_erotb>  (559) 
0.20443

>  <r_i_glide_esite>  (559) 
0

>  <r_i_glide_emodel>  (559) 
-31.8871

>  <r_i_glide_energy>  (559) 
-26.5107

>  <r_i_glide_einternal>  (559) 
0.447453

>  <r_i_glide_intrahb_reward>  (559) 
-0

>  <i_i_glide_confnum>  (559) 
2

>  <i_i_glide_posenum>  (559) 
15

>  <r_i_glide_eff_state_penalty>  (559) 
0

>  <ligand_id>  (559) 
120

>  <original_smiles>  (559) 
Cc1ccc2nc(-c3cnn4cc(Cl)ccc34)sc2c1

>  <smiles>  (559) 
[H]c1nn2c([H])c(Cl)c([H])c([H])c2c1-c1nc2c([H])c([H])c(C([H])([H])[H])c([H])c2s1

$$$$
120:0:1
     RDKit          3D

 30 33  0  0  1  0  0  0  0  0999 V2000
    4.4355   -6.9988    1.6149 C   0  0  0  0  0  0  0  0  0  0  0  0
    3.6921   -5.7136    1.9119 C   0  0  0  0  0  0  0  0  0  0  0  0
    3.8706   -4.5903    1.0819 C   0  0  0  0  0  0  0  0  0  0  0  0
    3.1889   -3.3933    1.3616 C   0  0  0  0  0  0  0  0  0  0  0  0
    2.3250   -3.2808    2.4680 C   0  0  0  0  0  0  0  0  0  0  0  0
    1.6076   -2.1470    2.8280 N   0  0  0  0  0  0  0  0  0  0  0  0
    0.8708   -2.3937    3.9140 C   0  0  0  0  0  0  0  0  0  0  0  0
   -0.0135   -1.4164    4.5479 C   0  0  0  0  0  0  0  0  0  0  0  0
   -0.7052   -1.5425    5.7740 C   0  0  0  0  0  0  0  0  0  0  0  0
   -1.4265   -0.4868    6.0791 N   0  0  0  0  0  0  0  0  0  0  0  0
   -1.1947    0.3839    5.0378 N   0  0  0  0  0  0  0  0  0  0  0  0
   -1.7338    1.6269    4.9371 C   0  0  0  0  0  0  0  0  0  0  0  0
   -1.4407    2.3855    3.8293 C   0  0  0  0  0  0  0  0  0  0  0  0
   -2.1314    3.9541    3.6767 Cl  0  0  0  0  0  0  0  0  0  0  0  0
   -0.5800    1.8878    2.8218 C   0  0  0  0  0  0  0  0  0  0  0  0
   -0.0311    0.6303    2.9298 C   0  0  0  0  0  0  0  0  0  0  0  0
   -0.3292   -0.1692    4.0682 C   0  0  0  0  0  0  0  0  0  0  0  0
    1.0148   -4.0262    4.5881 S   0  0  0  0  0  0  0  0  0  0  0  0
    2.1449   -4.4266    3.2936 C   0  0  0  0  0  0  0  0  0  0  0  0
    2.8235   -5.6318    3.0200 C   0  0  0  0  0  0  0  0  0  0  0  0
    5.0629   -6.8966    0.7306 H   0  0  0  0  0  0  0  0  0  0  0  0
    3.7353   -7.8175    1.4307 H   0  0  0  0  0  0  0  0  0  0  0  0
    5.0817   -7.2734    2.4524 H   0  0  0  0  0  0  0  0  0  0  0  0
    4.5302   -4.6401    0.2304 H   0  0  0  0  0  0  0  0  0  0  0  0
    3.3128   -2.5312    0.7251 H   0  0  0  0  0  0  0  0  0  0  0  0
   -0.6869   -2.3935    6.4434 H   0  0  0  0  0  0  0  0  0  0  0  0
   -2.3820    1.9626    5.7440 H   0  0  0  0  0  0  0  0  0  0  0  0
   -0.3578    2.5071    1.9594 H   0  0  0  0  0  0  0  0  0  0  0  0
    0.6188    0.2544    2.1487 H   0  0  0  0  0  0  0  0  0  0  0  0
    2.6873   -6.4882    3.6572 H   0  0  0  0  0  0  0  0  0  0  0  0
  1  2  1  0
  1 21  1  0
  1 22  1  0
  1 23  1  0
  2 20  2  0
  2  3  1  0
  3  4  2  0
  3 24  1  0
  4  5  1  0
  4 25  1  0
  5 19  2  0
  5  6  1  0
  6  7  2  0
  7  8  1  0
  7 18  1  0
  8 17  2  0
  8  9  1  0
  9 10  2  0
  9 26  1  0
 10 11  1  0
 11 17  1  0
 11 12  1  0
 12 13  2  0
 12 27  1  0
 13 14  1  0
 13 15  1  0
 15 16  2  0
 15 28  1  0
 16 17  1  0
 16 29  1  0
 18 19  1  0
 19 20  1  0
 20 30  1  0
M  END
>  <i_m_ct_stereo_status>  (560) 
1

>  <s_m_source_file>  (560) 
/var/tmp/pbs.5102264.sched01/tmpp_sc680v/18465xhjztf.sdf

>  <i_m_source_file_index>  (560) 
17

>  <i_lp_mmshare_version>  (560) 
48012

>  <i_f3d_flags>  (560) 
0

>  <s_epik_input>  (560) 
W2NIXTFbY0hdYyhbQ0gzXSlbY0hdYyhjMTIpc2MobjIpLWMoW2NIXW4zKWMobjM0KVtjSF1bY0hdYyhDbClbY0hdNA==

>  <s_epik_cmdline>  (560) 
J2VwaWtfcHl0aG9uJywgJy1waHQnLCAnMi4wJywgJy1waCcsICc3LjAnLCAnLXRuJywgJzgnLCAnLW1hJywgJzIwMCcsICctaW1hZScsICc8aW5maWxlLm1hZT4nLCAnLW9tYWUnLCAnPG91dGZpbGUubWFlPic=

>  <r_lp_tautomer_probability>  (560) 
1

>  <r_epik_Ionization_Penalty>  (560) 
2.05262e-06

>  <r_epik_Ionization_Penalty_Charging>  (560) 
0

>  <r_epik_Ionization_Penalty_Neutral>  (560) 
2.05262e-06

>  <r_epik_State_Penalty>  (560) 
-0

>  <r_epik_Charging_Adjusted_Penalty>  (560) 
0

>  <i_epik_Tot_Q>  (560) 
0

>  <i_epik_Tot_abs_Q>  (560) 
0

>  <s_lp_Force_Field>  (560) 
OPLS3e

>  <r_lp_Energy>  (560) 
16.3329

>  <b_lp_Chiralities_Consistent>  (560) 
1

>  <s_lp_Variant>  (560) 
120:0-1

>  <s_i_glide_gridfile>  (560) 
pfpi4k_grid

>  <i_i_glide_lignum>  (560) 
17

>  <i_i_glide_rotatable_bonds>  (560) 
1

>  <r_i_docking_score>  (560) 
-2.92386

>  <r_i_glide_ligand_efficiency>  (560) 
-0.146193

>  <r_i_glide_ligand_efficiency_sa>  (560) 
-0.396829

>  <r_i_glide_ligand_efficiency_ln>  (560) 
-0.731745

>  <r_i_glide_gscore>  (560) 
-2.92386

>  <r_i_glide_lipo>  (560) 
-0.139154

>  <r_i_glide_hbond>  (560) 
-0.0993749

>  <r_i_glide_metal>  (560) 
-0

>  <r_i_glide_rewards>  (560) 
-1.36515

>  <r_i_glide_evdw>  (560) 
-20.8046

>  <r_i_glide_ecoul>  (560) 
-3.01829

>  <r_i_glide_erotb>  (560) 
0.20443

>  <r_i_glide_esite>  (560) 
-0.0316431

>  <r_i_glide_emodel>  (560) 
-28.8699

>  <r_i_glide_energy>  (560) 
-23.8228

>  <r_i_glide_einternal>  (560) 
0.0491428

>  <r_i_glide_intrahb_reward>  (560) 
-0

>  <i_i_glide_confnum>  (560) 
3

>  <i_i_glide_posenum>  (560) 
34

>  <r_i_glide_eff_state_penalty>  (560) 
0

>  <ligand_id>  (560) 
120

>  <original_smiles>  (560) 
Cc1ccc2nc(-c3cnn4cc(Cl)ccc34)sc2c1

>  <smiles>  (560) 
[H]c1nn2c([H])c(Cl)c([H])c([H])c2c1-c1nc2c([H])c([H])c(C([H])([H])[H])c([H])c2s1

$$$$
120:0:2
     RDKit          3D

 30 33  0  0  1  0  0  0  0  0999 V2000
    1.2292  -11.5804    3.8138 C   0  0  0  0  0  0  0  0  0  0  0  0
    1.2317  -10.0738    3.6592 C   0  0  0  0  0  0  0  0  0  0  0  0
    1.7003   -9.4925    2.4681 C   0  0  0  0  0  0  0  0  0  0  0  0
    1.7043   -8.0962    2.3156 C   0  0  0  0  0  0  0  0  0  0  0  0
    1.2480   -7.2486    3.3441 C   0  0  0  0  0  0  0  0  0  0  0  0
    1.2044   -5.8589    3.2917 N   0  0  0  0  0  0  0  0  0  0  0  0
    0.7548   -5.3699    4.4550 C   0  0  0  0  0  0  0  0  0  0  0  0
    0.5952   -3.9450    4.7474 C   0  0  0  0  0  0  0  0  0  0  0  0
   -0.1043   -3.3544    5.8296 C   0  0  0  0  0  0  0  0  0  0  0  0
   -0.1199   -2.0411    5.7901 N   0  0  0  0  0  0  0  0  0  0  0  0
    0.6191   -1.7372    4.6679 N   0  0  0  0  0  0  0  0  0  0  0  0
    0.8917   -0.4758    4.2345 C   0  0  0  0  0  0  0  0  0  0  0  0
    1.6260   -0.3133    3.0836 C   0  0  0  0  0  0  0  0  0  0  0  0
    1.9832    1.2806    2.5253 Cl  0  0  0  0  0  0  0  0  0  0  0  0
    2.0909   -1.4364    2.3585 C   0  0  0  0  0  0  0  0  0  0  0  0
    1.8239   -2.7110    2.8051 C   0  0  0  0  0  0  0  0  0  0  0  0
    1.0653   -2.8955    3.9988 C   0  0  0  0  0  0  0  0  0  0  0  0
    0.2769   -6.5759    5.6643 S   0  0  0  0  0  0  0  0  0  0  0  0
    0.7792   -7.8488    4.5482 C   0  0  0  0  0  0  0  0  0  0  0  0
    0.7682   -9.2500    4.7045 C   0  0  0  0  0  0  0  0  0  0  0  0
    1.6062  -12.0730    2.9165 H   0  0  0  0  0  0  0  0  0  0  0  0
    0.2198  -11.9506    3.9897 H   0  0  0  0  0  0  0  0  0  0  0  0
    1.8514  -11.8876    4.6556 H   0  0  0  0  0  0  0  0  0  0  0  0
    2.0529  -10.1148    1.6608 H   0  0  0  0  0  0  0  0  0  0  0  0
    2.0612   -7.6542    1.3990 H   0  0  0  0  0  0  0  0  0  0  0  0
   -0.6258   -3.8731    6.6233 H   0  0  0  0  0  0  0  0  0  0  0  0
    0.5153    0.3494    4.8309 H   0  0  0  0  0  0  0  0  0  0  0  0
    2.6568   -1.2872    1.4437 H   0  0  0  0  0  0  0  0  0  0  0  0
    2.1749   -3.5695    2.2456 H   0  0  0  0  0  0  0  0  0  0  0  0
    0.4070   -9.7042    5.6128 H   0  0  0  0  0  0  0  0  0  0  0  0
  1  2  1  0
  1 21  1  0
  1 22  1  0
  1 23  1  0
  2 20  2  0
  2  3  1  0
  3  4  2  0
  3 24  1  0
  4  5  1  0
  4 25  1  0
  5 19  2  0
  5  6  1  0
  6  7  2  0
  7  8  1  0
  7 18  1  0
  8 17  2  0
  8  9  1  0
  9 10  2  0
  9 26  1  0
 10 11  1  0
 11 17  1  0
 11 12  1  0
 12 13  2  0
 12 27  1  0
 13 14  1  0
 13 15  1  0
 15 16  2  0
 15 28  1  0
 16 17  1  0
 16 29  1  0
 18 19  1  0
 19 20  1  0
 20 30  1  0
M  END
>  <i_m_ct_stereo_status>  (561) 
1

>  <s_m_source_file>  (561) 
/var/tmp/pbs.5102264.sched01/tmpp_sc680v/18465xhjztf.sdf

>  <i_m_source_file_index>  (561) 
17

>  <i_lp_mmshare_version>  (561) 
48012

>  <i_f3d_flags>  (561) 
0

>  <s_epik_input>  (561) 
W2NIXTFbY0hdYyhbQ0gzXSlbY0hdYyhjMTIpc2MobjIpLWMoW2NIXW4zKWMobjM0KVtjSF1bY0hdYyhDbClbY0hdNA==

>  <s_epik_cmdline>  (561) 
J2VwaWtfcHl0aG9uJywgJy1waHQnLCAnMi4wJywgJy1waCcsICc3LjAnLCAnLXRuJywgJzgnLCAnLW1hJywgJzIwMCcsICctaW1hZScsICc8aW5maWxlLm1hZT4nLCAnLW9tYWUnLCAnPG91dGZpbGUubWFlPic=

>  <r_lp_tautomer_probability>  (561) 
1

>  <r_epik_Ionization_Penalty>  (561) 
2.05262e-06

>  <r_epik_Ionization_Penalty_Charging>  (561) 
0

>  <r_epik_Ionization_Penalty_Neutral>  (561) 
2.05262e-06

>  <r_epik_State_Penalty>  (561) 
-0

>  <r_epik_Charging_Adjusted_Penalty>  (561) 
0

>  <i_epik_Tot_Q>  (561) 
0

>  <i_epik_Tot_abs_Q>  (561) 
0

>  <s_lp_Force_Field>  (561) 
OPLS3e

>  <r_lp_Energy>  (561) 
16.3329

>  <b_lp_Chiralities_Consistent>  (561) 
1

>  <s_lp_Variant>  (561) 
120:0-1

>  <s_i_glide_gridfile>  (561) 
pfpi4k_grid

>  <i_i_glide_lignum>  (561) 
17

>  <i_i_glide_rotatable_bonds>  (561) 
1

>  <r_i_docking_score>  (561) 
-2.7611

>  <r_i_glide_ligand_efficiency>  (561) 
-0.138055

>  <r_i_glide_ligand_efficiency_sa>  (561) 
-0.374739

>  <r_i_glide_ligand_efficiency_ln>  (561) 
-0.691012

>  <r_i_glide_gscore>  (561) 
-2.7611

>  <r_i_glide_lipo>  (561) 
-0.274334

>  <r_i_glide_hbond>  (561) 
0

>  <r_i_glide_metal>  (561) 
-0

>  <r_i_glide_rewards>  (561) 
-1.36515

>  <r_i_glide_evdw>  (561) 
-22.5217

>  <r_i_glide_ecoul>  (561) 
-1.32915

>  <r_i_glide_erotb>  (561) 
0.20443

>  <r_i_glide_esite>  (561) 
-0.000594555

>  <r_i_glide_emodel>  (561) 
-28.5721

>  <r_i_glide_energy>  (561) 
-23.8508

>  <r_i_glide_einternal>  (561) 
0.106737

>  <r_i_glide_intrahb_reward>  (561) 
-0

>  <i_i_glide_confnum>  (561) 
3

>  <i_i_glide_posenum>  (561) 
37

>  <r_i_glide_eff_state_penalty>  (561) 
0

>  <ligand_id>  (561) 
120

>  <original_smiles>  (561) 
Cc1ccc2nc(-c3cnn4cc(Cl)ccc34)sc2c1

>  <smiles>  (561) 
[H]c1nn2c([H])c(Cl)c([H])c([H])c2c1-c1nc2c([H])c([H])c(C([H])([H])[H])c([H])c2s1

$$$$
122:0:0
     RDKit          3D

 33 36  0  0  1  0  0  0  0  0999 V2000
    1.4196    2.1246    2.5805 N   0  0  0  0  0  0  0  0  0  0  0  0
    2.4216    1.4404    3.2645 C   0  0  0  0  0  0  0  0  0  0  0  0
    2.6414    1.6312    4.5608 N   0  0  0  0  0  0  0  0  0  0  0  0
    3.7076    0.7532    4.9107 O   0  0  0  0  0  0  0  0  0  0  0  0
    4.1293    0.0319    3.7985 C   0  0  0  0  0  0  0  0  0  0  0  0
    5.1170   -0.9357    3.6328 C   0  0  0  0  0  0  0  0  0  0  0  0
    5.2921   -1.4927    2.3503 C   0  0  0  0  0  0  0  0  0  0  0  0
    4.4958   -1.0701    1.2404 C   0  0  0  0  0  0  0  0  0  0  0  0
    4.7045   -1.6571   -0.0400 N   0  0  0  0  0  0  0  0  0  0  0  0
    3.6437   -1.8547   -0.9601 C   0  0  0  0  0  0  0  0  0  0  0  0
    3.7422   -2.4348   -2.1845 C   0  0  0  0  0  0  0  0  0  0  0  0
    2.5125   -2.5854   -3.0829 C   0  0  0  0  0  0  0  0  0  0  0  0
    2.5521   -3.7587   -3.9166 N   0  0  0  0  0  0  0  0  0  0  0  0
    5.0916   -2.9242   -2.6424 C   0  0  0  0  0  0  0  0  0  0  0  0
    5.3723   -3.4526   -3.7008 O   0  0  0  0  0  0  0  0  0  0  0  0
    6.1227   -2.7066   -1.6828 C   0  0  0  0  0  0  0  0  0  0  0  0
    7.4512   -3.0271   -1.7873 N   0  0  0  0  0  0  0  0  0  0  0  0
    8.1243   -2.6497   -0.6717 N   0  0  0  0  0  0  0  0  0  0  0  0
    7.2600   -2.0623    0.1050 N   0  0  0  0  0  0  0  0  0  0  0  0
    5.9824   -2.1224   -0.4838 C   0  0  0  0  0  0  0  0  0  0  0  0
    3.4907   -0.0815    1.4596 C   0  0  0  0  0  0  0  0  0  0  0  0
    3.3127    0.4686    2.7559 C   0  0  0  0  0  0  0  0  0  0  0  0
    1.2500    2.0400    1.5889 H   0  0  0  0  0  0  0  0  0  0  0  0
    5.7212   -1.2548    4.4596 H   0  0  0  0  0  0  0  0  0  0  0  0
    6.0322   -2.2681    2.2495 H   0  0  0  0  0  0  0  0  0  0  0  0
    2.6803   -1.5331   -0.5975 H   0  0  0  0  0  0  0  0  0  0  0  0
    1.6112   -2.6470   -2.4682 H   0  0  0  0  0  0  0  0  0  0  0  0
    2.4311   -1.7064   -3.7234 H   0  0  0  0  0  0  0  0  0  0  0  0
    2.5593   -4.6084   -3.3576 H   0  0  0  0  0  0  0  0  0  0  0  0
    1.7205   -3.8173   -4.5042 H   0  0  0  0  0  0  0  0  0  0  0  0
    2.8533    0.2717    0.6561 H   0  0  0  0  0  0  0  0  0  0  0  0
    0.8847    2.8396    3.0529 H   0  0  0  0  0  0  0  0  0  0  0  0
    7.9114   -3.4498   -2.5953 H   0  0  0  0  0  0  0  0  0  0  0  0
  1  2  1  0
  1 23  1  0
  1 32  1  0
  2 22  1  0
  2  3  2  0
  3  4  1  0
  4  5  1  0
  5 22  2  0
  5  6  1  0
  6  7  2  0
  6 24  1  0
  7  8  1  0
  7 25  1  0
  8  9  1  0
  8 21  2  0
  9 20  1  0
  9 10  1  0
 10 11  2  0
 10 26  1  0
 11 12  1  0
 11 14  1  0
 12 13  1  0
 12 27  1  0
 12 28  1  0
 13 29  1  0
 13 30  1  0
 14 15  2  0
 14 16  1  0
 16 20  2  0
 16 17  1  0
 17 18  1  0
 17 33  1  0
 18 19  2  0
 19 20  1  0
 21 22  1  0
 21 31  1  0
M  END
>  <i_m_ct_stereo_status>  (562) 
1

>  <s_m_source_file>  (562) 
/var/tmp/pbs.5102264.sched01/tmpp_sc680v/18465xhjztf.sdf

>  <i_m_source_file_index>  (562) 
19

>  <i_lp_mmshare_version>  (562) 
48012

>  <i_f3d_flags>  (562) 
0

>  <s_epik_input>  (562) 
bzFbbkhdL2MoPU5cW0hdKWMoYzEyKVtjSF1jKFtjSF1bY0hdMiktbihjKGMzNCluW25IXW40KVtjSF1jKGMzPU8pW0NIMl1bTkgyXQ==

>  <s_epik_cmdline>  (562) 
J2VwaWtfcHl0aG9uJywgJy1waHQnLCAnMi4wJywgJy1waCcsICc3LjAnLCAnLXRuJywgJzgnLCAnLW1hJywgJzIwMCcsICctaW1hZScsICc8aW5maWxlLm1hZT4nLCAnLW9tYWUnLCAnPG91dGZpbGUubWFlPic=

>  <r_lp_tautomer_probability>  (562) 
0.25

>  <r_epik_Ionization_Penalty>  (562) 
1.01616

>  <r_epik_Ionization_Penalty_Charging>  (562) 
9.07607e-05

>  <r_epik_Ionization_Penalty_Neutral>  (562) 
1.01607

>  <r_epik_State_Penalty>  (562) 
0.0184106

>  <r_epik_Charging_Adjusted_Penalty>  (562) 
0.0185013

>  <i_epik_Tot_Q>  (562) 
0

>  <i_epik_Tot_abs_Q>  (562) 
0

>  <s_lp_Force_Field>  (562) 
OPLS3e

>  <r_lp_Energy>  (562) 
20.1567

>  <b_lp_Chiralities_Consistent>  (562) 
1

>  <s_lp_Variant>  (562) 
122:0-1

>  <s_i_glide_gridfile>  (562) 
pfpi4k_grid

>  <i_i_glide_lignum>  (562) 
19

>  <i_i_glide_rotatable_bonds>  (562) 
2

>  <r_i_docking_score>  (562) 
-5.36282

>  <r_i_glide_ligand_efficiency>  (562) 
-0.243765

>  <r_i_glide_ligand_efficiency_sa>  (562) 
-0.683038

>  <r_i_glide_ligand_efficiency_ln>  (562) 
-1.31087

>  <r_i_glide_gscore>  (562) 
-5.36282

>  <r_i_glide_lipo>  (562) 
-0.553116

>  <r_i_glide_hbond>  (562) 
-0.653305

>  <r_i_glide_metal>  (562) 
-0

>  <r_i_glide_rewards>  (562) 
-1.38224

>  <r_i_glide_evdw>  (562) 
-25.5089

>  <r_i_glide_ecoul>  (562) 
-10.2269

>  <r_i_glide_erotb>  (562) 
0.207455

>  <r_i_glide_esite>  (562) 
-0.172141

>  <r_i_glide_emodel>  (562) 
-46.9435

>  <r_i_glide_energy>  (562) 
-35.7358

>  <r_i_glide_einternal>  (562) 
2.92491

>  <r_i_glide_intrahb_reward>  (562) 
-0

>  <i_i_glide_confnum>  (562) 
3

>  <i_i_glide_posenum>  (562) 
1

>  <r_i_glide_eff_state_penalty>  (562) 
0

>  <ligand_id>  (562) 
122

>  <original_smiles>  (562) 
N=c1[nH]oc2ccc(-n3cc(CN)c(=O)c4n[nH]nc43)cc12

>  <smiles>  (562) 
[H]c1c(-n2c([H])c(C([H])([H])N([H])[H])c(=O)c3c2nnn3[H])c([H])c2c(N([H])[H])noc2c1[H]

$$$$
122:0:1
     RDKit          3D

 33 36  0  0  1  0  0  0  0  0999 V2000
    1.3772    2.1096    2.4857 N   0  0  0  0  0  0  0  0  0  0  0  0
    2.4118    1.5161    3.2023 C   0  0  0  0  0  0  0  0  0  0  0  0
    2.6469    1.8128    4.4756 N   0  0  0  0  0  0  0  0  0  0  0  0
    3.7517    1.0080    4.8701 O   0  0  0  0  0  0  0  0  0  0  0  0
    4.1750    0.2263    3.8052 C   0  0  0  0  0  0  0  0  0  0  0  0
    5.2102   -0.7067    3.6978 C   0  0  0  0  0  0  0  0  0  0  0  0
    5.3992   -1.3482    2.4586 C   0  0  0  0  0  0  0  0  0  0  0  0
    4.5683   -1.0557    1.3407 C   0  0  0  0  0  0  0  0  0  0  0  0
    4.7731   -1.7244    0.1105 N   0  0  0  0  0  0  0  0  0  0  0  0
    3.6950   -2.1063   -0.7087 C   0  0  0  0  0  0  0  0  0  0  0  0
    3.7863   -2.7803   -1.8927 C   0  0  0  0  0  0  0  0  0  0  0  0
    2.5881   -3.1956   -2.7333 C   0  0  0  0  0  0  0  0  0  0  0  0
    1.4143   -3.4619   -1.9152 N   0  0  0  0  0  0  0  0  0  0  0  0
    5.1320   -3.1728   -2.4068 C   0  0  0  0  0  0  0  0  0  0  0  0
    5.3372   -3.7483   -3.4753 O   0  0  0  0  0  0  0  0  0  0  0  0
    6.2079   -2.7796   -1.5242 C   0  0  0  0  0  0  0  0  0  0  0  0
    7.5625   -2.9662   -1.6627 N   0  0  0  0  0  0  0  0  0  0  0  0
    8.2271   -2.4322   -0.6075 N   0  0  0  0  0  0  0  0  0  0  0  0
    7.3401   -1.8606    0.1569 N   0  0  0  0  0  0  0  0  0  0  0  0
    6.0562   -2.1028   -0.3597 C   0  0  0  0  0  0  0  0  0  0  0  0
    3.5162   -0.0986    1.4925 C   0  0  0  0  0  0  0  0  0  0  0  0
    3.3289    0.5426    2.7414 C   0  0  0  0  0  0  0  0  0  0  0  0
    1.1935    1.9348    1.5082 H   0  0  0  0  0  0  0  0  0  0  0  0
    5.8308   -0.9317    4.5481 H   0  0  0  0  0  0  0  0  0  0  0  0
    6.1786   -2.0960    2.3843 H   0  0  0  0  0  0  0  0  0  0  0  0
    2.7200   -1.8442   -0.3118 H   0  0  0  0  0  0  0  0  0  0  0  0
    2.3664   -2.4042   -3.4540 H   0  0  0  0  0  0  0  0  0  0  0  0
    2.8128   -4.0933   -3.3144 H   0  0  0  0  0  0  0  0  0  0  0  0
    1.0994   -2.5445   -1.5566 H   0  0  0  0  0  0  0  0  0  0  0  0
    0.6869   -3.8026   -2.5416 H   0  0  0  0  0  0  0  0  0  0  0  0
    2.8621    0.1552    0.6722 H   0  0  0  0  0  0  0  0  0  0  0  0
    0.8153    2.8323    2.9108 H   0  0  0  0  0  0  0  0  0  0  0  0
    8.0437   -3.4038   -2.4411 H   0  0  0  0  0  0  0  0  0  0  0  0
  1  2  1  0
  1 23  1  0
  1 32  1  0
  2 22  1  0
  2  3  2  0
  3  4  1  0
  4  5  1  0
  5 22  2  0
  5  6  1  0
  6  7  2  0
  6 24  1  0
  7  8  1  0
  7 25  1  0
  8  9  1  0
  8 21  2  0
  9 20  1  0
  9 10  1  0
 10 11  2  0
 10 26  1  0
 11 12  1  0
 11 14  1  0
 12 13  1  0
 12 27  1  0
 12 28  1  0
 13 29  1  0
 13 30  1  0
 14 15  2  0
 14 16  1  0
 16 20  2  0
 16 17  1  0
 17 18  1  0
 17 33  1  0
 18 19  2  0
 19 20  1  0
 21 22  1  0
 21 31  1  0
M  END
>  <i_m_ct_stereo_status>  (563) 
1

>  <s_m_source_file>  (563) 
/var/tmp/pbs.5102264.sched01/tmpp_sc680v/18465xhjztf.sdf

>  <i_m_source_file_index>  (563) 
19

>  <i_lp_mmshare_version>  (563) 
48012

>  <i_f3d_flags>  (563) 
0

>  <s_epik_input>  (563) 
bzFbbkhdL2MoPU5cW0hdKWMoYzEyKVtjSF1jKFtjSF1bY0hdMiktbihjKGMzNCluW25IXW40KVtjSF1jKGMzPU8pW0NIMl1bTkgyXQ==

>  <s_epik_cmdline>  (563) 
J2VwaWtfcHl0aG9uJywgJy1waHQnLCAnMi4wJywgJy1waCcsICc3LjAnLCAnLXRuJywgJzgnLCAnLW1hJywgJzIwMCcsICctaW1hZScsICc8aW5maWxlLm1hZT4nLCAnLW9tYWUnLCAnPG91dGZpbGUubWFlPic=

>  <r_lp_tautomer_probability>  (563) 
0.25

>  <r_epik_Ionization_Penalty>  (563) 
1.01616

>  <r_epik_Ionization_Penalty_Charging>  (563) 
9.07607e-05

>  <r_epik_Ionization_Penalty_Neutral>  (563) 
1.01607

>  <r_epik_State_Penalty>  (563) 
0.0184106

>  <r_epik_Charging_Adjusted_Penalty>  (563) 
0.0185013

>  <i_epik_Tot_Q>  (563) 
0

>  <i_epik_Tot_abs_Q>  (563) 
0

>  <s_lp_Force_Field>  (563) 
OPLS3e

>  <r_lp_Energy>  (563) 
20.1567

>  <b_lp_Chiralities_Consistent>  (563) 
1

>  <s_lp_Variant>  (563) 
122:0-1

>  <s_i_glide_gridfile>  (563) 
pfpi4k_grid

>  <i_i_glide_lignum>  (563) 
19

>  <i_i_glide_rotatable_bonds>  (563) 
2

>  <r_i_docking_score>  (563) 
-5.21528

>  <r_i_glide_ligand_efficiency>  (563) 
-0.237058

>  <r_i_glide_ligand_efficiency_sa>  (563) 
-0.664246

>  <r_i_glide_ligand_efficiency_ln>  (563) 
-1.2748

>  <r_i_glide_gscore>  (563) 
-5.21528

>  <r_i_glide_lipo>  (563) 
-0.572346

>  <r_i_glide_hbond>  (563) 
-0.64503

>  <r_i_glide_metal>  (563) 
-0

>  <r_i_glide_rewards>  (563) 
-1.38224

>  <r_i_glide_evdw>  (563) 
-27.1218

>  <r_i_glide_ecoul>  (563) 
-8.27721

>  <r_i_glide_erotb>  (563) 
0.207455

>  <r_i_glide_esite>  (563) 
-0.225449

>  <r_i_glide_emodel>  (563) 
-47.3674

>  <r_i_glide_energy>  (563) 
-35.399

>  <r_i_glide_einternal>  (563) 
1.25415

>  <r_i_glide_intrahb_reward>  (563) 
-0

>  <i_i_glide_confnum>  (563) 
3

>  <i_i_glide_posenum>  (563) 
36

>  <r_i_glide_eff_state_penalty>  (563) 
0

>  <ligand_id>  (563) 
122

>  <original_smiles>  (563) 
N=c1[nH]oc2ccc(-n3cc(CN)c(=O)c4n[nH]nc43)cc12

>  <smiles>  (563) 
[H]c1c(-n2c([H])c(C([H])([H])N([H])[H])c(=O)c3c2nnn3[H])c([H])c2c(N([H])[H])noc2c1[H]

$$$$
122:0:2
     RDKit          3D

 33 36  0  0  1  0  0  0  0  0999 V2000
    7.1194   -5.4908    1.5386 N   0  0  0  0  0  0  0  0  0  0  0  0
    5.9467   -5.0272    0.9565 C   0  0  0  0  0  0  0  0  0  0  0  0
    5.9226   -3.9363    0.2034 N   0  0  0  0  0  0  0  0  0  0  0  0
    4.5711   -3.7761   -0.2090 O   0  0  0  0  0  0  0  0  0  0  0  0
    3.7884   -4.7901    0.3208 C   0  0  0  0  0  0  0  0  0  0  0  0
    2.4230   -5.0555    0.2037 C   0  0  0  0  0  0  0  0  0  0  0  0
    1.9143   -6.1922    0.8627 C   0  0  0  0  0  0  0  0  0  0  0  0
    2.7526   -7.0426    1.6376 C   0  0  0  0  0  0  0  0  0  0  0  0
    2.2057   -8.1882    2.2693 N   0  0  0  0  0  0  0  0  0  0  0  0
    2.9576   -9.3704    2.4441 C   0  0  0  0  0  0  0  0  0  0  0  0
    2.5180  -10.5195    3.0331 C   0  0  0  0  0  0  0  0  0  0  0  0
    3.3685  -11.7766    3.1159 C   0  0  0  0  0  0  0  0  0  0  0  0
    3.7664  -12.0838    4.4801 N   0  0  0  0  0  0  0  0  0  0  0  0
    1.1136  -10.6041    3.5336 C   0  0  0  0  0  0  0  0  0  0  0  0
    0.6163  -11.5960    4.0597 O   0  0  0  0  0  0  0  0  0  0  0  0
    0.3777   -9.3725    3.3315 C   0  0  0  0  0  0  0  0  0  0  0  0
   -0.9147   -9.0657    3.6852 N   0  0  0  0  0  0  0  0  0  0  0  0
   -1.2198   -7.7877    3.3506 N   0  0  0  0  0  0  0  0  0  0  0  0
   -0.1471   -7.2730    2.8036 N   0  0  0  0  0  0  0  0  0  0  0  0
    0.8658   -8.2478    2.7574 C   0  0  0  0  0  0  0  0  0  0  0  0
    4.1436   -6.7316    1.7329 C   0  0  0  0  0  0  0  0  0  0  0  0
    4.6546   -5.5930    1.0603 C   0  0  0  0  0  0  0  0  0  0  0  0
    7.1596   -6.3185    2.1132 H   0  0  0  0  0  0  0  0  0  0  0  0
    1.7951   -4.4257   -0.4000 H   0  0  0  0  0  0  0  0  0  0  0  0
    0.8742   -6.4343    0.7200 H   0  0  0  0  0  0  0  0  0  0  0  0
    3.9555   -9.3494    2.0252 H   0  0  0  0  0  0  0  0  0  0  0  0
    2.8262  -12.6217    2.6848 H   0  0  0  0  0  0  0  0  0  0  0  0
    4.2683  -11.6391    2.5130 H   0  0  0  0  0  0  0  0  0  0  0  0
    2.9521  -12.3657    5.0174 H   0  0  0  0  0  0  0  0  0  0  0  0
    4.3723  -12.8920    4.4678 H   0  0  0  0  0  0  0  0  0  0  0  0
    4.8208   -7.3415    2.3150 H   0  0  0  0  0  0  0  0  0  0  0  0
    7.9816   -4.9860    1.3992 H   0  0  0  0  0  0  0  0  0  0  0  0
   -1.5551   -9.6963    4.1742 H   0  0  0  0  0  0  0  0  0  0  0  0
  1  2  1  0
  1 23  1  0
  1 32  1  0
  2 22  1  0
  2  3  2  0
  3  4  1  0
  4  5  1  0
  5 22  2  0
  5  6  1  0
  6  7  2  0
  6 24  1  0
  7  8  1  0
  7 25  1  0
  8  9  1  0
  8 21  2  0
  9 20  1  0
  9 10  1  0
 10 11  2  0
 10 26  1  0
 11 12  1  0
 11 14  1  0
 12 13  1  0
 12 27  1  0
 12 28  1  0
 13 29  1  0
 13 30  1  0
 14 15  2  0
 14 16  1  0
 16 20  2  0
 16 17  1  0
 17 18  1  0
 17 33  1  0
 18 19  2  0
 19 20  1  0
 21 22  1  0
 21 31  1  0
M  END
>  <i_m_ct_stereo_status>  (564) 
1

>  <s_m_source_file>  (564) 
/var/tmp/pbs.5102264.sched01/tmpp_sc680v/18465xhjztf.sdf

>  <i_m_source_file_index>  (564) 
19

>  <i_lp_mmshare_version>  (564) 
48012

>  <i_f3d_flags>  (564) 
0

>  <s_epik_input>  (564) 
bzFbbkhdL2MoPU5cW0hdKWMoYzEyKVtjSF1jKFtjSF1bY0hdMiktbihjKGMzNCluW25IXW40KVtjSF1jKGMzPU8pW0NIMl1bTkgyXQ==

>  <s_epik_cmdline>  (564) 
J2VwaWtfcHl0aG9uJywgJy1waHQnLCAnMi4wJywgJy1waCcsICc3LjAnLCAnLXRuJywgJzgnLCAnLW1hJywgJzIwMCcsICctaW1hZScsICc8aW5maWxlLm1hZT4nLCAnLW9tYWUnLCAnPG91dGZpbGUubWFlPic=

>  <r_lp_tautomer_probability>  (564) 
0.25

>  <r_epik_Ionization_Penalty>  (564) 
1.01616

>  <r_epik_Ionization_Penalty_Charging>  (564) 
9.07607e-05

>  <r_epik_Ionization_Penalty_Neutral>  (564) 
1.01607

>  <r_epik_State_Penalty>  (564) 
0.0184106

>  <r_epik_Charging_Adjusted_Penalty>  (564) 
0.0185013

>  <i_epik_Tot_Q>  (564) 
0

>  <i_epik_Tot_abs_Q>  (564) 
0

>  <s_lp_Force_Field>  (564) 
OPLS3e

>  <r_lp_Energy>  (564) 
20.1567

>  <b_lp_Chiralities_Consistent>  (564) 
1

>  <s_lp_Variant>  (564) 
122:0-1

>  <s_i_glide_gridfile>  (564) 
pfpi4k_grid

>  <i_i_glide_lignum>  (564) 
19

>  <i_i_glide_rotatable_bonds>  (564) 
2

>  <r_i_docking_score>  (564) 
-4.15273

>  <r_i_glide_ligand_efficiency>  (564) 
-0.188761

>  <r_i_glide_ligand_efficiency_sa>  (564) 
-0.528915

>  <r_i_glide_ligand_efficiency_ln>  (564) 
-1.01508

>  <r_i_glide_gscore>  (564) 
-4.15273

>  <r_i_glide_lipo>  (564) 
-0.354711

>  <r_i_glide_hbond>  (564) 
-0.16

>  <r_i_glide_metal>  (564) 
-0

>  <r_i_glide_rewards>  (564) 
-1.38224

>  <r_i_glide_evdw>  (564) 
-28.1097

>  <r_i_glide_ecoul>  (564) 
-5.26996

>  <r_i_glide_erotb>  (564) 
0.207455

>  <r_i_glide_esite>  (564) 
-0.267262

>  <r_i_glide_emodel>  (564) 
-43.183

>  <r_i_glide_energy>  (564) 
-33.3797

>  <r_i_glide_einternal>  (564) 
0.269181

>  <r_i_glide_intrahb_reward>  (564) 
-0

>  <i_i_glide_confnum>  (564) 
2

>  <i_i_glide_posenum>  (564) 
39

>  <r_i_glide_eff_state_penalty>  (564) 
0

>  <ligand_id>  (564) 
122

>  <original_smiles>  (564) 
N=c1[nH]oc2ccc(-n3cc(CN)c(=O)c4n[nH]nc43)cc12

>  <smiles>  (564) 
[H]c1c(-n2c([H])c(C([H])([H])N([H])[H])c(=O)c3c2nnn3[H])c([H])c2c(N([H])[H])noc2c1[H]

$$$$
122:1:0
     RDKit          3D

 32 35  0  0  1  0  0  0  0  0999 V2000
    2.2181   -2.7642   -3.9167 N   0  0  0  0  0  0  0  0  0  0  0  0
    3.1396   -2.0368   -3.1754 C   0  0  0  0  0  0  0  0  0  0  0  0
    3.7056   -0.9307   -3.6392 N   0  0  0  0  0  0  0  0  0  0  0  0
    4.6093   -0.4991   -2.6291 O   0  0  0  0  0  0  0  0  0  0  0  0
    4.5857   -1.3736   -1.5547 C   0  0  0  0  0  0  0  0  0  0  0  0
    5.2956   -1.3891   -0.3442 C   0  0  0  0  0  0  0  0  0  0  0  0
    5.0504   -2.4533    0.5436 C   0  0  0  0  0  0  0  0  0  0  0  0
    4.1313   -3.4848    0.2151 C   0  0  0  0  0  0  0  0  0  0  0  0
    3.9125   -4.5435    1.1328 N   0  0  0  0  0  0  0  0  0  0  0  0
    2.6697   -5.0044    1.4240 C   0  0  0  0  0  0  0  0  0  0  0  0
    2.3311   -6.0488    2.3130 C   0  0  0  0  0  0  0  0  0  0  0  0
    0.8732   -6.4513    2.4914 C   0  0  0  0  0  0  0  0  0  0  0  0
    0.1855   -6.6614    1.2312 N   0  0  0  0  0  0  0  0  0  0  0  0
    3.3698   -6.6935    3.0186 C   0  0  0  0  0  0  0  0  0  0  0  0
    3.1213   -7.7066    3.9053 O   0  0  0  0  0  0  0  0  0  0  0  0
    4.7011   -6.2619    2.7647 C   0  0  0  0  0  0  0  0  0  0  0  0
    5.8809   -6.6598    3.2431 N   0  0  0  0  0  0  0  0  0  0  0  0
    6.8116   -5.8591    2.6000 N   0  0  0  0  0  0  0  0  0  0  0  0
    6.2174   -4.9696    1.7130 N   0  0  0  0  0  0  0  0  0  0  0  0
    4.9114   -5.2058    1.8177 C   0  0  0  0  0  0  0  0  0  0  0  0
    3.4168   -3.4343   -1.0143 C   0  0  0  0  0  0  0  0  0  0  0  0
    3.6572   -2.3601   -1.8991 C   0  0  0  0  0  0  0  0  0  0  0  0
    1.7401   -3.5870   -3.5671 H   0  0  0  0  0  0  0  0  0  0  0  0
    5.9994   -0.6071   -0.0947 H   0  0  0  0  0  0  0  0  0  0  0  0
    5.5699   -2.4799    1.4900 H   0  0  0  0  0  0  0  0  0  0  0  0
    1.8671   -4.5027    0.9168 H   0  0  0  0  0  0  0  0  0  0  0  0
    0.7906   -7.3511    3.1002 H   0  0  0  0  0  0  0  0  0  0  0  0
    0.3817   -5.6559    3.0449 H   0  0  0  0  0  0  0  0  0  0  0  0
    0.5328   -7.5454    0.8772 H   0  0  0  0  0  0  0  0  0  0  0  0
   -0.7889   -6.8462    1.4002 H   0  0  0  0  0  0  0  0  0  0  0  0
    2.7011   -4.2004   -1.2818 H   0  0  0  0  0  0  0  0  0  0  0  0
    1.9038   -2.3993   -4.8187 H   0  0  0  0  0  0  0  0  0  0  0  0
  1  2  1  0
  1 23  1  0
  1 32  1  0
  2 22  1  0
  2  3  2  0
  3  4  1  0
  4  5  1  0
  5 22  2  0
  5  6  1  0
  6  7  2  0
  6 24  1  0
  7  8  1  0
  7 25  1  0
  8  9  1  0
  8 21  2  0
  9 20  1  0
  9 10  1  0
 10 11  2  0
 10 26  1  0
 11 12  1  0
 11 14  1  0
 12 13  1  0
 12 27  1  0
 12 28  1  0
 13 29  1  0
 13 30  1  0
 14 15  1  0
 14 16  2  0
 16 20  1  0
 16 17  1  0
 17 18  2  0
 18 19  1  0
 19 20  2  0
 21 22  1  0
 21 31  1  0
M  CHG  1  15  -1
M  END
>  <i_m_ct_stereo_status>  (565) 
1

>  <s_m_source_file>  (565) 
/var/tmp/pbs.5102264.sched01/tmpp_sc680v/18465xhjztf.sdf

>  <i_m_source_file_index>  (565) 
20

>  <i_lp_mmshare_version>  (565) 
48012

>  <i_f3d_flags>  (565) 
0

>  <s_epik_input>  (565) 
bzFbbkhdL2MoPU5cW0hdKWMoYzEyKVtjSF1jKFtjSF1bY0hdMiktbihjKGMzNCluW25IXW40KVtjSF1jKGMzPU8pW0NIMl1bTkgyXQ==

>  <s_epik_cmdline>  (565) 
J2VwaWtfcHl0aG9uJywgJy1waHQnLCAnMi4wJywgJy1waCcsICc3LjAnLCAnLXRuJywgJzgnLCAnLW1hJywgJzIwMCcsICctaW1hZScsICc8aW5maWxlLm1hZT4nLCAnLW9tYWUnLCAnPG91dGZpbGUubWFlPic=

>  <r_epik_Ionization_Penalty>  (565) 
10.6864

>  <r_epik_Ionization_Penalty_Charging>  (565) 
3.67613e-08

>  <r_epik_Ionization_Penalty_Neutral>  (565) 
10.6864

>  <r_epik_State_Penalty>  (565) 
2.1245

>  <r_epik_Charging_Adjusted_Penalty>  (565) 
2.1245

>  <i_epik_Tot_Q>  (565) 
-1

>  <i_epik_Tot_abs_Q>  (565) 
1

>  <s_lp_Force_Field>  (565) 
OPLS3e

>  <r_lp_Energy>  (565) 
34.878

>  <b_lp_Chiralities_Consistent>  (565) 
1

>  <s_lp_Variant>  (565) 
122:0-2

>  <s_i_glide_gridfile>  (565) 
pfpi4k_grid

>  <i_i_glide_lignum>  (565) 
20

>  <i_i_glide_rotatable_bonds>  (565) 
2

>  <r_i_docking_score>  (565) 
-4.28768

>  <r_i_glide_ligand_efficiency>  (565) 
-0.194894

>  <r_i_glide_ligand_efficiency_sa>  (565) 
-0.546102

>  <r_i_glide_ligand_efficiency_ln>  (565) 
-1.04806

>  <r_i_glide_gscore>  (565) 
-4.28768

>  <r_i_glide_lipo>  (565) 
-0.168678

>  <r_i_glide_hbond>  (565) 
-0.613268

>  <r_i_glide_metal>  (565) 
-0

>  <r_i_glide_rewards>  (565) 
-1.44285

>  <r_i_glide_evdw>  (565) 
-26.794

>  <r_i_glide_ecoul>  (565) 
-6.21242

>  <r_i_glide_erotb>  (565) 
0.20869

>  <r_i_glide_esite>  (565) 
0

>  <r_i_glide_emodel>  (565) 
-44.9311

>  <r_i_glide_energy>  (565) 
-33.0065

>  <r_i_glide_einternal>  (565) 
0.86776

>  <r_i_glide_intrahb_reward>  (565) 
-0

>  <i_i_glide_confnum>  (565) 
4

>  <i_i_glide_posenum>  (565) 
6

>  <r_i_glide_eff_state_penalty>  (565) 
0

>  <ligand_id>  (565) 
122

>  <original_smiles>  (565) 
N=c1[nH]oc2ccc(-n3cc(CN)c(=O)c4n[nH]nc43)cc12

>  <smiles>  (565) 
[H]c1c(-n2c3nnnc-3c([O-])c(C([H])([H])N([H])[H])c2[H])c([H])c2c(N([H])[H])noc2c1[H]

$$$$
122:1:1
     RDKit          3D

 32 35  0  0  1  0  0  0  0  0999 V2000
    3.4124   -1.4910   -1.2333 N   0  0  0  0  0  0  0  0  0  0  0  0
    4.2434   -1.2492   -0.1537 C   0  0  0  0  0  0  0  0  0  0  0  0
    5.5647   -1.2383   -0.2902 N   0  0  0  0  0  0  0  0  0  0  0  0
    6.0867   -1.0027    1.0110 O   0  0  0  0  0  0  0  0  0  0  0  0
    5.0543   -0.8675    1.9310 C   0  0  0  0  0  0  0  0  0  0  0  0
    5.0744   -0.6374    3.3145 C   0  0  0  0  0  0  0  0  0  0  0  0
    3.8379   -0.5653    3.9928 C   0  0  0  0  0  0  0  0  0  0  0  0
    2.6236   -0.7230    3.2699 C   0  0  0  0  0  0  0  0  0  0  0  0
    1.4014   -0.6275    3.9633 N   0  0  0  0  0  0  0  0  0  0  0  0
    0.5445    0.4127    3.7946 C   0  0  0  0  0  0  0  0  0  0  0  0
   -0.6788    0.6130    4.4678 C   0  0  0  0  0  0  0  0  0  0  0  0
   -1.4914    1.8655    4.1758 C   0  0  0  0  0  0  0  0  0  0  0  0
   -1.4927    2.8187    5.2704 N   0  0  0  0  0  0  0  0  0  0  0  0
   -1.1009   -0.3556    5.3998 C   0  0  0  0  0  0  0  0  0  0  0  0
   -2.2818   -0.2569    6.0836 O   0  0  0  0  0  0  0  0  0  0  0  0
   -0.2411   -1.4548    5.6346 C   0  0  0  0  0  0  0  0  0  0  0  0
   -0.3496   -2.5104    6.4353 N   0  0  0  0  0  0  0  0  0  0  0  0
    0.8112   -3.2432    6.2086 N   0  0  0  0  0  0  0  0  0  0  0  0
    1.6305   -2.6444    5.2576 N   0  0  0  0  0  0  0  0  0  0  0  0
    0.9790   -1.5425    4.9056 C   0  0  0  0  0  0  0  0  0  0  0  0
    2.6308   -0.9399    1.8634 C   0  0  0  0  0  0  0  0  0  0  0  0
    3.8757   -1.0160    1.1890 C   0  0  0  0  0  0  0  0  0  0  0  0
    2.3871   -1.4209   -1.1260 H   0  0  0  0  0  0  0  0  0  0  0  0
    6.0091   -0.5143    3.8451 H   0  0  0  0  0  0  0  0  0  0  0  0
    3.7998   -0.3726    5.0624 H   0  0  0  0  0  0  0  0  0  0  0  0
    0.8767    1.1592    3.0911 H   0  0  0  0  0  0  0  0  0  0  0  0
   -1.1347    2.3650    3.2763 H   0  0  0  0  0  0  0  0  0  0  0  0
   -2.5175    1.5668    3.9779 H   0  0  0  0  0  0  0  0  0  0  0  0
   -0.5995    3.2846    5.3095 H   0  0  0  0  0  0  0  0  0  0  0  0
   -2.1982    3.5231    5.1132 H   0  0  0  0  0  0  0  0  0  0  0  0
    1.6991   -1.0471    1.3231 H   0  0  0  0  0  0  0  0  0  0  0  0
    3.7705   -1.6017   -2.1620 H   0  0  0  0  0  0  0  0  0  0  0  0
  1  2  1  0
  1 23  1  0
  1 32  1  0
  2 22  1  0
  2  3  2  0
  3  4  1  0
  4  5  1  0
  5 22  2  0
  5  6  1  0
  6  7  2  0
  6 24  1  0
  7  8  1  0
  7 25  1  0
  8  9  1  0
  8 21  2  0
  9 20  1  0
  9 10  1  0
 10 11  2  0
 10 26  1  0
 11 12  1  0
 11 14  1  0
 12 13  1  0
 12 27  1  0
 12 28  1  0
 13 29  1  0
 13 30  1  0
 14 15  1  0
 14 16  2  0
 16 20  1  0
 16 17  1  0
 17 18  2  0
 18 19  1  0
 19 20  2  0
 21 22  1  0
 21 31  1  0
M  CHG  1  15  -1
M  END
>  <i_m_ct_stereo_status>  (566) 
1

>  <s_m_source_file>  (566) 
/var/tmp/pbs.5102264.sched01/tmpp_sc680v/18465xhjztf.sdf

>  <i_m_source_file_index>  (566) 
20

>  <i_lp_mmshare_version>  (566) 
48012

>  <i_f3d_flags>  (566) 
0

>  <s_epik_input>  (566) 
bzFbbkhdL2MoPU5cW0hdKWMoYzEyKVtjSF1jKFtjSF1bY0hdMiktbihjKGMzNCluW25IXW40KVtjSF1jKGMzPU8pW0NIMl1bTkgyXQ==

>  <s_epik_cmdline>  (566) 
J2VwaWtfcHl0aG9uJywgJy1waHQnLCAnMi4wJywgJy1waCcsICc3LjAnLCAnLXRuJywgJzgnLCAnLW1hJywgJzIwMCcsICctaW1hZScsICc8aW5maWxlLm1hZT4nLCAnLW9tYWUnLCAnPG91dGZpbGUubWFlPic=

>  <r_epik_Ionization_Penalty>  (566) 
10.6864

>  <r_epik_Ionization_Penalty_Charging>  (566) 
3.67613e-08

>  <r_epik_Ionization_Penalty_Neutral>  (566) 
10.6864

>  <r_epik_State_Penalty>  (566) 
2.1245

>  <r_epik_Charging_Adjusted_Penalty>  (566) 
2.1245

>  <i_epik_Tot_Q>  (566) 
-1

>  <i_epik_Tot_abs_Q>  (566) 
1

>  <s_lp_Force_Field>  (566) 
OPLS3e

>  <r_lp_Energy>  (566) 
34.878

>  <b_lp_Chiralities_Consistent>  (566) 
1

>  <s_lp_Variant>  (566) 
122:0-2

>  <s_i_glide_gridfile>  (566) 
pfpi4k_grid

>  <i_i_glide_lignum>  (566) 
20

>  <i_i_glide_rotatable_bonds>  (566) 
2

>  <r_i_docking_score>  (566) 
-3.96597

>  <r_i_glide_ligand_efficiency>  (566) 
-0.180271

>  <r_i_glide_ligand_efficiency_sa>  (566) 
-0.505127

>  <r_i_glide_ligand_efficiency_ln>  (566) 
-0.969427

>  <r_i_glide_gscore>  (566) 
-3.96597

>  <r_i_glide_lipo>  (566) 
-0.260098

>  <r_i_glide_hbond>  (566) 
-0.343518

>  <r_i_glide_metal>  (566) 
-0

>  <r_i_glide_rewards>  (566) 
-1.38911

>  <r_i_glide_evdw>  (566) 
-20.6926

>  <r_i_glide_ecoul>  (566) 
-6.51344

>  <r_i_glide_erotb>  (566) 
0.20869

>  <r_i_glide_esite>  (566) 
-0.170288

>  <r_i_glide_emodel>  (566) 
-38.3061

>  <r_i_glide_energy>  (566) 
-27.206

>  <r_i_glide_einternal>  (566) 
0.492412

>  <r_i_glide_intrahb_reward>  (566) 
-0

>  <i_i_glide_confnum>  (566) 
5

>  <i_i_glide_posenum>  (566) 
5

>  <r_i_glide_eff_state_penalty>  (566) 
0

>  <ligand_id>  (566) 
122

>  <original_smiles>  (566) 
N=c1[nH]oc2ccc(-n3cc(CN)c(=O)c4n[nH]nc43)cc12

>  <smiles>  (566) 
[H]c1c(-n2c3nnnc-3c([O-])c(C([H])([H])N([H])[H])c2[H])c([H])c2c(N([H])[H])noc2c1[H]

$$$$
122:1:2
     RDKit          3D

 32 35  0  0  1  0  0  0  0  0999 V2000
    3.0102   -1.4918   -2.2962 N   0  0  0  0  0  0  0  0  0  0  0  0
    3.9701   -2.4272   -1.9490 C   0  0  0  0  0  0  0  0  0  0  0  0
    5.0975   -2.5441   -2.6286 N   0  0  0  0  0  0  0  0  0  0  0  0
    5.8360   -3.5618   -1.9691 O   0  0  0  0  0  0  0  0  0  0  0  0
    5.1208   -4.0628   -0.8880 C   0  0  0  0  0  0  0  0  0  0  0  0
    5.4234   -5.0632    0.0465 C   0  0  0  0  0  0  0  0  0  0  0  0
    4.4693   -5.3444    1.0446 C   0  0  0  0  0  0  0  0  0  0  0  0
    3.2519   -4.6191    1.0975 C   0  0  0  0  0  0  0  0  0  0  0  0
    2.3191   -4.9409    2.1059 N   0  0  0  0  0  0  0  0  0  0  0  0
    1.7573   -6.1698    2.2022 C   0  0  0  0  0  0  0  0  0  0  0  0
    0.8294   -6.6052    3.1752 C   0  0  0  0  0  0  0  0  0  0  0  0
    0.2749   -8.0159    3.0865 C   0  0  0  0  0  0  0  0  0  0  0  0
   -0.7519   -8.1358    2.0755 N   0  0  0  0  0  0  0  0  0  0  0  0
    0.4297   -5.6964    4.1799 C   0  0  0  0  0  0  0  0  0  0  0  0
   -0.4924   -6.0352    5.1380 O   0  0  0  0  0  0  0  0  0  0  0  0
    0.9920   -4.3914    4.1422 C   0  0  0  0  0  0  0  0  0  0  0  0
    0.8137   -3.3147    4.9104 N   0  0  0  0  0  0  0  0  0  0  0  0
    1.6311   -2.3431    4.3501 N   0  0  0  0  0  0  0  0  0  0  0  0
    2.3190   -2.8102    3.2312 N   0  0  0  0  0  0  0  0  0  0  0  0
    1.9160   -4.0691    3.0934 C   0  0  0  0  0  0  0  0  0  0  0  0
    2.9723   -3.6062    0.1431 C   0  0  0  0  0  0  0  0  0  0  0  0
    3.9292   -3.3370   -0.8670 C   0  0  0  0  0  0  0  0  0  0  0  0
    2.1160   -1.4227   -1.7939 H   0  0  0  0  0  0  0  0  0  0  0  0
    6.3559   -5.6049   -0.0015 H   0  0  0  0  0  0  0  0  0  0  0  0
    4.6658   -6.1174    1.7740 H   0  0  0  0  0  0  0  0  0  0  0  0
    2.0657   -6.8648    1.4408 H   0  0  0  0  0  0  0  0  0  0  0  0
    1.0792   -8.7186    2.8833 H   0  0  0  0  0  0  0  0  0  0  0  0
   -0.1437   -8.2974    4.0527 H   0  0  0  0  0  0  0  0  0  0  0  0
   -0.3083   -8.2051    1.1700 H   0  0  0  0  0  0  0  0  0  0  0  0
   -1.1951   -9.0337    2.1991 H   0  0  0  0  0  0  0  0  0  0  0  0
    2.0446   -3.0538    0.1762 H   0  0  0  0  0  0  0  0  0  0  0  0
    3.1263   -0.8896   -3.0983 H   0  0  0  0  0  0  0  0  0  0  0  0
  1  2  1  0
  1 23  1  0
  1 32  1  0
  2 22  1  0
  2  3  2  0
  3  4  1  0
  4  5  1  0
  5 22  2  0
  5  6  1  0
  6  7  2  0
  6 24  1  0
  7  8  1  0
  7 25  1  0
  8  9  1  0
  8 21  2  0
  9 20  1  0
  9 10  1  0
 10 11  2  0
 10 26  1  0
 11 12  1  0
 11 14  1  0
 12 13  1  0
 12 27  1  0
 12 28  1  0
 13 29  1  0
 13 30  1  0
 14 15  1  0
 14 16  2  0
 16 20  1  0
 16 17  1  0
 17 18  2  0
 18 19  1  0
 19 20  2  0
 21 22  1  0
 21 31  1  0
M  CHG  1  15  -1
M  END
>  <i_m_ct_stereo_status>  (567) 
1

>  <s_m_source_file>  (567) 
/var/tmp/pbs.5102264.sched01/tmpp_sc680v/18465xhjztf.sdf

>  <i_m_source_file_index>  (567) 
20

>  <i_lp_mmshare_version>  (567) 
48012

>  <i_f3d_flags>  (567) 
0

>  <s_epik_input>  (567) 
bzFbbkhdL2MoPU5cW0hdKWMoYzEyKVtjSF1jKFtjSF1bY0hdMiktbihjKGMzNCluW25IXW40KVtjSF1jKGMzPU8pW0NIMl1bTkgyXQ==

>  <s_epik_cmdline>  (567) 
J2VwaWtfcHl0aG9uJywgJy1waHQnLCAnMi4wJywgJy1waCcsICc3LjAnLCAnLXRuJywgJzgnLCAnLW1hJywgJzIwMCcsICctaW1hZScsICc8aW5maWxlLm1hZT4nLCAnLW9tYWUnLCAnPG91dGZpbGUubWFlPic=

>  <r_epik_Ionization_Penalty>  (567) 
10.6864

>  <r_epik_Ionization_Penalty_Charging>  (567) 
3.67613e-08

>  <r_epik_Ionization_Penalty_Neutral>  (567) 
10.6864

>  <r_epik_State_Penalty>  (567) 
2.1245

>  <r_epik_Charging_Adjusted_Penalty>  (567) 
2.1245

>  <i_epik_Tot_Q>  (567) 
-1

>  <i_epik_Tot_abs_Q>  (567) 
1

>  <s_lp_Force_Field>  (567) 
OPLS3e

>  <r_lp_Energy>  (567) 
34.878

>  <b_lp_Chiralities_Consistent>  (567) 
1

>  <s_lp_Variant>  (567) 
122:0-2

>  <s_i_glide_gridfile>  (567) 
pfpi4k_grid

>  <i_i_glide_lignum>  (567) 
20

>  <i_i_glide_rotatable_bonds>  (567) 
2

>  <r_i_docking_score>  (567) 
-3.77784

>  <r_i_glide_ligand_efficiency>  (567) 
-0.17172

>  <r_i_glide_ligand_efficiency_sa>  (567) 
-0.481166

>  <r_i_glide_ligand_efficiency_ln>  (567) 
-0.923442

>  <r_i_glide_gscore>  (567) 
-3.77784

>  <r_i_glide_lipo>  (567) 
-0.162676

>  <r_i_glide_hbond>  (567) 
-0.299214

>  <r_i_glide_metal>  (567) 
-0

>  <r_i_glide_rewards>  (567) 
-1.38911

>  <r_i_glide_evdw>  (567) 
-22.509

>  <r_i_glide_ecoul>  (567) 
-6.04343

>  <r_i_glide_erotb>  (567) 
0.20869

>  <r_i_glide_esite>  (567) 
-0.103567

>  <r_i_glide_emodel>  (567) 
-39.2564

>  <r_i_glide_energy>  (567) 
-28.5524

>  <r_i_glide_einternal>  (567) 
0.357393

>  <r_i_glide_intrahb_reward>  (567) 
-0

>  <i_i_glide_confnum>  (567) 
2

>  <i_i_glide_posenum>  (567) 
16

>  <r_i_glide_eff_state_penalty>  (567) 
0

>  <ligand_id>  (567) 
122

>  <original_smiles>  (567) 
N=c1[nH]oc2ccc(-n3cc(CN)c(=O)c4n[nH]nc43)cc12

>  <smiles>  (567) 
[H]c1c(-n2c3nnnc-3c([O-])c(C([H])([H])N([H])[H])c2[H])c([H])c2c(N([H])[H])noc2c1[H]

$$$$
123:0:0
     RDKit          3D

 32 34  0  0  1  0  0  0  0  0999 V2000
  -11.0259   -6.1055   -9.7604 C   0  0  0  0  0  0  0  0  0  0  0  0
   -9.9758   -6.8931   -8.9939 C   0  0  0  0  0  0  0  0  0  0  0  0
   -9.7991   -8.1937   -9.2716 C   0  0  0  0  0  0  0  0  0  0  0  0
   -8.7891   -9.0989   -8.5874 C   0  0  0  0  0  0  0  0  0  0  0  0
   -9.5478  -10.2565   -7.9142 C   0  0  0  0  0  0  0  0  0  0  0  0
   -7.8242   -9.6338   -9.6516 C   0  0  0  0  0  0  0  0  0  0  0  0
   -7.9943   -8.4116   -7.5724 N   0  0  0  0  0  0  0  0  0  0  0  0
   -8.1713   -7.0535   -7.2740 C   0  0  0  0  0  0  0  0  0  0  0  0
   -9.1380   -6.2616   -7.9433 C   0  0  0  0  0  0  0  0  0  0  0  0
   -9.2661   -4.9032   -7.5644 C   0  0  0  0  0  0  0  0  0  0  0  0
   -8.4586   -4.3461   -6.5566 C   0  0  0  0  0  0  0  0  0  0  0  0
   -7.4927   -5.1179   -5.8799 C   0  0  0  0  0  0  0  0  0  0  0  0
   -6.5415   -4.8579   -4.8380 C   0  0  0  0  0  0  0  0  0  0  0  0
   -5.8769   -6.0351   -4.6112 C   0  0  0  0  0  0  0  0  0  0  0  0
   -6.3787   -7.0049   -5.4582 N   0  0  0  0  0  0  0  0  0  0  0  0
   -7.3727   -6.4838   -6.2629 C   0  0  0  0  0  0  0  0  0  0  0  0
   -6.0557   -7.9612   -5.4695 H   0  0  0  0  0  0  0  0  0  0  0  0
  -11.1296   -5.0664   -9.4707 H   0  0  0  0  0  0  0  0  0  0  0  0
  -12.0042   -6.5665   -9.6084 H   0  0  0  0  0  0  0  0  0  0  0  0
  -10.8032   -6.1295  -10.8275 H   0  0  0  0  0  0  0  0  0  0  0  0
  -10.4029   -8.6611  -10.0359 H   0  0  0  0  0  0  0  0  0  0  0  0
  -10.1494  -10.8190   -8.6306 H   0  0  0  0  0  0  0  0  0  0  0  0
  -10.2270   -9.8732   -7.1500 H   0  0  0  0  0  0  0  0  0  0  0  0
   -8.8649  -10.9540   -7.4272 H   0  0  0  0  0  0  0  0  0  0  0  0
   -8.3436  -10.1638  -10.4519 H   0  0  0  0  0  0  0  0  0  0  0  0
   -7.0813  -10.3091   -9.2242 H   0  0  0  0  0  0  0  0  0  0  0  0
   -7.2867   -8.8007  -10.1078 H   0  0  0  0  0  0  0  0  0  0  0  0
   -7.3117   -8.9455   -7.0584 H   0  0  0  0  0  0  0  0  0  0  0  0
   -9.9851   -4.2448   -8.0194 H   0  0  0  0  0  0  0  0  0  0  0  0
   -8.5833   -3.3060   -6.2880 H   0  0  0  0  0  0  0  0  0  0  0  0
   -6.3887   -3.9117   -4.3401 H   0  0  0  0  0  0  0  0  0  0  0  0
   -5.0898   -6.2628   -3.9118 H   0  0  0  0  0  0  0  0  0  0  0  0
  1  2  1  0
  1 18  1  0
  1 19  1  0
  1 20  1  0
  2  9  1  0
  2  3  2  0
  3  4  1  0
  3 21  1  0
  4  5  1  0
  4  6  1  0
  4  7  1  0
  5 22  1  0
  5 23  1  0
  5 24  1  0
  6 25  1  0
  6 26  1  0
  6 27  1  0
  7  8  1  0
  7 28  1  0
  8 16  2  0
  8  9  1  0
  9 10  2  0
 10 11  1  0
 10 29  1  0
 11 12  2  0
 11 30  1  0
 12 16  1  0
 12 13  1  0
 13 14  2  0
 13 31  1  0
 14 15  1  0
 14 32  1  0
 15 17  1  0
 15 16  1  0
M  END
>  <i_m_ct_stereo_status>  (568) 
1

>  <s_m_source_file>  (568) 
/var/tmp/pbs.5102264.sched01/tmpp_sc680v/18465xhjztf.sdf

>  <i_m_source_file_index>  (568) 
21

>  <i_lp_mmshare_version>  (568) 
48012

>  <i_f3d_flags>  (568) 
0

>  <s_epik_input>  (568) 
W0NIM11DKFtDSDNdKShbTkhdMSlbQ0hdPUMoW0NIM10pYyhjMTIpW2NIXVtjSF1jM2MyW25IXVtjSF1bY0hdMw==

>  <s_epik_cmdline>  (568) 
J2VwaWtfcHl0aG9uJywgJy1waHQnLCAnMi4wJywgJy1waCcsICc3LjAnLCAnLXRuJywgJzgnLCAnLW1hJywgJzIwMCcsICctaW1hZScsICc8aW5maWxlLm1hZT4nLCAnLW9tYWUnLCAnPG91dGZpbGUubWFlPic=

>  <r_lp_tautomer_probability>  (568) 
1

>  <r_epik_Ionization_Penalty>  (568) 
0.000203872

>  <r_epik_Ionization_Penalty_Charging>  (568) 
0

>  <r_epik_Ionization_Penalty_Neutral>  (568) 
0.000203872

>  <r_epik_State_Penalty>  (568) 
-0

>  <r_epik_Charging_Adjusted_Penalty>  (568) 
0

>  <i_epik_Tot_Q>  (568) 
0

>  <i_epik_Tot_abs_Q>  (568) 
0

>  <s_lp_Force_Field>  (568) 
OPLS3e

>  <r_lp_Energy>  (568) 
31.6791

>  <b_lp_Chiralities_Consistent>  (568) 
1

>  <s_lp_Variant>  (568) 
123:0-1

>  <s_i_glide_gridfile>  (568) 
pfpi4k_grid

>  <i_i_glide_lignum>  (568) 
21

>  <i_i_glide_rotatable_bonds>  (568) 
0

>  <r_i_docking_score>  (568) 
-5.57252

>  <r_i_glide_ligand_efficiency>  (568) 
-0.348282

>  <r_i_glide_ligand_efficiency_sa>  (568) 
-0.877617

>  <r_i_glide_ligand_efficiency_ln>  (568) 
-1.47711

>  <r_i_glide_gscore>  (568) 
-5.57252

>  <r_i_glide_lipo>  (568) 
-2.14399

>  <r_i_glide_hbond>  (568) 
0

>  <r_i_glide_metal>  (568) 
-0

>  <r_i_glide_rewards>  (568) 
-2.33589

>  <r_i_glide_evdw>  (568) 
-24.5312

>  <r_i_glide_ecoul>  (568) 
0.892829

>  <r_i_glide_erotb>  (568) 
0

>  <r_i_glide_esite>  (568) 
0

>  <r_i_glide_emodel>  (568) 
-31.38

>  <r_i_glide_energy>  (568) 
-23.6384

>  <r_i_glide_einternal>  (568) 
0

>  <r_i_glide_intrahb_reward>  (568) 
-0

>  <i_i_glide_confnum>  (568) 
2

>  <i_i_glide_posenum>  (568) 
13

>  <r_i_glide_eff_state_penalty>  (568) 
0

>  <ligand_id>  (568) 
123

>  <original_smiles>  (568) 
CC1=CC(C)(C)Nc2c1ccc1cc[nH]c21

>  <smiles>  (568) 
[H]C1=C(C([H])([H])[H])c2c([H])c([H])c3c([H])c([H])n([H])c3c2N([H])C1(C([H])([H])[H])C([H])([H])[H]

$$$$
123:0:1
     RDKit          3D

 32 34  0  0  1  0  0  0  0  0999 V2000
    2.1245    6.1693    8.6731 C   0  0  0  0  0  0  0  0  0  0  0  0
    1.9080    6.0905    7.1685 C   0  0  0  0  0  0  0  0  0  0  0  0
    2.7181    6.7777    6.3456 C   0  0  0  0  0  0  0  0  0  0  0  0
    2.6109    6.7875    4.8334 C   0  0  0  0  0  0  0  0  0  0  0  0
    2.3731    8.2381    4.3757 C   0  0  0  0  0  0  0  0  0  0  0  0
    3.9289    6.2492    4.2456 C   0  0  0  0  0  0  0  0  0  0  0  0
    1.5230    5.9651    4.3231 N   0  0  0  0  0  0  0  0  0  0  0  0
    0.6701    5.2462    5.1695 C   0  0  0  0  0  0  0  0  0  0  0  0
    0.8225    5.2731    6.5819 C   0  0  0  0  0  0  0  0  0  0  0  0
   -0.0859    4.5161    7.3706 C   0  0  0  0  0  0  0  0  0  0  0  0
   -1.1054    3.7538    6.7677 C   0  0  0  0  0  0  0  0  0  0  0  0
   -1.2732    3.7223    5.3663 C   0  0  0  0  0  0  0  0  0  0  0  0
   -2.1869    3.0608    4.4832 C   0  0  0  0  0  0  0  0  0  0  0  0
   -1.8445    3.4245    3.2148 C   0  0  0  0  0  0  0  0  0  0  0  0
   -0.7579    4.2788    3.2868 N   0  0  0  0  0  0  0  0  0  0  0  0
   -0.3630    4.4886    4.5854 C   0  0  0  0  0  0  0  0  0  0  0  0
   -0.2843    4.5617    2.4049 H   0  0  0  0  0  0  0  0  0  0  0  0
    1.4356    5.5914    9.2813 H   0  0  0  0  0  0  0  0  0  0  0  0
    2.0437    7.2088    8.9974 H   0  0  0  0  0  0  0  0  0  0  0  0
    3.1312    5.8205    8.9114 H   0  0  0  0  0  0  0  0  0  0  0  0
    3.5139    7.3787    6.7621 H   0  0  0  0  0  0  0  0  0  0  0  0
    3.1610    8.9146    4.7129 H   0  0  0  0  0  0  0  0  0  0  0  0
    1.4259    8.6108    4.7745 H   0  0  0  0  0  0  0  0  0  0  0  0
    2.3047    8.3139    3.2891 H   0  0  0  0  0  0  0  0  0  0  0  0
    4.7939    6.8264    4.5782 H   0  0  0  0  0  0  0  0  0  0  0  0
    3.9210    6.2526    3.1538 H   0  0  0  0  0  0  0  0  0  0  0  0
    4.0870    5.2148    4.5625 H   0  0  0  0  0  0  0  0  0  0  0  0
    1.3678    5.9281    3.3236 H   0  0  0  0  0  0  0  0  0  0  0  0
   -0.0390    4.4903    8.4445 H   0  0  0  0  0  0  0  0  0  0  0  0
   -1.7801    3.1862    7.3934 H   0  0  0  0  0  0  0  0  0  0  0  0
   -2.9796    2.3915    4.7728 H   0  0  0  0  0  0  0  0  0  0  0  0
   -2.2544    3.1229    2.2617 H   0  0  0  0  0  0  0  0  0  0  0  0
  1  2  1  0
  1 18  1  0
  1 19  1  0
  1 20  1  0
  2  9  1  0
  2  3  2  0
  3  4  1  0
  3 21  1  0
  4  5  1  0
  4  6  1  0
  4  7  1  0
  5 22  1  0
  5 23  1  0
  5 24  1  0
  6 25  1  0
  6 26  1  0
  6 27  1  0
  7  8  1  0
  7 28  1  0
  8 16  2  0
  8  9  1  0
  9 10  2  0
 10 11  1  0
 10 29  1  0
 11 12  2  0
 11 30  1  0
 12 16  1  0
 12 13  1  0
 13 14  2  0
 13 31  1  0
 14 15  1  0
 14 32  1  0
 15 17  1  0
 15 16  1  0
M  END
>  <i_m_ct_stereo_status>  (569) 
1

>  <s_m_source_file>  (569) 
/var/tmp/pbs.5102264.sched01/tmpp_sc680v/18465xhjztf.sdf

>  <i_m_source_file_index>  (569) 
21

>  <i_lp_mmshare_version>  (569) 
48012

>  <i_f3d_flags>  (569) 
0

>  <s_epik_input>  (569) 
W0NIM11DKFtDSDNdKShbTkhdMSlbQ0hdPUMoW0NIM10pYyhjMTIpW2NIXVtjSF1jM2MyW25IXVtjSF1bY0hdMw==

>  <s_epik_cmdline>  (569) 
J2VwaWtfcHl0aG9uJywgJy1waHQnLCAnMi4wJywgJy1waCcsICc3LjAnLCAnLXRuJywgJzgnLCAnLW1hJywgJzIwMCcsICctaW1hZScsICc8aW5maWxlLm1hZT4nLCAnLW9tYWUnLCAnPG91dGZpbGUubWFlPic=

>  <r_lp_tautomer_probability>  (569) 
1

>  <r_epik_Ionization_Penalty>  (569) 
0.000203872

>  <r_epik_Ionization_Penalty_Charging>  (569) 
0

>  <r_epik_Ionization_Penalty_Neutral>  (569) 
0.000203872

>  <r_epik_State_Penalty>  (569) 
-0

>  <r_epik_Charging_Adjusted_Penalty>  (569) 
0

>  <i_epik_Tot_Q>  (569) 
0

>  <i_epik_Tot_abs_Q>  (569) 
0

>  <s_lp_Force_Field>  (569) 
OPLS3e

>  <r_lp_Energy>  (569) 
31.6791

>  <b_lp_Chiralities_Consistent>  (569) 
1

>  <s_lp_Variant>  (569) 
123:0-1

>  <s_i_glide_gridfile>  (569) 
pfpi4k_grid

>  <i_i_glide_lignum>  (569) 
21

>  <i_i_glide_rotatable_bonds>  (569) 
0

>  <r_i_docking_score>  (569) 
-3.72153

>  <r_i_glide_ligand_efficiency>  (569) 
-0.232595

>  <r_i_glide_ligand_efficiency_sa>  (569) 
-0.586104

>  <r_i_glide_ligand_efficiency_ln>  (569) 
-0.986465

>  <r_i_glide_gscore>  (569) 
-3.72153

>  <r_i_glide_lipo>  (569) 
-0.0296759

>  <r_i_glide_hbond>  (569) 
-0.16

>  <r_i_glide_metal>  (569) 
-0

>  <r_i_glide_rewards>  (569) 
-1.96166

>  <r_i_glide_evdw>  (569) 
-13.4929

>  <r_i_glide_ecoul>  (569) 
-5.08272

>  <r_i_glide_erotb>  (569) 
0

>  <r_i_glide_esite>  (569) 
-0.133142

>  <r_i_glide_emodel>  (569) 
-23.7019

>  <r_i_glide_energy>  (569) 
-18.5756

>  <r_i_glide_einternal>  (569) 
0

>  <r_i_glide_intrahb_reward>  (569) 
-0

>  <i_i_glide_confnum>  (569) 
1

>  <i_i_glide_posenum>  (569) 
32

>  <r_i_glide_eff_state_penalty>  (569) 
0

>  <ligand_id>  (569) 
123

>  <original_smiles>  (569) 
CC1=CC(C)(C)Nc2c1ccc1cc[nH]c21

>  <smiles>  (569) 
[H]C1=C(C([H])([H])[H])c2c([H])c([H])c3c([H])c([H])n([H])c3c2N([H])C1(C([H])([H])[H])C([H])([H])[H]

$$$$
123:0:2
     RDKit          3D

 32 34  0  0  1  0  0  0  0  0999 V2000
    1.3167    4.8721    8.5865 C   0  0  0  0  0  0  0  0  0  0  0  0
    1.2267    4.8914    7.0655 C   0  0  0  0  0  0  0  0  0  0  0  0
    2.2476    5.3889    6.3479 C   0  0  0  0  0  0  0  0  0  0  0  0
    2.2887    5.4683    4.8275 C   0  0  0  0  0  0  0  0  0  0  0  0
    2.4455    6.9394    4.4239 C   0  0  0  0  0  0  0  0  0  0  0  0
    3.4810    4.6402    4.3428 C   0  0  0  0  0  0  0  0  0  0  0  0
    1.0834    4.9492    4.1873 N   0  0  0  0  0  0  0  0  0  0  0  0
    0.0246    4.4102    4.9303 C   0  0  0  0  0  0  0  0  0  0  0  0
    0.0402    4.3661    6.3497 C   0  0  0  0  0  0  0  0  0  0  0  0
   -1.0840    3.8239    7.0165 C   0  0  0  0  0  0  0  0  0  0  0  0
   -2.1825    3.3260    6.2931 C   0  0  0  0  0  0  0  0  0  0  0  0
   -2.2058    3.3448    4.8847 C   0  0  0  0  0  0  0  0  0  0  0  0
   -3.1566    2.9506    3.8896 C   0  0  0  0  0  0  0  0  0  0  0  0
   -2.6270    3.2751    2.6757 C   0  0  0  0  0  0  0  0  0  0  0  0
   -1.3885    3.8575    2.8840 N   0  0  0  0  0  0  0  0  0  0  0  0
   -1.0849    3.9137    4.2260 C   0  0  0  0  0  0  0  0  0  0  0  0
   -0.7570    4.1422    2.1161 H   0  0  0  0  0  0  0  0  0  0  0  0
    0.4542    4.4578    9.1023 H   0  0  0  0  0  0  0  0  0  0  0  0
    1.4527    5.8937    8.9487 H   0  0  0  0  0  0  0  0  0  0  0  0
    2.1884    4.2867    8.8878 H   0  0  0  0  0  0  0  0  0  0  0  0
    3.1268    5.7676    6.8549 H   0  0  0  0  0  0  0  0  0  0  0  0
    3.3344    7.3989    4.8602 H   0  0  0  0  0  0  0  0  0  0  0  0
    1.5841    7.5158    4.7564 H   0  0  0  0  0  0  0  0  0  0  0  0
    2.5005    7.0539    3.3416 H   0  0  0  0  0  0  0  0  0  0  0  0
    4.4210    4.9855    4.7771 H   0  0  0  0  0  0  0  0  0  0  0  0
    3.5812    4.6753    3.2580 H   0  0  0  0  0  0  0  0  0  0  0  0
    3.3684    3.5925    4.6174 H   0  0  0  0  0  0  0  0  0  0  0  0
    1.0287    4.9392    3.1712 H   0  0  0  0  0  0  0  0  0  0  0  0
   -1.1488    3.7677    8.0911 H   0  0  0  0  0  0  0  0  0  0  0  0
   -3.0341    2.9419    6.8201 H   0  0  0  0  0  0  0  0  0  0  0  0
   -4.1338    2.5425    4.0660 H   0  0  0  0  0  0  0  0  0  0  0  0
   -3.0549    3.1344    1.6877 H   0  0  0  0  0  0  0  0  0  0  0  0
  1  2  1  0
  1 18  1  0
  1 19  1  0
  1 20  1  0
  2  9  1  0
  2  3  2  0
  3  4  1  0
  3 21  1  0
  4  5  1  0
  4  6  1  0
  4  7  1  0
  5 22  1  0
  5 23  1  0
  5 24  1  0
  6 25  1  0
  6 26  1  0
  6 27  1  0
  7  8  1  0
  7 28  1  0
  8 16  2  0
  8  9  1  0
  9 10  2  0
 10 11  1  0
 10 29  1  0
 11 12  2  0
 11 30  1  0
 12 16  1  0
 12 13  1  0
 13 14  2  0
 13 31  1  0
 14 15  1  0
 14 32  1  0
 15 17  1  0
 15 16  1  0
M  END
>  <i_m_ct_stereo_status>  (570) 
1

>  <s_m_source_file>  (570) 
/var/tmp/pbs.5102264.sched01/tmpp_sc680v/18465xhjztf.sdf

>  <i_m_source_file_index>  (570) 
21

>  <i_lp_mmshare_version>  (570) 
48012

>  <i_f3d_flags>  (570) 
0

>  <s_epik_input>  (570) 
W0NIM11DKFtDSDNdKShbTkhdMSlbQ0hdPUMoW0NIM10pYyhjMTIpW2NIXVtjSF1jM2MyW25IXVtjSF1bY0hdMw==

>  <s_epik_cmdline>  (570) 
J2VwaWtfcHl0aG9uJywgJy1waHQnLCAnMi4wJywgJy1waCcsICc3LjAnLCAnLXRuJywgJzgnLCAnLW1hJywgJzIwMCcsICctaW1hZScsICc8aW5maWxlLm1hZT4nLCAnLW9tYWUnLCAnPG91dGZpbGUubWFlPic=

>  <r_lp_tautomer_probability>  (570) 
1

>  <r_epik_Ionization_Penalty>  (570) 
0.000203872

>  <r_epik_Ionization_Penalty_Charging>  (570) 
0

>  <r_epik_Ionization_Penalty_Neutral>  (570) 
0.000203872

>  <r_epik_State_Penalty>  (570) 
-0

>  <r_epik_Charging_Adjusted_Penalty>  (570) 
0

>  <i_epik_Tot_Q>  (570) 
0

>  <i_epik_Tot_abs_Q>  (570) 
0

>  <s_lp_Force_Field>  (570) 
OPLS3e

>  <r_lp_Energy>  (570) 
31.6791

>  <b_lp_Chiralities_Consistent>  (570) 
1

>  <s_lp_Variant>  (570) 
123:0-1

>  <s_i_glide_gridfile>  (570) 
pfpi4k_grid

>  <i_i_glide_lignum>  (570) 
21

>  <i_i_glide_rotatable_bonds>  (570) 
0

>  <r_i_docking_score>  (570) 
-3.68927

>  <r_i_glide_ligand_efficiency>  (570) 
-0.230579

>  <r_i_glide_ligand_efficiency_sa>  (570) 
-0.581023

>  <r_i_glide_ligand_efficiency_ln>  (570) 
-0.977914

>  <r_i_glide_gscore>  (570) 
-3.68927

>  <r_i_glide_lipo>  (570) 
-0.0864107

>  <r_i_glide_hbond>  (570) 
-0.16

>  <r_i_glide_metal>  (570) 
-0

>  <r_i_glide_rewards>  (570) 
-1.96166

>  <r_i_glide_evdw>  (570) 
-10.6777

>  <r_i_glide_ecoul>  (570) 
-5.35592

>  <r_i_glide_erotb>  (570) 
0

>  <r_i_glide_esite>  (570) 
-0.143929

>  <r_i_glide_emodel>  (570) 
-21.1198

>  <r_i_glide_energy>  (570) 
-16.0336

>  <r_i_glide_einternal>  (570) 
0

>  <r_i_glide_intrahb_reward>  (570) 
-0

>  <i_i_glide_confnum>  (570) 
1

>  <i_i_glide_posenum>  (570) 
22

>  <r_i_glide_eff_state_penalty>  (570) 
0

>  <ligand_id>  (570) 
123

>  <original_smiles>  (570) 
CC1=CC(C)(C)Nc2c1ccc1cc[nH]c21

>  <smiles>  (570) 
[H]C1=C(C([H])([H])[H])c2c([H])c([H])c3c([H])c([H])n([H])c3c2N([H])C1(C([H])([H])[H])C([H])([H])[H]

$$$$
124:0:0
     RDKit          3D

 51 54  0  0  1  0  0  0  0  0999 V2000
    1.6178   -1.8568    2.0701 C   0  0  0  0  0  0  0  0  0  0  0  0
    2.2352   -2.9059    1.4882 C   0  0  0  0  0  0  0  0  0  0  0  0
    3.2060   -2.8691    0.3114 C   0  0  1  0  0  0  0  0  0  0  0  0
    2.5484   -3.5080   -0.9255 C   0  0  0  0  0  0  0  0  0  0  0  0
    3.4114   -1.5202   -0.0722 O   0  0  0  0  0  0  0  0  0  0  0  0
    4.6101   -3.4847    0.6694 C   0  0  2  0  0  0  0  0  0  0  0  0
    5.6183   -3.5405   -0.4950 C   0  0  0  0  0  0  0  0  0  0  0  0
    7.0517   -3.7427    0.0112 C   0  0  0  0  0  0  0  0  0  0  0  0
    7.1778   -4.7606    1.1382 C   0  0  0  0  0  0  0  0  0  0  0  0
    8.6208   -5.1368    1.4375 C   0  0  0  0  0  0  0  0  0  0  0  0
    6.1061   -5.2627    1.7994 C   0  0  0  0  0  0  0  0  0  0  0  0
    6.2270   -6.3245    2.9020 C   0  0  0  0  0  0  0  0  0  0  0  0
    5.1010   -7.3972    3.0066 C   0  0  1  0  0  0  0  0  0  0  0  0
    3.7542   -6.9514    3.6194 C   0  0  0  0  0  0  0  0  0  0  0  0
    2.7096   -7.2632    2.5328 C   0  0  1  0  0  0  0  0  0  0  0  0
    2.6827   -6.2508    1.5191 O   0  0  0  0  0  0  0  0  0  0  0  0
    3.8897   -6.0016    0.8334 C   0  0  2  0  0  0  0  0  0  0  0  0
    4.6955   -7.1407    0.6304 O   0  0  0  0  0  0  0  0  0  0  0  0
    4.6978   -8.0717    1.6656 C   0  0  1  0  0  0  0  0  0  0  0  0
    5.5378   -9.1688    1.3505 O   0  0  0  0  0  0  0  0  0  0  0  0
    3.2414   -8.5205    1.8492 C   0  0  1  0  0  0  0  0  0  0  0  0
    3.1116   -9.8154    2.6831 C   0  0  0  0  0  0  0  0  0  0  0  0
    4.6807   -4.8157    1.4945 C   0  0  2  0  0  0  0  0  0  0  0  0
    1.7745   -0.8376    1.7483 H   0  0  0  0  0  0  0  0  0  0  0  0
    0.9272   -2.0169    2.8860 H   0  0  0  0  0  0  0  0  0  0  0  0
    2.0183   -3.8828    1.8851 H   0  0  0  0  0  0  0  0  0  0  0  0
    2.1792   -4.5061   -0.7289 H   0  0  0  0  0  0  0  0  0  0  0  0
    3.2323   -3.5407   -1.7767 H   0  0  0  0  0  0  0  0  0  0  0  0
    1.6746   -2.9618   -1.2724 H   0  0  0  0  0  0  0  0  0  0  0  0
    2.5536   -1.1732   -0.3204 H   0  0  0  0  0  0  0  0  0  0  0  0
    5.0411   -2.7481    1.3519 H   0  0  0  0  0  0  0  0  0  0  0  0
    5.3600   -4.3656   -1.1596 H   0  0  0  0  0  0  0  0  0  0  0  0
    5.5735   -2.6318   -1.0949 H   0  0  0  0  0  0  0  0  0  0  0  0
    7.6890   -4.0445   -0.8189 H   0  0  0  0  0  0  0  0  0  0  0  0
    7.4467   -2.7945    0.3784 H   0  0  0  0  0  0  0  0  0  0  0  0
    9.2662   -4.2648    1.3185 H   0  0  0  0  0  0  0  0  0  0  0  0
    8.9711   -5.9200    0.7629 H   0  0  0  0  0  0  0  0  0  0  0  0
    8.7616   -5.4749    2.4651 H   0  0  0  0  0  0  0  0  0  0  0  0
    7.1567   -6.8780    2.7715 H   0  0  0  0  0  0  0  0  0  0  0  0
    6.3100   -5.8016    3.8555 H   0  0  0  0  0  0  0  0  0  0  0  0
    5.4812   -8.1910    3.6527 H   0  0  0  0  0  0  0  0  0  0  0  0
    3.5530   -7.5657    4.4961 H   0  0  0  0  0  0  0  0  0  0  0  0
    3.7269   -5.9267    3.9829 H   0  0  0  0  0  0  0  0  0  0  0  0
    1.7140   -7.4083    2.9546 H   0  0  0  0  0  0  0  0  0  0  0  0
    3.6665   -5.7716   -0.1997 H   0  0  0  0  0  0  0  0  0  0  0  0
    5.0389   -9.7935    0.8501 H   0  0  0  0  0  0  0  0  0  0  0  0
    2.7741   -8.6777    0.8809 H   0  0  0  0  0  0  0  0  0  0  0  0
    3.6320   -9.7605    3.6413 H   0  0  0  0  0  0  0  0  0  0  0  0
    3.5159  -10.6688    2.1360 H   0  0  0  0  0  0  0  0  0  0  0  0
    2.0622  -10.0337    2.8830 H   0  0  0  0  0  0  0  0  0  0  0  0
    4.2343   -4.5767    2.4551 H   0  0  0  0  0  0  0  0  0  0  0  0
  1  2  2  0
  1 24  1  0
  1 25  1  0
  2  3  1  0
  2 26  1  0
  3  4  1  0
  3  5  1  6
  3  6  1  0
  4 27  1  0
  4 28  1  0
  4 29  1  0
  5 30  1  0
  6 23  1  0
  6  7  1  0
  6 31  1  1
  7  8  1  0
  7 32  1  0
  7 33  1  0
  8  9  1  0
  8 34  1  0
  8 35  1  0
  9 10  1  0
  9 11  2  0
 10 36  1  0
 10 37  1  0
 10 38  1  0
 11 23  1  0
 11 12  1  0
 12 13  1  0
 12 39  1  0
 12 40  1  0
 13 19  1  0
 13 14  1  0
 13 41  1  1
 14 15  1  0
 14 42  1  0
 14 43  1  0
 15 21  1  0
 15 16  1  0
 15 44  1  1
 16 17  1  0
 17 18  1  0
 17 23  1  0
 17 45  1  6
 18 19  1  0
 19 20  1  6
 19 21  1  0
 20 46  1  0
 21 22  1  0
 21 47  1  6
 22 48  1  0
 22 49  1  0
 22 50  1  0
 23 51  1  1
M  END
>  <i_m_ct_stereo_status>  (571) 
1

>  <s_m_source_file>  (571) 
/var/tmp/pbs.5102264.sched01/tmpp_sc680v/18465xhjztf.sdf

>  <i_m_source_file_index>  (571) 
22

>  <i_lp_mmshare_version>  (571) 
48012

>  <i_f3d_flags>  (571) 
0

>  <s_epik_input>  (571) 
W0NIM11DPTFbQ0gyXVtDSDJdW0NAQEhdKFtDQF0oW0NIM10pKFtPSF0pW0NIXT1bQ0gyXSlbQ0BIXShDMVtDSDJdW0NAQEhdMltDQF0zNFtPSF0pW0NAQEhdKE8zKU9bQ0BIXShbQ0gyXTIpW0NAQEhdNFtDSDNd

>  <s_epik_cmdline>  (571) 
J2VwaWtfcHl0aG9uJywgJy1waHQnLCAnMi4wJywgJy1waCcsICc3LjAnLCAnLXRuJywgJzgnLCAnLW1hJywgJzIwMCcsICctaW1hZScsICc8aW5maWxlLm1hZT4nLCAnLW9tYWUnLCAnPG91dGZpbGUubWFlPic=

>  <r_lp_tautomer_probability>  (571) 
1

>  <r_epik_Ionization_Penalty>  (571) 
8.45388e-08

>  <r_epik_Ionization_Penalty_Charging>  (571) 
0

>  <r_epik_Ionization_Penalty_Neutral>  (571) 
8.45388e-08

>  <r_epik_State_Penalty>  (571) 
-0

>  <r_epik_Charging_Adjusted_Penalty>  (571) 
0

>  <i_epik_Tot_Q>  (571) 
0

>  <i_epik_Tot_abs_Q>  (571) 
0

>  <s_epik_Chemistry_Notes>  (571) 
This compound contains an acetal/aminal-like group ( X-CH(R)-Y where X, Y are N, S, or O) that may be acid/base labile, releasing an aldehyde.

>  <s_lp_Force_Field>  (571) 
OPLS3e

>  <r_lp_Energy>  (571) 
44.5114

>  <b_lp_Chiralities_Consistent>  (571) 
1

>  <s_lp_Variant>  (571) 
124:0-1

>  <s_i_glide_gridfile>  (571) 
pfpi4k_grid

>  <i_i_glide_lignum>  (571) 
22

>  <i_i_glide_rotatable_bonds>  (571) 
4

>  <r_i_docking_score>  (571) 
-3.4681

>  <r_i_glide_ligand_efficiency>  (571) 
-0.150787

>  <r_i_glide_ligand_efficiency_sa>  (571) 
-0.428817

>  <r_i_glide_ligand_efficiency_ln>  (571) 
-0.838617

>  <r_i_glide_gscore>  (571) 
-3.4681

>  <r_i_glide_lipo>  (571) 
-0.428224

>  <r_i_glide_hbond>  (571) 
-0.16

>  <r_i_glide_metal>  (571) 
-0

>  <r_i_glide_rewards>  (571) 
-1.34141

>  <r_i_glide_evdw>  (571) 
-23.0329

>  <r_i_glide_ecoul>  (571) 
-5.00369

>  <r_i_glide_erotb>  (571) 
0.363735

>  <r_i_glide_esite>  (571) 
0

>  <r_i_glide_emodel>  (571) 
-33.3617

>  <r_i_glide_energy>  (571) 
-28.0366

>  <r_i_glide_einternal>  (571) 
2.40743

>  <r_i_glide_intrahb_reward>  (571) 
-0

>  <i_i_glide_confnum>  (571) 
3

>  <i_i_glide_posenum>  (571) 
8

>  <r_i_glide_eff_state_penalty>  (571) 
0

>  <ligand_id>  (571) 
124

>  <original_smiles>  (571) 
C=CC(C)(O)C1CCC(C)=C2CC3CC4OC(OC3(O)C4C)C21

>  <smiles>  (571) 
[H]OC12OC3([H])OC([H])(C([H])([H])C1([H])C([H])([H])C1=C(C([H])([H])[H])C([H])([H])C([H])([H])C([H])(C(O[H])(C([H])=C([H])[H])C([H])([H])[H])C13[H])C2([H])C([H])([H])[H]

$$$$
124:0:1
     RDKit          3D

 51 54  0  0  1  0  0  0  0  0999 V2000
    3.4412   -1.6958   -1.6941 C   0  0  0  0  0  0  0  0  0  0  0  0
    3.7578   -1.9002   -0.4018 C   0  0  0  0  0  0  0  0  0  0  0  0
    3.4582   -3.1730    0.4027 C   0  0  1  0  0  0  0  0  0  0  0  0
    2.6122   -2.7801    1.6231 C   0  0  0  0  0  0  0  0  0  0  0  0
    2.6262   -3.9888   -0.3793 O   0  0  0  0  0  0  0  0  0  0  0  0
    4.7753   -3.9120    0.8398 C   0  0  2  0  0  0  0  0  0  0  0  0
    5.8991   -4.0212   -0.1999 C   0  0  0  0  0  0  0  0  0  0  0  0
    7.2511   -4.3420    0.4706 C   0  0  0  0  0  0  0  0  0  0  0  0
    7.1865   -5.3511    1.6048 C   0  0  0  0  0  0  0  0  0  0  0  0
    8.5581   -5.8409    2.0465 C   0  0  0  0  0  0  0  0  0  0  0  0
    6.0174   -5.8112    2.1080 C   0  0  0  0  0  0  0  0  0  0  0  0
    5.9348   -6.8754    3.2138 C   0  0  0  0  0  0  0  0  0  0  0  0
    4.7328   -7.8598    3.1767 C   0  0  1  0  0  0  0  0  0  0  0  0
    3.3724   -7.3242    3.6611 C   0  0  0  0  0  0  0  0  0  0  0  0
    2.4272   -7.5483    2.4646 C   0  0  1  0  0  0  0  0  0  0  0  0
    2.5821   -6.5348    1.4747 O   0  0  0  0  0  0  0  0  0  0  0  0
    3.8620   -6.3755    0.9297 C   0  0  2  0  0  0  0  0  0  0  0  0
    4.5988   -7.5488    0.7776 O   0  0  0  0  0  0  0  0  0  0  0  0
    4.4477   -8.5007    1.7817 C   0  0  1  0  0  0  0  0  0  0  0  0
    5.2443   -9.6635    1.5511 O   0  0  0  0  0  0  0  0  0  0  0  0
    2.9409   -8.8335    1.8192 C   0  0  1  0  0  0  0  0  0  0  0  0
    2.6315  -10.1228    2.6156 C   0  0  0  0  0  0  0  0  0  0  0  0
    4.6729   -5.2463    1.6666 C   0  0  2  0  0  0  0  0  0  0  0  0
    2.9464   -2.4594   -2.2887 H   0  0  0  0  0  0  0  0  0  0  0  0
    3.6556   -0.7614   -2.1933 H   0  0  0  0  0  0  0  0  0  0  0  0
    4.2473   -1.0948    0.1329 H   0  0  0  0  0  0  0  0  0  0  0  0
    3.1165   -2.0385    2.2437 H   0  0  0  0  0  0  0  0  0  0  0  0
    2.3788   -3.6385    2.2460 H   0  0  0  0  0  0  0  0  0  0  0  0
    1.6673   -2.3411    1.3095 H   0  0  0  0  0  0  0  0  0  0  0  0
    3.1474   -4.3916   -1.0559 H   0  0  0  0  0  0  0  0  0  0  0  0
    5.1995   -3.2023    1.5538 H   0  0  0  0  0  0  0  0  0  0  0  0
    5.6405   -4.8175   -0.9007 H   0  0  0  0  0  0  0  0  0  0  0  0
    6.0191   -3.1146   -0.7850 H   0  0  0  0  0  0  0  0  0  0  0  0
    7.9471   -4.6967   -0.2915 H   0  0  0  0  0  0  0  0  0  0  0  0
    7.6757   -3.4317    0.8916 H   0  0  0  0  0  0  0  0  0  0  0  0
    9.2766   -5.0241    2.0156 H   0  0  0  0  0  0  0  0  0  0  0  0
    8.9226   -6.6355    1.3958 H   0  0  0  0  0  0  0  0  0  0  0  0
    8.5645   -6.2061    3.0730 H   0  0  0  0  0  0  0  0  0  0  0  0
    6.8372   -7.4916    3.1765 H   0  0  0  0  0  0  0  0  0  0  0  0
    5.9564   -6.3686    4.1819 H   0  0  0  0  0  0  0  0  0  0  0  0
    4.9852   -8.6857    3.8461 H   0  0  0  0  0  0  0  0  0  0  0  0
    3.0331   -7.9318    4.4944 H   0  0  0  0  0  0  0  0  0  0  0  0
    3.3754   -6.3039    4.0296 H   0  0  0  0  0  0  0  0  0  0  0  0
    1.3835   -7.6318    2.7739 H   0  0  0  0  0  0  0  0  0  0  0  0
    3.7464   -6.1467   -0.1287 H   0  0  0  0  0  0  0  0  0  0  0  0
    4.7539  -10.2373    0.9743 H   0  0  0  0  0  0  0  0  0  0  0  0
    2.5580   -8.9674    0.8110 H   0  0  0  0  0  0  0  0  0  0  0  0
    3.0448  -10.1165    3.6219 H   0  0  0  0  0  0  0  0  0  0  0  0
    3.0235  -11.0003    2.0975 H   0  0  0  0  0  0  0  0  0  0  0  0
    1.5516  -10.2628    2.6902 H   0  0  0  0  0  0  0  0  0  0  0  0
    4.1529   -4.9863    2.5804 H   0  0  0  0  0  0  0  0  0  0  0  0
  1  2  2  0
  1 24  1  0
  1 25  1  0
  2  3  1  0
  2 26  1  0
  3  4  1  0
  3  5  1  6
  3  6  1  0
  4 27  1  0
  4 28  1  0
  4 29  1  0
  5 30  1  0
  6 23  1  0
  6  7  1  0
  6 31  1  1
  7  8  1  0
  7 32  1  0
  7 33  1  0
  8  9  1  0
  8 34  1  0
  8 35  1  0
  9 10  1  0
  9 11  2  0
 10 36  1  0
 10 37  1  0
 10 38  1  0
 11 23  1  0
 11 12  1  0
 12 13  1  0
 12 39  1  0
 12 40  1  0
 13 19  1  0
 13 14  1  0
 13 41  1  1
 14 15  1  0
 14 42  1  0
 14 43  1  0
 15 21  1  0
 15 16  1  0
 15 44  1  1
 16 17  1  0
 17 18  1  0
 17 23  1  0
 17 45  1  6
 18 19  1  0
 19 20  1  6
 19 21  1  0
 20 46  1  0
 21 22  1  0
 21 47  1  6
 22 48  1  0
 22 49  1  0
 22 50  1  0
 23 51  1  1
M  END
>  <i_m_ct_stereo_status>  (572) 
1

>  <s_m_source_file>  (572) 
/var/tmp/pbs.5102264.sched01/tmpp_sc680v/18465xhjztf.sdf

>  <i_m_source_file_index>  (572) 
22

>  <i_lp_mmshare_version>  (572) 
48012

>  <i_f3d_flags>  (572) 
0

>  <s_epik_input>  (572) 
W0NIM11DPTFbQ0gyXVtDSDJdW0NAQEhdKFtDQF0oW0NIM10pKFtPSF0pW0NIXT1bQ0gyXSlbQ0BIXShDMVtDSDJdW0NAQEhdMltDQF0zNFtPSF0pW0NAQEhdKE8zKU9bQ0BIXShbQ0gyXTIpW0NAQEhdNFtDSDNd

>  <s_epik_cmdline>  (572) 
J2VwaWtfcHl0aG9uJywgJy1waHQnLCAnMi4wJywgJy1waCcsICc3LjAnLCAnLXRuJywgJzgnLCAnLW1hJywgJzIwMCcsICctaW1hZScsICc8aW5maWxlLm1hZT4nLCAnLW9tYWUnLCAnPG91dGZpbGUubWFlPic=

>  <r_lp_tautomer_probability>  (572) 
1

>  <r_epik_Ionization_Penalty>  (572) 
8.45388e-08

>  <r_epik_Ionization_Penalty_Charging>  (572) 
0

>  <r_epik_Ionization_Penalty_Neutral>  (572) 
8.45388e-08

>  <r_epik_State_Penalty>  (572) 
-0

>  <r_epik_Charging_Adjusted_Penalty>  (572) 
0

>  <i_epik_Tot_Q>  (572) 
0

>  <i_epik_Tot_abs_Q>  (572) 
0

>  <s_epik_Chemistry_Notes>  (572) 
This compound contains an acetal/aminal-like group ( X-CH(R)-Y where X, Y are N, S, or O) that may be acid/base labile, releasing an aldehyde.

>  <s_lp_Force_Field>  (572) 
OPLS3e

>  <r_lp_Energy>  (572) 
44.5114

>  <b_lp_Chiralities_Consistent>  (572) 
1

>  <s_lp_Variant>  (572) 
124:0-1

>  <s_i_glide_gridfile>  (572) 
pfpi4k_grid

>  <i_i_glide_lignum>  (572) 
22

>  <i_i_glide_rotatable_bonds>  (572) 
4

>  <r_i_docking_score>  (572) 
-3.1664

>  <r_i_glide_ligand_efficiency>  (572) 
-0.13767

>  <r_i_glide_ligand_efficiency_sa>  (572) 
-0.391514

>  <r_i_glide_ligand_efficiency_ln>  (572) 
-0.765665

>  <r_i_glide_gscore>  (572) 
-3.1664

>  <r_i_glide_lipo>  (572) 
-0.394525

>  <r_i_glide_hbond>  (572) 
0

>  <r_i_glide_metal>  (572) 
-0

>  <r_i_glide_rewards>  (572) 
-1.33162

>  <r_i_glide_evdw>  (572) 
-23.4704

>  <r_i_glide_ecoul>  (572) 
-4.12686

>  <r_i_glide_erotb>  (572) 
0.363735

>  <r_i_glide_esite>  (572) 
-0.0114437

>  <r_i_glide_emodel>  (572) 
-30.923

>  <r_i_glide_energy>  (572) 
-27.5973

>  <r_i_glide_einternal>  (572) 
4.706

>  <r_i_glide_intrahb_reward>  (572) 
-0

>  <i_i_glide_confnum>  (572) 
3

>  <i_i_glide_posenum>  (572) 
1

>  <r_i_glide_eff_state_penalty>  (572) 
0

>  <ligand_id>  (572) 
124

>  <original_smiles>  (572) 
C=CC(C)(O)C1CCC(C)=C2CC3CC4OC(OC3(O)C4C)C21

>  <smiles>  (572) 
[H]OC12OC3([H])OC([H])(C([H])([H])C1([H])C([H])([H])C1=C(C([H])([H])[H])C([H])([H])C([H])([H])C([H])(C(O[H])(C([H])=C([H])[H])C([H])([H])[H])C13[H])C2([H])C([H])([H])[H]

$$$$
124:0:2
     RDKit          3D

 51 54  0  0  1  0  0  0  0  0999 V2000
    5.0841   -3.1482   -0.5652 C   0  0  0  0  0  0  0  0  0  0  0  0
    4.9235   -3.6305    0.6823 C   0  0  0  0  0  0  0  0  0  0  0  0
    3.7292   -4.4376    1.1976 C   0  0  1  0  0  0  0  0  0  0  0  0
    3.0706   -3.6248    2.3287 C   0  0  0  0  0  0  0  0  0  0  0  0
    2.7698   -4.5572    0.1610 O   0  0  0  0  0  0  0  0  0  0  0  0
    4.1534   -5.8674    1.6874 C   0  0  2  0  0  0  0  0  0  0  0  0
    4.8280   -6.7625    0.6383 C   0  0  0  0  0  0  0  0  0  0  0  0
    5.5513   -7.9507    1.2948 C   0  0  0  0  0  0  0  0  0  0  0  0
    4.7965   -8.5993    2.4501 C   0  0  0  0  0  0  0  0  0  0  0  0
    5.4244   -9.9036    2.9206 C   0  0  0  0  0  0  0  0  0  0  0  0
    3.6815   -8.0519    2.9900 C   0  0  0  0  0  0  0  0  0  0  0  0
    2.8792   -8.7268    4.1168 C   0  0  0  0  0  0  0  0  0  0  0  0
    1.3366   -8.5597    4.1027 C   0  0  1  0  0  0  0  0  0  0  0  0
    0.7744   -7.2010    4.5666 C   0  0  0  0  0  0  0  0  0  0  0  0
   -0.0658   -6.7121    3.3822 C   0  0  1  0  0  0  0  0  0  0  0  0
    0.7393   -6.1059    2.3681 O   0  0  0  0  0  0  0  0  0  0  0  0
    1.7541   -6.9074    1.8046 C   0  0  2  0  0  0  0  0  0  0  0  0
    1.4266   -8.2656    1.6819 O   0  0  0  0  0  0  0  0  0  0  0  0
    0.6589   -8.8027    2.7185 C   0  0  1  0  0  0  0  0  0  0  0  0
    0.4125  -10.1674    2.4848 O   0  0  0  0  0  0  0  0  0  0  0  0
   -0.6372   -7.9767    2.7499 C   0  0  1  0  0  0  0  0  0  0  0  0
   -1.7616   -8.6329    3.5725 C   0  0  0  0  0  0  0  0  0  0  0  0
    3.1271   -6.7056    2.5264 C   0  0  2  0  0  0  0  0  0  0  0  0
    4.3497   -3.3205   -1.3429 H   0  0  0  0  0  0  0  0  0  0  0  0
    5.9538   -2.5677   -0.8288 H   0  0  0  0  0  0  0  0  0  0  0  0
    5.7010   -3.4231    1.4050 H   0  0  0  0  0  0  0  0  0  0  0  0
    3.7792   -3.4265    3.1340 H   0  0  0  0  0  0  0  0  0  0  0  0
    2.2161   -4.1332    2.7683 H   0  0  0  0  0  0  0  0  0  0  0  0
    2.7052   -2.6655    1.9616 H   0  0  0  0  0  0  0  0  0  0  0  0
    3.1693   -5.0219   -0.5617 H   0  0  0  0  0  0  0  0  0  0  0  0
    4.9546   -5.6556    2.3929 H   0  0  0  0  0  0  0  0  0  0  0  0
    4.0786   -7.1376   -0.0553 H   0  0  0  0  0  0  0  0  0  0  0  0
    5.5458   -6.2007    0.0368 H   0  0  0  0  0  0  0  0  0  0  0  0
    5.7546   -8.7173    0.5469 H   0  0  0  0  0  0  0  0  0  0  0  0
    6.5115   -7.6189    1.6908 H   0  0  0  0  0  0  0  0  0  0  0  0
    6.5109   -9.8454    2.8616 H   0  0  0  0  0  0  0  0  0  0  0  0
    5.0963  -10.7340    2.2946 H   0  0  0  0  0  0  0  0  0  0  0  0
    5.1872  -10.1373    3.9584 H   0  0  0  0  0  0  0  0  0  0  0  0
    3.0635   -9.8008    4.0982 H   0  0  0  0  0  0  0  0  0  0  0  0
    3.2706   -8.3636    5.0690 H   0  0  0  0  0  0  0  0  0  0  0  0
    0.9269   -9.3020    4.7871 H   0  0  0  0  0  0  0  0  0  0  0  0
    0.1184   -7.3632    5.4185 H   0  0  0  0  0  0  0  0  0  0  0  0
    1.5120   -6.4806    4.9122 H   0  0  0  0  0  0  0  0  0  0  0  0
   -0.8422   -6.0234    3.7141 H   0  0  0  0  0  0  0  0  0  0  0  0
    1.8233   -6.6319    0.7591 H   0  0  0  0  0  0  0  0  0  0  0  0
    0.1730  -10.2610    1.5671 H   0  0  0  0  0  0  0  0  0  0  0  0
   -0.9878   -7.8086    1.7278 H   0  0  0  0  0  0  0  0  0  0  0  0
   -1.4402   -8.9035    4.5785 H   0  0  0  0  0  0  0  0  0  0  0  0
   -2.1176   -9.5424    3.0878 H   0  0  0  0  0  0  0  0  0  0  0  0
   -2.6098   -7.9556    3.6645 H   0  0  0  0  0  0  0  0  0  0  0  0
    2.9727   -6.1470    3.4429 H   0  0  0  0  0  0  0  0  0  0  0  0
  1  2  2  0
  1 24  1  0
  1 25  1  0
  2  3  1  0
  2 26  1  0
  3  4  1  0
  3  5  1  6
  3  6  1  0
  4 27  1  0
  4 28  1  0
  4 29  1  0
  5 30  1  0
  6 23  1  0
  6  7  1  0
  6 31  1  1
  7  8  1  0
  7 32  1  0
  7 33  1  0
  8  9  1  0
  8 34  1  0
  8 35  1  0
  9 10  1  0
  9 11  2  0
 10 36  1  0
 10 37  1  0
 10 38  1  0
 11 23  1  0
 11 12  1  0
 12 13  1  0
 12 39  1  0
 12 40  1  0
 13 19  1  0
 13 14  1  0
 13 41  1  1
 14 15  1  0
 14 42  1  0
 14 43  1  0
 15 21  1  0
 15 16  1  0
 15 44  1  1
 16 17  1  0
 17 18  1  0
 17 23  1  0
 17 45  1  6
 18 19  1  0
 19 20  1  6
 19 21  1  0
 20 46  1  0
 21 22  1  0
 21 47  1  6
 22 48  1  0
 22 49  1  0
 22 50  1  0
 23 51  1  1
M  END
>  <i_m_ct_stereo_status>  (573) 
1

>  <s_m_source_file>  (573) 
/var/tmp/pbs.5102264.sched01/tmpp_sc680v/18465xhjztf.sdf

>  <i_m_source_file_index>  (573) 
22

>  <i_lp_mmshare_version>  (573) 
48012

>  <i_f3d_flags>  (573) 
0

>  <s_epik_input>  (573) 
W0NIM11DPTFbQ0gyXVtDSDJdW0NAQEhdKFtDQF0oW0NIM10pKFtPSF0pW0NIXT1bQ0gyXSlbQ0BIXShDMVtDSDJdW0NAQEhdMltDQF0zNFtPSF0pW0NAQEhdKE8zKU9bQ0BIXShbQ0gyXTIpW0NAQEhdNFtDSDNd

>  <s_epik_cmdline>  (573) 
J2VwaWtfcHl0aG9uJywgJy1waHQnLCAnMi4wJywgJy1waCcsICc3LjAnLCAnLXRuJywgJzgnLCAnLW1hJywgJzIwMCcsICctaW1hZScsICc8aW5maWxlLm1hZT4nLCAnLW9tYWUnLCAnPG91dGZpbGUubWFlPic=

>  <r_lp_tautomer_probability>  (573) 
1

>  <r_epik_Ionization_Penalty>  (573) 
8.45388e-08

>  <r_epik_Ionization_Penalty_Charging>  (573) 
0

>  <r_epik_Ionization_Penalty_Neutral>  (573) 
8.45388e-08

>  <r_epik_State_Penalty>  (573) 
-0

>  <r_epik_Charging_Adjusted_Penalty>  (573) 
0

>  <i_epik_Tot_Q>  (573) 
0

>  <i_epik_Tot_abs_Q>  (573) 
0

>  <s_epik_Chemistry_Notes>  (573) 
This compound contains an acetal/aminal-like group ( X-CH(R)-Y where X, Y are N, S, or O) that may be acid/base labile, releasing an aldehyde.

>  <s_lp_Force_Field>  (573) 
OPLS3e

>  <r_lp_Energy>  (573) 
44.5114

>  <b_lp_Chiralities_Consistent>  (573) 
1

>  <s_lp_Variant>  (573) 
124:0-1

>  <s_i_glide_gridfile>  (573) 
pfpi4k_grid

>  <i_i_glide_lignum>  (573) 
22

>  <i_i_glide_rotatable_bonds>  (573) 
4

>  <r_i_docking_score>  (573) 
-3.05145

>  <r_i_glide_ligand_efficiency>  (573) 
-0.132672

>  <r_i_glide_ligand_efficiency_sa>  (573) 
-0.377301

>  <r_i_glide_ligand_efficiency_ln>  (573) 
-0.737869

>  <r_i_glide_gscore>  (573) 
-3.05145

>  <r_i_glide_lipo>  (573) 
-0.307292

>  <r_i_glide_hbond>  (573) 
-0.0430194

>  <r_i_glide_metal>  (573) 
-0

>  <r_i_glide_rewards>  (573) 
-1.22439

>  <r_i_glide_evdw>  (573) 
-23.4499

>  <r_i_glide_ecoul>  (573) 
-4.11392

>  <r_i_glide_erotb>  (573) 
0.363735

>  <r_i_glide_esite>  (573) 
-0.0509046

>  <r_i_glide_emodel>  (573) 
-31.9606

>  <r_i_glide_energy>  (573) 
-27.5638

>  <r_i_glide_einternal>  (573) 
2.67874

>  <r_i_glide_intrahb_reward>  (573) 
-0

>  <i_i_glide_confnum>  (573) 
3

>  <i_i_glide_posenum>  (573) 
3

>  <r_i_glide_eff_state_penalty>  (573) 
0

>  <ligand_id>  (573) 
124

>  <original_smiles>  (573) 
C=CC(C)(O)C1CCC(C)=C2CC3CC4OC(OC3(O)C4C)C21

>  <smiles>  (573) 
[H]OC12OC3([H])OC([H])(C([H])([H])C1([H])C([H])([H])C1=C(C([H])([H])[H])C([H])([H])C([H])([H])C([H])(C(O[H])(C([H])=C([H])[H])C([H])([H])[H])C13[H])C2([H])C([H])([H])[H]

$$$$
