0:0:0
     RDKit          3D

 40 42  0  0  1  0  0  0  0  0999 V2000
    3.2805   -7.2410    1.3430 C   0  0  0  0  0  0  0  0  0  0  0  0
    2.0861   -6.2783    1.4181 C   0  0  0  0  0  0  0  0  0  0  0  0
    1.0203   -6.6274    1.9214 O   0  0  0  0  0  0  0  0  0  0  0  0
    2.2561   -5.0505    0.9372 O   0  0  0  0  0  0  0  0  0  0  0  0
    3.3794   -4.6848    0.1375 C   0  0  2  0  0  0  0  0  0  0  0  0
    4.6864   -4.3900    0.8991 C   0  0  1  0  0  0  0  0  0  0  0  0
    5.7524   -5.3155    0.8178 O   0  0  0  0  0  0  0  0  0  0  0  0
    4.8317   -3.1511    0.0392 C   0  0  1  0  0  0  0  0  0  0  0  0
    5.9427   -3.0506   -1.0177 C   0  0  1  0  0  0  0  0  0  0  0  0
    5.5217   -2.7810   -2.4617 C   0  0  0  0  0  0  0  0  0  0  0  0
    4.1658   -3.3845   -2.8085 C   0  0  0  0  0  0  0  0  0  0  0  0
    3.0754   -2.8922   -1.8559 C   0  0  1  0  0  0  0  0  0  0  0  0
    1.7159   -3.4237   -2.2705 C   0  0  0  0  0  0  0  0  0  0  0  0
    3.3679   -3.2032   -0.3594 C   0  0  1  0  0  0  0  0  0  0  0  0
    2.6843   -2.2708    0.4482 O   0  0  0  0  0  0  0  0  0  0  0  0
    5.8201   -2.0502    0.1273 C   0  0  0  0  0  0  0  0  0  0  0  0
    5.3683   -0.6368   -0.0967 C   0  0  0  0  0  0  0  0  0  0  0  0
    6.8326   -2.1015    1.2242 C   0  0  0  0  0  0  0  0  0  0  0  0
    4.0942   -6.9220    0.6903 H   0  0  0  0  0  0  0  0  0  0  0  0
    2.9574   -8.2609    1.0752 H   0  0  0  0  0  0  0  0  0  0  0  0
    3.7208   -7.3485    2.3362 H   0  0  0  0  0  0  0  0  0  0  0  0
    3.5372   -5.3616   -0.7031 H   0  0  0  0  0  0  0  0  0  0  0  0
    4.4967   -4.1428    1.9497 H   0  0  0  0  0  0  0  0  0  0  0  0
    5.8149   -5.5861   -0.0966 H   0  0  0  0  0  0  0  0  0  0  0  0
    6.7569   -3.7579   -0.9257 H   0  0  0  0  0  0  0  0  0  0  0  0
    5.5115   -1.7077   -2.6355 H   0  0  0  0  0  0  0  0  0  0  0  0
    6.3008   -3.2157   -3.0978 H   0  0  0  0  0  0  0  0  0  0  0  0
    3.9173   -3.1705   -3.8566 H   0  0  0  0  0  0  0  0  0  0  0  0
    4.2807   -4.4653   -2.7502 H   0  0  0  0  0  0  0  0  0  0  0  0
    3.0472   -1.8014   -1.9788 H   0  0  0  0  0  0  0  0  0  0  0  0
    1.6277   -4.5267   -2.1821 H   0  0  0  0  0  0  0  0  0  0  0  0
    1.4824   -3.1132   -3.3028 H   0  0  0  0  0  0  0  0  0  0  0  0
    0.9229   -3.0539   -1.6309 H   0  0  0  0  0  0  0  0  0  0  0  0
    1.9933   -1.8934   -0.0883 H   0  0  0  0  0  0  0  0  0  0  0  0
    6.2088   -0.0270   -0.3500 H   0  0  0  0  0  0  0  0  0  0  0  0
    4.9362   -0.2502    0.8130 H   0  0  0  0  0  0  0  0  0  0  0  0
    4.6342   -0.5820   -0.8969 H   0  0  0  0  0  0  0  0  0  0  0  0
    7.6984   -1.4843    0.9852 H   0  0  0  0  0  0  0  0  0  0  0  0
    7.1776   -3.1187    1.3751 H   0  0  0  0  0  0  0  0  0  0  0  0
    6.3847   -1.7546    2.1500 H   0  0  0  0  0  0  0  0  0  0  0  0
  1  2  1  0
  1 19  1  0
  1 20  1  0
  1 21  1  0
  2  3  2  0
  2  4  1  0
  4  5  1  0
  5 14  1  0
  5  6  1  0
  5 22  1  6
  6  7  1  0
  6  8  1  0
  6 23  1  1
  7 24  1  0
  8 14  1  0
  8 16  1  1
  8  9  1  0
  9 10  1  0
  9 16  1  0
  9 25  1  6
 10 11  1  0
 10 26  1  0
 10 27  1  0
 11 12  1  0
 11 28  1  0
 11 29  1  0
 12 13  1  0
 12 14  1  0
 12 30  1  1
 13 31  1  0
 13 32  1  0
 13 33  1  0
 14 15  1  1
 15 34  1  0
 16 17  1  0
 16 18  1  0
 17 35  1  0
 17 36  1  0
 17 37  1  0
 18 38  1  0
 18 39  1  0
 18 40  1  0
M  END
>  <i_m_ct_stereo_status>  (1) 
1

>  <s_m_source_file>  (1) 
/var/tmp/pbs.5076255.sched01/tmp14hj8t9c/0766azy0n.sdf

>  <i_m_source_file_index>  (1) 
1

>  <i_lp_mmshare_version>  (1) 
48012

>  <i_f3d_flags>  (1) 
0

>  <s_epik_input>  (1) 
W0NIM11DKD1PKU9bQ0BIXShbQ0BIXTFbT0hdKVtDQF0yKFtPSF0pW0NASF0oW0NIM10pW0NIMl1bQ0gyXVtDQEhdKFtDQF0xMjMpQzMoW0NIM10pW0NIM10=

>  <s_epik_cmdline>  (1) 
J2VwaWtfcHl0aG9uJywgJy1waHQnLCAnMi4wJywgJy1waCcsICc3LjAnLCAnLXRuJywgJzgnLCAnLW1hJywgJzIwMCcsICctaW1hZScsICc8aW5maWxlLm1hZT4nLCAnLW9tYWUnLCAnPG91dGZpbGUubWFlPic=

>  <r_lp_tautomer_probability>  (1) 
1

>  <r_epik_Ionization_Penalty>  (1) 
7.78155e-08

>  <r_epik_Ionization_Penalty_Charging>  (1) 
0

>  <r_epik_Ionization_Penalty_Neutral>  (1) 
7.78155e-08

>  <r_epik_State_Penalty>  (1) 
-0

>  <r_epik_Charging_Adjusted_Penalty>  (1) 
0

>  <i_epik_Tot_Q>  (1) 
0

>  <i_epik_Tot_abs_Q>  (1) 
0

>  <s_epik_Chemistry_Notes>  (1) 
This compound has an ester and may undergo hydrolysis at high or low pH.

>  <s_lp_Force_Field>  (1) 
OPLS3e

>  <r_lp_Energy>  (1) 
20.3194

>  <b_lp_Chiralities_Consistent>  (1) 
1

>  <s_lp_Variant>  (1) 
0:0-1

>  <s_i_glide_gridfile>  (1) 
pfpi4k_grid

>  <i_i_glide_lignum>  (1) 
1

>  <i_i_glide_rotatable_bonds>  (1) 
4

>  <r_i_docking_score>  (1) 
-3.50187

>  <r_i_glide_ligand_efficiency>  (1) 
-0.194548

>  <r_i_glide_ligand_efficiency_sa>  (1) 
-0.50986

>  <r_i_glide_ligand_efficiency_ln>  (1) 
-0.900137

>  <r_i_glide_gscore>  (1) 
-3.50187

>  <r_i_glide_lipo>  (1) 
-0.463224

>  <r_i_glide_hbond>  (1) 
-0.012243

>  <r_i_glide_metal>  (1) 
-0

>  <r_i_glide_rewards>  (1) 
-1.67508

>  <r_i_glide_evdw>  (1) 
-14.9067

>  <r_i_glide_ecoul>  (1) 
-5.6724

>  <r_i_glide_erotb>  (1) 
0.271884

>  <r_i_glide_esite>  (1) 
-0.027012

>  <r_i_glide_emodel>  (1) 
-20.659

>  <r_i_glide_energy>  (1) 
-20.5791

>  <r_i_glide_einternal>  (1) 
6.91095

>  <r_i_glide_intrahb_reward>  (1) 
-0

>  <i_i_glide_confnum>  (1) 
2

>  <i_i_glide_posenum>  (1) 
29

>  <r_i_glide_eff_state_penalty>  (1) 
0

>  <ligand_id>  (1) 
0

>  <original_smiles>  (1) 
CC(=O)OC1C(O)C23C(CCC(C)C12O)C3(C)C

>  <smiles>  (1) 
[H]OC1([H])C([H])(OC(=O)C([H])([H])[H])C2(O[H])C([H])(C([H])([H])[H])C([H])([H])C([H])([H])C3([H])C(C([H])([H])[H])(C([H])([H])[H])C132

$$$$
0:0:1
     RDKit          3D

 40 42  0  0  1  0  0  0  0  0999 V2000
    3.3113   -7.2573    1.3202 C   0  0  0  0  0  0  0  0  0  0  0  0
    2.0888   -6.3049    1.4413 C   0  0  0  0  0  0  0  0  0  0  0  0
    1.0425   -6.6361    1.9527 O   0  0  0  0  0  0  0  0  0  0  0  0
    2.2663   -5.0592    0.9464 O   0  0  0  0  0  0  0  0  0  0  0  0
    3.3664   -4.6708    0.1447 C   0  0  2  0  0  0  0  0  0  0  0  0
    4.6592   -4.3911    0.9233 C   0  0  1  0  0  0  0  0  0  0  0  0
    5.7205   -5.3060    0.7669 O   0  0  0  0  0  0  0  0  0  0  0  0
    4.8416   -3.1621    0.0479 C   0  0  1  0  0  0  0  0  0  0  0  0
    5.9460   -3.0538   -1.0154 C   0  0  1  0  0  0  0  0  0  0  0  0
    5.5246   -2.7719   -2.4512 C   0  0  0  0  0  0  0  0  0  0  0  0
    4.1598   -3.3806   -2.7998 C   0  0  0  0  0  0  0  0  0  0  0  0
    3.0673   -2.8958   -1.8282 C   0  0  1  0  0  0  0  0  0  0  0  0
    1.7086   -3.4505   -2.2451 C   0  0  0  0  0  0  0  0  0  0  0  0
    3.3698   -3.2084   -0.3453 C   0  0  1  0  0  0  0  0  0  0  0  0
    2.6905   -2.2706    0.4959 O   0  0  0  0  0  0  0  0  0  0  0  0
    5.8200   -2.0502    0.1344 C   0  0  0  0  0  0  0  0  0  0  0  0
    5.3672   -0.6613   -0.0772 C   0  0  0  0  0  0  0  0  0  0  0  0
    6.8493   -2.1130    1.2237 C   0  0  0  0  0  0  0  0  0  0  0  0
    4.0933   -6.9317    0.6390 H   0  0  0  0  0  0  0  0  0  0  0  0
    2.9681   -8.2678    1.0872 H   0  0  0  0  0  0  0  0  0  0  0  0
    3.7670   -7.3447    2.2982 H   0  0  0  0  0  0  0  0  0  0  0  0
    3.5468   -5.3581   -0.6890 H   0  0  0  0  0  0  0  0  0  0  0  0
    4.4728   -4.1306    1.9858 H   0  0  0  0  0  0  0  0  0  0  0  0
    5.5499   -6.0371    1.3702 H   0  0  0  0  0  0  0  0  0  0  0  0
    6.7624   -3.7710   -0.9280 H   0  0  0  0  0  0  0  0  0  0  0  0
    5.5027   -1.6989   -2.6179 H   0  0  0  0  0  0  0  0  0  0  0  0
    6.2897   -3.1961   -3.1016 H   0  0  0  0  0  0  0  0  0  0  0  0
    3.9023   -3.1509   -3.8478 H   0  0  0  0  0  0  0  0  0  0  0  0
    4.2813   -4.4608   -2.7492 H   0  0  0  0  0  0  0  0  0  0  0  0
    3.0278   -1.8199   -1.9587 H   0  0  0  0  0  0  0  0  0  0  0  0
    1.6198   -4.5252   -2.1529 H   0  0  0  0  0  0  0  0  0  0  0  0
    1.4763   -3.1426   -3.2773 H   0  0  0  0  0  0  0  0  0  0  0  0
    0.9240   -3.0550   -1.6003 H   0  0  0  0  0  0  0  0  0  0  0  0
    2.0174   -1.8961   -0.0703 H   0  0  0  0  0  0  0  0  0  0  0  0
    6.2039   -0.0096   -0.3439 H   0  0  0  0  0  0  0  0  0  0  0  0
    4.9368   -0.2557    0.8446 H   0  0  0  0  0  0  0  0  0  0  0  0
    4.6234   -0.5873   -0.8763 H   0  0  0  0  0  0  0  0  0  0  0  0
    7.7158   -1.4910    0.9868 H   0  0  0  0  0  0  0  0  0  0  0  0
    7.1966   -3.1357    1.3705 H   0  0  0  0  0  0  0  0  0  0  0  0
    6.4058   -1.7703    2.1575 H   0  0  0  0  0  0  0  0  0  0  0  0
  1  2  1  0
  1 19  1  0
  1 20  1  0
  1 21  1  0
  2  3  2  0
  2  4  1  0
  4  5  1  0
  5 14  1  0
  5  6  1  0
  5 22  1  6
  6  7  1  0
  6  8  1  0
  6 23  1  1
  7 24  1  0
  8 14  1  0
  8 16  1  1
  8  9  1  0
  9 10  1  0
  9 16  1  0
  9 25  1  6
 10 11  1  0
 10 26  1  0
 10 27  1  0
 11 12  1  0
 11 28  1  0
 11 29  1  0
 12 13  1  0
 12 14  1  0
 12 30  1  1
 13 31  1  0
 13 32  1  0
 13 33  1  0
 14 15  1  1
 15 34  1  0
 16 17  1  0
 16 18  1  0
 17 35  1  0
 17 36  1  0
 17 37  1  0
 18 38  1  0
 18 39  1  0
 18 40  1  0
M  END
>  <i_m_ct_stereo_status>  (2) 
1

>  <s_m_source_file>  (2) 
/var/tmp/pbs.5076255.sched01/tmp14hj8t9c/0766azy0n.sdf

>  <i_m_source_file_index>  (2) 
1

>  <i_lp_mmshare_version>  (2) 
48012

>  <i_f3d_flags>  (2) 
0

>  <s_epik_input>  (2) 
W0NIM11DKD1PKU9bQ0BIXShbQ0BIXTFbT0hdKVtDQF0yKFtPSF0pW0NASF0oW0NIM10pW0NIMl1bQ0gyXVtDQEhdKFtDQF0xMjMpQzMoW0NIM10pW0NIM10=

>  <s_epik_cmdline>  (2) 
J2VwaWtfcHl0aG9uJywgJy1waHQnLCAnMi4wJywgJy1waCcsICc3LjAnLCAnLXRuJywgJzgnLCAnLW1hJywgJzIwMCcsICctaW1hZScsICc8aW5maWxlLm1hZT4nLCAnLW9tYWUnLCAnPG91dGZpbGUubWFlPic=

>  <r_lp_tautomer_probability>  (2) 
1

>  <r_epik_Ionization_Penalty>  (2) 
7.78155e-08

>  <r_epik_Ionization_Penalty_Charging>  (2) 
0

>  <r_epik_Ionization_Penalty_Neutral>  (2) 
7.78155e-08

>  <r_epik_State_Penalty>  (2) 
-0

>  <r_epik_Charging_Adjusted_Penalty>  (2) 
0

>  <i_epik_Tot_Q>  (2) 
0

>  <i_epik_Tot_abs_Q>  (2) 
0

>  <s_epik_Chemistry_Notes>  (2) 
This compound has an ester and may undergo hydrolysis at high or low pH.

>  <s_lp_Force_Field>  (2) 
OPLS3e

>  <r_lp_Energy>  (2) 
20.3194

>  <b_lp_Chiralities_Consistent>  (2) 
1

>  <s_lp_Variant>  (2) 
0:0-1

>  <s_i_glide_gridfile>  (2) 
pfpi4k_grid

>  <i_i_glide_lignum>  (2) 
1

>  <i_i_glide_rotatable_bonds>  (2) 
4

>  <r_i_docking_score>  (2) 
-3.45812

>  <r_i_glide_ligand_efficiency>  (2) 
-0.192118

>  <r_i_glide_ligand_efficiency_sa>  (2) 
-0.503491

>  <r_i_glide_ligand_efficiency_ln>  (2) 
-0.888892

>  <r_i_glide_gscore>  (2) 
-3.45812

>  <r_i_glide_lipo>  (2) 
-0.44704

>  <r_i_glide_hbond>  (2) 
-0.01032

>  <r_i_glide_metal>  (2) 
-0

>  <r_i_glide_rewards>  (2) 
-1.67508

>  <r_i_glide_evdw>  (2) 
-15.4992

>  <r_i_glide_ecoul>  (2) 
-5.3104

>  <r_i_glide_erotb>  (2) 
0.271884

>  <r_i_glide_esite>  (2) 
-0.0260499

>  <r_i_glide_emodel>  (2) 
-20.9825

>  <r_i_glide_energy>  (2) 
-20.8096

>  <r_i_glide_einternal>  (2) 
6.85859

>  <r_i_glide_intrahb_reward>  (2) 
-0

>  <i_i_glide_confnum>  (2) 
2

>  <i_i_glide_posenum>  (2) 
30

>  <r_i_glide_eff_state_penalty>  (2) 
0

>  <ligand_id>  (2) 
0

>  <original_smiles>  (2) 
CC(=O)OC1C(O)C23C(CCC(C)C12O)C3(C)C

>  <smiles>  (2) 
[H]OC1([H])C([H])(OC(=O)C([H])([H])[H])C2(O[H])C([H])(C([H])([H])[H])C([H])([H])C([H])([H])C3([H])C(C([H])([H])[H])(C([H])([H])[H])C132

$$$$
0:0:2
     RDKit          3D

 40 42  0  0  1  0  0  0  0  0999 V2000
    6.7125   -5.1355    0.7584 C   0  0  0  0  0  0  0  0  0  0  0  0
    7.4917   -3.8535    0.4374 C   0  0  0  0  0  0  0  0  0  0  0  0
    8.6698   -3.7484    0.7586 O   0  0  0  0  0  0  0  0  0  0  0  0
    6.8053   -2.8695   -0.1991 O   0  0  0  0  0  0  0  0  0  0  0  0
    5.6436   -3.1423   -0.9850 C   0  0  2  0  0  0  0  0  0  0  0  0
    5.7465   -2.7772   -2.4544 C   0  0  1  0  0  0  0  0  0  0  0  0
    5.7644   -3.7972   -3.4219 O   0  0  0  0  0  0  0  0  0  0  0  0
    4.3935   -2.1723   -2.3831 C   0  0  1  0  0  0  0  0  0  0  0  0
    3.2112   -2.8776   -3.0843 C   0  0  1  0  0  0  0  0  0  0  0  0
    2.0520   -3.3023   -2.2203 C   0  0  0  0  0  0  0  0  0  0  0  0
    2.4719   -3.6923   -0.7898 C   0  0  0  0  0  0  0  0  0  0  0  0
    3.2297   -2.5637   -0.0691 C   0  0  1  0  0  0  0  0  0  0  0  0
    3.5328   -2.9612    1.3868 C   0  0  0  0  0  0  0  0  0  0  0  0
    4.4804   -2.1393   -0.8492 C   0  0  1  0  0  0  0  0  0  0  0  0
    4.8297   -0.8221   -0.5009 O   0  0  0  0  0  0  0  0  0  0  0  0
    3.5783   -1.4265   -3.4002 C   0  0  0  0  0  0  0  0  0  0  0  0
    2.8668   -0.2635   -2.9935 C   0  0  0  0  0  0  0  0  0  0  0  0
    4.1808   -1.0996   -4.7385 C   0  0  0  0  0  0  0  0  0  0  0  0
    5.6355   -5.0719    0.6387 H   0  0  0  0  0  0  0  0  0  0  0  0
    6.9024   -5.4300    1.7839 H   0  0  0  0  0  0  0  0  0  0  0  0
    7.0597   -5.9350    0.1084 H   0  0  0  0  0  0  0  0  0  0  0  0
    5.2992   -4.1599   -0.9233 H   0  0  0  0  0  0  0  0  0  0  0  0
    6.5509   -2.0432   -2.5779 H   0  0  0  0  0  0  0  0  0  0  0  0
    5.2660   -4.5240   -3.0584 H   0  0  0  0  0  0  0  0  0  0  0  0
    3.4038   -3.5564   -3.8931 H   0  0  0  0  0  0  0  0  0  0  0  0
    1.3333   -2.5048   -2.2704 H   0  0  0  0  0  0  0  0  0  0  0  0
    1.5519   -4.1484   -2.6923 H   0  0  0  0  0  0  0  0  0  0  0  0
    1.5775   -3.9747   -0.2383 H   0  0  0  0  0  0  0  0  0  0  0  0
    3.0836   -4.5976   -0.8346 H   0  0  0  0  0  0  0  0  0  0  0  0
    2.6026   -1.6816   -0.0132 H   0  0  0  0  0  0  0  0  0  0  0  0
    4.1536   -3.8529    1.4518 H   0  0  0  0  0  0  0  0  0  0  0  0
    2.5981   -3.1780    1.9166 H   0  0  0  0  0  0  0  0  0  0  0  0
    4.0344   -2.1551    1.9167 H   0  0  0  0  0  0  0  0  0  0  0  0
    4.8320   -0.7938    0.4507 H   0  0  0  0  0  0  0  0  0  0  0  0
    2.2240    0.1454   -3.7658 H   0  0  0  0  0  0  0  0  0  0  0  0
    3.5818    0.5133   -2.7744 H   0  0  0  0  0  0  0  0  0  0  0  0
    2.3093   -0.4673   -2.0677 H   0  0  0  0  0  0  0  0  0  0  0  0
    3.3908   -0.7968   -5.4562 H   0  0  0  0  0  0  0  0  0  0  0  0
    4.6057   -2.0075   -5.0719 H   0  0  0  0  0  0  0  0  0  0  0  0
    4.8673   -0.2547   -4.6379 H   0  0  0  0  0  0  0  0  0  0  0  0
  1  2  1  0
  1 19  1  0
  1 20  1  0
  1 21  1  0
  2  3  2  0
  2  4  1  0
  4  5  1  0
  5 14  1  0
  5  6  1  0
  5 22  1  6
  6  7  1  0
  6  8  1  0
  6 23  1  1
  7 24  1  0
  8 14  1  0
  8 16  1  6
  8  9  1  0
  9 10  1  0
  9 16  1  0
  9 25  1  6
 10 11  1  0
 10 26  1  0
 10 27  1  0
 11 12  1  0
 11 28  1  0
 11 29  1  0
 12 13  1  0
 12 14  1  0
 12 30  1  1
 13 31  1  0
 13 32  1  0
 13 33  1  0
 14 15  1  6
 15 34  1  0
 16 17  1  0
 16 18  1  0
 17 35  1  0
 17 36  1  0
 17 37  1  0
 18 38  1  0
 18 39  1  0
 18 40  1  0
M  END
>  <i_m_ct_stereo_status>  (3) 
1

>  <s_m_source_file>  (3) 
/var/tmp/pbs.5076255.sched01/tmp14hj8t9c/0766azy0n.sdf

>  <i_m_source_file_index>  (3) 
1

>  <i_lp_mmshare_version>  (3) 
48012

>  <i_f3d_flags>  (3) 
0

>  <s_epik_input>  (3) 
W0NIM11DKD1PKU9bQ0BIXShbQ0BIXTFbT0hdKVtDQF0yKFtPSF0pW0NASF0oW0NIM10pW0NIMl1bQ0gyXVtDQEhdKFtDQF0xMjMpQzMoW0NIM10pW0NIM10=

>  <s_epik_cmdline>  (3) 
J2VwaWtfcHl0aG9uJywgJy1waHQnLCAnMi4wJywgJy1waCcsICc3LjAnLCAnLXRuJywgJzgnLCAnLW1hJywgJzIwMCcsICctaW1hZScsICc8aW5maWxlLm1hZT4nLCAnLW9tYWUnLCAnPG91dGZpbGUubWFlPic=

>  <r_lp_tautomer_probability>  (3) 
1

>  <r_epik_Ionization_Penalty>  (3) 
7.78155e-08

>  <r_epik_Ionization_Penalty_Charging>  (3) 
0

>  <r_epik_Ionization_Penalty_Neutral>  (3) 
7.78155e-08

>  <r_epik_State_Penalty>  (3) 
-0

>  <r_epik_Charging_Adjusted_Penalty>  (3) 
0

>  <i_epik_Tot_Q>  (3) 
0

>  <i_epik_Tot_abs_Q>  (3) 
0

>  <s_epik_Chemistry_Notes>  (3) 
This compound has an ester and may undergo hydrolysis at high or low pH.

>  <s_lp_Force_Field>  (3) 
OPLS3e

>  <r_lp_Energy>  (3) 
20.3194

>  <b_lp_Chiralities_Consistent>  (3) 
1

>  <s_lp_Variant>  (3) 
0:0-1

>  <s_i_glide_gridfile>  (3) 
pfpi4k_grid

>  <i_i_glide_lignum>  (3) 
1

>  <i_i_glide_rotatable_bonds>  (3) 
4

>  <r_i_docking_score>  (3) 
-2.78194

>  <r_i_glide_ligand_efficiency>  (3) 
-0.154552

>  <r_i_glide_ligand_efficiency_sa>  (3) 
-0.405042

>  <r_i_glide_ligand_efficiency_ln>  (3) 
-0.715084

>  <r_i_glide_gscore>  (3) 
-2.78194

>  <r_i_glide_lipo>  (3) 
-0.712152

>  <r_i_glide_hbond>  (3) 
0

>  <r_i_glide_metal>  (3) 
-0

>  <r_i_glide_rewards>  (3) 
-1.90013

>  <r_i_glide_evdw>  (3) 
-1.39155

>  <r_i_glide_ecoul>  (3) 
-2.47977

>  <r_i_glide_erotb>  (3) 
0.271884

>  <r_i_glide_esite>  (3) 
0

>  <r_i_glide_emodel>  (3) 
-0.537729

>  <r_i_glide_energy>  (3) 
-3.87132

>  <r_i_glide_einternal>  (3) 
7.97696

>  <r_i_glide_intrahb_reward>  (3) 
-0

>  <i_i_glide_confnum>  (3) 
2

>  <i_i_glide_posenum>  (3) 
7

>  <r_i_glide_eff_state_penalty>  (3) 
0

>  <ligand_id>  (3) 
0

>  <original_smiles>  (3) 
CC(=O)OC1C(O)C23C(CCC(C)C12O)C3(C)C

>  <smiles>  (3) 
[H]OC1([H])C([H])(OC(=O)C([H])([H])[H])C2(O[H])C([H])(C([H])([H])[H])C([H])([H])C([H])([H])C3([H])C(C([H])([H])[H])(C([H])([H])[H])C132

$$$$
2:0:0
     RDKit          3D

 57 61  0  0  1  0  0  0  0  0999 V2000
    3.7138    8.1608    8.7097 C   0  0  0  0  0  0  0  0  0  0  0  0
    4.2792    6.8659    8.0883 C   0  0  2  0  0  0  0  0  0  0  0  0
    5.6317    6.7895    8.4913 O   0  0  0  0  0  0  0  0  0  0  0  0
    4.0737    6.6682    6.5762 C   0  0  1  0  0  0  0  0  0  0  0  0
    3.6272    7.8434    5.7005 C   0  0  1  0  0  0  0  0  0  0  0  0
    4.8941    7.6633    4.8590 C   0  0  1  0  0  0  0  0  0  0  0  0
    5.8740    8.6619    5.0730 O   0  0  0  0  0  0  0  0  0  0  0  0
    5.1723    6.3556    5.5723 C   0  0  1  0  0  0  0  0  0  0  0  0
    6.6287    5.9650    5.7552 C   0  0  0  0  0  0  0  0  0  0  0  0
    4.1135    5.3081    5.9574 C   0  0  2  0  0  0  0  0  0  0  0  0
    2.7965    4.9903    5.3036 C   0  0  2  0  0  0  0  0  0  0  0  0
    2.9314    4.3698    3.9312 C   0  0  0  0  0  0  0  0  0  0  0  0
    2.5165    3.2044    3.4173 C   0  0  0  0  0  0  0  0  0  0  0  0
    1.6028    2.2322    4.1452 C   0  0  0  0  0  0  0  0  0  0  0  0
    1.1285    1.1538    3.1474 C   0  0  0  0  0  0  0  0  0  0  0  0
    2.3634    1.5274    5.2811 C   0  0  0  0  0  0  0  0  0  0  0  0
    0.3659    3.0120    4.6944 C   0  0  0  0  0  0  0  0  0  0  0  0
   -0.0529    4.3369    3.9593 C   0  0  0  0  0  0  0  0  0  0  0  0
    0.4204    5.7180    4.5344 C   0  0  1  0  0  0  0  0  0  0  0  0
   -0.1472    5.7263    5.8292 O   0  0  0  0  0  0  0  0  0  0  0  0
    1.9705    6.0735    4.5532 C   0  0  2  0  0  0  0  0  0  0  0  0
    2.7253    5.6660    3.2242 C   0  0  0  0  0  0  0  0  0  0  0  0
    2.2293    7.5878    5.0196 C   0  0  1  0  0  0  0  0  0  0  0  0
    1.1414    8.2494    5.8830 C   0  0  0  0  0  0  0  0  0  0  0  0
    2.2399    8.4074    3.8632 O   0  0  0  0  0  0  0  0  0  0  0  0
    2.6563    8.2881    8.4729 H   0  0  0  0  0  0  0  0  0  0  0  0
    4.2558    9.0507    8.3840 H   0  0  0  0  0  0  0  0  0  0  0  0
    3.7892    8.1171    9.7959 H   0  0  0  0  0  0  0  0  0  0  0  0
    3.7581    6.0315    8.5648 H   0  0  0  0  0  0  0  0  0  0  0  0
    5.9712    5.9606    8.1889 H   0  0  0  0  0  0  0  0  0  0  0  0
    3.6922    8.8216    6.1900 H   0  0  0  0  0  0  0  0  0  0  0  0
    4.7199    7.5993    3.7884 H   0  0  0  0  0  0  0  0  0  0  0  0
    5.5512    9.4192    4.6096 H   0  0  0  0  0  0  0  0  0  0  0  0
    7.0351    5.6598    4.7876 H   0  0  0  0  0  0  0  0  0  0  0  0
    6.6996    5.1007    6.4160 H   0  0  0  0  0  0  0  0  0  0  0  0
    7.2451    6.7704    6.1601 H   0  0  0  0  0  0  0  0  0  0  0  0
    4.4887    4.5011    6.5759 H   0  0  0  0  0  0  0  0  0  0  0  0
    2.1662    4.4573    6.0011 H   0  0  0  0  0  0  0  0  0  0  0  0
    2.4614    3.1278    2.3338 H   0  0  0  0  0  0  0  0  0  0  0  0
    0.4929    0.4143    3.6362 H   0  0  0  0  0  0  0  0  0  0  0  0
    1.9728    0.6113    2.7196 H   0  0  0  0  0  0  0  0  0  0  0  0
    0.5601    1.5783    2.3169 H   0  0  0  0  0  0  0  0  0  0  0  0
    1.7130    0.8259    5.8043 H   0  0  0  0  0  0  0  0  0  0  0  0
    2.7470    2.2323    6.0180 H   0  0  0  0  0  0  0  0  0  0  0  0
    3.2141    0.9667    4.8942 H   0  0  0  0  0  0  0  0  0  0  0  0
   -0.4893    2.3368    4.6519 H   0  0  0  0  0  0  0  0  0  0  0  0
    0.4729    3.1946    5.7625 H   0  0  0  0  0  0  0  0  0  0  0  0
    0.1701    4.2704    2.8946 H   0  0  0  0  0  0  0  0  0  0  0  0
   -1.1453    4.3579    3.9786 H   0  0  0  0  0  0  0  0  0  0  0  0
   -0.0962    6.4845    3.9580 H   0  0  0  0  0  0  0  0  0  0  0  0
    0.3133    5.0832    6.3498 H   0  0  0  0  0  0  0  0  0  0  0  0
    3.6269    6.1984    2.9604 H   0  0  0  0  0  0  0  0  0  0  0  0
    2.0548    5.6752    2.3693 H   0  0  0  0  0  0  0  0  0  0  0  0
    1.0082    7.7656    6.8520 H   0  0  0  0  0  0  0  0  0  0  0  0
    0.1741    8.2911    5.3802 H   0  0  0  0  0  0  0  0  0  0  0  0
    1.4006    9.2871    6.0893 H   0  0  0  0  0  0  0  0  0  0  0  0
    1.3844    8.3694    3.4072 H   0  0  0  0  0  0  0  0  0  0  0  0
  1  2  1  0
  1 26  1  0
  1 27  1  0
  1 28  1  0
  2  3  1  0
  2  4  1  0
  2 29  1  1
  3 30  1  0
  4  8  1  6
  4 10  1  0
  4  5  1  0
  5 23  1  0
  5  6  1  0
  5 31  1  1
  6  7  1  0
  6  8  1  0
  6 32  1  6
  7 33  1  0
  8  9  1  1
  8 10  1  0
  9 34  1  0
  9 35  1  0
  9 36  1  0
 10 11  1  0
 10 37  1  1
 11 21  1  0
 11 12  1  0
 11 38  1  1
 12 22  1  0
 12 13  2  3
 13 14  1  0
 13 39  1  0
 14 15  1  0
 14 16  1  0
 14 17  1  0
 15 40  1  0
 15 41  1  0
 15 42  1  0
 16 43  1  0
 16 44  1  0
 16 45  1  0
 17 18  1  0
 17 46  1  0
 17 47  1  0
 18 19  1  0
 18 48  1  0
 18 49  1  0
 19 20  1  0
 19 21  1  0
 19 50  1  6
 20 51  1  0
 21 22  1  6
 21 23  1  0
 22 52  1  0
 22 53  1  0
 23 24  1  0
 23 25  1  6
 24 54  1  0
 24 55  1  0
 24 56  1  0
 25 57  1  0
M  END
>  <i_m_ct_stereo_status>  (4) 
1

>  <s_m_source_file>  (4) 
/var/tmp/pbs.5076255.sched01/tmp14hj8t9c/0766azy0n.sdf

>  <i_m_source_file_index>  (4) 
3

>  <i_lp_mmshare_version>  (4) 
48012

>  <i_f3d_flags>  (4) 
0

>  <s_epik_input>  (4) 
W0NIM11bQ0BdMTJbQ0BIXShbT0hdKVtDQEBIXShbQ0BAXTMoW0NIM10pW09IXSlbQ0BAXTEoW0NASF0oW0NIM10pW09IXSlbQ0BIXTJbQ0BASF0oW0NAXTM0NSkvQyhbQ0gyXTUpPVtDSF1cQyhbQ0gzXSkoW0NIM10pW0NIMl1bQ0gyXVtDQEhdNFtPSF0=

>  <s_epik_cmdline>  (4) 
J2VwaWtfcHl0aG9uJywgJy1waHQnLCAnMi4wJywgJy1waCcsICc3LjAnLCAnLXRuJywgJzgnLCAnLW1hJywgJzIwMCcsICctaW1hZScsICc8aW5maWxlLm1hZT4nLCAnLW9tYWUnLCAnPG91dGZpbGUubWFlPic=

>  <r_lp_tautomer_probability>  (4) 
1

>  <r_epik_Ionization_Penalty>  (4) 
5.6136e-06

>  <r_epik_Ionization_Penalty_Charging>  (4) 
0

>  <r_epik_Ionization_Penalty_Neutral>  (4) 
5.6136e-06

>  <r_epik_State_Penalty>  (4) 
-0

>  <r_epik_Charging_Adjusted_Penalty>  (4) 
0

>  <i_epik_Tot_Q>  (4) 
0

>  <i_epik_Tot_abs_Q>  (4) 
0

>  <s_lp_Force_Field>  (4) 
OPLS3e

>  <r_lp_Energy>  (4) 
64.0577

>  <b_lp_Chiralities_Consistent>  (4) 
1

>  <s_lp_Variant>  (4) 
2:0-1

>  <s_i_glide_gridfile>  (4) 
pfpi4k_grid

>  <i_i_glide_lignum>  (4) 
3

>  <i_i_glide_rotatable_bonds>  (4) 
5

>  <r_i_docking_score>  (4) 
-2.83912

>  <r_i_glide_ligand_efficiency>  (4) 
-0.113565

>  <r_i_glide_ligand_efficiency_sa>  (4) 
-0.332066

>  <r_i_glide_ligand_efficiency_ln>  (4) 
-0.672957

>  <r_i_glide_gscore>  (4) 
-2.83912

>  <r_i_glide_lipo>  (4) 
-0.0966828

>  <r_i_glide_hbond>  (4) 
-0.16

>  <r_i_glide_metal>  (4) 
-0

>  <r_i_glide_rewards>  (4) 
-1.03312

>  <r_i_glide_evdw>  (4) 
-20.4444

>  <r_i_glide_ecoul>  (4) 
-4.55914

>  <r_i_glide_erotb>  (4) 
0.156766

>  <r_i_glide_esite>  (4) 
0

>  <r_i_glide_emodel>  (4) 
-28.5778

>  <r_i_glide_energy>  (4) 
-25.0035

>  <r_i_glide_einternal>  (4) 
3.54856

>  <r_i_glide_intrahb_reward>  (4) 
-0

>  <i_i_glide_confnum>  (4) 
2

>  <i_i_glide_posenum>  (4) 
9

>  <r_i_glide_eff_state_penalty>  (4) 
0

>  <ligand_id>  (4) 
2

>  <original_smiles>  (4) 
CC(O)C12C3C(O)C1(C)C2C1C2=CC(C)(C)CCC(O)C1(C2)C3(C)O

>  <smiles>  (4) 
[H]OC1([H])C([H])([H])C([H])([H])C(C([H])([H])[H])(C([H])([H])[H])C([H])=C2C([H])([H])C13C2([H])C1([H])C2(C([H])([H])[H])C([H])(O[H])C([H])(C3(O[H])C([H])([H])[H])C12C([H])(O[H])C([H])([H])[H]

$$$$
2:0:1
     RDKit          3D

 57 61  0  0  1  0  0  0  0  0999 V2000
    1.9218   -3.5381    7.0263 C   0  0  0  0  0  0  0  0  0  0  0  0
    3.0632   -2.7695    6.3260 C   0  0  2  0  0  0  0  0  0  0  0  0
    3.4022   -1.7139    7.2092 O   0  0  0  0  0  0  0  0  0  0  0  0
    2.7222   -2.1741    4.9665 C   0  0  1  0  0  0  0  0  0  0  0  0
    3.8814   -1.8701    4.0111 C   0  0  1  0  0  0  0  0  0  0  0  0
    3.2506   -2.7983    2.9749 C   0  0  1  0  0  0  0  0  0  0  0  0
    3.9115   -4.0407    2.7974 O   0  0  0  0  0  0  0  0  0  0  0  0
    2.0063   -2.8767    3.8309 C   0  0  1  0  0  0  0  0  0  0  0  0
    1.2523   -4.1798    3.8070 C   0  0  0  0  0  0  0  0  0  0  0  0
    1.3748   -1.6792    4.5837 C   0  0  2  0  0  0  0  0  0  0  0  0
    1.4140   -0.2154    4.2641 C   0  0  2  0  0  0  0  0  0  0  0  0
    0.6218    0.1503    3.0400 C   0  0  0  0  0  0  0  0  0  0  0  0
   -0.4407    0.9512    2.8424 C   0  0  0  0  0  0  0  0  0  0  0  0
   -0.9814    1.8833    3.9087 C   0  0  0  0  0  0  0  0  0  0  0  0
   -1.9825    2.8560    3.2494 C   0  0  0  0  0  0  0  0  0  0  0  0
   -1.7273    1.0952    4.9954 C   0  0  0  0  0  0  0  0  0  0  0  0
    0.1973    2.7098    4.5224 C   0  0  0  0  0  0  0  0  0  0  0  0
    1.4833    2.9205    3.6394 C   0  0  0  0  0  0  0  0  0  0  0  0
    2.7163    1.9749    3.8633 C   0  0  1  0  0  0  0  0  0  0  0  0
    3.0416    2.1716    5.2288 O   0  0  0  0  0  0  0  0  0  0  0  0
    2.5977    0.4312    3.5049 C   0  0  2  0  0  0  0  0  0  0  0  0
    1.8191    0.1478    2.1531 C   0  0  0  0  0  0  0  0  0  0  0  0
    3.9979   -0.3425    3.6513 C   0  0  1  0  0  0  0  0  0  0  0  0
    5.0659    0.2879    4.5635 C   0  0  0  0  0  0  0  0  0  0  0  0
    4.6423   -0.2576    2.3868 O   0  0  0  0  0  0  0  0  0  0  0  0
    1.6178   -4.4203    6.4644 H   0  0  0  0  0  0  0  0  0  0  0  0
    1.0470   -2.9024    7.1900 H   0  0  0  0  0  0  0  0  0  0  0  0
    2.2286   -3.8989    8.0081 H   0  0  0  0  0  0  0  0  0  0  0  0
    3.9289   -3.4259    6.1877 H   0  0  0  0  0  0  0  0  0  0  0  0
    4.1880   -1.2904    6.9089 H   0  0  0  0  0  0  0  0  0  0  0  0
    4.8347   -2.3196    4.3368 H   0  0  0  0  0  0  0  0  0  0  0  0
    3.1137   -2.3683    1.9845 H   0  0  0  0  0  0  0  0  0  0  0  0
    4.6415   -3.8703    2.2249 H   0  0  0  0  0  0  0  0  0  0  0  0
    0.7575   -4.2592    2.8436 H   0  0  0  0  0  0  0  0  0  0  0  0
    0.4668   -4.1581    4.5540 H   0  0  0  0  0  0  0  0  0  0  0  0
    1.8905   -5.0575    3.9532 H   0  0  0  0  0  0  0  0  0  0  0  0
    0.5203   -1.9438    5.1908 H   0  0  0  0  0  0  0  0  0  0  0  0
    1.1994    0.3490    5.1602 H   0  0  0  0  0  0  0  0  0  0  0  0
   -0.6285    1.2760    1.8232 H   0  0  0  0  0  0  0  0  0  0  0  0
   -2.4331    3.5231    3.9839 H   0  0  0  0  0  0  0  0  0  0  0  0
   -2.7953    2.3120    2.7684 H   0  0  0  0  0  0  0  0  0  0  0  0
   -1.5011    3.4685    2.4827 H   0  0  0  0  0  0  0  0  0  0  0  0
   -2.1400    1.7678    5.7466 H   0  0  0  0  0  0  0  0  0  0  0  0
   -1.0781    0.3825    5.5035 H   0  0  0  0  0  0  0  0  0  0  0  0
   -2.5493    0.5363    4.5525 H   0  0  0  0  0  0  0  0  0  0  0  0
   -0.1853    3.7010    4.7697 H   0  0  0  0  0  0  0  0  0  0  0  0
    0.4794    2.3123    5.4977 H   0  0  0  0  0  0  0  0  0  0  0  0
    1.2211    2.9756    2.5799 H   0  0  0  0  0  0  0  0  0  0  0  0
    1.8301    3.9310    3.8552 H   0  0  0  0  0  0  0  0  0  0  0  0
    3.5248    2.3987    3.2778 H   0  0  0  0  0  0  0  0  0  0  0  0
    3.1852    3.0918    5.3648 H   0  0  0  0  0  0  0  0  0  0  0  0
    2.0059   -0.7794    1.6283 H   0  0  0  0  0  0  0  0  0  0  0  0
    1.9204    0.9707    1.4432 H   0  0  0  0  0  0  0  0  0  0  0  0
    4.7659    0.3143    5.6120 H   0  0  0  0  0  0  0  0  0  0  0  0
    5.3054    1.2979    4.2438 H   0  0  0  0  0  0  0  0  0  0  0  0
    6.0025   -0.2679    4.5052 H   0  0  0  0  0  0  0  0  0  0  0  0
    4.0526   -0.5834    1.7277 H   0  0  0  0  0  0  0  0  0  0  0  0
  1  2  1  0
  1 26  1  0
  1 27  1  0
  1 28  1  0
  2  3  1  0
  2  4  1  0
  2 29  1  6
  3 30  1  0
  4  8  1  6
  4 10  1  0
  4  5  1  0
  5 23  1  0
  5  6  1  0
  5 31  1  1
  6  7  1  0
  6  8  1  0
  6 32  1  6
  7 33  1  0
  8  9  1  1
  8 10  1  0
  9 34  1  0
  9 35  1  0
  9 36  1  0
 10 11  1  0
 10 37  1  1
 11 21  1  0
 11 12  1  0
 11 38  1  1
 12 22  1  0
 12 13  2  3
 13 14  1  0
 13 39  1  0
 14 15  1  0
 14 16  1  0
 14 17  1  0
 15 40  1  0
 15 41  1  0
 15 42  1  0
 16 43  1  0
 16 44  1  0
 16 45  1  0
 17 18  1  0
 17 46  1  0
 17 47  1  0
 18 19  1  0
 18 48  1  0
 18 49  1  0
 19 20  1  0
 19 21  1  0
 19 50  1  6
 20 51  1  0
 21 22  1  6
 21 23  1  0
 22 52  1  0
 22 53  1  0
 23 24  1  0
 23 25  1  6
 24 54  1  0
 24 55  1  0
 24 56  1  0
 25 57  1  0
M  END
>  <i_m_ct_stereo_status>  (5) 
1

>  <s_m_source_file>  (5) 
/var/tmp/pbs.5076255.sched01/tmp14hj8t9c/0766azy0n.sdf

>  <i_m_source_file_index>  (5) 
3

>  <i_lp_mmshare_version>  (5) 
48012

>  <i_f3d_flags>  (5) 
0

>  <s_epik_input>  (5) 
W0NIM11bQ0BdMTJbQ0BIXShbT0hdKVtDQEBIXShbQ0BAXTMoW0NIM10pW09IXSlbQ0BAXTEoW0NASF0oW0NIM10pW09IXSlbQ0BIXTJbQ0BASF0oW0NAXTM0NSkvQyhbQ0gyXTUpPVtDSF1cQyhbQ0gzXSkoW0NIM10pW0NIMl1bQ0gyXVtDQEhdNFtPSF0=

>  <s_epik_cmdline>  (5) 
J2VwaWtfcHl0aG9uJywgJy1waHQnLCAnMi4wJywgJy1waCcsICc3LjAnLCAnLXRuJywgJzgnLCAnLW1hJywgJzIwMCcsICctaW1hZScsICc8aW5maWxlLm1hZT4nLCAnLW9tYWUnLCAnPG91dGZpbGUubWFlPic=

>  <r_lp_tautomer_probability>  (5) 
1

>  <r_epik_Ionization_Penalty>  (5) 
5.6136e-06

>  <r_epik_Ionization_Penalty_Charging>  (5) 
0

>  <r_epik_Ionization_Penalty_Neutral>  (5) 
5.6136e-06

>  <r_epik_State_Penalty>  (5) 
-0

>  <r_epik_Charging_Adjusted_Penalty>  (5) 
0

>  <i_epik_Tot_Q>  (5) 
0

>  <i_epik_Tot_abs_Q>  (5) 
0

>  <s_lp_Force_Field>  (5) 
OPLS3e

>  <r_lp_Energy>  (5) 
64.0577

>  <b_lp_Chiralities_Consistent>  (5) 
1

>  <s_lp_Variant>  (5) 
2:0-1

>  <s_i_glide_gridfile>  (5) 
pfpi4k_grid

>  <i_i_glide_lignum>  (5) 
3

>  <i_i_glide_rotatable_bonds>  (5) 
5

>  <r_i_docking_score>  (5) 
-2.30323

>  <r_i_glide_ligand_efficiency>  (5) 
-0.092129

>  <r_i_glide_ligand_efficiency_sa>  (5) 
-0.269387

>  <r_i_glide_ligand_efficiency_ln>  (5) 
-0.545934

>  <r_i_glide_gscore>  (5) 
-2.30323

>  <r_i_glide_lipo>  (5) 
-0.108955

>  <r_i_glide_hbond>  (5) 
0

>  <r_i_glide_metal>  (5) 
-0

>  <r_i_glide_rewards>  (5) 
-1.03312

>  <r_i_glide_evdw>  (5) 
-21.4173

>  <r_i_glide_ecoul>  (5) 
-1.64704

>  <r_i_glide_erotb>  (5) 
0.156766

>  <r_i_glide_esite>  (5) 
0

>  <r_i_glide_emodel>  (5) 
-26.3922

>  <r_i_glide_energy>  (5) 
-23.0644

>  <r_i_glide_einternal>  (5) 
1.24103

>  <r_i_glide_intrahb_reward>  (5) 
-0

>  <i_i_glide_confnum>  (5) 
5

>  <i_i_glide_posenum>  (5) 
17

>  <r_i_glide_eff_state_penalty>  (5) 
0

>  <ligand_id>  (5) 
2

>  <original_smiles>  (5) 
CC(O)C12C3C(O)C1(C)C2C1C2=CC(C)(C)CCC(O)C1(C2)C3(C)O

>  <smiles>  (5) 
[H]OC1([H])C([H])([H])C([H])([H])C(C([H])([H])[H])(C([H])([H])[H])C([H])=C2C([H])([H])C13C2([H])C1([H])C2(C([H])([H])[H])C([H])(O[H])C([H])(C3(O[H])C([H])([H])[H])C12C([H])(O[H])C([H])([H])[H]

$$$$
2:0:2
     RDKit          3D

 57 61  0  0  1  0  0  0  0  0999 V2000
    5.2891    5.0882    8.9585 C   0  0  0  0  0  0  0  0  0  0  0  0
    4.5215    6.2776    8.3332 C   0  0  2  0  0  0  0  0  0  0  0  0
    3.2483    6.2698    8.9485 O   0  0  0  0  0  0  0  0  0  0  0  0
    4.3197    6.2175    6.8283 C   0  0  1  0  0  0  0  0  0  0  0  0
    4.0722    7.5443    6.1078 C   0  0  1  0  0  0  0  0  0  0  0  0
    5.3127    7.2999    5.2419 C   0  0  1  0  0  0  0  0  0  0  0  0
    6.4293    8.1095    5.5709 O   0  0  0  0  0  0  0  0  0  0  0  0
    5.3853    5.8931    5.7930 C   0  0  1  0  0  0  0  0  0  0  0  0
    6.7675    5.3079    5.9421 C   0  0  0  0  0  0  0  0  0  0  0  0
    4.1636    4.9652    6.0439 C   0  0  2  0  0  0  0  0  0  0  0  0
    2.8250    4.9432    5.3781 C   0  0  2  0  0  0  0  0  0  0  0  0
    2.9032    4.4432    3.9605 C   0  0  0  0  0  0  0  0  0  0  0  0
    2.3394    3.4044    3.3231 C   0  0  0  0  0  0  0  0  0  0  0  0
    1.2834    2.5145    3.9524 C   0  0  0  0  0  0  0  0  0  0  0  0
    0.6742    1.6238    2.8500 C   0  0  0  0  0  0  0  0  0  0  0  0
    1.9086    1.5995    5.0189 C   0  0  0  0  0  0  0  0  0  0  0  0
    0.1633    3.4165    4.5704 C   0  0  0  0  0  0  0  0  0  0  0  0
   -0.0423    4.8545    3.9642 C   0  0  0  0  0  0  0  0  0  0  0  0
    0.6111    6.0920    4.6789 C   0  0  1  0  0  0  0  0  0  0  0  0
    0.0133    6.0469    5.9621 O   0  0  0  0  0  0  0  0  0  0  0  0
    2.1935    6.2074    4.7423 C   0  0  2  0  0  0  0  0  0  0  0  0
    2.9086    5.8193    3.3842 C   0  0  0  0  0  0  0  0  0  0  0  0
    2.6737    7.5940    5.3894 C   0  0  1  0  0  0  0  0  0  0  0  0
    1.6737    8.3268    6.3081 C   0  0  0  0  0  0  0  0  0  0  0  0
    2.7763    8.5208    4.3290 O   0  0  0  0  0  0  0  0  0  0  0  0
    6.3200    5.0301    8.6013 H   0  0  0  0  0  0  0  0  0  0  0  0
    4.7892    4.1343    8.7531 H   0  0  0  0  0  0  0  0  0  0  0  0
    5.3411    5.1825   10.0436 H   0  0  0  0  0  0  0  0  0  0  0  0
    5.0354    7.2187    8.5555 H   0  0  0  0  0  0  0  0  0  0  0  0
    2.7667    7.0387    8.6878 H   0  0  0  0  0  0  0  0  0  0  0  0
    4.2695    8.4303    6.7369 H   0  0  0  0  0  0  0  0  0  0  0  0
    5.1510    7.3792    4.1631 H   0  0  0  0  0  0  0  0  0  0  0  0
    6.2817    8.9335    5.1328 H   0  0  0  0  0  0  0  0  0  0  0  0
    7.1499    5.0969    4.9419 H   0  0  0  0  0  0  0  0  0  0  0  0
    6.6974    4.3645    6.4750 H   0  0  0  0  0  0  0  0  0  0  0  0
    7.4588    5.9789    6.4594 H   0  0  0  0  0  0  0  0  0  0  0  0
    4.4185    4.0209    6.5005 H   0  0  0  0  0  0  0  0  0  0  0  0
    2.1091    4.4482    6.0163 H   0  0  0  0  0  0  0  0  0  0  0  0
    2.2889    3.4486    2.2336 H   0  0  0  0  0  0  0  0  0  0  0  0
   -0.0712    0.9420    3.2599 H   0  0  0  0  0  0  0  0  0  0  0  0
    1.4444    1.0165    2.3770 H   0  0  0  0  0  0  0  0  0  0  0  0
    0.1912    2.2095    2.0655 H   0  0  0  0  0  0  0  0  0  0  0  0
    1.1498    0.9534    5.4604 H   0  0  0  0  0  0  0  0  0  0  0  0
    2.3751    2.1661    5.8241 H   0  0  0  0  0  0  0  0  0  0  0  0
    2.6736    0.9678    4.5730 H   0  0  0  0  0  0  0  0  0  0  0  0
   -0.7818    2.8864    4.4529 H   0  0  0  0  0  0  0  0  0  0  0  0
    0.2637    3.4814    5.6556 H   0  0  0  0  0  0  0  0  0  0  0  0
    0.1925    4.8667    2.8990 H   0  0  0  0  0  0  0  0  0  0  0  0
   -1.1188    5.0253    3.9897 H   0  0  0  0  0  0  0  0  0  0  0  0
    0.2408    6.9837    4.1753 H   0  0  0  0  0  0  0  0  0  0  0  0
    0.4556    6.6750    6.5147 H   0  0  0  0  0  0  0  0  0  0  0  0
    3.8886    6.2318    3.1754 H   0  0  0  0  0  0  0  0  0  0  0  0
    2.2588    5.9988    2.5260 H   0  0  0  0  0  0  0  0  0  0  0  0
    1.4608    7.7867    7.2320 H   0  0  0  0  0  0  0  0  0  0  0  0
    0.7342    8.5506    5.7948 H   0  0  0  0  0  0  0  0  0  0  0  0
    2.0721    9.3035    6.5978 H   0  0  0  0  0  0  0  0  0  0  0  0
    3.2085    8.1089    3.5953 H   0  0  0  0  0  0  0  0  0  0  0  0
  1  2  1  0
  1 26  1  0
  1 27  1  0
  1 28  1  0
  2  3  1  0
  2  4  1  0
  2 29  1  6
  3 30  1  0
  4  8  1  6
  4 10  1  0
  4  5  1  0
  5 23  1  0
  5  6  1  0
  5 31  1  1
  6  7  1  0
  6  8  1  0
  6 32  1  6
  7 33  1  0
  8  9  1  1
  8 10  1  0
  9 34  1  0
  9 35  1  0
  9 36  1  0
 10 11  1  0
 10 37  1  1
 11 21  1  0
 11 12  1  0
 11 38  1  1
 12 22  1  0
 12 13  2  3
 13 14  1  0
 13 39  1  0
 14 15  1  0
 14 16  1  0
 14 17  1  0
 15 40  1  0
 15 41  1  0
 15 42  1  0
 16 43  1  0
 16 44  1  0
 16 45  1  0
 17 18  1  0
 17 46  1  0
 17 47  1  0
 18 19  1  0
 18 48  1  0
 18 49  1  0
 19 20  1  0
 19 21  1  0
 19 50  1  6
 20 51  1  0
 21 22  1  6
 21 23  1  0
 22 52  1  0
 22 53  1  0
 23 24  1  0
 23 25  1  6
 24 54  1  0
 24 55  1  0
 24 56  1  0
 25 57  1  0
M  END
>  <i_m_ct_stereo_status>  (6) 
1

>  <s_m_source_file>  (6) 
/var/tmp/pbs.5076255.sched01/tmp14hj8t9c/0766azy0n.sdf

>  <i_m_source_file_index>  (6) 
3

>  <i_lp_mmshare_version>  (6) 
48012

>  <i_f3d_flags>  (6) 
0

>  <s_epik_input>  (6) 
W0NIM11bQ0BdMTJbQ0BIXShbT0hdKVtDQEBIXShbQ0BAXTMoW0NIM10pW09IXSlbQ0BAXTEoW0NASF0oW0NIM10pW09IXSlbQ0BIXTJbQ0BASF0oW0NAXTM0NSkvQyhbQ0gyXTUpPVtDSF1cQyhbQ0gzXSkoW0NIM10pW0NIMl1bQ0gyXVtDQEhdNFtPSF0=

>  <s_epik_cmdline>  (6) 
J2VwaWtfcHl0aG9uJywgJy1waHQnLCAnMi4wJywgJy1waCcsICc3LjAnLCAnLXRuJywgJzgnLCAnLW1hJywgJzIwMCcsICctaW1hZScsICc8aW5maWxlLm1hZT4nLCAnLW9tYWUnLCAnPG91dGZpbGUubWFlPic=

>  <r_lp_tautomer_probability>  (6) 
1

>  <r_epik_Ionization_Penalty>  (6) 
5.6136e-06

>  <r_epik_Ionization_Penalty_Charging>  (6) 
0

>  <r_epik_Ionization_Penalty_Neutral>  (6) 
5.6136e-06

>  <r_epik_State_Penalty>  (6) 
-0

>  <r_epik_Charging_Adjusted_Penalty>  (6) 
0

>  <i_epik_Tot_Q>  (6) 
0

>  <i_epik_Tot_abs_Q>  (6) 
0

>  <s_lp_Force_Field>  (6) 
OPLS3e

>  <r_lp_Energy>  (6) 
64.0577

>  <b_lp_Chiralities_Consistent>  (6) 
1

>  <s_lp_Variant>  (6) 
2:0-1

>  <s_i_glide_gridfile>  (6) 
pfpi4k_grid

>  <i_i_glide_lignum>  (6) 
3

>  <i_i_glide_rotatable_bonds>  (6) 
5

>  <r_i_docking_score>  (6) 
-2.20794

>  <r_i_glide_ligand_efficiency>  (6) 
-0.0883178

>  <r_i_glide_ligand_efficiency_sa>  (6) 
-0.258243

>  <r_i_glide_ligand_efficiency_ln>  (6) 
-0.523349

>  <r_i_glide_gscore>  (6) 
-2.20794

>  <r_i_glide_lipo>  (6) 
-0.184895

>  <r_i_glide_hbond>  (6) 
0

>  <r_i_glide_metal>  (6) 
-0

>  <r_i_glide_rewards>  (6) 
-1.03312

>  <r_i_glide_evdw>  (6) 
-21.3688

>  <r_i_glide_ecoul>  (6) 
-0.521727

>  <r_i_glide_erotb>  (6) 
0.156766

>  <r_i_glide_esite>  (6) 
0

>  <r_i_glide_emodel>  (6) 
-24.8308

>  <r_i_glide_energy>  (6) 
-21.8906

>  <r_i_glide_einternal>  (6) 
1.48958

>  <r_i_glide_intrahb_reward>  (6) 
-0

>  <i_i_glide_confnum>  (6) 
2

>  <i_i_glide_posenum>  (6) 
1

>  <r_i_glide_eff_state_penalty>  (6) 
0

>  <ligand_id>  (6) 
2

>  <original_smiles>  (6) 
CC(O)C12C3C(O)C1(C)C2C1C2=CC(C)(C)CCC(O)C1(C2)C3(C)O

>  <smiles>  (6) 
[H]OC1([H])C([H])([H])C([H])([H])C(C([H])([H])[H])(C([H])([H])[H])C([H])=C2C([H])([H])C13C2([H])C1([H])C2(C([H])([H])[H])C([H])(O[H])C([H])(C3(O[H])C([H])([H])[H])C12C([H])(O[H])C([H])([H])[H]

$$$$
2:1:0
     RDKit          3D

 57 61  0  0  1  0  0  0  0  0999 V2000
    6.1093   -3.4668   -0.4695 C   0  0  0  0  0  0  0  0  0  0  0  0
    4.9150   -4.4374   -0.5264 C   0  0  2  0  0  0  0  0  0  0  0  0
    4.0282   -3.8524   -1.4589 O   0  0  0  0  0  0  0  0  0  0  0  0
    4.2158   -4.8281    0.7950 C   0  0  1  0  0  0  0  0  0  0  0  0
    5.1113   -5.2265    1.9838 C   0  0  1  0  0  0  0  0  0  0  0  0
    4.4810   -4.0616    2.7827 C   0  0  1  0  0  0  0  0  0  0  0  0
    5.3037   -2.9236    2.9624 O   0  0  0  0  0  0  0  0  0  0  0  0
    3.4501   -3.9008    1.6866 C   0  0  1  0  0  0  0  0  0  0  0  0
    2.9085   -2.5006    1.4631 C   0  0  0  0  0  0  0  0  0  0  0  0
    2.7504   -5.0517    0.9227 C   0  0  2  0  0  0  0  0  0  0  0  0
    2.4689   -6.4532    1.3447 C   0  0  2  0  0  0  0  0  0  0  0  0
    1.3465   -6.5829    2.3200 C   0  0  0  0  0  0  0  0  0  0  0  0
    0.2271   -7.2981    2.1216 C   0  0  0  0  0  0  0  0  0  0  0  0
   -0.3935   -8.2902    3.0804 C   0  0  0  0  0  0  0  0  0  0  0  0
   -0.6474   -7.7331    4.4898 C   0  0  0  0  0  0  0  0  0  0  0  0
   -1.7583   -8.7113    2.5150 C   0  0  0  0  0  0  0  0  0  0  0  0
    0.5473   -9.5278    3.0696 C   0  0  0  0  0  0  0  0  0  0  0  0
    2.0316   -9.3838    3.5587 C   0  0  0  0  0  0  0  0  0  0  0  0
    3.1567   -8.7324    2.6640 C   0  0  1  0  0  0  0  0  0  0  0  0
    3.1799   -9.3729    1.3950 O   0  0  0  0  0  0  0  0  0  0  0  0
    3.2670   -7.1440    2.5153 C   0  0  2  0  0  0  0  0  0  0  0  0
    2.2701   -6.4240    3.5004 C   0  0  0  0  0  0  0  0  0  0  0  0
    4.8134   -6.6983    2.4801 C   0  0  1  0  0  0  0  0  0  0  0  0
    5.7252   -7.6525    1.6775 C   0  0  0  0  0  0  0  0  0  0  0  0
    5.2994   -6.7963    3.8077 O   0  0  0  0  0  0  0  0  0  0  0  0
    6.9379   -3.8557    0.1212 H   0  0  0  0  0  0  0  0  0  0  0  0
    5.8160   -2.4870   -0.0893 H   0  0  0  0  0  0  0  0  0  0  0  0
    6.4969   -3.3168   -1.4766 H   0  0  0  0  0  0  0  0  0  0  0  0
    5.2457   -5.3731   -0.9902 H   0  0  0  0  0  0  0  0  0  0  0  0
    3.4451   -4.5235   -1.8085 H   0  0  0  0  0  0  0  0  0  0  0  0
    6.1704   -5.0190    1.8422 H   0  0  0  0  0  0  0  0  0  0  0  0
    4.1496   -4.3869    3.7698 H   0  0  0  0  0  0  0  0  0  0  0  0
    5.5485   -2.6184    2.1126 H   0  0  0  0  0  0  0  0  0  0  0  0
    2.2482   -2.2540    2.2975 H   0  0  0  0  0  0  0  0  0  0  0  0
    2.3038   -2.4892    0.5592 H   0  0  0  0  0  0  0  0  0  0  0  0
    3.6825   -1.7375    1.3786 H   0  0  0  0  0  0  0  0  0  0  0  0
    2.1248   -4.7343    0.1011 H   0  0  0  0  0  0  0  0  0  0  0  0
    2.4086   -7.1055    0.5017 H   0  0  0  0  0  0  0  0  0  0  0  0
   -0.0630   -7.4467    1.0864 H   0  0  0  0  0  0  0  0  0  0  0  0
   -1.2181   -8.4618    5.0706 H   0  0  0  0  0  0  0  0  0  0  0  0
   -1.2323   -6.8186    4.4612 H   0  0  0  0  0  0  0  0  0  0  0  0
    0.2532   -7.5435    5.0620 H   0  0  0  0  0  0  0  0  0  0  0  0
   -2.2183   -9.4751    3.1483 H   0  0  0  0  0  0  0  0  0  0  0  0
   -1.6863   -9.1337    1.5120 H   0  0  0  0  0  0  0  0  0  0  0  0
   -2.4582   -7.8742    2.4761 H   0  0  0  0  0  0  0  0  0  0  0  0
    0.0744  -10.2900    3.7003 H   0  0  0  0  0  0  0  0  0  0  0  0
    0.5601   -9.9702    2.0775 H   0  0  0  0  0  0  0  0  0  0  0  0
    2.0430   -9.0051    4.5772 H   0  0  0  0  0  0  0  0  0  0  0  0
    2.3491  -10.4175    3.7034 H   0  0  0  0  0  0  0  0  0  0  0  0
    4.0501   -9.0782    3.1753 H   0  0  0  0  0  0  0  0  0  0  0  0
    3.3501  -10.3010    1.4971 H   0  0  0  0  0  0  0  0  0  0  0  0
    2.4484   -5.3923    3.7369 H   0  0  0  0  0  0  0  0  0  0  0  0
    2.1347   -6.9425    4.4407 H   0  0  0  0  0  0  0  0  0  0  0  0
    5.3749   -7.7858    0.6576 H   0  0  0  0  0  0  0  0  0  0  0  0
    5.8217   -8.6469    2.1292 H   0  0  0  0  0  0  0  0  0  0  0  0
    6.7491   -7.2760    1.6329 H   0  0  0  0  0  0  0  0  0  0  0  0
    6.2136   -6.5801    3.8146 H   0  0  0  0  0  0  0  0  0  0  0  0
  1  2  1  0
  1 26  1  0
  1 27  1  0
  1 28  1  0
  2  3  1  0
  2  4  1  0
  2 29  1  6
  3 30  1  0
  4  8  1  1
  4 10  1  0
  4  5  1  0
  5 23  1  0
  5  6  1  0
  5 31  1  6
  6  7  1  0
  6  8  1  0
  6 32  1  1
  7 33  1  0
  8  9  1  6
  8 10  1  0
  9 34  1  0
  9 35  1  0
  9 36  1  0
 10 11  1  0
 10 37  1  6
 11 21  1  0
 11 12  1  0
 11 38  1  6
 12 22  1  0
 12 13  2  3
 13 14  1  0
 13 39  1  0
 14 15  1  0
 14 16  1  0
 14 17  1  0
 15 40  1  0
 15 41  1  0
 15 42  1  0
 16 43  1  0
 16 44  1  0
 16 45  1  0
 17 18  1  0
 17 46  1  0
 17 47  1  0
 18 19  1  0
 18 48  1  0
 18 49  1  0
 19 20  1  0
 19 21  1  0
 19 50  1  1
 20 51  1  0
 21 22  1  1
 21 23  1  0
 22 52  1  0
 22 53  1  0
 23 24  1  0
 23 25  1  1
 24 54  1  0
 24 55  1  0
 24 56  1  0
 25 57  1  0
M  END
>  <i_m_ct_stereo_status>  (7) 
1

>  <s_m_source_file>  (7) 
/var/tmp/pbs.5076255.sched01/tmp14hj8t9c/0766azy0n.sdf

>  <i_m_source_file_index>  (7) 
4

>  <i_lp_mmshare_version>  (7) 
48012

>  <i_f3d_flags>  (7) 
0

>  <s_epik_input>  (7) 
W0NIM11bQ0BdMTJbQ0BIXShbT0hdKVtDQEBIXShbQ0BAXTMoW0NIM10pW09IXSlbQ0BAXTEoW0NASF0oW0NIM10pW09IXSlbQ0BIXTJbQ0BASF0oW0NAXTM0NSkvQyhbQ0gyXTUpPVtDSF1cQyhbQ0gzXSkoW0NIM10pW0NIMl1bQ0gyXVtDQEhdNFtPSF0=

>  <s_epik_cmdline>  (7) 
J2VwaWtfcHl0aG9uJywgJy1waHQnLCAnMi4wJywgJy1waCcsICc3LjAnLCAnLXRuJywgJzgnLCAnLW1hJywgJzIwMCcsICctaW1hZScsICc8aW5maWxlLm1hZT4nLCAnLW9tYWUnLCAnPG91dGZpbGUubWFlPic=

>  <r_lp_tautomer_probability>  (7) 
1

>  <r_epik_Ionization_Penalty>  (7) 
5.6136e-06

>  <r_epik_Ionization_Penalty_Charging>  (7) 
0

>  <r_epik_Ionization_Penalty_Neutral>  (7) 
5.6136e-06

>  <r_epik_State_Penalty>  (7) 
-0

>  <r_epik_Charging_Adjusted_Penalty>  (7) 
0

>  <i_epik_Tot_Q>  (7) 
0

>  <i_epik_Tot_abs_Q>  (7) 
0

>  <s_lp_Force_Field>  (7) 
OPLS3e

>  <r_lp_Energy>  (7) 
63.6167

>  <b_lp_Chiralities_Consistent>  (7) 
1

>  <s_lp_Variant>  (7) 
2:0-2

>  <s_i_glide_gridfile>  (7) 
pfpi4k_grid

>  <i_i_glide_lignum>  (7) 
4

>  <i_i_glide_rotatable_bonds>  (7) 
5

>  <r_i_docking_score>  (7) 
-3.87404

>  <r_i_glide_ligand_efficiency>  (7) 
-0.154961

>  <r_i_glide_ligand_efficiency_sa>  (7) 
-0.45311

>  <r_i_glide_ligand_efficiency_ln>  (7) 
-0.918263

>  <r_i_glide_gscore>  (7) 
-3.87404

>  <r_i_glide_lipo>  (7) 
-0.420482

>  <r_i_glide_hbond>  (7) 
-0.369027

>  <r_i_glide_metal>  (7) 
-0

>  <r_i_glide_rewards>  (7) 
-1.03312

>  <r_i_glide_evdw>  (7) 
-28.1272

>  <r_i_glide_ecoul>  (7) 
-5.34546

>  <r_i_glide_erotb>  (7) 
0.156766

>  <r_i_glide_esite>  (7) 
0

>  <r_i_glide_emodel>  (7) 
-39.5151

>  <r_i_glide_energy>  (7) 
-33.4726

>  <r_i_glide_einternal>  (7) 
3.33232

>  <r_i_glide_intrahb_reward>  (7) 
-0

>  <i_i_glide_confnum>  (7) 
6

>  <i_i_glide_posenum>  (7) 
4

>  <r_i_glide_eff_state_penalty>  (7) 
0

>  <ligand_id>  (7) 
2

>  <original_smiles>  (7) 
CC(O)C12C3C(O)C1(C)C2C1C2=CC(C)(C)CCC(O)C1(C2)C3(C)O

>  <smiles>  (7) 
[H]OC1([H])C([H])([H])C([H])([H])C(C([H])([H])[H])(C([H])([H])[H])C([H])=C2C([H])([H])C13C2([H])C1([H])C2(C([H])([H])[H])C([H])(O[H])C([H])(C3(O[H])C([H])([H])[H])C12C([H])(O[H])C([H])([H])[H]

$$$$
2:1:1
     RDKit          3D

 57 61  0  0  1  0  0  0  0  0999 V2000
    5.0551   -3.0596   -2.6860 C   0  0  0  0  0  0  0  0  0  0  0  0
    3.9004   -2.8075   -1.7021 C   0  0  2  0  0  0  0  0  0  0  0  0
    3.3987   -1.5116   -1.9999 O   0  0  0  0  0  0  0  0  0  0  0  0
    4.2021   -2.9418   -0.1874 C   0  0  1  0  0  0  0  0  0  0  0  0
    5.1825   -4.0418    0.2667 C   0  0  1  0  0  0  0  0  0  0  0  0
    6.0441   -2.9384    0.9170 C   0  0  1  0  0  0  0  0  0  0  0  0
    7.2217   -2.6280    0.2005 O   0  0  0  0  0  0  0  0  0  0  0  0
    4.9091   -1.9599    0.6838 C   0  0  1  0  0  0  0  0  0  0  0  0
    5.2877   -0.5099    0.4712 C   0  0  0  0  0  0  0  0  0  0  0  0
    3.4036   -2.2666    0.8626 C   0  0  2  0  0  0  0  0  0  0  0  0
    2.7335   -3.2675    1.7579 C   0  0  2  0  0  0  0  0  0  0  0  0
    2.7020   -2.8897    3.2027 C   0  0  0  0  0  0  0  0  0  0  0  0
    1.5860   -2.7072    3.9389 C   0  0  0  0  0  0  0  0  0  0  0  0
    1.3133   -3.3026    5.2999 C   0  0  0  0  0  0  0  0  0  0  0  0
    2.4109   -3.0103    6.3436 C   0  0  0  0  0  0  0  0  0  0  0  0
    0.0064   -2.6884    5.8393 C   0  0  0  0  0  0  0  0  0  0  0  0
    1.0859   -4.8222    5.0626 C   0  0  0  0  0  0  0  0  0  0  0  0
    2.2409   -5.6993    4.4806 C   0  0  0  0  0  0  0  0  0  0  0  0
    2.6222   -5.6837    2.9445 C   0  0  1  0  0  0  0  0  0  0  0  0
    1.4481   -5.9469    2.1825 O   0  0  0  0  0  0  0  0  0  0  0  0
    3.5019   -4.5149    2.3276 C   0  0  2  0  0  0  0  0  0  0  0  0
    4.0277   -3.5573    3.4646 C   0  0  0  0  0  0  0  0  0  0  0  0
    4.5244   -5.0926    1.2413 C   0  0  1  0  0  0  0  0  0  0  0  0
    3.9334   -6.2159    0.3638 C   0  0  0  0  0  0  0  0  0  0  0  0
    5.5900   -5.7160    1.9377 O   0  0  0  0  0  0  0  0  0  0  0  0
    5.4501   -4.0757   -2.6332 H   0  0  0  0  0  0  0  0  0  0  0  0
    5.8761   -2.3510   -2.5589 H   0  0  0  0  0  0  0  0  0  0  0  0
    4.6891   -2.9446   -3.7042 H   0  0  0  0  0  0  0  0  0  0  0  0
    3.1014   -3.5175   -1.9235 H   0  0  0  0  0  0  0  0  0  0  0  0
    2.5636   -1.3828   -1.5668 H   0  0  0  0  0  0  0  0  0  0  0  0
    5.7610   -4.4914   -0.5211 H   0  0  0  0  0  0  0  0  0  0  0  0
    6.3277   -3.1594    1.9366 H   0  0  0  0  0  0  0  0  0  0  0  0
    7.8307   -3.3113    0.4100 H   0  0  0  0  0  0  0  0  0  0  0  0
    5.6248   -0.0956    1.4202 H   0  0  0  0  0  0  0  0  0  0  0  0
    4.3977    0.0446    0.1655 H   0  0  0  0  0  0  0  0  0  0  0  0
    6.0538   -0.3765   -0.2885 H   0  0  0  0  0  0  0  0  0  0  0  0
    2.7327   -1.4750    0.5485 H   0  0  0  0  0  0  0  0  0  0  0  0
    1.8128   -3.5998    1.3315 H   0  0  0  0  0  0  0  0  0  0  0  0
    0.7059   -2.4236    3.3791 H   0  0  0  0  0  0  0  0  0  0  0  0
    2.0887   -3.3359    7.3314 H   0  0  0  0  0  0  0  0  0  0  0  0
    2.6147   -1.9431    6.4069 H   0  0  0  0  0  0  0  0  0  0  0  0
    3.3512   -3.5151    6.1577 H   0  0  0  0  0  0  0  0  0  0  0  0
   -0.2605   -3.1260    6.8003 H   0  0  0  0  0  0  0  0  0  0  0  0
   -0.8334   -2.8491    5.1633 H   0  0  0  0  0  0  0  0  0  0  0  0
    0.1093   -1.6137    5.9866 H   0  0  0  0  0  0  0  0  0  0  0  0
    0.8138   -5.2550    6.0275 H   0  0  0  0  0  0  0  0  0  0  0  0
    0.2047   -4.9596    4.4347 H   0  0  0  0  0  0  0  0  0  0  0  0
    3.1214   -5.6199    5.1140 H   0  0  0  0  0  0  0  0  0  0  0  0
    1.9172   -6.7226    4.6787 H   0  0  0  0  0  0  0  0  0  0  0  0
    3.1996   -6.5992    2.8725 H   0  0  0  0  0  0  0  0  0  0  0  0
    1.1461   -6.8014    2.4141 H   0  0  0  0  0  0  0  0  0  0  0  0
    4.8602   -2.9075    3.2326 H   0  0  0  0  0  0  0  0  0  0  0  0
    4.2639   -4.0633    4.3843 H   0  0  0  0  0  0  0  0  0  0  0  0
    3.0316   -5.8918   -0.1544 H   0  0  0  0  0  0  0  0  0  0  0  0
    3.7020   -7.1344    0.9057 H   0  0  0  0  0  0  0  0  0  0  0  0
    4.6477   -6.5237   -0.4046 H   0  0  0  0  0  0  0  0  0  0  0  0
    5.2559   -6.4268    2.4427 H   0  0  0  0  0  0  0  0  0  0  0  0
  1  2  1  0
  1 26  1  0
  1 27  1  0
  1 28  1  0
  2  3  1  0
  2  4  1  0
  2 29  1  6
  3 30  1  0
  4  8  1  6
  4 10  1  0
  4  5  1  0
  5 23  1  0
  5  6  1  0
  5 31  1  6
  6  7  1  0
  6  8  1  0
  6 32  1  1
  7 33  1  0
  8  9  1  6
  8 10  1  0
  9 34  1  0
  9 35  1  0
  9 36  1  0
 10 11  1  0
 10 37  1  6
 11 21  1  0
 11 12  1  0
 11 38  1  6
 12 22  1  0
 12 13  2  3
 13 14  1  0
 13 39  1  0
 14 15  1  0
 14 16  1  0
 14 17  1  0
 15 40  1  0
 15 41  1  0
 15 42  1  0
 16 43  1  0
 16 44  1  0
 16 45  1  0
 17 18  1  0
 17 46  1  0
 17 47  1  0
 18 19  1  0
 18 48  1  0
 18 49  1  0
 19 20  1  0
 19 21  1  0
 19 50  1  1
 20 51  1  0
 21 22  1  1
 21 23  1  0
 22 52  1  0
 22 53  1  0
 23 24  1  0
 23 25  1  1
 24 54  1  0
 24 55  1  0
 24 56  1  0
 25 57  1  0
M  END
>  <i_m_ct_stereo_status>  (8) 
1

>  <s_m_source_file>  (8) 
/var/tmp/pbs.5076255.sched01/tmp14hj8t9c/0766azy0n.sdf

>  <i_m_source_file_index>  (8) 
4

>  <i_lp_mmshare_version>  (8) 
48012

>  <i_f3d_flags>  (8) 
0

>  <s_epik_input>  (8) 
W0NIM11bQ0BdMTJbQ0BIXShbT0hdKVtDQEBIXShbQ0BAXTMoW0NIM10pW09IXSlbQ0BAXTEoW0NASF0oW0NIM10pW09IXSlbQ0BIXTJbQ0BASF0oW0NAXTM0NSkvQyhbQ0gyXTUpPVtDSF1cQyhbQ0gzXSkoW0NIM10pW0NIMl1bQ0gyXVtDQEhdNFtPSF0=

>  <s_epik_cmdline>  (8) 
J2VwaWtfcHl0aG9uJywgJy1waHQnLCAnMi4wJywgJy1waCcsICc3LjAnLCAnLXRuJywgJzgnLCAnLW1hJywgJzIwMCcsICctaW1hZScsICc8aW5maWxlLm1hZT4nLCAnLW9tYWUnLCAnPG91dGZpbGUubWFlPic=

>  <r_lp_tautomer_probability>  (8) 
1

>  <r_epik_Ionization_Penalty>  (8) 
5.6136e-06

>  <r_epik_Ionization_Penalty_Charging>  (8) 
0

>  <r_epik_Ionization_Penalty_Neutral>  (8) 
5.6136e-06

>  <r_epik_State_Penalty>  (8) 
-0

>  <r_epik_Charging_Adjusted_Penalty>  (8) 
0

>  <i_epik_Tot_Q>  (8) 
0

>  <i_epik_Tot_abs_Q>  (8) 
0

>  <s_lp_Force_Field>  (8) 
OPLS3e

>  <r_lp_Energy>  (8) 
63.6167

>  <b_lp_Chiralities_Consistent>  (8) 
1

>  <s_lp_Variant>  (8) 
2:0-2

>  <s_i_glide_gridfile>  (8) 
pfpi4k_grid

>  <i_i_glide_lignum>  (8) 
4

>  <i_i_glide_rotatable_bonds>  (8) 
5

>  <r_i_docking_score>  (8) 
-3.64044

>  <r_i_glide_ligand_efficiency>  (8) 
-0.145617

>  <r_i_glide_ligand_efficiency_sa>  (8) 
-0.425788

>  <r_i_glide_ligand_efficiency_ln>  (8) 
-0.862893

>  <r_i_glide_gscore>  (8) 
-3.64044

>  <r_i_glide_lipo>  (8) 
-0.661785

>  <r_i_glide_hbond>  (8) 
-0.16

>  <r_i_glide_metal>  (8) 
-0

>  <r_i_glide_rewards>  (8) 
-1.03312

>  <r_i_glide_evdw>  (8) 
-25.6331

>  <r_i_glide_ecoul>  (8) 
-4.40431

>  <r_i_glide_erotb>  (8) 
0.156766

>  <r_i_glide_esite>  (8) 
0

>  <r_i_glide_emodel>  (8) 
-35.8418

>  <r_i_glide_energy>  (8) 
-30.0374

>  <r_i_glide_einternal>  (8) 
2.91757

>  <r_i_glide_intrahb_reward>  (8) 
-0

>  <i_i_glide_confnum>  (8) 
3

>  <i_i_glide_posenum>  (8) 
3

>  <r_i_glide_eff_state_penalty>  (8) 
0

>  <ligand_id>  (8) 
2

>  <original_smiles>  (8) 
CC(O)C12C3C(O)C1(C)C2C1C2=CC(C)(C)CCC(O)C1(C2)C3(C)O

>  <smiles>  (8) 
[H]OC1([H])C([H])([H])C([H])([H])C(C([H])([H])[H])(C([H])([H])[H])C([H])=C2C([H])([H])C13C2([H])C1([H])C2(C([H])([H])[H])C([H])(O[H])C([H])(C3(O[H])C([H])([H])[H])C12C([H])(O[H])C([H])([H])[H]

$$$$
2:1:2
     RDKit          3D

 57 61  0  0  1  0  0  0  0  0999 V2000
    6.1948   -3.4617   -0.4170 C   0  0  0  0  0  0  0  0  0  0  0  0
    4.9096   -4.3099   -0.4946 C   0  0  2  0  0  0  0  0  0  0  0  0
    4.0535   -3.5921   -1.3712 O   0  0  0  0  0  0  0  0  0  0  0  0
    4.2025   -4.7143    0.8161 C   0  0  1  0  0  0  0  0  0  0  0  0
    5.0852   -5.1188    2.0118 C   0  0  1  0  0  0  0  0  0  0  0  0
    4.4471   -3.9738    2.8222 C   0  0  1  0  0  0  0  0  0  0  0  0
    5.2872   -2.8479    2.9988 O   0  0  0  0  0  0  0  0  0  0  0  0
    3.4256   -3.8047    1.7151 C   0  0  1  0  0  0  0  0  0  0  0  0
    2.8767   -2.4042    1.5012 C   0  0  0  0  0  0  0  0  0  0  0  0
    2.7425   -4.9564    0.9272 C   0  0  2  0  0  0  0  0  0  0  0  0
    2.4678   -6.3659    1.3426 C   0  0  2  0  0  0  0  0  0  0  0  0
    1.3404   -6.5032    2.3119 C   0  0  0  0  0  0  0  0  0  0  0  0
    0.2265   -7.2279    2.1061 C   0  0  0  0  0  0  0  0  0  0  0  0
   -0.3914   -8.2321    3.0575 C   0  0  0  0  0  0  0  0  0  0  0  0
   -0.6558   -7.6864    4.4684 C   0  0  0  0  0  0  0  0  0  0  0  0
   -1.7497   -8.6656    2.4832 C   0  0  0  0  0  0  0  0  0  0  0  0
    0.5647   -9.4577    3.0436 C   0  0  0  0  0  0  0  0  0  0  0  0
    2.0467   -9.3035    3.5406 C   0  0  0  0  0  0  0  0  0  0  0  0
    3.1682   -8.6351    2.6607 C   0  0  1  0  0  0  0  0  0  0  0  0
    3.2077   -9.2576    1.3848 O   0  0  0  0  0  0  0  0  0  0  0  0
    3.2632   -7.0466    2.5199 C   0  0  2  0  0  0  0  0  0  0  0  0
    2.2516   -6.3409    3.5007 C   0  0  0  0  0  0  0  0  0  0  0  0
    4.8040   -6.5907    2.4977 C   0  0  1  0  0  0  0  0  0  0  0  0
    5.7327   -7.5263    1.6942 C   0  0  0  0  0  0  0  0  0  0  0  0
    5.2843   -6.6755    3.8287 O   0  0  0  0  0  0  0  0  0  0  0  0
    6.9984   -3.9645    0.1226 H   0  0  0  0  0  0  0  0  0  0  0  0
    6.0085   -2.4862    0.0351 H   0  0  0  0  0  0  0  0  0  0  0  0
    6.5700   -3.2929   -1.4247 H   0  0  0  0  0  0  0  0  0  0  0  0
    5.1434   -5.2501   -1.0113 H   0  0  0  0  0  0  0  0  0  0  0  0
    3.3930   -4.1796   -1.6944 H   0  0  0  0  0  0  0  0  0  0  0  0
    6.1454   -4.8986    1.8912 H   0  0  0  0  0  0  0  0  0  0  0  0
    4.0997   -4.2900    3.8071 H   0  0  0  0  0  0  0  0  0  0  0  0
    5.8557   -3.0718    3.7103 H   0  0  0  0  0  0  0  0  0  0  0  0
    2.2069   -2.1645    2.3327 H   0  0  0  0  0  0  0  0  0  0  0  0
    2.2823   -2.3853    0.5886 H   0  0  0  0  0  0  0  0  0  0  0  0
    3.6535   -1.6386    1.4320 H   0  0  0  0  0  0  0  0  0  0  0  0
    2.1281   -4.6332    0.1007 H   0  0  0  0  0  0  0  0  0  0  0  0
    2.4203   -7.0305    0.5043 H   0  0  0  0  0  0  0  0  0  0  0  0
   -0.0541   -7.3758    1.0672 H   0  0  0  0  0  0  0  0  0  0  0  0
   -1.2232   -8.4238    5.0411 H   0  0  0  0  0  0  0  0  0  0  0  0
   -1.2487   -6.7758    4.4417 H   0  0  0  0  0  0  0  0  0  0  0  0
    0.2400   -7.4907    5.0478 H   0  0  0  0  0  0  0  0  0  0  0  0
   -2.2013   -9.4446    3.1037 H   0  0  0  0  0  0  0  0  0  0  0  0
   -1.6641   -9.0744    1.4725 H   0  0  0  0  0  0  0  0  0  0  0  0
   -2.4571   -7.8360    2.4465 H   0  0  0  0  0  0  0  0  0  0  0  0
    0.0970  -10.2319    3.6669 H   0  0  0  0  0  0  0  0  0  0  0  0
    0.5905   -9.8959    2.0498 H   0  0  0  0  0  0  0  0  0  0  0  0
    2.0480   -8.9321    4.5635 H   0  0  0  0  0  0  0  0  0  0  0  0
    2.3735  -10.3353    3.6792 H   0  0  0  0  0  0  0  0  0  0  0  0
    4.0643   -8.9738    3.1728 H   0  0  0  0  0  0  0  0  0  0  0  0
    3.3695  -10.1836    1.4843 H   0  0  0  0  0  0  0  0  0  0  0  0
    2.4194   -5.3115    3.7445 H   0  0  0  0  0  0  0  0  0  0  0  0
    2.1180   -6.8681    4.4370 H   0  0  0  0  0  0  0  0  0  0  0  0
    5.3877   -7.6537    0.6713 H   0  0  0  0  0  0  0  0  0  0  0  0
    5.8357   -8.5212    2.1380 H   0  0  0  0  0  0  0  0  0  0  0  0
    6.7509   -7.1371    1.6557 H   0  0  0  0  0  0  0  0  0  0  0  0
    6.2042   -6.4847    3.8339 H   0  0  0  0  0  0  0  0  0  0  0  0
  1  2  1  0
  1 26  1  0
  1 27  1  0
  1 28  1  0
  2  3  1  0
  2  4  1  0
  2 29  1  6
  3 30  1  0
  4  8  1  1
  4 10  1  0
  4  5  1  0
  5 23  1  0
  5  6  1  0
  5 31  1  6
  6  7  1  0
  6  8  1  0
  6 32  1  1
  7 33  1  0
  8  9  1  6
  8 10  1  0
  9 34  1  0
  9 35  1  0
  9 36  1  0
 10 11  1  0
 10 37  1  6
 11 21  1  0
 11 12  1  0
 11 38  1  6
 12 22  1  0
 12 13  2  3
 13 14  1  0
 13 39  1  0
 14 15  1  0
 14 16  1  0
 14 17  1  0
 15 40  1  0
 15 41  1  0
 15 42  1  0
 16 43  1  0
 16 44  1  0
 16 45  1  0
 17 18  1  0
 17 46  1  0
 17 47  1  0
 18 19  1  0
 18 48  1  0
 18 49  1  0
 19 20  1  0
 19 21  1  0
 19 50  1  1
 20 51  1  0
 21 22  1  1
 21 23  1  0
 22 52  1  0
 22 53  1  0
 23 24  1  0
 23 25  1  1
 24 54  1  0
 24 55  1  0
 24 56  1  0
 25 57  1  0
M  END
>  <i_m_ct_stereo_status>  (9) 
1

>  <s_m_source_file>  (9) 
/var/tmp/pbs.5076255.sched01/tmp14hj8t9c/0766azy0n.sdf

>  <i_m_source_file_index>  (9) 
4

>  <i_lp_mmshare_version>  (9) 
48012

>  <i_f3d_flags>  (9) 
0

>  <s_epik_input>  (9) 
W0NIM11bQ0BdMTJbQ0BIXShbT0hdKVtDQEBIXShbQ0BAXTMoW0NIM10pW09IXSlbQ0BAXTEoW0NASF0oW0NIM10pW09IXSlbQ0BIXTJbQ0BASF0oW0NAXTM0NSkvQyhbQ0gyXTUpPVtDSF1cQyhbQ0gzXSkoW0NIM10pW0NIMl1bQ0gyXVtDQEhdNFtPSF0=

>  <s_epik_cmdline>  (9) 
J2VwaWtfcHl0aG9uJywgJy1waHQnLCAnMi4wJywgJy1waCcsICc3LjAnLCAnLXRuJywgJzgnLCAnLW1hJywgJzIwMCcsICctaW1hZScsICc8aW5maWxlLm1hZT4nLCAnLW9tYWUnLCAnPG91dGZpbGUubWFlPic=

>  <r_lp_tautomer_probability>  (9) 
1

>  <r_epik_Ionization_Penalty>  (9) 
5.6136e-06

>  <r_epik_Ionization_Penalty_Charging>  (9) 
0

>  <r_epik_Ionization_Penalty_Neutral>  (9) 
5.6136e-06

>  <r_epik_State_Penalty>  (9) 
-0

>  <r_epik_Charging_Adjusted_Penalty>  (9) 
0

>  <i_epik_Tot_Q>  (9) 
0

>  <i_epik_Tot_abs_Q>  (9) 
0

>  <s_lp_Force_Field>  (9) 
OPLS3e

>  <r_lp_Energy>  (9) 
63.6167

>  <b_lp_Chiralities_Consistent>  (9) 
1

>  <s_lp_Variant>  (9) 
2:0-2

>  <s_i_glide_gridfile>  (9) 
pfpi4k_grid

>  <i_i_glide_lignum>  (9) 
4

>  <i_i_glide_rotatable_bonds>  (9) 
5

>  <r_i_docking_score>  (9) 
-3.46916

>  <r_i_glide_ligand_efficiency>  (9) 
-0.138766

>  <r_i_glide_ligand_efficiency_sa>  (9) 
-0.405755

>  <r_i_glide_ligand_efficiency_ln>  (9) 
-0.822295

>  <r_i_glide_gscore>  (9) 
-3.46916

>  <r_i_glide_lipo>  (9) 
-0.442089

>  <r_i_glide_hbond>  (9) 
-0.214435

>  <r_i_glide_metal>  (9) 
-0

>  <r_i_glide_rewards>  (9) 
-1.03312

>  <r_i_glide_evdw>  (9) 
-28.9293

>  <r_i_glide_ecoul>  (9) 
-3.26546

>  <r_i_glide_erotb>  (9) 
0.156766

>  <r_i_glide_esite>  (9) 
0

>  <r_i_glide_emodel>  (9) 
-37.4802

>  <r_i_glide_energy>  (9) 
-32.1948

>  <r_i_glide_einternal>  (9) 
3.06482

>  <r_i_glide_intrahb_reward>  (9) 
-0

>  <i_i_glide_confnum>  (9) 
6

>  <i_i_glide_posenum>  (9) 
1

>  <r_i_glide_eff_state_penalty>  (9) 
0

>  <ligand_id>  (9) 
2

>  <original_smiles>  (9) 
CC(O)C12C3C(O)C1(C)C2C1C2=CC(C)(C)CCC(O)C1(C2)C3(C)O

>  <smiles>  (9) 
[H]OC1([H])C([H])([H])C([H])([H])C(C([H])([H])[H])(C([H])([H])[H])C([H])=C2C([H])([H])C13C2([H])C1([H])C2(C([H])([H])[H])C([H])(O[H])C([H])(C3(O[H])C([H])([H])[H])C12C([H])(O[H])C([H])([H])[H]

$$$$
3:0:0
     RDKit          3D

 41 44  0  0  1  0  0  0  0  0999 V2000
    3.0210    1.0115   -5.3024 C   0  0  0  0  0  0  0  0  0  0  0  0
    3.4164   -0.3463   -5.3142 O   0  0  0  0  0  0  0  0  0  0  0  0
    3.7147   -0.9465   -4.1186 C   0  0  0  0  0  0  0  0  0  0  0  0
    3.5937   -2.3423   -4.0328 C   0  0  0  0  0  0  0  0  0  0  0  0
    3.9216   -3.0274   -2.8541 C   0  0  0  0  0  0  0  0  0  0  0  0
    4.3610   -2.3278   -1.7092 C   0  0  0  0  0  0  0  0  0  0  0  0
    4.7270   -3.0470   -0.4017 C   0  0  1  0  0  0  0  0  0  0  0  0
    4.6626   -4.5969   -0.5425 C   0  0  0  0  0  0  0  0  0  0  0  0
    5.0228   -5.2981    0.7693 C   0  0  2  0  0  0  0  0  0  0  0  0
    4.0051   -4.8768    1.8444 C   0  0  0  0  0  0  0  0  0  0  0  0
    4.0733   -3.3473    2.0337 C   0  0  1  0  0  0  0  0  0  0  0  0
    5.4962   -2.9366    2.4607 C   0  0  0  0  0  0  0  0  0  0  0  0
    6.5045   -3.3705    1.3749 C   0  0  1  0  0  0  0  0  0  0  0  0
    6.4462   -4.9047    1.1949 C   0  0  0  0  0  0  0  0  0  0  0  0
    6.1561   -2.6366    0.0634 C   0  0  1  0  0  0  0  0  0  0  0  0
    7.1251   -2.9290   -0.9254 O   0  0  0  0  0  0  0  0  0  0  0  0
    3.7200   -2.6381    0.7094 C   0  0  0  0  0  0  0  0  0  0  0  0
    4.4642   -0.9221   -1.7907 C   0  0  0  0  0  0  0  0  0  0  0  0
    4.1599   -0.2460   -2.9826 C   0  0  0  0  0  0  0  0  0  0  0  0
    2.7984    1.3150   -6.3237 H   0  0  0  0  0  0  0  0  0  0  0  0
    3.7965    1.6764   -4.9177 H   0  0  0  0  0  0  0  0  0  0  0  0
    2.1098    1.1339   -4.7233 H   0  0  0  0  0  0  0  0  0  0  0  0
    3.2343   -2.9150   -4.8750 H   0  0  0  0  0  0  0  0  0  0  0  0
    3.8195   -4.0955   -2.8697 H   0  0  0  0  0  0  0  0  0  0  0  0
    3.6473   -4.9075   -0.7958 H   0  0  0  0  0  0  0  0  0  0  0  0
    5.3236   -4.9540   -1.3369 H   0  0  0  0  0  0  0  0  0  0  0  0
    4.9726   -6.3771    0.6232 H   0  0  0  0  0  0  0  0  0  0  0  0
    2.9992   -5.1625    1.5346 H   0  0  0  0  0  0  0  0  0  0  0  0
    4.2097   -5.3950    2.7791 H   0  0  0  0  0  0  0  0  0  0  0  0
    3.3647   -3.0471    2.8056 H   0  0  0  0  0  0  0  0  0  0  0  0
    5.5478   -1.8570    2.6079 H   0  0  0  0  0  0  0  0  0  0  0  0
    5.7500   -3.3953    3.4132 H   0  0  0  0  0  0  0  0  0  0  0  0
    7.5084   -3.0879    1.6753 H   0  0  0  0  0  0  0  0  0  0  0  0
    6.7134   -5.4016    2.1257 H   0  0  0  0  0  0  0  0  0  0  0  0
    7.1669   -5.2334    0.4465 H   0  0  0  0  0  0  0  0  0  0  0  0
    6.2306   -1.5610    0.2527 H   0  0  0  0  0  0  0  0  0  0  0  0
    7.0049   -3.8261   -1.2014 H   0  0  0  0  0  0  0  0  0  0  0  0
    3.7242   -1.5566    0.8728 H   0  0  0  0  0  0  0  0  0  0  0  0
    2.6998   -2.8907    0.4140 H   0  0  0  0  0  0  0  0  0  0  0  0
    4.7776   -0.3395   -0.9391 H   0  0  0  0  0  0  0  0  0  0  0  0
    4.2614    0.8266   -2.9941 H   0  0  0  0  0  0  0  0  0  0  0  0
  1  2  1  0
  1 20  1  0
  1 21  1  0
  1 22  1  0
  2  3  1  0
  3 19  2  0
  3  4  1  0
  4  5  2  0
  4 23  1  0
  5  6  1  0
  5 24  1  0
  7  6  1  6
  6 18  2  0
  7 15  1  0
  7 17  1  0
  7  8  1  0
  8  9  1  0
  8 25  1  0
  8 26  1  0
  9 14  1  0
  9 10  1  0
  9 27  1  6
 10 11  1  0
 10 28  1  0
 10 29  1  0
 11 12  1  0
 11 17  1  0
 11 30  1  1
 12 13  1  0
 12 31  1  0
 12 32  1  0
 13 14  1  0
 13 15  1  0
 13 33  1  1
 14 34  1  0
 14 35  1  0
 15 16  1  0
 15 36  1  1
 16 37  1  0
 17 38  1  0
 17 39  1  0
 18 19  1  0
 18 40  1  0
 19 41  1  0
M  END
>  <i_m_ct_stereo_status>  (10) 
1

>  <s_m_source_file>  (10) 
/var/tmp/pbs.5076255.sched01/tmp14hj8t9c/0766azy0n.sdf

>  <i_m_source_file_index>  (10) 
5

>  <i_lp_mmshare_version>  (10) 
48012

>  <i_f3d_flags>  (10) 
0

>  <s_epik_input>  (10) 
W0NIM11PYzFbY0hdW2NIXWMoW2NIXVtjSF0xKVtDQEBdMjNbQ0gyXVtDQEBIXTRbQ0gyXVtDQEhdKFtDSDJdMylbQ0gyXVtDQEBIXShbQ0gyXTQpW0NASF0yW09IXQ==

>  <s_epik_cmdline>  (10) 
J2VwaWtfcHl0aG9uJywgJy1waHQnLCAnMi4wJywgJy1waCcsICc3LjAnLCAnLXRuJywgJzgnLCAnLW1hJywgJzIwMCcsICctaW1hZScsICc8aW5maWxlLm1hZT4nLCAnLW9tYWUnLCAnPG91dGZpbGUubWFlPic=

>  <r_lp_tautomer_probability>  (10) 
1

>  <r_epik_Ionization_Penalty>  (10) 
6.08703e-07

>  <r_epik_Ionization_Penalty_Charging>  (10) 
0

>  <r_epik_Ionization_Penalty_Neutral>  (10) 
6.08703e-07

>  <r_epik_State_Penalty>  (10) 
-0

>  <r_epik_Charging_Adjusted_Penalty>  (10) 
0

>  <i_epik_Tot_Q>  (10) 
0

>  <i_epik_Tot_abs_Q>  (10) 
0

>  <s_lp_Force_Field>  (10) 
OPLS3e

>  <r_lp_Energy>  (10) 
23.7769

>  <b_lp_Chiralities_Consistent>  (10) 
1

>  <s_lp_Variant>  (10) 
3:0-1

>  <s_i_glide_gridfile>  (10) 
pfpi4k_grid

>  <i_i_glide_lignum>  (10) 
5

>  <i_i_glide_rotatable_bonds>  (10) 
3

>  <r_i_docking_score>  (10) 
-3.60827

>  <r_i_glide_ligand_efficiency>  (10) 
-0.189909

>  <r_i_glide_ligand_efficiency_sa>  (10) 
-0.506754

>  <r_i_glide_ligand_efficiency_ln>  (10) 
-0.914775

>  <r_i_glide_gscore>  (10) 
-3.60827

>  <r_i_glide_lipo>  (10) 
-0.723296

>  <r_i_glide_hbond>  (10) 
-0.058543

>  <r_i_glide_metal>  (10) 
-0

>  <r_i_glide_rewards>  (10) 
-1.64758

>  <r_i_glide_evdw>  (10) 
-22.4942

>  <r_i_glide_ecoul>  (10) 
-2.12515

>  <r_i_glide_erotb>  (10) 
0.264627

>  <r_i_glide_esite>  (10) 
0

>  <r_i_glide_emodel>  (10) 
-29.1298

>  <r_i_glide_energy>  (10) 
-24.6194

>  <r_i_glide_einternal>  (10) 
1.25091

>  <r_i_glide_intrahb_reward>  (10) 
-0

>  <i_i_glide_confnum>  (10) 
1

>  <i_i_glide_posenum>  (10) 
33

>  <r_i_glide_eff_state_penalty>  (10) 
0

>  <ligand_id>  (10) 
3

>  <original_smiles>  (10) 
COc1ccc(C23CC4CC(CC(C4)C2O)C3)cc1

>  <smiles>  (10) 
[H]OC1([H])C2([H])C([H])([H])C3([H])C([H])([H])C([H])(C2([H])[H])C([H])([H])C1(c1c([H])c([H])c(OC([H])([H])[H])c([H])c1[H])C3([H])[H]

$$$$
3:0:1
     RDKit          3D

 41 44  0  0  1  0  0  0  0  0999 V2000
    3.2770    1.0790   -5.5128 C   0  0  0  0  0  0  0  0  0  0  0  0
    2.6856   -0.1300   -5.1575 O   0  0  0  0  0  0  0  0  0  0  0  0
    3.1579   -0.7750   -4.0505 C   0  0  0  0  0  0  0  0  0  0  0  0
    2.5844   -2.0134   -3.7444 C   0  0  0  0  0  0  0  0  0  0  0  0
    2.8913   -2.6638   -2.5501 C   0  0  0  0  0  0  0  0  0  0  0  0
    3.8444   -2.1197   -1.6703 C   0  0  0  0  0  0  0  0  0  0  0  0
    4.2079   -2.8473   -0.3706 C   0  0  1  0  0  0  0  0  0  0  0  0
    3.0686   -3.7862    0.1438 C   0  0  0  0  0  0  0  0  0  0  0  0
    3.4924   -4.5092    1.4346 C   0  0  2  0  0  0  0  0  0  0  0  0
    3.7899   -3.4692    2.5234 C   0  0  0  0  0  0  0  0  0  0  0  0
    4.9424   -2.5682    2.0448 C   0  0  1  0  0  0  0  0  0  0  0  0
    6.1953   -3.4155    1.7315 C   0  0  0  0  0  0  0  0  0  0  0  0
    5.8834   -4.4468    0.6455 C   0  0  1  0  0  0  0  0  0  0  0  0
    4.7459   -5.3622    1.1498 C   0  0  0  0  0  0  0  0  0  0  0  0
    5.4646   -3.6960   -0.6336 C   0  0  1  0  0  0  0  0  0  0  0  0
    5.1850   -4.6271   -1.6500 O   0  0  0  0  0  0  0  0  0  0  0  0
    4.5210   -1.8278    0.7660 C   0  0  0  0  0  0  0  0  0  0  0  0
    4.4973   -0.9185   -2.0300 C   0  0  0  0  0  0  0  0  0  0  0  0
    4.1450   -0.2450   -3.1985 C   0  0  0  0  0  0  0  0  0  0  0  0
    2.8250    1.3579   -6.4553 H   0  0  0  0  0  0  0  0  0  0  0  0
    4.3481    0.9585   -5.6529 H   0  0  0  0  0  0  0  0  0  0  0  0
    3.0814    1.8639   -4.7911 H   0  0  0  0  0  0  0  0  0  0  0  0
    1.7870   -2.4232   -4.3496 H   0  0  0  0  0  0  0  0  0  0  0  0
    2.3475   -3.5752   -2.3486 H   0  0  0  0  0  0  0  0  0  0  0  0
    2.1600   -3.2105    0.3088 H   0  0  0  0  0  0  0  0  0  0  0  0
    2.8129   -4.5750   -0.5652 H   0  0  0  0  0  0  0  0  0  0  0  0
    2.6826   -5.1623    1.7663 H   0  0  0  0  0  0  0  0  0  0  0  0
    2.9012   -2.8613    2.7052 H   0  0  0  0  0  0  0  0  0  0  0  0
    4.0469   -3.9623    3.4635 H   0  0  0  0  0  0  0  0  0  0  0  0
    5.1740   -1.8358    2.8240 H   0  0  0  0  0  0  0  0  0  0  0  0
    7.0131   -2.7626    1.4173 H   0  0  0  0  0  0  0  0  0  0  0  0
    6.5177   -3.9624    2.6068 H   0  0  0  0  0  0  0  0  0  0  0  0
    6.7757   -5.0368    0.4498 H   0  0  0  0  0  0  0  0  0  0  0  0
    5.0580   -5.8865    2.0531 H   0  0  0  0  0  0  0  0  0  0  0  0
    4.5281   -6.1363    0.4130 H   0  0  0  0  0  0  0  0  0  0  0  0
    6.2909   -3.0565   -0.9609 H   0  0  0  0  0  0  0  0  0  0  0  0
    4.4169   -5.1280   -1.4362 H   0  0  0  0  0  0  0  0  0  0  0  0
    5.3577   -1.1667    0.5346 H   0  0  0  0  0  0  0  0  0  0  0  0
    3.6598   -1.1879    0.9652 H   0  0  0  0  0  0  0  0  0  0  0  0
    5.2552   -0.4609   -1.4148 H   0  0  0  0  0  0  0  0  0  0  0  0
    4.6045    0.7172   -3.3800 H   0  0  0  0  0  0  0  0  0  0  0  0
  1  2  1  0
  1 20  1  0
  1 21  1  0
  1 22  1  0
  2  3  1  0
  3 19  2  0
  3  4  1  0
  4  5  2  0
  4 23  1  0
  5  6  1  0
  5 24  1  0
  7  6  1  6
  6 18  2  0
  7 15  1  0
  7 17  1  0
  7  8  1  0
  8  9  1  0
  8 25  1  0
  8 26  1  0
  9 14  1  0
  9 10  1  0
  9 27  1  1
 10 11  1  0
 10 28  1  0
 10 29  1  0
 11 12  1  0
 11 17  1  0
 11 30  1  1
 12 13  1  0
 12 31  1  0
 12 32  1  0
 13 14  1  0
 13 15  1  0
 13 33  1  6
 14 34  1  0
 14 35  1  0
 15 16  1  0
 15 36  1  6
 16 37  1  0
 17 38  1  0
 17 39  1  0
 18 19  1  0
 18 40  1  0
 19 41  1  0
M  END
>  <i_m_ct_stereo_status>  (11) 
1

>  <s_m_source_file>  (11) 
/var/tmp/pbs.5076255.sched01/tmp14hj8t9c/0766azy0n.sdf

>  <i_m_source_file_index>  (11) 
5

>  <i_lp_mmshare_version>  (11) 
48012

>  <i_f3d_flags>  (11) 
0

>  <s_epik_input>  (11) 
W0NIM11PYzFbY0hdW2NIXWMoW2NIXVtjSF0xKVtDQEBdMjNbQ0gyXVtDQEBIXTRbQ0gyXVtDQEhdKFtDSDJdMylbQ0gyXVtDQEBIXShbQ0gyXTQpW0NASF0yW09IXQ==

>  <s_epik_cmdline>  (11) 
J2VwaWtfcHl0aG9uJywgJy1waHQnLCAnMi4wJywgJy1waCcsICc3LjAnLCAnLXRuJywgJzgnLCAnLW1hJywgJzIwMCcsICctaW1hZScsICc8aW5maWxlLm1hZT4nLCAnLW9tYWUnLCAnPG91dGZpbGUubWFlPic=

>  <r_lp_tautomer_probability>  (11) 
1

>  <r_epik_Ionization_Penalty>  (11) 
6.08703e-07

>  <r_epik_Ionization_Penalty_Charging>  (11) 
0

>  <r_epik_Ionization_Penalty_Neutral>  (11) 
6.08703e-07

>  <r_epik_State_Penalty>  (11) 
-0

>  <r_epik_Charging_Adjusted_Penalty>  (11) 
0

>  <i_epik_Tot_Q>  (11) 
0

>  <i_epik_Tot_abs_Q>  (11) 
0

>  <s_lp_Force_Field>  (11) 
OPLS3e

>  <r_lp_Energy>  (11) 
23.7769

>  <b_lp_Chiralities_Consistent>  (11) 
1

>  <s_lp_Variant>  (11) 
3:0-1

>  <s_i_glide_gridfile>  (11) 
pfpi4k_grid

>  <i_i_glide_lignum>  (11) 
5

>  <i_i_glide_rotatable_bonds>  (11) 
3

>  <r_i_docking_score>  (11) 
-3.56988

>  <r_i_glide_ligand_efficiency>  (11) 
-0.187888

>  <r_i_glide_ligand_efficiency_sa>  (11) 
-0.501362

>  <r_i_glide_ligand_efficiency_ln>  (11) 
-0.905041

>  <r_i_glide_gscore>  (11) 
-3.56988

>  <r_i_glide_lipo>  (11) 
-1.01595

>  <r_i_glide_hbond>  (11) 
-0.174866

>  <r_i_glide_metal>  (11) 
-0

>  <r_i_glide_rewards>  (11) 
-1.64758

>  <r_i_glide_evdw>  (11) 
-15.2534

>  <r_i_glide_ecoul>  (11) 
-1.55631

>  <r_i_glide_erotb>  (11) 
0.264627

>  <r_i_glide_esite>  (11) 
0

>  <r_i_glide_emodel>  (11) 
-20.9648

>  <r_i_glide_energy>  (11) 
-16.8097

>  <r_i_glide_einternal>  (11) 
1.75003

>  <r_i_glide_intrahb_reward>  (11) 
-0

>  <i_i_glide_confnum>  (11) 
1

>  <i_i_glide_posenum>  (11) 
35

>  <r_i_glide_eff_state_penalty>  (11) 
0

>  <ligand_id>  (11) 
3

>  <original_smiles>  (11) 
COc1ccc(C23CC4CC(CC(C4)C2O)C3)cc1

>  <smiles>  (11) 
[H]OC1([H])C2([H])C([H])([H])C3([H])C([H])([H])C([H])(C2([H])[H])C([H])([H])C1(c1c([H])c([H])c(OC([H])([H])[H])c([H])c1[H])C3([H])[H]

$$$$
4:0:0
     RDKit          3D

 74 80  0  0  1  0  0  0  0  0999 V2000
    2.5880   -9.8775    2.2897 C   0  0  0  0  0  0  0  0  0  0  0  0
    2.5843   -8.4311    2.7598 C   0  0  0  0  0  0  0  0  0  0  0  0
    3.7553   -7.7485    2.5078 C   0  0  0  0  0  0  0  0  0  0  0  0
    4.2961   -6.3400    2.7836 C   0  0  1  0  0  0  0  0  0  0  0  0
    3.5261   -5.2063    2.0668 C   0  0  0  0  0  0  0  0  0  0  0  0
    4.4956   -4.0952    1.6661 C   0  0  1  0  0  0  0  0  0  0  0  0
    4.8708   -3.1223    2.8259 C   0  0  1  0  0  0  0  0  0  0  0  0
    5.7352   -2.1813    2.1889 O   0  0  0  0  0  0  0  0  0  0  0  0
    5.4167   -0.8776    2.5095 C   0  0  1  0  0  0  0  0  0  0  0  0
    5.7434   -0.0027    1.4413 O   0  0  0  0  0  0  0  0  0  0  0  0
    3.9338   -0.8428    2.8743 C   0  0  0  0  0  0  0  0  0  0  0  0
    3.6528    0.3540    3.8200 C   0  0  0  0  0  0  0  0  0  0  0  0
    3.0787   -0.7272    1.5889 C   0  0  0  0  0  0  0  0  0  0  0  0
    3.8391   -2.2105    3.5759 C   0  0  1  0  0  0  0  0  0  0  0  0
    2.3843   -2.6455    3.8988 C   0  0  0  0  0  0  0  0  0  0  0  0
    2.1427   -3.4607    5.2016 C   0  0  0  0  0  0  0  0  0  0  0  0
    2.5131   -4.9610    5.2869 C   0  0  2  0  0  0  0  0  0  0  0  0
    3.8764   -5.0392    4.8488 O   0  0  0  0  0  0  0  0  0  0  0  0
    4.4760   -6.1269    4.3155 C   0  0  0  0  0  0  0  0  0  0  0  0
    5.2315   -6.8534    4.9452 O   0  0  0  0  0  0  0  0  0  0  0  0
    1.5519   -5.9276    4.5976 C   0  0  0  0  0  0  0  0  0  0  0  0
    0.7837   -5.6574    3.5096 C   0  0  0  0  0  0  0  0  0  0  0  0
    0.5206   -6.8950    2.6638 C   0  0  2  0  0  0  0  0  0  0  0  0
   -0.7520   -7.6989    2.9746 C   0  0  0  0  0  0  0  0  0  0  0  0
   -1.9506   -7.5214    2.7889 O   0  0  0  0  0  0  0  0  0  0  0  0
    0.0499   -8.8114    3.6599 C   0  0  2  0  0  0  0  0  0  0  0  0
   -0.2968  -10.1437    3.0113 C   0  0  0  0  0  0  0  0  0  0  0  0
   -0.3066   -8.8107    5.1231 C   0  0  0  0  0  0  0  0  0  0  0  0
    0.3471   -7.6512    5.6200 O   0  0  0  0  0  0  0  0  0  0  0  0
    1.5208   -7.3964    4.9053 C   0  0  2  0  0  0  0  0  0  0  0  0
    2.6280   -7.9666    5.5722 O   0  0  0  0  0  0  0  0  0  0  0  0
    1.3100   -7.9408    3.4832 C   0  0  1  0  0  0  0  0  0  0  0  0
    5.6514   -4.9706    1.1306 C   0  0  0  0  0  0  0  0  0  0  0  0
    5.2761   -5.4795   -0.2632 C   0  0  0  0  0  0  0  0  0  0  0  0
    7.0404   -4.3086    0.9877 C   0  0  0  0  0  0  0  0  0  0  0  0
    5.7067   -6.1558    2.1243 C   0  0  0  0  0  0  0  0  0  0  0  0
    2.4037  -10.5584    3.1249 H   0  0  0  0  0  0  0  0  0  0  0  0
    3.5477  -10.1779    1.8666 H   0  0  0  0  0  0  0  0  0  0  0  0
    1.8636  -10.0434    1.4934 H   0  0  0  0  0  0  0  0  0  0  0  0
    4.4866   -8.3483    2.0062 H   0  0  0  0  0  0  0  0  0  0  0  0
    3.0085   -5.6169    1.1984 H   0  0  0  0  0  0  0  0  0  0  0  0
    2.7786   -4.7636    2.6600 H   0  0  0  0  0  0  0  0  0  0  0  0
    4.0632   -3.5331    0.8359 H   0  0  0  0  0  0  0  0  0  0  0  0
    5.4926   -3.6254    3.5534 H   0  0  0  0  0  0  0  0  0  0  0  0
    6.0382   -0.5915    3.3623 H   0  0  0  0  0  0  0  0  0  0  0  0
    6.6497    0.2124    1.5477 H   0  0  0  0  0  0  0  0  0  0  0  0
    2.6087    0.4076    4.1031 H   0  0  0  0  0  0  0  0  0  0  0  0
    3.8894    1.2881    3.3208 H   0  0  0  0  0  0  0  0  0  0  0  0
    4.2383    0.3181    4.7392 H   0  0  0  0  0  0  0  0  0  0  0  0
    2.0193   -0.8251    1.7941 H   0  0  0  0  0  0  0  0  0  0  0  0
    3.3660   -1.4651    0.8427 H   0  0  0  0  0  0  0  0  0  0  0  0
    3.2314    0.2527    1.1430 H   0  0  0  0  0  0  0  0  0  0  0  0
    4.3157   -2.0397    4.5426 H   0  0  0  0  0  0  0  0  0  0  0  0
    1.8462   -1.7178    4.0951 H   0  0  0  0  0  0  0  0  0  0  0  0
    1.8640   -3.0041    3.0182 H   0  0  0  0  0  0  0  0  0  0  0  0
    2.7042   -2.9550    5.9940 H   0  0  0  0  0  0  0  0  0  0  0  0
    1.0936   -3.3469    5.4861 H   0  0  0  0  0  0  0  0  0  0  0  0
    2.4913   -5.2465    6.3356 H   0  0  0  0  0  0  0  0  0  0  0  0
    0.6579   -4.6570    3.1276 H   0  0  0  0  0  0  0  0  0  0  0  0
    0.8503   -6.8367    1.6127 H   0  0  0  0  0  0  0  0  0  0  0  0
    0.2507  -10.9820    3.4646 H   0  0  0  0  0  0  0  0  0  0  0  0
   -0.1744  -10.1760    1.9383 H   0  0  0  0  0  0  0  0  0  0  0  0
   -1.3536  -10.2937    3.1910 H   0  0  0  0  0  0  0  0  0  0  0  0
   -1.3755   -8.7334    5.3017 H   0  0  0  0  0  0  0  0  0  0  0  0
    0.0705   -9.6838    5.6429 H   0  0  0  0  0  0  0  0  0  0  0  0
    2.5233   -8.9151    5.5501 H   0  0  0  0  0  0  0  0  0  0  0  0
    6.1086   -6.0928   -0.5406 H   0  0  0  0  0  0  0  0  0  0  0  0
    5.1681   -4.6774   -0.9934 H   0  0  0  0  0  0  0  0  0  0  0  0
    4.3984   -6.1235   -0.3084 H   0  0  0  0  0  0  0  0  0  0  0  0
    7.7864   -4.9983    0.5902 H   0  0  0  0  0  0  0  0  0  0  0  0
    7.4300   -3.9745    1.9469 H   0  0  0  0  0  0  0  0  0  0  0  0
    7.0134   -3.4463    0.3202 H   0  0  0  0  0  0  0  0  0  0  0  0
    6.4723   -5.9342    2.8767 H   0  0  0  0  0  0  0  0  0  0  0  0
    6.0720   -7.0622    1.6292 H   0  0  0  0  0  0  0  0  0  0  0  0
  1  2  1  0
  1 37  1  0
  1 38  1  0
  1 39  1  0
 32  2  1  6
  2  3  2  3
  3  4  1  0
  3 40  1  0
  4 19  1  0
  4 36  1  6
  4  5  1  0
  5  6  1  0
  5 41  1  0
  5 42  1  0
  6  7  1  0
  6 33  1  0
  6 43  1  6
  7 14  1  0
  7  8  1  0
  7 44  1  1
  8  9  1  0
  9 10  1  0
  9 11  1  0
  9 45  1  1
 10 46  1  0
 11 12  1  0
 11 13  1  0
 11 14  1  0
 12 47  1  0
 12 48  1  0
 12 49  1  0
 13 50  1  0
 13 51  1  0
 13 52  1  0
 14 15  1  0
 14 53  1  1
 15 16  1  0
 15 54  1  0
 15 55  1  0
 16 17  1  0
 16 56  1  0
 16 57  1  0
 17 18  1  0
 17 21  1  0
 17 58  1  1
 18 19  1  0
 19 20  2  0
 21 30  1  0
 21 22  2  0
 22 23  1  0
 22 59  1  0
 23 32  1  0
 23 24  1  0
 23 60  1  6
 24 25  2  0
 24 26  1  0
 26 32  1  0
 26 27  1  6
 26 28  1  0
 27 61  1  0
 27 62  1  0
 27 63  1  0
 28 29  1  0
 28 64  1  0
 28 65  1  0
 29 30  1  0
 30 31  1  1
 30 32  1  0
 31 66  1  0
 33 34  1  0
 33 35  1  0
 33 36  1  0
 34 67  1  0
 34 68  1  0
 34 69  1  0
 35 70  1  0
 35 71  1  0
 35 72  1  0
 36 73  1  0
 36 74  1  0
M  END
>  <i_m_ct_stereo_status>  (12) 
1

>  <s_m_source_file>  (12) 
/var/tmp/pbs.5076255.sched01/tmp14hj8t9c/0766azy0n.sdf

>  <i_m_source_file_index>  (12) 
6

>  <i_lp_mmshare_version>  (12) 
48012

>  <i_f3d_flags>  (12) 
0

>  <s_epik_input>  (12) 
W0NAXTEyM1xbQ0hdPUMoXFtDSDNdKVtDQEBdNDVbQ0BASF02W0NIXT1DKFtDQEBdNShbT0hdKU9bQ0gyXVtDQF00KEM2PU8pW0NIM10pW0NAQEhdKE9DMj1PKVtDSDJdW0NIMl1bQ0BIXTdbQ0BASF0oW0NASF0oW0NIMl0xKUMoW0NIM10pKFtDSDNdKVtDSDJdMylPW0NAQEhdKFtPSF0pQzcoW0NIM10pW0NIM10=

>  <s_epik_cmdline>  (12) 
J2VwaWtfcHl0aG9uJywgJy1waHQnLCAnMi4wJywgJy1waCcsICc3LjAnLCAnLXRuJywgJzgnLCAnLW1hJywgJzIwMCcsICctaW1hZScsICc8aW5maWxlLm1hZT4nLCAnLW9tYWUnLCAnPG91dGZpbGUubWFlPic=

>  <r_epik_Ionization_Penalty>  (12) 
0.000817773

>  <r_epik_Ionization_Penalty_Charging>  (12) 
0

>  <r_epik_Ionization_Penalty_Neutral>  (12) 
0.000817773

>  <r_epik_State_Penalty>  (12) 
0.000525884

>  <r_epik_Charging_Adjusted_Penalty>  (12) 
0.000525884

>  <i_epik_Tot_Q>  (12) 
0

>  <i_epik_Tot_abs_Q>  (12) 
0

>  <s_epik_Chemistry_Notes>  (12) 
This compound has an ester and may undergo hydrolysis at high or low pH. This compound contains an acetal/aminal-like group ( X-CH(R)-Y where X, Y are N, S, or O) that may be acid/base labile, releasing an aldehyde.

>  <s_lp_Force_Field>  (12) 
OPLS3e

>  <r_lp_Energy>  (12) 
80.4455

>  <b_lp_Chiralities_Consistent>  (12) 
1

>  <s_lp_Variant>  (12) 
4:0-1

>  <s_i_glide_gridfile>  (12) 
pfpi4k_grid

>  <i_i_glide_lignum>  (12) 
6

>  <i_i_glide_rotatable_bonds>  (12) 
2

>  <r_i_docking_score>  (12) 
-2.49519

>  <r_i_glide_ligand_efficiency>  (12) 
-0.0693107

>  <r_i_glide_ligand_efficiency_sa>  (12) 
-0.228859

>  <r_i_glide_ligand_efficiency_ln>  (12) 
-0.544382

>  <r_i_glide_gscore>  (12) 
-2.49519

>  <r_i_glide_lipo>  (12) 
-0.308064

>  <r_i_glide_hbond>  (12) 
-0.0116028

>  <r_i_glide_metal>  (12) 
-0

>  <r_i_glide_rewards>  (12) 
-0.152123

>  <r_i_glide_evdw>  (12) 
-17.7256

>  <r_i_glide_ecoul>  (12) 
-7.09594

>  <r_i_glide_erotb>  (12) 
0

>  <r_i_glide_esite>  (12) 
-0.0727231

>  <r_i_glide_emodel>  (12) 
-27.9896

>  <r_i_glide_energy>  (12) 
-24.8216

>  <r_i_glide_einternal>  (12) 
0.534455

>  <r_i_glide_intrahb_reward>  (12) 
-0

>  <i_i_glide_confnum>  (12) 
2

>  <i_i_glide_posenum>  (12) 
26

>  <r_i_glide_eff_state_penalty>  (12) 
0

>  <ligand_id>  (12) 
4

>  <original_smiles>  (12) 
CC1=CC23CC(C4OC(O)C(C)(C)C4CCC(OC2=O)C2=CC4C(=O)C5(C)COC2(O)C145)C(C)(C)C3

>  <smiles>  (12) 
[H]OC1([H])OC2([H])C([H])(C([H])([H])C([H])([H])C3([H])OC(=O)C4(C([H])=C(C([H])([H])[H])C56C7(O[H])OC([H])([H])C5(C([H])([H])[H])C(=O)C6([H])C([H])=C37)C([H])([H])C2([H])C(C([H])([H])[H])(C([H])([H])[H])C4([H])[H])C1(C([H])([H])[H])C([H])([H])[H]

$$$$
4:0:1
     RDKit          3D

 74 80  0  0  1  0  0  0  0  0999 V2000
    2.8875   -9.1357    1.5937 C   0  0  0  0  0  0  0  0  0  0  0  0
    2.6534   -7.8205    2.3389 C   0  0  0  0  0  0  0  0  0  0  0  0
    3.4615   -6.7864    1.9427 C   0  0  0  0  0  0  0  0  0  0  0  0
    3.6997   -5.3064    2.3508 C   0  0  1  0  0  0  0  0  0  0  0  0
    2.4766   -4.3890    2.1246 C   0  0  0  0  0  0  0  0  0  0  0  0
    2.9508   -2.9949    1.6918 C   0  0  1  0  0  0  0  0  0  0  0  0
    3.3980   -2.0443    2.8687 C   0  0  1  0  0  0  0  0  0  0  0  0
    3.6945   -0.7864    2.2409 O   0  0  0  0  0  0  0  0  0  0  0  0
    3.2439    0.2759    3.0040 C   0  0  1  0  0  0  0  0  0  0  0  0
    3.0125    1.4403    2.2191 O   0  0  0  0  0  0  0  0  0  0  0  0
    1.9852   -0.2218    3.7042 C   0  0  0  0  0  0  0  0  0  0  0  0
    1.7025    0.6876    4.9255 C   0  0  0  0  0  0  0  0  0  0  0  0
    0.7682   -0.2247    2.7440 C   0  0  0  0  0  0  0  0  0  0  0  0
    2.4651   -1.6268    4.0739 C   0  0  1  0  0  0  0  0  0  0  0  0
    1.3664   -2.5460    4.6874 C   0  0  0  0  0  0  0  0  0  0  0  0
    1.7721   -3.5484    5.8107 C   0  0  0  0  0  0  0  0  0  0  0  0
    2.5152   -4.8717    5.4734 C   0  0  2  0  0  0  0  0  0  0  0  0
    3.6510   -4.4697    4.6822 O   0  0  0  0  0  0  0  0  0  0  0  0
    4.3006   -5.2481    3.7840 C   0  0  0  0  0  0  0  0  0  0  0  0
    5.3842   -5.7732    4.0136 O   0  0  0  0  0  0  0  0  0  0  0  0
    1.6465   -5.9929    4.8777 C   0  0  0  0  0  0  0  0  0  0  0  0
    0.5270   -5.8490    4.1512 C   0  0  0  0  0  0  0  0  0  0  0  0
    0.3381   -6.9839    3.1486 C   0  0  2  0  0  0  0  0  0  0  0  0
   -0.5432   -8.1647    3.5957 C   0  0  0  0  0  0  0  0  0  0  0  0
   -1.7668   -8.2985    3.7064 O   0  0  0  0  0  0  0  0  0  0  0  0
    0.7007   -9.0913    3.8074 C   0  0  2  0  0  0  0  0  0  0  0  0
    0.5553  -10.3976    3.0412 C   0  0  0  0  0  0  0  0  0  0  0  0
    0.8575   -9.3545    5.2921 C   0  0  0  0  0  0  0  0  0  0  0  0
    1.3256   -8.1136    5.8090 O   0  0  0  0  0  0  0  0  0  0  0  0
    2.1025   -7.4317    4.8570 C   0  0  2  0  0  0  0  0  0  0  0  0
    3.4658   -7.7184    5.0636 O   0  0  0  0  0  0  0  0  0  0  0  0
    1.5750   -7.8505    3.5001 C   0  0  1  0  0  0  0  0  0  0  0  0
    4.0686   -3.4063    0.6913 C   0  0  0  0  0  0  0  0  0  0  0  0
    3.4492   -3.8385   -0.6617 C   0  0  0  0  0  0  0  0  0  0  0  0
    5.1121   -2.3190    0.3546 C   0  0  0  0  0  0  0  0  0  0  0  0
    4.7312   -4.6259    1.3805 C   0  0  0  0  0  0  0  0  0  0  0  0
    3.1733   -9.9274    2.2843 H   0  0  0  0  0  0  0  0  0  0  0  0
    3.7114   -9.0675    0.8795 H   0  0  0  0  0  0  0  0  0  0  0  0
    2.0241   -9.4337    1.0098 H   0  0  0  0  0  0  0  0  0  0  0  0
    4.1363   -7.0558    1.1444 H   0  0  0  0  0  0  0  0  0  0  0  0
    1.8360   -4.8307    1.3701 H   0  0  0  0  0  0  0  0  0  0  0  0
    1.8705   -4.2829    2.9758 H   0  0  0  0  0  0  0  0  0  0  0  0
    2.1407   -2.5009    1.1555 H   0  0  0  0  0  0  0  0  0  0  0  0
    4.3301   -2.4190    3.2888 H   0  0  0  0  0  0  0  0  0  0  0  0
    4.0263    0.5356    3.7185 H   0  0  0  0  0  0  0  0  0  0  0  0
    3.8479    1.8662    2.0738 H   0  0  0  0  0  0  0  0  0  0  0  0
    0.8232    0.3685    5.4784 H   0  0  0  0  0  0  0  0  0  0  0  0
    1.5235    1.7126    4.6007 H   0  0  0  0  0  0  0  0  0  0  0  0
    2.5411    0.7106    5.6193 H   0  0  0  0  0  0  0  0  0  0  0  0
   -0.1021   -0.6794    3.2072 H   0  0  0  0  0  0  0  0  0  0  0  0
    0.9758   -0.7559    1.8121 H   0  0  0  0  0  0  0  0  0  0  0  0
    0.4859    0.7918    2.4667 H   0  0  0  0  0  0  0  0  0  0  0  0
    3.1709   -1.4604    4.8936 H   0  0  0  0  0  0  0  0  0  0  0  0
    0.6925   -1.8698    5.2160 H   0  0  0  0  0  0  0  0  0  0  0  0
    0.6987   -2.9502    3.9330 H   0  0  0  0  0  0  0  0  0  0  0  0
    2.3983   -3.0016    6.5199 H   0  0  0  0  0  0  0  0  0  0  0  0
    0.8772   -3.8097    6.3822 H   0  0  0  0  0  0  0  0  0  0  0  0
    2.8997   -5.2739    6.4075 H   0  0  0  0  0  0  0  0  0  0  0  0
   -0.0180   -4.9225    4.0563 H   0  0  0  0  0  0  0  0  0  0  0  0
    0.2692   -6.6899    2.1089 H   0  0  0  0  0  0  0  0  0  0  0  0
    1.4758  -10.9919    3.0964 H   0  0  0  0  0  0  0  0  0  0  0  0
    0.2932  -10.2642    2.0017 H   0  0  0  0  0  0  0  0  0  0  0  0
   -0.1889  -11.0397    3.4939 H   0  0  0  0  0  0  0  0  0  0  0  0
   -0.0675   -9.6538    5.7911 H   0  0  0  0  0  0  0  0  0  0  0  0
    1.6036  -10.1241    5.4821 H   0  0  0  0  0  0  0  0  0  0  0  0
    3.5920   -8.6333    4.8979 H   0  0  0  0  0  0  0  0  0  0  0  0
    4.2213   -4.1206   -1.3781 H   0  0  0  0  0  0  0  0  0  0  0  0
    2.8793   -3.0272   -1.1054 H   0  0  0  0  0  0  0  0  0  0  0  0
    2.7855   -4.6964   -0.5771 H   0  0  0  0  0  0  0  0  0  0  0  0
    5.8414   -2.6834   -0.3668 H   0  0  0  0  0  0  0  0  0  0  0  0
    5.6757   -1.9935    1.2328 H   0  0  0  0  0  0  0  0  0  0  0  0
    4.6366   -1.4391   -0.0800 H   0  0  0  0  0  0  0  0  0  0  0  0
    5.6040   -4.2599    1.9338 H   0  0  0  0  0  0  0  0  0  0  0  0
    5.1495   -5.3047    0.6351 H   0  0  0  0  0  0  0  0  0  0  0  0
  1  2  1  0
  1 37  1  0
  1 38  1  0
  1 39  1  0
 32  2  1  6
  2  3  2  3
  3  4  1  0
  3 40  1  0
  4 19  1  0
  4 36  1  6
  4  5  1  0
  5  6  1  0
  5 41  1  0
  5 42  1  0
  6  7  1  0
  6 33  1  0
  6 43  1  6
  7 14  1  0
  7  8  1  0
  7 44  1  1
  8  9  1  0
  9 10  1  0
  9 11  1  0
  9 45  1  1
 10 46  1  0
 11 12  1  0
 11 13  1  0
 11 14  1  0
 12 47  1  0
 12 48  1  0
 12 49  1  0
 13 50  1  0
 13 51  1  0
 13 52  1  0
 14 15  1  0
 14 53  1  1
 15 16  1  0
 15 54  1  0
 15 55  1  0
 16 17  1  0
 16 56  1  0
 16 57  1  0
 17 18  1  0
 17 21  1  0
 17 58  1  1
 18 19  1  0
 19 20  2  0
 21 30  1  0
 21 22  2  0
 22 23  1  0
 22 59  1  0
 23 32  1  0
 23 24  1  0
 23 60  1  6
 24 25  2  0
 24 26  1  0
 26 32  1  0
 26 27  1  6
 26 28  1  0
 27 61  1  0
 27 62  1  0
 27 63  1  0
 28 29  1  0
 28 64  1  0
 28 65  1  0
 29 30  1  0
 30 31  1  6
 30 32  1  0
 31 66  1  0
 33 34  1  0
 33 35  1  0
 33 36  1  0
 34 67  1  0
 34 68  1  0
 34 69  1  0
 35 70  1  0
 35 71  1  0
 35 72  1  0
 36 73  1  0
 36 74  1  0
M  END
>  <i_m_ct_stereo_status>  (13) 
1

>  <s_m_source_file>  (13) 
/var/tmp/pbs.5076255.sched01/tmp14hj8t9c/0766azy0n.sdf

>  <i_m_source_file_index>  (13) 
6

>  <i_lp_mmshare_version>  (13) 
48012

>  <i_f3d_flags>  (13) 
0

>  <s_epik_input>  (13) 
W0NAXTEyM1xbQ0hdPUMoXFtDSDNdKVtDQEBdNDVbQ0BASF02W0NIXT1DKFtDQEBdNShbT0hdKU9bQ0gyXVtDQF00KEM2PU8pW0NIM10pW0NAQEhdKE9DMj1PKVtDSDJdW0NIMl1bQ0BIXTdbQ0BASF0oW0NASF0oW0NIMl0xKUMoW0NIM10pKFtDSDNdKVtDSDJdMylPW0NAQEhdKFtPSF0pQzcoW0NIM10pW0NIM10=

>  <s_epik_cmdline>  (13) 
J2VwaWtfcHl0aG9uJywgJy1waHQnLCAnMi4wJywgJy1waCcsICc3LjAnLCAnLXRuJywgJzgnLCAnLW1hJywgJzIwMCcsICctaW1hZScsICc8aW5maWxlLm1hZT4nLCAnLW9tYWUnLCAnPG91dGZpbGUubWFlPic=

>  <r_epik_Ionization_Penalty>  (13) 
0.000817773

>  <r_epik_Ionization_Penalty_Charging>  (13) 
0

>  <r_epik_Ionization_Penalty_Neutral>  (13) 
0.000817773

>  <r_epik_State_Penalty>  (13) 
0.000525884

>  <r_epik_Charging_Adjusted_Penalty>  (13) 
0.000525884

>  <i_epik_Tot_Q>  (13) 
0

>  <i_epik_Tot_abs_Q>  (13) 
0

>  <s_epik_Chemistry_Notes>  (13) 
This compound has an ester and may undergo hydrolysis at high or low pH. This compound contains an acetal/aminal-like group ( X-CH(R)-Y where X, Y are N, S, or O) that may be acid/base labile, releasing an aldehyde.

>  <s_lp_Force_Field>  (13) 
OPLS3e

>  <r_lp_Energy>  (13) 
80.4455

>  <b_lp_Chiralities_Consistent>  (13) 
1

>  <s_lp_Variant>  (13) 
4:0-1

>  <s_i_glide_gridfile>  (13) 
pfpi4k_grid

>  <i_i_glide_lignum>  (13) 
6

>  <i_i_glide_rotatable_bonds>  (13) 
2

>  <r_i_docking_score>  (13) 
-2.28275

>  <r_i_glide_ligand_efficiency>  (13) 
-0.0634096

>  <r_i_glide_ligand_efficiency_sa>  (13) 
-0.209374

>  <r_i_glide_ligand_efficiency_ln>  (13) 
-0.498034

>  <r_i_glide_gscore>  (13) 
-2.28275

>  <r_i_glide_lipo>  (13) 
-0.173417

>  <r_i_glide_hbond>  (13) 
0

>  <r_i_glide_metal>  (13) 
-0

>  <r_i_glide_rewards>  (13) 
-0.0280449

>  <r_i_glide_evdw>  (13) 
-25.5114

>  <r_i_glide_ecoul>  (13) 
-5.02045

>  <r_i_glide_erotb>  (13) 
0

>  <r_i_glide_esite>  (13) 
-0.0526478

>  <r_i_glide_emodel>  (13) 
-33.728

>  <r_i_glide_energy>  (13) 
-30.5318

>  <r_i_glide_einternal>  (13) 
0.636769

>  <r_i_glide_intrahb_reward>  (13) 
-0

>  <i_i_glide_confnum>  (13) 
2

>  <i_i_glide_posenum>  (13) 
40

>  <r_i_glide_eff_state_penalty>  (13) 
0

>  <ligand_id>  (13) 
4

>  <original_smiles>  (13) 
CC1=CC23CC(C4OC(O)C(C)(C)C4CCC(OC2=O)C2=CC4C(=O)C5(C)COC2(O)C145)C(C)(C)C3

>  <smiles>  (13) 
[H]OC1([H])OC2([H])C([H])(C([H])([H])C([H])([H])C3([H])OC(=O)C4(C([H])=C(C([H])([H])[H])C56C7(O[H])OC([H])([H])C5(C([H])([H])[H])C(=O)C6([H])C([H])=C37)C([H])([H])C2([H])C(C([H])([H])[H])(C([H])([H])[H])C4([H])[H])C1(C([H])([H])[H])C([H])([H])[H]

$$$$
4:0:2
     RDKit          3D

 74 80  0  0  1  0  0  0  0  0999 V2000
    2.8010   -9.0513    1.5215 C   0  0  0  0  0  0  0  0  0  0  0  0
    2.5716   -7.7392    2.2693 C   0  0  0  0  0  0  0  0  0  0  0  0
    3.3183   -6.6809    1.8228 C   0  0  0  0  0  0  0  0  0  0  0  0
    3.5325   -5.1913    2.2091 C   0  0  1  0  0  0  0  0  0  0  0  0
    2.2695   -4.3176    2.0524 C   0  0  0  0  0  0  0  0  0  0  0  0
    2.6653   -2.9088    1.5824 C   0  0  1  0  0  0  0  0  0  0  0  0
    3.1503   -1.9349    2.7261 C   0  0  1  0  0  0  0  0  0  0  0  0
    3.3538   -0.6715    2.0705 O   0  0  0  0  0  0  0  0  0  0  0  0
    2.9198    0.3827    2.8547 C   0  0  1  0  0  0  0  0  0  0  0  0
    2.5682    1.5226    2.0755 O   0  0  0  0  0  0  0  0  0  0  0  0
    1.7298   -0.1527    3.6370 C   0  0  0  0  0  0  0  0  0  0  0  0
    1.4932    0.7539    4.8665 C   0  0  0  0  0  0  0  0  0  0  0  0
    0.4624   -0.2009    2.7537 C   0  0  0  0  0  0  0  0  0  0  0  0
    2.2797   -1.5417    3.9824 C   0  0  1  0  0  0  0  0  0  0  0  0
    1.2461   -2.4914    4.6627 C   0  0  0  0  0  0  0  0  0  0  0  0
    1.7502   -3.4729    5.7651 C   0  0  0  0  0  0  0  0  0  0  0  0
    2.5189   -4.7716    5.3917 C   0  0  2  0  0  0  0  0  0  0  0  0
    3.5909   -4.3358    4.5330 O   0  0  0  0  0  0  0  0  0  0  0  0
    4.2106   -5.0980    3.6030 C   0  0  0  0  0  0  0  0  0  0  0  0
    5.3247   -5.5877    3.7742 O   0  0  0  0  0  0  0  0  0  0  0  0
    1.6568   -5.9257    4.8518 C   0  0  0  0  0  0  0  0  0  0  0  0
    0.4961   -5.8233    4.1846 C   0  0  0  0  0  0  0  0  0  0  0  0
    0.2870   -6.9705    3.2081 C   0  0  2  0  0  0  0  0  0  0  0  0
   -0.5381   -8.1683    3.7146 C   0  0  0  0  0  0  0  0  0  0  0  0
   -1.7430   -8.3296    3.8924 O   0  0  0  0  0  0  0  0  0  0  0  0
    0.7431   -9.0595    3.8584 C   0  0  2  0  0  0  0  0  0  0  0  0
    0.5822  -10.3766    3.1111 C   0  0  0  0  0  0  0  0  0  0  0  0
    1.0019   -9.3097    5.3296 C   0  0  0  0  0  0  0  0  0  0  0  0
    1.4634   -8.0531    5.8137 O   0  0  0  0  0  0  0  0  0  0  0  0
    2.1544   -7.3511    4.8129 C   0  0  2  0  0  0  0  0  0  0  0  0
    3.5376   -7.5868    4.9381 O   0  0  0  0  0  0  0  0  0  0  0  0
    1.5617   -7.7978    3.4928 C   0  0  1  0  0  0  0  0  0  0  0  0
    3.7352   -3.2903    0.5206 C   0  0  0  0  0  0  0  0  0  0  0  0
    3.0525   -3.7524   -0.7898 C   0  0  0  0  0  0  0  0  0  0  0  0
    4.7196   -2.1716    0.1154 C   0  0  0  0  0  0  0  0  0  0  0  0
    4.4780   -4.4833    1.1743 C   0  0  0  0  0  0  0  0  0  0  0  0
    3.1508   -9.8263    2.2021 H   0  0  0  0  0  0  0  0  0  0  0  0
    3.5802   -8.9570    0.7600 H   0  0  0  0  0  0  0  0  0  0  0  0
    1.9110   -9.3760    0.9941 H   0  0  0  0  0  0  0  0  0  0  0  0
    3.9521   -6.9302    0.9832 H   0  0  0  0  0  0  0  0  0  0  0  0
    1.6170   -4.8028    1.3392 H   0  0  0  0  0  0  0  0  0  0  0  0
    1.7072   -4.2214    2.9343 H   0  0  0  0  0  0  0  0  0  0  0  0
    1.8121   -2.4445    1.0921 H   0  0  0  0  0  0  0  0  0  0  0  0
    4.1192   -2.2742    3.0898 H   0  0  0  0  0  0  0  0  0  0  0  0
    3.7454    0.6778    3.5024 H   0  0  0  0  0  0  0  0  0  0  0  0
    1.8367    1.2840    1.5530 H   0  0  0  0  0  0  0  0  0  0  0  0
    0.6563    0.4104    5.4704 H   0  0  0  0  0  0  0  0  0  0  0  0
    1.2604    1.7699    4.5441 H   0  0  0  0  0  0  0  0  0  0  0  0
    2.3697    0.8107    5.5085 H   0  0  0  0  0  0  0  0  0  0  0  0
   -0.3576   -0.6757    3.2842 H   0  0  0  0  0  0  0  0  0  0  0  0
    0.6252   -0.7378    1.8141 H   0  0  0  0  0  0  0  0  0  0  0  0
    0.1231    0.8031    2.4887 H   0  0  0  0  0  0  0  0  0  0  0  0
    3.0257   -1.3477    4.7582 H   0  0  0  0  0  0  0  0  0  0  0  0
    0.5836   -1.8337    5.2273 H   0  0  0  0  0  0  0  0  0  0  0  0
    0.5489   -2.9203    3.9506 H   0  0  0  0  0  0  0  0  0  0  0  0
    2.3996   -2.9010    6.4303 H   0  0  0  0  0  0  0  0  0  0  0  0
    0.8997   -3.7578    6.3907 H   0  0  0  0  0  0  0  0  0  0  0  0
    2.9698   -5.1552    6.3032 H   0  0  0  0  0  0  0  0  0  0  0  0
   -0.0847   -4.9171    4.1004 H   0  0  0  0  0  0  0  0  0  0  0  0
    0.1536   -6.6920    2.1715 H   0  0  0  0  0  0  0  0  0  0  0  0
    1.5195  -10.9517    3.1154 H   0  0  0  0  0  0  0  0  0  0  0  0
    0.2619  -10.2532    2.0846 H   0  0  0  0  0  0  0  0  0  0  0  0
   -0.1446  -11.0274    3.5984 H   0  0  0  0  0  0  0  0  0  0  0  0
    0.1213   -9.6326    5.8856 H   0  0  0  0  0  0  0  0  0  0  0  0
    1.7837  -10.0512    5.4794 H   0  0  0  0  0  0  0  0  0  0  0  0
    3.6934   -8.4900    4.7435 H   0  0  0  0  0  0  0  0  0  0  0  0
    3.7954   -4.0091   -1.5460 H   0  0  0  0  0  0  0  0  0  0  0  0
    2.4305   -2.9648   -1.2050 H   0  0  0  0  0  0  0  0  0  0  0  0
    2.4282   -4.6357   -0.6665 H   0  0  0  0  0  0  0  0  0  0  0  0
    5.4166   -2.5162   -0.6463 H   0  0  0  0  0  0  0  0  0  0  0  0
    5.3225   -1.8193    0.9557 H   0  0  0  0  0  0  0  0  0  0  0  0
    4.1894   -1.3120   -0.2961 H   0  0  0  0  0  0  0  0  0  0  0  0
    5.3716   -4.0858    1.6698 H   0  0  0  0  0  0  0  0  0  0  0  0
    4.8707   -5.1531    0.4069 H   0  0  0  0  0  0  0  0  0  0  0  0
  1  2  1  0
  1 37  1  0
  1 38  1  0
  1 39  1  0
 32  2  1  6
  2  3  2  3
  3  4  1  0
  3 40  1  0
  4 19  1  0
  4 36  1  6
  4  5  1  0
  5  6  1  0
  5 41  1  0
  5 42  1  0
  6  7  1  0
  6 33  1  0
  6 43  1  6
  7 14  1  0
  7  8  1  0
  7 44  1  1
  8  9  1  0
  9 10  1  0
  9 11  1  0
  9 45  1  1
 10 46  1  0
 11 12  1  0
 11 13  1  0
 11 14  1  0
 12 47  1  0
 12 48  1  0
 12 49  1  0
 13 50  1  0
 13 51  1  0
 13 52  1  0
 14 15  1  0
 14 53  1  1
 15 16  1  0
 15 54  1  0
 15 55  1  0
 16 17  1  0
 16 56  1  0
 16 57  1  0
 17 18  1  0
 17 21  1  0
 17 58  1  1
 18 19  1  0
 19 20  2  0
 21 30  1  0
 21 22  2  0
 22 23  1  0
 22 59  1  0
 23 32  1  0
 23 24  1  0
 23 60  1  6
 24 25  2  0
 24 26  1  0
 26 32  1  0
 26 27  1  6
 26 28  1  0
 27 61  1  0
 27 62  1  0
 27 63  1  0
 28 29  1  0
 28 64  1  0
 28 65  1  0
 29 30  1  0
 30 31  1  6
 30 32  1  0
 31 66  1  0
 33 34  1  0
 33 35  1  0
 33 36  1  0
 34 67  1  0
 34 68  1  0
 34 69  1  0
 35 70  1  0
 35 71  1  0
 35 72  1  0
 36 73  1  0
 36 74  1  0
M  END
>  <i_m_ct_stereo_status>  (14) 
1

>  <s_m_source_file>  (14) 
/var/tmp/pbs.5076255.sched01/tmp14hj8t9c/0766azy0n.sdf

>  <i_m_source_file_index>  (14) 
6

>  <i_lp_mmshare_version>  (14) 
48012

>  <i_f3d_flags>  (14) 
0

>  <s_epik_input>  (14) 
W0NAXTEyM1xbQ0hdPUMoXFtDSDNdKVtDQEBdNDVbQ0BASF02W0NIXT1DKFtDQEBdNShbT0hdKU9bQ0gyXVtDQF00KEM2PU8pW0NIM10pW0NAQEhdKE9DMj1PKVtDSDJdW0NIMl1bQ0BIXTdbQ0BASF0oW0NASF0oW0NIMl0xKUMoW0NIM10pKFtDSDNdKVtDSDJdMylPW0NAQEhdKFtPSF0pQzcoW0NIM10pW0NIM10=

>  <s_epik_cmdline>  (14) 
J2VwaWtfcHl0aG9uJywgJy1waHQnLCAnMi4wJywgJy1waCcsICc3LjAnLCAnLXRuJywgJzgnLCAnLW1hJywgJzIwMCcsICctaW1hZScsICc8aW5maWxlLm1hZT4nLCAnLW9tYWUnLCAnPG91dGZpbGUubWFlPic=

>  <r_epik_Ionization_Penalty>  (14) 
0.000817773

>  <r_epik_Ionization_Penalty_Charging>  (14) 
0

>  <r_epik_Ionization_Penalty_Neutral>  (14) 
0.000817773

>  <r_epik_State_Penalty>  (14) 
0.000525884

>  <r_epik_Charging_Adjusted_Penalty>  (14) 
0.000525884

>  <i_epik_Tot_Q>  (14) 
0

>  <i_epik_Tot_abs_Q>  (14) 
0

>  <s_epik_Chemistry_Notes>  (14) 
This compound has an ester and may undergo hydrolysis at high or low pH. This compound contains an acetal/aminal-like group ( X-CH(R)-Y where X, Y are N, S, or O) that may be acid/base labile, releasing an aldehyde.

>  <s_lp_Force_Field>  (14) 
OPLS3e

>  <r_lp_Energy>  (14) 
80.4455

>  <b_lp_Chiralities_Consistent>  (14) 
1

>  <s_lp_Variant>  (14) 
4:0-1

>  <s_i_glide_gridfile>  (14) 
pfpi4k_grid

>  <i_i_glide_lignum>  (14) 
6

>  <i_i_glide_rotatable_bonds>  (14) 
2

>  <r_i_docking_score>  (14) 
-1.7551

>  <r_i_glide_ligand_efficiency>  (14) 
-0.0487529

>  <r_i_glide_ligand_efficiency_sa>  (14) 
-0.160978

>  <r_i_glide_ligand_efficiency_ln>  (14) 
-0.382916

>  <r_i_glide_gscore>  (14) 
-1.7551

>  <r_i_glide_lipo>  (14) 
-0.127336

>  <r_i_glide_hbond>  (14) 
0

>  <r_i_glide_metal>  (14) 
-0

>  <r_i_glide_rewards>  (14) 
-0.0354482

>  <r_i_glide_evdw>  (14) 
-27.0516

>  <r_i_glide_ecoul>  (14) 
-1.24526

>  <r_i_glide_erotb>  (14) 
0

>  <r_i_glide_esite>  (14) 
-0.0529485

>  <r_i_glide_emodel>  (14) 
-30.8773

>  <r_i_glide_energy>  (14) 
-28.2969

>  <r_i_glide_einternal>  (14) 
0.106731

>  <r_i_glide_intrahb_reward>  (14) 
-0

>  <i_i_glide_confnum>  (14) 
2

>  <i_i_glide_posenum>  (14) 
1

>  <r_i_glide_eff_state_penalty>  (14) 
0

>  <ligand_id>  (14) 
4

>  <original_smiles>  (14) 
CC1=CC23CC(C4OC(O)C(C)(C)C4CCC(OC2=O)C2=CC4C(=O)C5(C)COC2(O)C145)C(C)(C)C3

>  <smiles>  (14) 
[H]OC1([H])OC2([H])C([H])(C([H])([H])C([H])([H])C3([H])OC(=O)C4(C([H])=C(C([H])([H])[H])C56C7(O[H])OC([H])([H])C5(C([H])([H])[H])C(=O)C6([H])C([H])=C37)C([H])([H])C2([H])C(C([H])([H])[H])(C([H])([H])[H])C4([H])[H])C1(C([H])([H])[H])C([H])([H])[H]

$$$$
4:1:0
     RDKit          3D

 74 80  0  0  1  0  0  0  0  0999 V2000
    3.3189  -10.0767    2.0805 C   0  0  0  0  0  0  0  0  0  0  0  0
    3.2060   -9.3202    3.4017 C   0  0  0  0  0  0  0  0  0  0  0  0
    4.3640   -8.8803    3.9589 C   0  0  0  0  0  0  0  0  0  0  0  0
    5.1242   -7.6242    3.4732 C   0  0  1  0  0  0  0  0  0  0  0  0
    4.7769   -7.1094    2.0659 C   0  0  0  0  0  0  0  0  0  0  0  0
    5.9215   -6.1814    1.6075 C   0  0  1  0  0  0  0  0  0  0  0  0
    5.8113   -4.6247    1.8407 C   0  0  1  0  0  0  0  0  0  0  0  0
    6.8399   -4.0923    0.9929 O   0  0  0  0  0  0  0  0  0  0  0  0
    6.3906   -3.0212    0.2233 C   0  0  1  0  0  0  0  0  0  0  0  0
    7.0458   -2.9261   -1.0229 O   0  0  0  0  0  0  0  0  0  0  0  0
    4.8703   -3.2017    0.0772 C   0  0  0  0  0  0  0  0  0  0  0  0
    4.2350   -1.8219   -0.2123 C   0  0  0  0  0  0  0  0  0  0  0  0
    4.5162   -4.1980   -1.0518 C   0  0  0  0  0  0  0  0  0  0  0  0
    4.5698   -3.7351    1.4853 C   0  0  1  0  0  0  0  0  0  0  0  0
    3.0908   -4.1543    1.7512 C   0  0  0  0  0  0  0  0  0  0  0  0
    2.5459   -4.0470    3.2144 C   0  0  0  0  0  0  0  0  0  0  0  0
    2.7556   -5.2330    4.1937 C   0  0  2  0  0  0  0  0  0  0  0  0
    4.1815   -5.4274    4.1255 O   0  0  0  0  0  0  0  0  0  0  0  0
    4.9057   -6.5014    4.5346 C   0  0  0  0  0  0  0  0  0  0  0  0
    5.4604   -6.5527    5.6319 O   0  0  0  0  0  0  0  0  0  0  0  0
    1.8680   -6.4570    3.8906 C   0  0  0  0  0  0  0  0  0  0  0  0
    1.2353   -6.7512    2.7360 C   0  0  0  0  0  0  0  0  0  0  0  0
    1.0730   -8.2503    2.5266 C   0  0  2  0  0  0  0  0  0  0  0  0
   -0.1721   -9.0459    2.9836 C   0  0  0  0  0  0  0  0  0  0  0  0
   -1.3212   -9.1520    2.5560 O   0  0  0  0  0  0  0  0  0  0  0  0
    0.6119   -9.6501    4.1914 C   0  0  2  0  0  0  0  0  0  0  0  0
    0.7162  -11.1751    4.2438 C   0  0  0  0  0  0  0  0  0  0  0  0
    0.0117   -9.0309    5.4427 C   0  0  0  0  0  0  0  0  0  0  0  0
    0.4287   -7.6674    5.3478 O   0  0  0  0  0  0  0  0  0  0  0  0
    1.7313   -7.6241    4.8376 C   0  0  2  0  0  0  0  0  0  0  0  0
    2.6124   -7.6813    5.9278 O   0  0  0  0  0  0  0  0  0  0  0  0
    1.7972   -8.7672    3.8054 C   0  0  1  0  0  0  0  0  0  0  0  0
    7.1758   -6.8730    2.2613 C   0  0  0  0  0  0  0  0  0  0  0  0
    7.9782   -7.6088    1.1804 C   0  0  0  0  0  0  0  0  0  0  0  0
    8.1629   -5.9489    3.0192 C   0  0  0  0  0  0  0  0  0  0  0  0
    6.6172   -7.9283    3.2592 C   0  0  0  0  0  0  0  0  0  0  0  0
    2.7031  -10.9794    2.0934 H   0  0  0  0  0  0  0  0  0  0  0  0
    4.3549  -10.3989    1.9581 H   0  0  0  0  0  0  0  0  0  0  0  0
    3.0943   -9.5018    1.1820 H   0  0  0  0  0  0  0  0  0  0  0  0
    4.3473   -8.8030    5.0231 H   0  0  0  0  0  0  0  0  0  0  0  0
    4.7761   -7.9584    1.3853 H   0  0  0  0  0  0  0  0  0  0  0  0
    3.7921   -6.6909    1.9921 H   0  0  0  0  0  0  0  0  0  0  0  0
    5.9876   -6.3147    0.5305 H   0  0  0  0  0  0  0  0  0  0  0  0
    6.0637   -4.3869    2.8716 H   0  0  0  0  0  0  0  0  0  0  0  0
    6.6326   -2.1133    0.7813 H   0  0  0  0  0  0  0  0  0  0  0  0
    6.8024   -3.6875   -1.5251 H   0  0  0  0  0  0  0  0  0  0  0  0
    3.1510   -1.8877   -0.3135 H   0  0  0  0  0  0  0  0  0  0  0  0
    4.6159   -1.4142   -1.1475 H   0  0  0  0  0  0  0  0  0  0  0  0
    4.4496   -1.0956    0.5714 H   0  0  0  0  0  0  0  0  0  0  0  0
    3.4448   -4.3999   -1.0560 H   0  0  0  0  0  0  0  0  0  0  0  0
    5.0301   -5.1507   -0.9685 H   0  0  0  0  0  0  0  0  0  0  0  0
    4.7565   -3.7838   -2.0309 H   0  0  0  0  0  0  0  0  0  0  0  0
    4.6987   -2.8602    2.1249 H   0  0  0  0  0  0  0  0  0  0  0  0
    2.4846   -3.4299    1.2095 H   0  0  0  0  0  0  0  0  0  0  0  0
    2.8397   -5.0733    1.2414 H   0  0  0  0  0  0  0  0  0  0  0  0
    2.9855   -3.1595    3.6689 H   0  0  0  0  0  0  0  0  0  0  0  0
    1.4763   -3.8321    3.1725 H   0  0  0  0  0  0  0  0  0  0  0  0
    2.4960   -4.9072    5.2003 H   0  0  0  0  0  0  0  0  0  0  0  0
    1.1461   -6.0877    1.8875 H   0  0  0  0  0  0  0  0  0  0  0  0
    1.4374   -8.5631    1.5615 H   0  0  0  0  0  0  0  0  0  0  0  0
    1.5208  -11.4793    4.9183 H   0  0  0  0  0  0  0  0  0  0  0  0
    0.9148  -11.6241    3.2771 H   0  0  0  0  0  0  0  0  0  0  0  0
   -0.1867  -11.6397    4.6353 H   0  0  0  0  0  0  0  0  0  0  0  0
   -1.0744   -9.0614    5.4799 H   0  0  0  0  0  0  0  0  0  0  0  0
    0.4032   -9.4800    6.3520 H   0  0  0  0  0  0  0  0  0  0  0  0
    2.5877   -8.5622    6.2742 H   0  0  0  0  0  0  0  0  0  0  0  0
    8.7550   -8.1812    1.6736 H   0  0  0  0  0  0  0  0  0  0  0  0
    8.4363   -6.9173    0.4715 H   0  0  0  0  0  0  0  0  0  0  0  0
    7.3856   -8.3354    0.6264 H   0  0  0  0  0  0  0  0  0  0  0  0
    9.0106   -6.5160    3.4058 H   0  0  0  0  0  0  0  0  0  0  0  0
    7.7018   -5.4638    3.8770 H   0  0  0  0  0  0  0  0  0  0  0  0
    8.5852   -5.1795    2.3776 H   0  0  0  0  0  0  0  0  0  0  0  0
    7.1763   -7.9585    4.1969 H   0  0  0  0  0  0  0  0  0  0  0  0
    6.7137   -8.9327    2.8419 H   0  0  0  0  0  0  0  0  0  0  0  0
  1  2  1  0
  1 37  1  0
  1 38  1  0
  1 39  1  0
 32  2  1  6
  2  3  2  3
  3  4  1  0
  3 40  1  0
  4 19  1  0
  4 36  1  6
  4  5  1  0
  5  6  1  0
  5 41  1  0
  5 42  1  0
  6  7  1  0
  6 33  1  0
  6 43  1  6
  7 14  1  0
  7  8  1  0
  7 44  1  1
  8  9  1  0
  9 10  1  0
  9 11  1  0
  9 45  1  1
 10 46  1  0
 11 12  1  0
 11 13  1  0
 11 14  1  0
 12 47  1  0
 12 48  1  0
 12 49  1  0
 13 50  1  0
 13 51  1  0
 13 52  1  0
 14 15  1  0
 14 53  1  1
 15 16  1  0
 15 54  1  0
 15 55  1  0
 16 17  1  0
 16 56  1  0
 16 57  1  0
 17 18  1  0
 17 21  1  0
 17 58  1  1
 18 19  1  0
 19 20  2  0
 21 30  1  0
 21 22  2  0
 22 23  1  0
 22 59  1  0
 23 32  1  0
 23 24  1  0
 23 60  1  6
 24 25  2  0
 24 26  1  0
 26 32  1  0
 26 27  1  1
 26 28  1  0
 27 61  1  0
 27 62  1  0
 27 63  1  0
 28 29  1  0
 28 64  1  0
 28 65  1  0
 29 30  1  0
 30 31  1  1
 30 32  1  0
 31 66  1  0
 33 34  1  0
 33 35  1  0
 33 36  1  0
 34 67  1  0
 34 68  1  0
 34 69  1  0
 35 70  1  0
 35 71  1  0
 35 72  1  0
 36 73  1  0
 36 74  1  0
M  END
>  <i_m_ct_stereo_status>  (15) 
1

>  <s_m_source_file>  (15) 
/var/tmp/pbs.5076255.sched01/tmp14hj8t9c/0766azy0n.sdf

>  <i_m_source_file_index>  (15) 
7

>  <i_lp_mmshare_version>  (15) 
48012

>  <i_f3d_flags>  (15) 
0

>  <s_epik_input>  (15) 
W0NAXTEyM1xbQ0hdPUMoXFtDSDNdKVtDQEBdNDVbQ0BASF02W0NIXT1DKFtDQEBdNShbT0hdKU9bQ0gyXVtDQF00KEM2PU8pW0NIM10pW0NAQEhdKE9DMj1PKVtDSDJdW0NIMl1bQ0BIXTdbQ0BASF0oW0NASF0oW0NIMl0xKUMoW0NIM10pKFtDSDNdKVtDSDJdMylPW0NAQEhdKFtPSF0pQzcoW0NIM10pW0NIM10=

>  <s_epik_cmdline>  (15) 
J2VwaWtfcHl0aG9uJywgJy1waHQnLCAnMi4wJywgJy1waCcsICc3LjAnLCAnLXRuJywgJzgnLCAnLW1hJywgJzIwMCcsICctaW1hZScsICc8aW5maWxlLm1hZT4nLCAnLW9tYWUnLCAnPG91dGZpbGUubWFlPic=

>  <r_epik_Ionization_Penalty>  (15) 
0.000817773

>  <r_epik_Ionization_Penalty_Charging>  (15) 
0

>  <r_epik_Ionization_Penalty_Neutral>  (15) 
0.000817773

>  <r_epik_State_Penalty>  (15) 
0.000525884

>  <r_epik_Charging_Adjusted_Penalty>  (15) 
0.000525884

>  <i_epik_Tot_Q>  (15) 
0

>  <i_epik_Tot_abs_Q>  (15) 
0

>  <s_epik_Chemistry_Notes>  (15) 
This compound has an ester and may undergo hydrolysis at high or low pH. This compound contains an acetal/aminal-like group ( X-CH(R)-Y where X, Y are N, S, or O) that may be acid/base labile, releasing an aldehyde.

>  <s_lp_Force_Field>  (15) 
OPLS3e

>  <r_lp_Energy>  (15) 
120.482

>  <b_lp_Chiralities_Consistent>  (15) 
1

>  <s_lp_Variant>  (15) 
4:0-2

>  <s_i_glide_gridfile>  (15) 
pfpi4k_grid

>  <i_i_glide_lignum>  (15) 
7

>  <i_i_glide_rotatable_bonds>  (15) 
2

>  <r_i_docking_score>  (15) 
-2.2188

>  <r_i_glide_ligand_efficiency>  (15) 
-0.0616333

>  <r_i_glide_ligand_efficiency_sa>  (15) 
-0.203509

>  <r_i_glide_ligand_efficiency_ln>  (15) 
-0.484082

>  <r_i_glide_gscore>  (15) 
-2.2188

>  <r_i_glide_lipo>  (15) 
-0.234792

>  <r_i_glide_hbond>  (15) 
0

>  <r_i_glide_metal>  (15) 
-0

>  <r_i_glide_rewards>  (15) 
-0.116885

>  <r_i_glide_evdw>  (15) 
-27.6628

>  <r_i_glide_ecoul>  (15) 
-2.97316

>  <r_i_glide_erotb>  (15) 
0

>  <r_i_glide_esite>  (15) 
-0.0380067

>  <r_i_glide_emodel>  (15) 
-34.1193

>  <r_i_glide_energy>  (15) 
-30.636

>  <r_i_glide_einternal>  (15) 
0.113855

>  <r_i_glide_intrahb_reward>  (15) 
-0

>  <i_i_glide_confnum>  (15) 
2

>  <i_i_glide_posenum>  (15) 
9

>  <r_i_glide_eff_state_penalty>  (15) 
0

>  <ligand_id>  (15) 
4

>  <original_smiles>  (15) 
CC1=CC23CC(C4OC(O)C(C)(C)C4CCC(OC2=O)C2=CC4C(=O)C5(C)COC2(O)C145)C(C)(C)C3

>  <smiles>  (15) 
[H]OC1([H])OC2([H])C([H])(C([H])([H])C([H])([H])C3([H])OC(=O)C4(C([H])=C(C([H])([H])[H])C56C7(O[H])OC([H])([H])C5(C([H])([H])[H])C(=O)C6([H])C([H])=C37)C([H])([H])C2([H])C(C([H])([H])[H])(C([H])([H])[H])C4([H])[H])C1(C([H])([H])[H])C([H])([H])[H]

$$$$
4:1:1
     RDKit          3D

 74 80  0  0  1  0  0  0  0  0999 V2000
    5.0214   -1.9368    5.4003 C   0  0  0  0  0  0  0  0  0  0  0  0
    3.7397   -2.3632    4.6838 C   0  0  0  0  0  0  0  0  0  0  0  0
    2.5822   -2.2689    5.3856 C   0  0  0  0  0  0  0  0  0  0  0  0
    1.8133   -0.9432    5.6183 C   0  0  1  0  0  0  0  0  0  0  0  0
    2.6169    0.3510    5.4043 C   0  0  0  0  0  0  0  0  0  0  0  0
    1.8629    1.4912    6.1183 C   0  0  1  0  0  0  0  0  0  0  0  0
    0.8491    2.3796    5.2937 C   0  0  1  0  0  0  0  0  0  0  0  0
    0.6348    3.5060    6.1570 O   0  0  0  0  0  0  0  0  0  0  0  0
    0.7401    4.7130    5.4725 C   0  0  1  0  0  0  0  0  0  0  0  0
    1.2316    5.7621    6.3035 O   0  0  0  0  0  0  0  0  0  0  0  0
    1.6316    4.4602    4.2533 C   0  0  0  0  0  0  0  0  0  0  0  0
    1.3094    5.5195    3.1779 C   0  0  0  0  0  0  0  0  0  0  0  0
    3.1384    4.5184    4.6157 C   0  0  0  0  0  0  0  0  0  0  0  0
    1.1394    3.0534    3.9031 C   0  0  1  0  0  0  0  0  0  0  0  0
    1.8737    2.3457    2.7321 C   0  0  0  0  0  0  0  0  0  0  0  0
    1.0714    1.3005    1.8991 C   0  0  0  0  0  0  0  0  0  0  0  0
    1.0200   -0.1730    2.3573 C   0  0  2  0  0  0  0  0  0  0  0  0
    0.5133   -0.0501    3.7027 O   0  0  0  0  0  0  0  0  0  0  0  0
    0.5442   -0.9611    4.7110 C   0  0  0  0  0  0  0  0  0  0  0  0
   -0.4176   -1.6810    4.9839 O   0  0  0  0  0  0  0  0  0  0  0  0
    2.3497   -0.9379    2.1641 C   0  0  0  0  0  0  0  0  0  0  0  0
    3.5796   -0.4222    1.9928 C   0  0  0  0  0  0  0  0  0  0  0  0
    4.6775   -1.3304    2.5467 C   0  0  2  0  0  0  0  0  0  0  0  0
    5.3939   -2.4125    1.6951 C   0  0  0  0  0  0  0  0  0  0  0  0
    6.2814   -2.3814    0.8405 O   0  0  0  0  0  0  0  0  0  0  0  0
    4.5786   -3.5628    2.3858 C   0  0  2  0  0  0  0  0  0  0  0  0
    5.3908   -4.6405    3.0845 C   0  0  0  0  0  0  0  0  0  0  0  0
    3.6525   -4.1116    1.3082 C   0  0  0  0  0  0  0  0  0  0  0  0
    2.7289   -3.0408    1.1081 O   0  0  0  0  0  0  0  0  0  0  0  0
    2.4533   -2.4252    2.3426 C   0  0  2  0  0  0  0  0  0  0  0  0
    1.3635   -3.1024    2.9090 O   0  0  0  0  0  0  0  0  0  0  0  0
    3.7774   -2.4835    3.1047 C   0  0  1  0  0  0  0  0  0  0  0  0
    1.2568    0.7513    7.3747 C   0  0  0  0  0  0  0  0  0  0  0  0
    2.0421    1.1509    8.6437 C   0  0  0  0  0  0  0  0  0  0  0  0
   -0.2406    1.0124    7.6684 C   0  0  0  0  0  0  0  0  0  0  0  0
    1.4631   -0.7665    7.1086 C   0  0  0  0  0  0  0  0  0  0  0  0
    5.8195   -2.6643    5.2314 H   0  0  0  0  0  0  0  0  0  0  0  0
    4.8320   -1.9080    6.4748 H   0  0  0  0  0  0  0  0  0  0  0  0
    5.3810   -0.9387    5.1490 H   0  0  0  0  0  0  0  0  0  0  0  0
    1.8327   -2.9773    5.0928 H   0  0  0  0  0  0  0  0  0  0  0  0
    3.5722    0.2474    5.9139 H   0  0  0  0  0  0  0  0  0  0  0  0
    2.8675    0.5384    4.3764 H   0  0  0  0  0  0  0  0  0  0  0  0
    2.6344    2.1710    6.4692 H   0  0  0  0  0  0  0  0  0  0  0  0
   -0.0990    1.8585    5.1819 H   0  0  0  0  0  0  0  0  0  0  0  0
   -0.2706    4.9973    5.1759 H   0  0  0  0  0  0  0  0  0  0  0  0
    2.1386    5.5872    6.4529 H   0  0  0  0  0  0  0  0  0  0  0  0
    1.9003    5.3590    2.2775 H   0  0  0  0  0  0  0  0  0  0  0  0
    1.5259    6.5245    3.5352 H   0  0  0  0  0  0  0  0  0  0  0  0
    0.2611    5.4979    2.8800 H   0  0  0  0  0  0  0  0  0  0  0  0
    3.7494    4.2060    3.7666 H   0  0  0  0  0  0  0  0  0  0  0  0
    3.3984    3.8867    5.4612 H   0  0  0  0  0  0  0  0  0  0  0  0
    3.4408    5.5368    4.8588 H   0  0  0  0  0  0  0  0  0  0  0  0
    0.1412    3.2287    3.4980 H   0  0  0  0  0  0  0  0  0  0  0  0
    2.0826    3.1308    2.0071 H   0  0  0  0  0  0  0  0  0  0  0  0
    2.8701    2.0323    3.0094 H   0  0  0  0  0  0  0  0  0  0  0  0
    0.0506    1.6606    1.7806 H   0  0  0  0  0  0  0  0  0  0  0  0
    1.4683    1.2856    0.8881 H   0  0  0  0  0  0  0  0  0  0  0  0
    0.2761   -0.6909    1.7517 H   0  0  0  0  0  0  0  0  0  0  0  0
    3.7947    0.6150    1.8040 H   0  0  0  0  0  0  0  0  0  0  0  0
    5.3312   -0.8118    3.2163 H   0  0  0  0  0  0  0  0  0  0  0  0
    4.7406   -5.2028    3.7647 H   0  0  0  0  0  0  0  0  0  0  0  0
    6.2015   -4.2526    3.6837 H   0  0  0  0  0  0  0  0  0  0  0  0
    5.8073   -5.3645    2.3850 H   0  0  0  0  0  0  0  0  0  0  0  0
    4.1455   -4.3535    0.3684 H   0  0  0  0  0  0  0  0  0  0  0  0
    3.1155   -5.0008    1.6509 H   0  0  0  0  0  0  0  0  0  0  0  0
    0.6364   -3.0067    2.3249 H   0  0  0  0  0  0  0  0  0  0  0  0
    1.7014    0.5918    9.5173 H   0  0  0  0  0  0  0  0  0  0  0  0
    1.9190    2.2127    8.8649 H   0  0  0  0  0  0  0  0  0  0  0  0
    3.1109    0.9588    8.5299 H   0  0  0  0  0  0  0  0  0  0  0  0
   -0.5609    0.4812    8.5646 H   0  0  0  0  0  0  0  0  0  0  0  0
   -0.8867    0.6786    6.8563 H   0  0  0  0  0  0  0  0  0  0  0  0
   -0.4425    2.0673    7.8519 H   0  0  0  0  0  0  0  0  0  0  0  0
    0.5987   -1.3650    7.4022 H   0  0  0  0  0  0  0  0  0  0  0  0
    2.2904   -1.1455    7.7106 H   0  0  0  0  0  0  0  0  0  0  0  0
  1  2  1  0
  1 37  1  0
  1 38  1  0
  1 39  1  0
 32  2  1  1
  2  3  2  3
  3  4  1  0
  3 40  1  0
  4 19  1  0
  4 36  1  1
  4  5  1  0
  5  6  1  0
  5 41  1  0
  5 42  1  0
  6  7  1  0
  6 33  1  0
  6 43  1  1
  7 14  1  0
  7  8  1  0
  7 44  1  6
  8  9  1  0
  9 10  1  0
  9 11  1  0
  9 45  1  6
 10 46  1  0
 11 12  1  0
 11 13  1  0
 11 14  1  0
 12 47  1  0
 12 48  1  0
 12 49  1  0
 13 50  1  0
 13 51  1  0
 13 52  1  0
 14 15  1  0
 14 53  1  6
 15 16  1  0
 15 54  1  0
 15 55  1  0
 16 17  1  0
 16 56  1  0
 16 57  1  0
 17 18  1  0
 17 21  1  0
 17 58  1  6
 18 19  1  0
 19 20  2  0
 21 30  1  0
 21 22  2  0
 22 23  1  0
 22 59  1  0
 23 32  1  0
 23 24  1  0
 23 60  1  1
 24 25  2  0
 24 26  1  0
 26 32  1  0
 26 27  1  1
 26 28  1  0
 27 61  1  0
 27 62  1  0
 27 63  1  0
 28 29  1  0
 28 64  1  0
 28 65  1  0
 29 30  1  0
 30 31  1  1
 30 32  1  0
 31 66  1  0
 33 34  1  0
 33 35  1  0
 33 36  1  0
 34 67  1  0
 34 68  1  0
 34 69  1  0
 35 70  1  0
 35 71  1  0
 35 72  1  0
 36 73  1  0
 36 74  1  0
M  END
>  <i_m_ct_stereo_status>  (16) 
1

>  <s_m_source_file>  (16) 
/var/tmp/pbs.5076255.sched01/tmp14hj8t9c/0766azy0n.sdf

>  <i_m_source_file_index>  (16) 
7

>  <i_lp_mmshare_version>  (16) 
48012

>  <i_f3d_flags>  (16) 
0

>  <s_epik_input>  (16) 
W0NAXTEyM1xbQ0hdPUMoXFtDSDNdKVtDQEBdNDVbQ0BASF02W0NIXT1DKFtDQEBdNShbT0hdKU9bQ0gyXVtDQF00KEM2PU8pW0NIM10pW0NAQEhdKE9DMj1PKVtDSDJdW0NIMl1bQ0BIXTdbQ0BASF0oW0NASF0oW0NIMl0xKUMoW0NIM10pKFtDSDNdKVtDSDJdMylPW0NAQEhdKFtPSF0pQzcoW0NIM10pW0NIM10=

>  <s_epik_cmdline>  (16) 
J2VwaWtfcHl0aG9uJywgJy1waHQnLCAnMi4wJywgJy1waCcsICc3LjAnLCAnLXRuJywgJzgnLCAnLW1hJywgJzIwMCcsICctaW1hZScsICc8aW5maWxlLm1hZT4nLCAnLW9tYWUnLCAnPG91dGZpbGUubWFlPic=

>  <r_epik_Ionization_Penalty>  (16) 
0.000817773

>  <r_epik_Ionization_Penalty_Charging>  (16) 
0

>  <r_epik_Ionization_Penalty_Neutral>  (16) 
0.000817773

>  <r_epik_State_Penalty>  (16) 
0.000525884

>  <r_epik_Charging_Adjusted_Penalty>  (16) 
0.000525884

>  <i_epik_Tot_Q>  (16) 
0

>  <i_epik_Tot_abs_Q>  (16) 
0

>  <s_epik_Chemistry_Notes>  (16) 
This compound has an ester and may undergo hydrolysis at high or low pH. This compound contains an acetal/aminal-like group ( X-CH(R)-Y where X, Y are N, S, or O) that may be acid/base labile, releasing an aldehyde.

>  <s_lp_Force_Field>  (16) 
OPLS3e

>  <r_lp_Energy>  (16) 
120.482

>  <b_lp_Chiralities_Consistent>  (16) 
1

>  <s_lp_Variant>  (16) 
4:0-2

>  <s_i_glide_gridfile>  (16) 
pfpi4k_grid

>  <i_i_glide_lignum>  (16) 
7

>  <i_i_glide_rotatable_bonds>  (16) 
2

>  <r_i_docking_score>  (16) 
-2.16777

>  <r_i_glide_ligand_efficiency>  (16) 
-0.060216

>  <r_i_glide_ligand_efficiency_sa>  (16) 
-0.198829

>  <r_i_glide_ligand_efficiency_ln>  (16) 
-0.47295

>  <r_i_glide_gscore>  (16) 
-2.16777

>  <r_i_glide_lipo>  (16) 
-0.128353

>  <r_i_glide_hbond>  (16) 
0

>  <r_i_glide_metal>  (16) 
-0

>  <r_i_glide_rewards>  (16) 
-0.0883803

>  <r_i_glide_evdw>  (16) 
-22.4954

>  <r_i_glide_ecoul>  (16) 
-5.35554

>  <r_i_glide_erotb>  (16) 
0

>  <r_i_glide_esite>  (16) 
-0.0229387

>  <r_i_glide_emodel>  (16) 
-31.2535

>  <r_i_glide_energy>  (16) 
-27.851

>  <r_i_glide_einternal>  (16) 
0.0343694

>  <r_i_glide_intrahb_reward>  (16) 
-0

>  <i_i_glide_confnum>  (16) 
1

>  <i_i_glide_posenum>  (16) 
2

>  <r_i_glide_eff_state_penalty>  (16) 
0

>  <ligand_id>  (16) 
4

>  <original_smiles>  (16) 
CC1=CC23CC(C4OC(O)C(C)(C)C4CCC(OC2=O)C2=CC4C(=O)C5(C)COC2(O)C145)C(C)(C)C3

>  <smiles>  (16) 
[H]OC1([H])OC2([H])C([H])(C([H])([H])C([H])([H])C3([H])OC(=O)C4(C([H])=C(C([H])([H])[H])C56C7(O[H])OC([H])([H])C5(C([H])([H])[H])C(=O)C6([H])C([H])=C37)C([H])([H])C2([H])C(C([H])([H])[H])(C([H])([H])[H])C4([H])[H])C1(C([H])([H])[H])C([H])([H])[H]

$$$$
4:1:2
     RDKit          3D

 74 80  0  0  1  0  0  0  0  0999 V2000
    6.0683   -0.3211    3.4193 C   0  0  0  0  0  0  0  0  0  0  0  0
    4.9786   -1.3893    3.4577 C   0  0  0  0  0  0  0  0  0  0  0  0
    4.3921   -1.6321    4.6596 C   0  0  0  0  0  0  0  0  0  0  0  0
    3.3212   -0.7141    5.3008 C   0  0  1  0  0  0  0  0  0  0  0  0
    3.2202    0.7180    4.7510 C   0  0  0  0  0  0  0  0  0  0  0  0
    2.4626    1.5656    5.7983 C   0  0  1  0  0  0  0  0  0  0  0  0
    0.9012    1.7551    5.6529 C   0  0  1  0  0  0  0  0  0  0  0  0
    0.6186    2.8440    6.5466 O   0  0  0  0  0  0  0  0  0  0  0  0
   -0.1844    3.8100    5.9486 C   0  0  1  0  0  0  0  0  0  0  0  0
    0.0878    5.1213    6.4380 O   0  0  0  0  0  0  0  0  0  0  0  0
    0.0223    3.6938    4.4362 C   0  0  0  0  0  0  0  0  0  0  0  0
   -1.2270    4.2549    3.7235 C   0  0  0  0  0  0  0  0  0  0  0  0
    1.2931    4.4486    3.9693 C   0  0  0  0  0  0  0  0  0  0  0  0
    0.1433    2.1707    4.3415 C   0  0  1  0  0  0  0  0  0  0  0  0
    0.4756    1.6127    2.9322 C   0  0  0  0  0  0  0  0  0  0  0  0
   -0.0355    0.1830    2.5792 C   0  0  0  0  0  0  0  0  0  0  0  0
    0.8244   -1.0469    2.9607 C   0  0  2  0  0  0  0  0  0  0  0  0
    1.0243   -0.8552    4.3756 O   0  0  0  0  0  0  0  0  0  0  0  0
    1.9487   -1.4425    5.1826 C   0  0  0  0  0  0  0  0  0  0  0  0
    1.6891   -2.4300    5.8678 O   0  0  0  0  0  0  0  0  0  0  0  0
    2.0842   -1.2261    2.0846 C   0  0  0  0  0  0  0  0  0  0  0  0
    2.6921   -0.2910    1.3354 C   0  0  0  0  0  0  0  0  0  0  0  0
    4.1939   -0.5280    1.1932 C   0  0  2  0  0  0  0  0  0  0  0  0
    4.8311   -1.3599    0.0481 C   0  0  0  0  0  0  0  0  0  0  0  0
    5.1157   -1.1369   -1.1301 O   0  0  0  0  0  0  0  0  0  0  0  0
    5.0665   -2.5771    1.0121 C   0  0  2  0  0  0  0  0  0  0  0  0
    6.5077   -3.0271    1.1338 C   0  0  0  0  0  0  0  0  0  0  0  0
    4.1195   -3.6695    0.5478 C   0  0  0  0  0  0  0  0  0  0  0  0
    2.8289   -3.1481    0.8968 O   0  0  0  0  0  0  0  0  0  0  0  0
    2.9251   -2.4655    2.1271 C   0  0  2  0  0  0  0  0  0  0  0  0
    2.6598   -3.4062    3.1492 O   0  0  0  0  0  0  0  0  0  0  0  0
    4.3061   -1.8075    2.0860 C   0  0  1  0  0  0  0  0  0  0  0  0
    2.9448    0.9238    7.1550 C   0  0  0  0  0  0  0  0  0  0  0  0
    3.9455    1.8704    7.8492 C   0  0  0  0  0  0  0  0  0  0  0  0
    1.8413    0.5942    8.1893 C   0  0  0  0  0  0  0  0  0  0  0  0
    3.6796   -0.3902    6.7614 C   0  0  0  0  0  0  0  0  0  0  0  0
    6.9216   -0.6565    2.8226 H   0  0  0  0  0  0  0  0  0  0  0  0
    6.4202   -0.1307    4.4385 H   0  0  0  0  0  0  0  0  0  0  0  0
    5.7316    0.6359    3.0690 H   0  0  0  0  0  0  0  0  0  0  0  0
    4.0169   -2.6244    4.7583 H   0  0  0  0  0  0  0  0  0  0  0  0
    4.2245    1.1323    4.6901 H   0  0  0  0  0  0  0  0  0  0  0  0
    2.8353    0.7754    3.7539 H   0  0  0  0  0  0  0  0  0  0  0  0
    2.8892    2.5613    5.7232 H   0  0  0  0  0  0  0  0  0  0  0  0
    0.3817    0.8730    6.0263 H   0  0  0  0  0  0  0  0  0  0  0  0
   -1.2177    3.5795    6.2348 H   0  0  0  0  0  0  0  0  0  0  0  0
    0.9589    5.3324    6.1791 H   0  0  0  0  0  0  0  0  0  0  0  0
   -1.1472    4.1824    2.6411 H   0  0  0  0  0  0  0  0  0  0  0  0
   -1.3337    5.3041    3.9624 H   0  0  0  0  0  0  0  0  0  0  0  0
   -2.1438    3.7429    4.0195 H   0  0  0  0  0  0  0  0  0  0  0  0
    1.4920    4.2545    2.9153 H   0  0  0  0  0  0  0  0  0  0  0  0
    2.1789    4.1824    4.5312 H   0  0  0  0  0  0  0  0  0  0  0  0
    1.1594    5.5287    4.0622 H   0  0  0  0  0  0  0  0  0  0  0  0
   -0.8752    1.8250    4.5216 H   0  0  0  0  0  0  0  0  0  0  0  0
   -0.0739    2.2395    2.2271 H   0  0  0  0  0  0  0  0  0  0  0  0
    1.4951    1.8105    2.6433 H   0  0  0  0  0  0  0  0  0  0  0  0
   -1.0157    0.0634    3.0371 H   0  0  0  0  0  0  0  0  0  0  0  0
   -0.2165    0.1523    1.5022 H   0  0  0  0  0  0  0  0  0  0  0  0
    0.2368   -1.9570    2.8300 H   0  0  0  0  0  0  0  0  0  0  0  0
    2.2784    0.6756    1.0980 H   0  0  0  0  0  0  0  0  0  0  0  0
    4.7510    0.3468    1.4367 H   0  0  0  0  0  0  0  0  0  0  0  0
    6.6214   -3.6430    2.0363 H   0  0  0  0  0  0  0  0  0  0  0  0
    7.2047   -2.1977    1.2088 H   0  0  0  0  0  0  0  0  0  0  0  0
    6.8262   -3.6525    0.2957 H   0  0  0  0  0  0  0  0  0  0  0  0
    4.1557   -3.8735   -0.5241 H   0  0  0  0  0  0  0  0  0  0  0  0
    4.2960   -4.6037    1.0786 H   0  0  0  0  0  0  0  0  0  0  0  0
    1.7751   -3.6830    3.0723 H   0  0  0  0  0  0  0  0  0  0  0  0
    4.3639    1.4128    8.7525 H   0  0  0  0  0  0  0  0  0  0  0  0
    3.4664    2.8024    8.1449 H   0  0  0  0  0  0  0  0  0  0  0  0
    4.7844    2.1208    7.1941 H   0  0  0  0  0  0  0  0  0  0  0  0
    2.2729    0.1729    9.0980 H   0  0  0  0  0  0  0  0  0  0  0  0
    1.1311   -0.1434    7.8192 H   0  0  0  0  0  0  0  0  0  0  0  0
    1.2903    1.4786    8.4945 H   0  0  0  0  0  0  0  0  0  0  0  0
    3.4463   -1.2211    7.4378 H   0  0  0  0  0  0  0  0  0  0  0  0
    4.7577   -0.2589    6.8393 H   0  0  0  0  0  0  0  0  0  0  0  0
  1  2  1  0
  1 37  1  0
  1 38  1  0
  1 39  1  0
 32  2  1  1
  2  3  2  3
  3  4  1  0
  3 40  1  0
  4 19  1  0
  4 36  1  1
  4  5  1  0
  5  6  1  0
  5 41  1  0
  5 42  1  0
  6  7  1  0
  6 33  1  0
  6 43  1  1
  7 14  1  0
  7  8  1  0
  7 44  1  1
  8  9  1  0
  9 10  1  0
  9 11  1  0
  9 45  1  6
 10 46  1  0
 11 12  1  0
 11 13  1  0
 11 14  1  0
 12 47  1  0
 12 48  1  0
 12 49  1  0
 13 50  1  0
 13 51  1  0
 13 52  1  0
 14 15  1  0
 14 53  1  1
 15 16  1  0
 15 54  1  0
 15 55  1  0
 16 17  1  0
 16 56  1  0
 16 57  1  0
 17 18  1  0
 17 21  1  0
 17 58  1  1
 18 19  1  0
 19 20  2  0
 21 30  1  0
 21 22  2  0
 22 23  1  0
 22 59  1  0
 23 32  1  0
 23 24  1  0
 23 60  1  1
 24 25  2  0
 24 26  1  0
 26 32  1  0
 26 27  1  1
 26 28  1  0
 27 61  1  0
 27 62  1  0
 27 63  1  0
 28 29  1  0
 28 64  1  0
 28 65  1  0
 29 30  1  0
 30 31  1  1
 30 32  1  0
 31 66  1  0
 33 34  1  0
 33 35  1  0
 33 36  1  0
 34 67  1  0
 34 68  1  0
 34 69  1  0
 35 70  1  0
 35 71  1  0
 35 72  1  0
 36 73  1  0
 36 74  1  0
M  END
>  <i_m_ct_stereo_status>  (17) 
1

>  <s_m_source_file>  (17) 
/var/tmp/pbs.5076255.sched01/tmp14hj8t9c/0766azy0n.sdf

>  <i_m_source_file_index>  (17) 
7

>  <i_lp_mmshare_version>  (17) 
48012

>  <i_f3d_flags>  (17) 
0

>  <s_epik_input>  (17) 
W0NAXTEyM1xbQ0hdPUMoXFtDSDNdKVtDQEBdNDVbQ0BASF02W0NIXT1DKFtDQEBdNShbT0hdKU9bQ0gyXVtDQF00KEM2PU8pW0NIM10pW0NAQEhdKE9DMj1PKVtDSDJdW0NIMl1bQ0BIXTdbQ0BASF0oW0NASF0oW0NIMl0xKUMoW0NIM10pKFtDSDNdKVtDSDJdMylPW0NAQEhdKFtPSF0pQzcoW0NIM10pW0NIM10=

>  <s_epik_cmdline>  (17) 
J2VwaWtfcHl0aG9uJywgJy1waHQnLCAnMi4wJywgJy1waCcsICc3LjAnLCAnLXRuJywgJzgnLCAnLW1hJywgJzIwMCcsICctaW1hZScsICc8aW5maWxlLm1hZT4nLCAnLW9tYWUnLCAnPG91dGZpbGUubWFlPic=

>  <r_epik_Ionization_Penalty>  (17) 
0.000817773

>  <r_epik_Ionization_Penalty_Charging>  (17) 
0

>  <r_epik_Ionization_Penalty_Neutral>  (17) 
0.000817773

>  <r_epik_State_Penalty>  (17) 
0.000525884

>  <r_epik_Charging_Adjusted_Penalty>  (17) 
0.000525884

>  <i_epik_Tot_Q>  (17) 
0

>  <i_epik_Tot_abs_Q>  (17) 
0

>  <s_epik_Chemistry_Notes>  (17) 
This compound has an ester and may undergo hydrolysis at high or low pH. This compound contains an acetal/aminal-like group ( X-CH(R)-Y where X, Y are N, S, or O) that may be acid/base labile, releasing an aldehyde.

>  <s_lp_Force_Field>  (17) 
OPLS3e

>  <r_lp_Energy>  (17) 
120.482

>  <b_lp_Chiralities_Consistent>  (17) 
1

>  <s_lp_Variant>  (17) 
4:0-2

>  <s_i_glide_gridfile>  (17) 
pfpi4k_grid

>  <i_i_glide_lignum>  (17) 
7

>  <i_i_glide_rotatable_bonds>  (17) 
2

>  <r_i_docking_score>  (17) 
-2.05328

>  <r_i_glide_ligand_efficiency>  (17) 
-0.0570355

>  <r_i_glide_ligand_efficiency_sa>  (17) 
-0.188327

>  <r_i_glide_ligand_efficiency_ln>  (17) 
-0.44797

>  <r_i_glide_gscore>  (17) 
-2.05328

>  <r_i_glide_lipo>  (17) 
-0.488472

>  <r_i_glide_hbond>  (17) 
0

>  <r_i_glide_metal>  (17) 
-0

>  <r_i_glide_rewards>  (17) 
-0.00949214

>  <r_i_glide_evdw>  (17) 
-22.8539

>  <r_i_glide_ecoul>  (17) 
-2.62719

>  <r_i_glide_erotb>  (17) 
0

>  <r_i_glide_esite>  (17) 
-0.0185402

>  <r_i_glide_emodel>  (17) 
-28.6603

>  <r_i_glide_energy>  (17) 
-25.4811

>  <r_i_glide_einternal>  (17) 
0.0115744

>  <r_i_glide_intrahb_reward>  (17) 
-0

>  <i_i_glide_confnum>  (17) 
2

>  <i_i_glide_posenum>  (17) 
10

>  <r_i_glide_eff_state_penalty>  (17) 
0

>  <ligand_id>  (17) 
4

>  <original_smiles>  (17) 
CC1=CC23CC(C4OC(O)C(C)(C)C4CCC(OC2=O)C2=CC4C(=O)C5(C)COC2(O)C145)C(C)(C)C3

>  <smiles>  (17) 
[H]OC1([H])OC2([H])C([H])(C([H])([H])C([H])([H])C3([H])OC(=O)C4(C([H])=C(C([H])([H])[H])C56C7(O[H])OC([H])([H])C5(C([H])([H])[H])C(=O)C6([H])C([H])=C37)C([H])([H])C2([H])C(C([H])([H])[H])(C([H])([H])[H])C4([H])[H])C1(C([H])([H])[H])C([H])([H])[H]

$$$$
5:0:0
     RDKit          3D

 16 17  0  0  1  0  0  0  0  0999 V2000
   -2.0598   -8.5697    2.7295 C   0  0  0  0  0  0  0  0  0  0  0  0
   -0.5979   -8.2808    2.4519 C   0  0  0  0  0  0  0  0  0  0  0  0
    0.3844   -9.2105    2.8872 C   0  0  0  0  0  0  0  0  0  0  0  0
    1.7105   -8.9587    2.6185 C   0  0  0  0  0  0  0  0  0  0  0  0
    2.0364   -7.7719    1.9109 C   0  0  0  0  0  0  0  0  0  0  0  0
    3.1605   -7.1959    1.4956 N   0  0  0  0  0  0  0  0  0  0  0  0
    2.7220   -6.0608    0.8802 C   0  0  0  0  0  0  0  0  0  0  0  0
    1.4091   -5.8631    0.8747 N   0  0  0  0  0  0  0  0  0  0  0  0
    0.9506   -6.9591    1.5417 N   0  0  0  0  0  0  0  0  0  0  0  0
   -0.3743   -7.1442    1.7881 N   0  0  0  0  0  0  0  0  0  0  0  0
   -2.1739   -9.5039    3.2779 H   0  0  0  0  0  0  0  0  0  0  0  0
   -2.6102   -8.6598    1.7928 H   0  0  0  0  0  0  0  0  0  0  0  0
   -2.5048   -7.7747    3.3285 H   0  0  0  0  0  0  0  0  0  0  0  0
    0.1002  -10.1124    3.4243 H   0  0  0  0  0  0  0  0  0  0  0  0
    2.4960   -9.6374    2.9364 H   0  0  0  0  0  0  0  0  0  0  0  0
    3.3923   -5.3559    0.4093 H   0  0  0  0  0  0  0  0  0  0  0  0
  1  2  1  0
  1 11  1  0
  1 12  1  0
  1 13  1  0
  2 10  2  0
  2  3  1  0
  3  4  2  0
  3 14  1  0
  4  5  1  0
  4 15  1  0
  5  9  1  0
  5  6  2  0
  6  7  1  0
  7  8  2  0
  7 16  1  0
  8  9  1  0
  9 10  1  0
M  END
>  <i_m_ct_stereo_status>  (18) 
1

>  <s_m_source_file>  (18) 
/var/tmp/pbs.5076255.sched01/tmp14hj8t9c/0766azy0n.sdf

>  <i_m_source_file_index>  (18) 
8

>  <i_lp_mmshare_version>  (18) 
48012

>  <i_f3d_flags>  (18) 
0

>  <s_epik_input>  (18) 
W2NIXTFbY0hdYyhbQ0gzXSlubihjMTIpbltjSF1uMg==

>  <s_epik_cmdline>  (18) 
J2VwaWtfcHl0aG9uJywgJy1waHQnLCAnMi4wJywgJy1waCcsICc3LjAnLCAnLXRuJywgJzgnLCAnLW1hJywgJzIwMCcsICctaW1hZScsICc8aW5maWxlLm1hZT4nLCAnLW9tYWUnLCAnPG91dGZpbGUubWFlPic=

>  <r_lp_tautomer_probability>  (18) 
1

>  <r_epik_Ionization_Penalty>  (18) 
1.82336e-06

>  <r_epik_Ionization_Penalty_Charging>  (18) 
0

>  <r_epik_Ionization_Penalty_Neutral>  (18) 
1.82336e-06

>  <r_epik_State_Penalty>  (18) 
-0

>  <r_epik_Charging_Adjusted_Penalty>  (18) 
0

>  <i_epik_Tot_Q>  (18) 
0

>  <i_epik_Tot_abs_Q>  (18) 
0

>  <s_lp_Force_Field>  (18) 
OPLS3e

>  <r_lp_Energy>  (18) 
12.9984

>  <b_lp_Chiralities_Consistent>  (18) 
1

>  <s_lp_Variant>  (18) 
5:0-1

>  <s_i_glide_gridfile>  (18) 
pfpi4k_grid

>  <i_i_glide_lignum>  (18) 
8

>  <i_i_glide_rotatable_bonds>  (18) 
0

>  <r_i_docking_score>  (18) 
-4.06518

>  <r_i_glide_ligand_efficiency>  (18) 
-0.406518

>  <r_i_glide_ligand_efficiency_sa>  (18) 
-0.875816

>  <r_i_glide_ligand_efficiency_ln>  (18) 
-1.23091

>  <r_i_glide_gscore>  (18) 
-4.06518

>  <r_i_glide_lipo>  (18) 
-0.0562735

>  <r_i_glide_hbond>  (18) 
-0.200008

>  <r_i_glide_metal>  (18) 
-0

>  <r_i_glide_rewards>  (18) 
-2.25

>  <r_i_glide_evdw>  (18) 
-15.3836

>  <r_i_glide_ecoul>  (18) 
-4.57589

>  <r_i_glide_erotb>  (18) 
0

>  <r_i_glide_esite>  (18) 
-0.103333

>  <r_i_glide_emodel>  (18) 
-25.9176

>  <r_i_glide_energy>  (18) 
-19.9595

>  <r_i_glide_einternal>  (18) 
0

>  <r_i_glide_intrahb_reward>  (18) 
-0

>  <i_i_glide_confnum>  (18) 
1

>  <i_i_glide_posenum>  (18) 
2

>  <r_i_glide_eff_state_penalty>  (18) 
0

>  <ligand_id>  (18) 
5

>  <original_smiles>  (18) 
Cc1ccc2ncnn2n1

>  <smiles>  (18) 
[H]c1nc2c([H])c([H])c(C([H])([H])[H])nn2n1

$$$$
5:0:1
     RDKit          3D

 16 17  0  0  1  0  0  0  0  0999 V2000
    3.3774   -9.4207    1.3543 C   0  0  0  0  0  0  0  0  0  0  0  0
    2.1960   -9.1870    2.2763 C   0  0  0  0  0  0  0  0  0  0  0  0
    2.0189  -10.0323    3.4054 C   0  0  0  0  0  0  0  0  0  0  0  0
    0.9480   -9.8198    4.2413 C   0  0  0  0  0  0  0  0  0  0  0  0
    0.0634   -8.7592    3.9270 C   0  0  0  0  0  0  0  0  0  0  0  0
   -1.0263   -8.2532    4.4902 N   0  0  0  0  0  0  0  0  0  0  0  0
   -1.3847   -7.2648    3.6325 C   0  0  0  0  0  0  0  0  0  0  0  0
   -0.5896   -7.0581    2.5879 N   0  0  0  0  0  0  0  0  0  0  0  0
    0.3601   -8.0214    2.7650 N   0  0  0  0  0  0  0  0  0  0  0  0
    1.4106   -8.1713    1.9166 N   0  0  0  0  0  0  0  0  0  0  0  0
    3.9908  -10.2531    1.6980 H   0  0  0  0  0  0  0  0  0  0  0  0
    4.0061   -8.5309    1.3046 H   0  0  0  0  0  0  0  0  0  0  0  0
    3.0335   -9.6611    0.3480 H   0  0  0  0  0  0  0  0  0  0  0  0
    2.7168  -10.8353    3.6192 H   0  0  0  0  0  0  0  0  0  0  0  0
    0.7705  -10.4355    5.1208 H   0  0  0  0  0  0  0  0  0  0  0  0
   -2.2601   -6.6613    3.8090 H   0  0  0  0  0  0  0  0  0  0  0  0
  1  2  1  0
  1 11  1  0
  1 12  1  0
  1 13  1  0
  2 10  2  0
  2  3  1  0
  3  4  2  0
  3 14  1  0
  4  5  1  0
  4 15  1  0
  5  9  1  0
  5  6  2  0
  6  7  1  0
  7  8  2  0
  7 16  1  0
  8  9  1  0
  9 10  1  0
M  END
>  <i_m_ct_stereo_status>  (19) 
1

>  <s_m_source_file>  (19) 
/var/tmp/pbs.5076255.sched01/tmp14hj8t9c/0766azy0n.sdf

>  <i_m_source_file_index>  (19) 
8

>  <i_lp_mmshare_version>  (19) 
48012

>  <i_f3d_flags>  (19) 
0

>  <s_epik_input>  (19) 
W2NIXTFbY0hdYyhbQ0gzXSlubihjMTIpbltjSF1uMg==

>  <s_epik_cmdline>  (19) 
J2VwaWtfcHl0aG9uJywgJy1waHQnLCAnMi4wJywgJy1waCcsICc3LjAnLCAnLXRuJywgJzgnLCAnLW1hJywgJzIwMCcsICctaW1hZScsICc8aW5maWxlLm1hZT4nLCAnLW9tYWUnLCAnPG91dGZpbGUubWFlPic=

>  <r_lp_tautomer_probability>  (19) 
1

>  <r_epik_Ionization_Penalty>  (19) 
1.82336e-06

>  <r_epik_Ionization_Penalty_Charging>  (19) 
0

>  <r_epik_Ionization_Penalty_Neutral>  (19) 
1.82336e-06

>  <r_epik_State_Penalty>  (19) 
-0

>  <r_epik_Charging_Adjusted_Penalty>  (19) 
0

>  <i_epik_Tot_Q>  (19) 
0

>  <i_epik_Tot_abs_Q>  (19) 
0

>  <s_lp_Force_Field>  (19) 
OPLS3e

>  <r_lp_Energy>  (19) 
12.9984

>  <b_lp_Chiralities_Consistent>  (19) 
1

>  <s_lp_Variant>  (19) 
5:0-1

>  <s_i_glide_gridfile>  (19) 
pfpi4k_grid

>  <i_i_glide_lignum>  (19) 
8

>  <i_i_glide_rotatable_bonds>  (19) 
0

>  <r_i_docking_score>  (19) 
-3.64893

>  <r_i_glide_ligand_efficiency>  (19) 
-0.364893

>  <r_i_glide_ligand_efficiency_sa>  (19) 
-0.786138

>  <r_i_glide_ligand_efficiency_ln>  (19) 
-1.10487

>  <r_i_glide_gscore>  (19) 
-3.64893

>  <r_i_glide_lipo>  (19) 
-0.0664146

>  <r_i_glide_hbond>  (19) 
-0.14295

>  <r_i_glide_metal>  (19) 
-0

>  <r_i_glide_rewards>  (19) 
-2.25

>  <r_i_glide_evdw>  (19) 
-15.1696

>  <r_i_glide_ecoul>  (19) 
-1.86212

>  <r_i_glide_erotb>  (19) 
0

>  <r_i_glide_esite>  (19) 
-0.151763

>  <r_i_glide_emodel>  (19) 
-22.3758

>  <r_i_glide_energy>  (19) 
-17.0318

>  <r_i_glide_einternal>  (19) 
0

>  <r_i_glide_intrahb_reward>  (19) 
-0

>  <i_i_glide_confnum>  (19) 
2

>  <i_i_glide_posenum>  (19) 
6

>  <r_i_glide_eff_state_penalty>  (19) 
0

>  <ligand_id>  (19) 
5

>  <original_smiles>  (19) 
Cc1ccc2ncnn2n1

>  <smiles>  (19) 
[H]c1nc2c([H])c([H])c(C([H])([H])[H])nn2n1

$$$$
5:0:2
     RDKit          3D

 16 17  0  0  1  0  0  0  0  0999 V2000
    3.9536   -9.4454    1.6495 C   0  0  0  0  0  0  0  0  0  0  0  0
    2.5162   -9.3253    2.1114 C   0  0  0  0  0  0  0  0  0  0  0  0
    1.9408  -10.3733    2.8816 C   0  0  0  0  0  0  0  0  0  0  0  0
    0.6347  -10.2648    3.3001 C   0  0  0  0  0  0  0  0  0  0  0  0
   -0.0789   -9.1019    2.9304 C   0  0  0  0  0  0  0  0  0  0  0  0
   -1.3101   -8.6549    3.1398 N   0  0  0  0  0  0  0  0  0  0  0  0
   -1.3135   -7.4577    2.5033 C   0  0  0  0  0  0  0  0  0  0  0  0
   -0.1824   -7.0819    1.9190 N   0  0  0  0  0  0  0  0  0  0  0  0
    0.6260   -8.1502    2.1709 N   0  0  0  0  0  0  0  0  0  0  0  0
    1.9098   -8.1989    1.7359 N   0  0  0  0  0  0  0  0  0  0  0  0
    4.3944  -10.3790    1.9969 H   0  0  0  0  0  0  0  0  0  0  0  0
    4.5527   -8.6244    2.0451 H   0  0  0  0  0  0  0  0  0  0  0  0
    4.0096   -9.4287    0.5598 H   0  0  0  0  0  0  0  0  0  0  0  0
    2.5162  -11.2596    3.1382 H   0  0  0  0  0  0  0  0  0  0  0  0
    0.1510  -11.0323    3.8990 H   0  0  0  0  0  0  0  0  0  0  0  0
   -2.1869   -6.8291    2.4908 H   0  0  0  0  0  0  0  0  0  0  0  0
  1  2  1  0
  1 11  1  0
  1 12  1  0
  1 13  1  0
  2 10  2  0
  2  3  1  0
  3  4  2  0
  3 14  1  0
  4  5  1  0
  4 15  1  0
  5  9  1  0
  5  6  2  0
  6  7  1  0
  7  8  2  0
  7 16  1  0
  8  9  1  0
  9 10  1  0
M  END
>  <i_m_ct_stereo_status>  (20) 
1

>  <s_m_source_file>  (20) 
/var/tmp/pbs.5076255.sched01/tmp14hj8t9c/0766azy0n.sdf

>  <i_m_source_file_index>  (20) 
8

>  <i_lp_mmshare_version>  (20) 
48012

>  <i_f3d_flags>  (20) 
0

>  <s_epik_input>  (20) 
W2NIXTFbY0hdYyhbQ0gzXSlubihjMTIpbltjSF1uMg==

>  <s_epik_cmdline>  (20) 
J2VwaWtfcHl0aG9uJywgJy1waHQnLCAnMi4wJywgJy1waCcsICc3LjAnLCAnLXRuJywgJzgnLCAnLW1hJywgJzIwMCcsICctaW1hZScsICc8aW5maWxlLm1hZT4nLCAnLW9tYWUnLCAnPG91dGZpbGUubWFlPic=

>  <r_lp_tautomer_probability>  (20) 
1

>  <r_epik_Ionization_Penalty>  (20) 
1.82336e-06

>  <r_epik_Ionization_Penalty_Charging>  (20) 
0

>  <r_epik_Ionization_Penalty_Neutral>  (20) 
1.82336e-06

>  <r_epik_State_Penalty>  (20) 
-0

>  <r_epik_Charging_Adjusted_Penalty>  (20) 
0

>  <i_epik_Tot_Q>  (20) 
0

>  <i_epik_Tot_abs_Q>  (20) 
0

>  <s_lp_Force_Field>  (20) 
OPLS3e

>  <r_lp_Energy>  (20) 
12.9984

>  <b_lp_Chiralities_Consistent>  (20) 
1

>  <s_lp_Variant>  (20) 
5:0-1

>  <s_i_glide_gridfile>  (20) 
pfpi4k_grid

>  <i_i_glide_lignum>  (20) 
8

>  <i_i_glide_rotatable_bonds>  (20) 
0

>  <r_i_docking_score>  (20) 
-3.62446

>  <r_i_glide_ligand_efficiency>  (20) 
-0.362446

>  <r_i_glide_ligand_efficiency_sa>  (20) 
-0.780867

>  <r_i_glide_ligand_efficiency_ln>  (20) 
-1.09746

>  <r_i_glide_gscore>  (20) 
-3.62446

>  <r_i_glide_lipo>  (20) 
-0.105516

>  <r_i_glide_hbond>  (20) 
-0.0379445

>  <r_i_glide_metal>  (20) 
-0

>  <r_i_glide_rewards>  (20) 
-2.25

>  <r_i_glide_evdw>  (20) 
-17.0911

>  <r_i_glide_ecoul>  (20) 
-1.46423

>  <r_i_glide_erotb>  (20) 
0

>  <r_i_glide_esite>  (20) 
-0.156816

>  <r_i_glide_emodel>  (20) 
-23.8672

>  <r_i_glide_energy>  (20) 
-18.5553

>  <r_i_glide_einternal>  (20) 
0

>  <r_i_glide_intrahb_reward>  (20) 
-0

>  <i_i_glide_confnum>  (20) 
1

>  <i_i_glide_posenum>  (20) 
16

>  <r_i_glide_eff_state_penalty>  (20) 
0

>  <ligand_id>  (20) 
5

>  <original_smiles>  (20) 
Cc1ccc2ncnn2n1

>  <smiles>  (20) 
[H]c1nc2c([H])c([H])c(C([H])([H])[H])nn2n1

$$$$
6:0:0
     RDKit          3D

 57 60  0  0  1  0  0  0  0  0999 V2000
    3.1144   -6.5708    4.0649 C   0  0  0  0  0  0  0  0  0  0  0  0
    3.9991   -6.3653    2.8168 C   0  0  2  0  0  0  0  0  0  0  0  0
    3.9594   -4.9315    2.3200 C   0  0  1  0  0  0  0  0  0  0  0  0
    4.5836   -3.7012    2.9442 C   0  0  0  0  0  0  0  0  0  0  0  0
    4.5597   -2.8306    1.6789 C   0  0  0  0  0  0  0  0  0  0  0  0
    4.6514   -1.5987    1.7568 O   0  0  0  0  0  0  0  0  0  0  0  0
    4.4301   -3.5821    0.5529 N   0  0  0  0  0  0  0  0  0  0  0  0
    4.3855   -3.0906   -0.7950 C   0  0  0  0  0  0  0  0  0  0  0  0
    4.9148   -3.8579   -1.8640 C   0  0  0  0  0  0  0  0  0  0  0  0
    4.8941   -3.3678   -3.1837 C   0  0  0  0  0  0  0  0  0  0  0  0
    4.3135   -2.1210   -3.4703 C   0  0  0  0  0  0  0  0  0  0  0  0
    3.7661   -1.3536   -2.4206 C   0  0  0  0  0  0  0  0  0  0  0  0
    3.8092   -1.8344   -1.0976 C   0  0  0  0  0  0  0  0  0  0  0  0
    4.5823   -4.9994    0.9515 C   0  0  1  0  0  0  0  0  0  0  0  0
    6.0953   -5.3920    0.8826 C   0  0  0  0  0  0  0  0  0  0  0  0
    3.6772   -6.1333    0.4254 C   0  0  0  0  0  0  0  0  0  0  0  0
    3.4904   -7.0384    1.5926 N   0  0  0  0  0  0  0  0  0  0  0  0
    4.0623   -8.3677    1.3781 C   0  0  0  0  0  0  0  0  0  0  0  0
    3.6201   -9.3671    2.4789 C   0  0  0  0  0  0  0  0  0  0  0  0
    4.3406  -10.6576    2.4811 N   0  0  0  0  0  0  0  0  0  0  0  0
    3.7554  -11.5925    3.4724 C   0  0  0  0  0  0  0  0  0  0  0  0
    4.4368  -12.9717    3.4100 C   0  0  0  0  0  0  0  0  0  0  0  0
    5.9591  -12.8496    3.5989 C   0  0  0  0  0  0  0  0  0  0  0  0
    6.5383  -11.8196    2.6220 C   0  0  0  0  0  0  0  0  0  0  0  0
    5.7979  -10.4834    2.7221 C   0  0  0  0  0  0  0  0  0  0  0  0
    3.4149   -5.8677    4.8489 H   0  0  0  0  0  0  0  0  0  0  0  0
    3.1632   -7.5510    4.4889 H   0  0  0  0  0  0  0  0  0  0  0  0
    2.0721   -6.3519    3.8293 H   0  0  0  0  0  0  0  0  0  0  0  0
    5.0337   -6.6308    3.0221 H   0  0  0  0  0  0  0  0  0  0  0  0
    2.8953   -4.6838    2.2309 H   0  0  0  0  0  0  0  0  0  0  0  0
    3.9982   -3.2642    3.7569 H   0  0  0  0  0  0  0  0  0  0  0  0
    5.6115   -3.8491    3.2749 H   0  0  0  0  0  0  0  0  0  0  0  0
    5.3338   -4.8360   -1.7068 H   0  0  0  0  0  0  0  0  0  0  0  0
    5.3222   -3.9728   -3.9666 H   0  0  0  0  0  0  0  0  0  0  0  0
    4.2681   -1.7561   -4.4828 H   0  0  0  0  0  0  0  0  0  0  0  0
    3.2941   -0.4032   -2.6341 H   0  0  0  0  0  0  0  0  0  0  0  0
    3.3482   -1.2256   -0.3341 H   0  0  0  0  0  0  0  0  0  0  0  0
    6.2702   -6.4166    1.2018 H   0  0  0  0  0  0  0  0  0  0  0  0
    6.7255   -4.7472    1.4969 H   0  0  0  0  0  0  0  0  0  0  0  0
    6.4936   -5.3274   -0.1289 H   0  0  0  0  0  0  0  0  0  0  0  0
    2.7003   -5.7394    0.1174 H   0  0  0  0  0  0  0  0  0  0  0  0
    4.1060   -6.6239   -0.4488 H   0  0  0  0  0  0  0  0  0  0  0  0
    3.7746   -8.7558    0.4028 H   0  0  0  0  0  0  0  0  0  0  0  0
    5.1411   -8.2542    1.3502 H   0  0  0  0  0  0  0  0  0  0  0  0
    3.8202   -8.9747    3.4504 H   0  0  0  0  0  0  0  0  0  0  0  0
    2.5370   -9.5373    2.4092 H   0  0  0  0  0  0  0  0  0  0  0  0
    3.8624  -11.1879    4.4808 H   0  0  0  0  0  0  0  0  0  0  0  0
    2.6808  -11.7182    3.3098 H   0  0  0  0  0  0  0  0  0  0  0  0
    4.0159  -13.6320    4.1757 H   0  0  0  0  0  0  0  0  0  0  0  0
    4.2146  -13.4339    2.4469 H   0  0  0  0  0  0  0  0  0  0  0  0
    6.1751  -12.5392    4.6231 H   0  0  0  0  0  0  0  0  0  0  0  0
    6.4353  -13.8175    3.4467 H   0  0  0  0  0  0  0  0  0  0  0  0
    7.6056  -11.6648    2.8169 H   0  0  0  0  0  0  0  0  0  0  0  0
    6.4562  -12.1870    1.5991 H   0  0  0  0  0  0  0  0  0  0  0  0
    6.2664   -9.8108    2.0019 H   0  0  0  0  0  0  0  0  0  0  0  0
    5.9604  -10.0487    3.7111 H   0  0  0  0  0  0  0  0  0  0  0  0
    4.2179  -11.1397    1.5737 H   0  0  0  0  0  0  0  0  0  0  0  0
  1  2  1  0
  1 26  1  0
  1 27  1  0
  1 28  1  0
  2 17  1  0
  2  3  1  0
  2 29  1  1
  3 14  1  0
  3  4  1  0
  3 30  1  6
  4  5  1  0
  4 31  1  0
  4 32  1  0
  5  6  2  0
  5  7  1  0
  7  8  1  0
  7 14  1  0
  8 13  1  0
  8  9  2  0
  9 10  1  0
  9 33  1  0
 10 11  2  0
 10 34  1  0
 11 12  1  0
 11 35  1  0
 12 13  2  0
 12 36  1  0
 13 37  1  0
 14 15  1  1
 14 16  1  0
 15 38  1  0
 15 39  1  0
 15 40  1  0
 16 17  1  0
 16 41  1  0
 16 42  1  0
 17 18  1  0
 18 19  1  0
 18 43  1  0
 18 44  1  0
 19 20  1  0
 19 45  1  0
 19 46  1  0
 20 25  1  0
 20 21  1  0
 20 57  1  0
 21 22  1  0
 21 47  1  0
 21 48  1  0
 22 23  1  0
 22 49  1  0
 22 50  1  0
 23 24  1  0
 23 51  1  0
 23 52  1  0
 24 25  1  0
 24 53  1  0
 24 54  1  0
 25 55  1  0
 25 56  1  0
M  CHG  1  20   1
M  END
>  <i_m_ct_stereo_status>  (21) 
1

>  <s_m_source_file>  (21) 
/var/tmp/pbs.5076255.sched01/tmp14hj8t9c/0766azy0n.sdf

>  <i_m_source_file_index>  (21) 
9

>  <i_lp_mmshare_version>  (21) 
48012

>  <i_f3d_flags>  (21) 
0

>  <s_epik_input>  (21) 
W0NIMl0xW0NIMl1bQ0gyXVtDSDJdW0NIMl1OMVtDSDJdW0NIMl1OKFtDSDJdMilbQ0BIXShbQ0gzXSlbQ0BIXShbQ0BAXTIzW0NIM10pW0NIMl1DKD1PKU4zYzRbY0hdW2NIXVtjSF1bY0hdW2NIXTQ=

>  <s_epik_cmdline>  (21) 
J2VwaWtfcHl0aG9uJywgJy1waHQnLCAnMi4wJywgJy1waCcsICc3LjAnLCAnLXRuJywgJzgnLCAnLW1hJywgJzIwMCcsICctaW1hZScsICc8aW5maWxlLm1hZT4nLCAnLW9tYWUnLCAnPG91dGZpbGUubWFlPic=

>  <r_epik_Ionization_Penalty>  (21) 
0.0309994

>  <r_epik_Ionization_Penalty_Charging>  (21) 
0.00451438

>  <r_epik_Ionization_Penalty_Neutral>  (21) 
0.026485

>  <r_epik_State_Penalty>  (21) 
0.166718

>  <r_epik_Charging_Adjusted_Penalty>  (21) 
0.171232

>  <i_epik_Tot_Q>  (21) 
1

>  <i_epik_Tot_abs_Q>  (21) 
1

>  <s_lp_Force_Field>  (21) 
OPLS3e

>  <r_lp_Energy>  (21) 
61.8515

>  <b_lp_Chiralities_Consistent>  (21) 
1

>  <s_lp_Variant>  (21) 
6:0-1

>  <s_i_glide_gridfile>  (21) 
pfpi4k_grid

>  <i_i_glide_lignum>  (21) 
9

>  <i_i_glide_rotatable_bonds>  (21) 
4

>  <r_i_docking_score>  (21) 
-3.33403

>  <r_i_glide_ligand_efficiency>  (21) 
-0.133361

>  <r_i_glide_ligand_efficiency_sa>  (21) 
-0.38995

>  <r_i_glide_ligand_efficiency_ln>  (21) 
-0.790265

>  <r_i_glide_gscore>  (21) 
-3.33403

>  <r_i_glide_lipo>  (21) 
-0.585863

>  <r_i_glide_hbond>  (21) 
-0.2

>  <r_i_glide_metal>  (21) 
-0

>  <r_i_glide_rewards>  (21) 
-1.13836

>  <r_i_glide_evdw>  (21) 
-25.4071

>  <r_i_glide_ecoul>  (21) 
-4.57388

>  <r_i_glide_erotb>  (21) 
0.64663

>  <r_i_glide_esite>  (21) 
-0.1

>  <r_i_glide_emodel>  (21) 
-36.7426

>  <r_i_glide_energy>  (21) 
-29.981

>  <r_i_glide_einternal>  (21) 
1.98449

>  <r_i_glide_intrahb_reward>  (21) 
-0

>  <i_i_glide_confnum>  (21) 
2

>  <i_i_glide_posenum>  (21) 
40

>  <r_i_glide_eff_state_penalty>  (21) 
0

>  <ligand_id>  (21) 
6

>  <original_smiles>  (21) 
CC1C2CC(=O)N(c3ccccc3)C2(C)CN1CCN1CCCCC1

>  <smiles>  (21) 
[H]c1c([H])c([H])c(N2C(=O)C([H])([H])C3([H])C([H])(C([H])([H])[H])N(C([H])([H])C([H])([H])[N+]4([H])C([H])([H])C([H])([H])C([H])([H])C([H])([H])C4([H])[H])C([H])([H])C23C([H])([H])[H])c([H])c1[H]

$$$$
6:0:1
     RDKit          3D

 57 60  0  0  1  0  0  0  0  0999 V2000
    4.1445   -4.7719    3.8035 C   0  0  0  0  0  0  0  0  0  0  0  0
    4.3218   -4.9728    2.2751 C   0  0  2  0  0  0  0  0  0  0  0  0
    4.6076   -3.6580    1.5872 C   0  0  1  0  0  0  0  0  0  0  0  0
    5.8735   -2.8338    1.6684 C   0  0  0  0  0  0  0  0  0  0  0  0
    5.6274   -2.0069    0.3971 C   0  0  0  0  0  0  0  0  0  0  0  0
    6.2551   -0.9711    0.1979 O   0  0  0  0  0  0  0  0  0  0  0  0
    4.6955   -2.5847   -0.4162 N   0  0  0  0  0  0  0  0  0  0  0  0
    4.2524   -2.0994   -1.7017 C   0  0  0  0  0  0  0  0  0  0  0  0
    4.2682   -0.7160   -2.0235 C   0  0  0  0  0  0  0  0  0  0  0  0
    3.8486   -0.2505   -3.2837 C   0  0  0  0  0  0  0  0  0  0  0  0
    3.4118   -1.1617   -4.2684 C   0  0  0  0  0  0  0  0  0  0  0  0
    3.3836   -2.5269   -3.9592 C   0  0  0  0  0  0  0  0  0  0  0  0
    3.7813   -2.9903   -2.6945 C   0  0  0  0  0  0  0  0  0  0  0  0
    4.4374   -3.9372    0.1186 C   0  0  1  0  0  0  0  0  0  0  0  0
    5.4499   -4.9412   -0.5183 C   0  0  0  0  0  0  0  0  0  0  0  0
    3.0314   -4.5511    0.2533 C   0  0  0  0  0  0  0  0  0  0  0  0
    3.0821   -5.3405    1.5239 N   0  0  0  0  0  0  0  0  0  0  0  0
    2.9808   -6.7794    1.3014 C   0  0  0  0  0  0  0  0  0  0  0  0
    2.6264   -7.5703    2.6068 C   0  0  0  0  0  0  0  0  0  0  0  0
    1.1654   -7.5748    2.9409 N   0  0  0  0  0  0  0  0  0  0  0  0
    0.9217   -8.1086    4.3043 C   0  0  0  0  0  0  0  0  0  0  0  0
   -0.5631   -8.0547    4.7062 C   0  0  0  0  0  0  0  0  0  0  0  0
   -1.4323   -8.7687    3.6595 C   0  0  0  0  0  0  0  0  0  0  0  0
   -1.1532   -8.2245    2.2558 C   0  0  0  0  0  0  0  0  0  0  0  0
    0.3353   -8.3038    1.9182 C   0  0  0  0  0  0  0  0  0  0  0  0
    5.0024   -4.1882    4.1787 H   0  0  0  0  0  0  0  0  0  0  0  0
    4.0975   -5.6731    4.3883 H   0  0  0  0  0  0  0  0  0  0  0  0
    3.2441   -4.1680    3.9905 H   0  0  0  0  0  0  0  0  0  0  0  0
    5.1259   -5.6642    2.0483 H   0  0  0  0  0  0  0  0  0  0  0  0
    3.8139   -2.9724    1.9095 H   0  0  0  0  0  0  0  0  0  0  0  0
    5.9509   -2.1998    2.5585 H   0  0  0  0  0  0  0  0  0  0  0  0
    6.7914   -3.4115    1.5475 H   0  0  0  0  0  0  0  0  0  0  0  0
    4.5658    0.0278   -1.2997 H   0  0  0  0  0  0  0  0  0  0  0  0
    3.8405    0.8039   -3.4836 H   0  0  0  0  0  0  0  0  0  0  0  0
    3.0791   -0.7922   -5.2299 H   0  0  0  0  0  0  0  0  0  0  0  0
    3.0448   -3.2501   -4.6908 H   0  0  0  0  0  0  0  0  0  0  0  0
    3.7116   -4.0508   -2.5197 H   0  0  0  0  0  0  0  0  0  0  0  0
    5.3245   -5.9529   -0.1390 H   0  0  0  0  0  0  0  0  0  0  0  0
    6.4861   -4.6416   -0.3411 H   0  0  0  0  0  0  0  0  0  0  0  0
    5.3370   -5.0283   -1.5992 H   0  0  0  0  0  0  0  0  0  0  0  0
    2.2724   -3.7580    0.2998 H   0  0  0  0  0  0  0  0  0  0  0  0
    2.7681   -5.1402   -0.6310 H   0  0  0  0  0  0  0  0  0  0  0  0
    2.2554   -6.9199    0.4947 H   0  0  0  0  0  0  0  0  0  0  0  0
    3.9176   -7.1646    0.9097 H   0  0  0  0  0  0  0  0  0  0  0  0
    2.9351   -8.6303    2.4589 H   0  0  0  0  0  0  0  0  0  0  0  0
    3.1451   -7.2252    3.4761 H   0  0  0  0  0  0  0  0  0  0  0  0
    1.2714   -9.1403    4.3632 H   0  0  0  0  0  0  0  0  0  0  0  0
    1.5002   -7.5581    5.0548 H   0  0  0  0  0  0  0  0  0  0  0  0
   -0.7028   -8.5328    5.6804 H   0  0  0  0  0  0  0  0  0  0  0  0
   -0.8794   -7.0152    4.8159 H   0  0  0  0  0  0  0  0  0  0  0  0
   -1.1760   -9.8309    3.6573 H   0  0  0  0  0  0  0  0  0  0  0  0
   -2.4966   -8.6758    3.9010 H   0  0  0  0  0  0  0  0  0  0  0  0
   -1.7057   -8.8076    1.5055 H   0  0  0  0  0  0  0  0  0  0  0  0
   -1.4893   -7.1892    2.1766 H   0  0  0  0  0  0  0  0  0  0  0  0
    0.4235   -7.8816    0.9204 H   0  0  0  0  0  0  0  0  0  0  0  0
    0.6630   -9.3429    1.9118 H   0  0  0  0  0  0  0  0  0  0  0  0
    0.8718   -6.6155    2.9502 H   0  0  0  0  0  0  0  0  0  0  0  0
  1  2  1  0
  1 26  1  0
  1 27  1  0
  1 28  1  0
  2 17  1  0
  2  3  1  0
  2 29  1  1
  3 14  1  0
  3  4  1  0
  3 30  1  1
  4  5  1  0
  4 31  1  0
  4 32  1  0
  5  6  2  0
  5  7  1  0
  7  8  1  0
  7 14  1  0
  8 13  1  0
  8  9  2  0
  9 10  1  0
  9 33  1  0
 10 11  2  0
 10 34  1  0
 11 12  1  0
 11 35  1  0
 12 13  2  0
 12 36  1  0
 13 37  1  0
 14 15  1  6
 14 16  1  0
 15 38  1  0
 15 39  1  0
 15 40  1  0
 16 17  1  0
 16 41  1  0
 16 42  1  0
 17 18  1  0
 18 19  1  0
 18 43  1  0
 18 44  1  0
 19 20  1  0
 19 45  1  0
 19 46  1  0
 20 25  1  0
 20 21  1  0
 20 57  1  0
 21 22  1  0
 21 47  1  0
 21 48  1  0
 22 23  1  0
 22 49  1  0
 22 50  1  0
 23 24  1  0
 23 51  1  0
 23 52  1  0
 24 25  1  0
 24 53  1  0
 24 54  1  0
 25 55  1  0
 25 56  1  0
M  CHG  1  20   1
M  END
>  <i_m_ct_stereo_status>  (22) 
1

>  <s_m_source_file>  (22) 
/var/tmp/pbs.5076255.sched01/tmp14hj8t9c/0766azy0n.sdf

>  <i_m_source_file_index>  (22) 
9

>  <i_lp_mmshare_version>  (22) 
48012

>  <i_f3d_flags>  (22) 
0

>  <s_epik_input>  (22) 
W0NIMl0xW0NIMl1bQ0gyXVtDSDJdW0NIMl1OMVtDSDJdW0NIMl1OKFtDSDJdMilbQ0BIXShbQ0gzXSlbQ0BIXShbQ0BAXTIzW0NIM10pW0NIMl1DKD1PKU4zYzRbY0hdW2NIXVtjSF1bY0hdW2NIXTQ=

>  <s_epik_cmdline>  (22) 
J2VwaWtfcHl0aG9uJywgJy1waHQnLCAnMi4wJywgJy1waCcsICc3LjAnLCAnLXRuJywgJzgnLCAnLW1hJywgJzIwMCcsICctaW1hZScsICc8aW5maWxlLm1hZT4nLCAnLW9tYWUnLCAnPG91dGZpbGUubWFlPic=

>  <r_epik_Ionization_Penalty>  (22) 
0.0309994

>  <r_epik_Ionization_Penalty_Charging>  (22) 
0.00451438

>  <r_epik_Ionization_Penalty_Neutral>  (22) 
0.026485

>  <r_epik_State_Penalty>  (22) 
0.166718

>  <r_epik_Charging_Adjusted_Penalty>  (22) 
0.171232

>  <i_epik_Tot_Q>  (22) 
1

>  <i_epik_Tot_abs_Q>  (22) 
1

>  <s_lp_Force_Field>  (22) 
OPLS3e

>  <r_lp_Energy>  (22) 
61.8515

>  <b_lp_Chiralities_Consistent>  (22) 
1

>  <s_lp_Variant>  (22) 
6:0-1

>  <s_i_glide_gridfile>  (22) 
pfpi4k_grid

>  <i_i_glide_lignum>  (22) 
9

>  <i_i_glide_rotatable_bonds>  (22) 
4

>  <r_i_docking_score>  (22) 
-2.93035

>  <r_i_glide_ligand_efficiency>  (22) 
-0.117214

>  <r_i_glide_ligand_efficiency_sa>  (22) 
-0.342736

>  <r_i_glide_ligand_efficiency_ln>  (22) 
-0.69458

>  <r_i_glide_gscore>  (22) 
-2.93035

>  <r_i_glide_lipo>  (22) 
-0.411543

>  <r_i_glide_hbond>  (22) 
-0.00199172

>  <r_i_glide_metal>  (22) 
-0

>  <r_i_glide_rewards>  (22) 
-1.15343

>  <r_i_glide_evdw>  (22) 
-27.2509

>  <r_i_glide_ecoul>  (22) 
-4.12721

>  <r_i_glide_erotb>  (22) 
0.64663

>  <r_i_glide_esite>  (22) 
-0.0283928

>  <r_i_glide_emodel>  (22) 
-37.8923

>  <r_i_glide_energy>  (22) 
-31.3781

>  <r_i_glide_einternal>  (22) 
0.803015

>  <r_i_glide_intrahb_reward>  (22) 
-0

>  <i_i_glide_confnum>  (22) 
1

>  <i_i_glide_posenum>  (22) 
22

>  <r_i_glide_eff_state_penalty>  (22) 
0

>  <ligand_id>  (22) 
6

>  <original_smiles>  (22) 
CC1C2CC(=O)N(c3ccccc3)C2(C)CN1CCN1CCCCC1

>  <smiles>  (22) 
[H]c1c([H])c([H])c(N2C(=O)C([H])([H])C3([H])C([H])(C([H])([H])[H])N(C([H])([H])C([H])([H])[N+]4([H])C([H])([H])C([H])([H])C([H])([H])C([H])([H])C4([H])[H])C([H])([H])C23C([H])([H])[H])c([H])c1[H]

$$$$
6:0:2
     RDKit          3D

 57 60  0  0  1  0  0  0  0  0999 V2000
    3.4300   -5.9517    4.2102 C   0  0  0  0  0  0  0  0  0  0  0  0
    4.2225   -5.8578    2.8854 C   0  0  2  0  0  0  0  0  0  0  0  0
    4.1270   -4.4902    2.2900 C   0  0  1  0  0  0  0  0  0  0  0  0
    4.8100   -3.2207    2.7807 C   0  0  0  0  0  0  0  0  0  0  0  0
    4.6855   -2.4456    1.4630 C   0  0  0  0  0  0  0  0  0  0  0  0
    4.7954   -1.2084    1.4537 O   0  0  0  0  0  0  0  0  0  0  0  0
    4.4524   -3.2657    0.4058 N   0  0  0  0  0  0  0  0  0  0  0  0
    4.2987   -2.8689   -0.9626 C   0  0  0  0  0  0  0  0  0  0  0  0
    4.6968   -3.7339   -2.0246 C   0  0  0  0  0  0  0  0  0  0  0  0
    4.5590   -3.3257   -3.3660 C   0  0  0  0  0  0  0  0  0  0  0  0
    3.9916   -2.0760   -3.6868 C   0  0  0  0  0  0  0  0  0  0  0  0
    3.5727   -1.2195   -2.6414 C   0  0  0  0  0  0  0  0  0  0  0  0
    3.7309   -1.6175   -1.3005 C   0  0  0  0  0  0  0  0  0  0  0  0
    4.6327   -4.6562    0.8844 C   0  0  1  0  0  0  0  0  0  0  0  0
    6.1334   -5.0683    0.7279 C   0  0  0  0  0  0  0  0  0  0  0  0
    3.6804   -5.8245    0.5266 C   0  0  0  0  0  0  0  0  0  0  0  0
    3.6252   -6.6480    1.7811 N   0  0  0  0  0  0  0  0  0  0  0  0
    4.1865   -7.9959    1.6173 C   0  0  0  0  0  0  0  0  0  0  0  0
    4.2651   -8.8156    2.9407 C   0  0  0  0  0  0  0  0  0  0  0  0
    2.9397   -9.3173    3.3855 N   0  0  0  0  0  0  0  0  0  0  0  0
    2.8673   -9.5717    4.8598 C   0  0  0  0  0  0  0  0  0  0  0  0
    1.4589  -10.0017    5.2898 C   0  0  0  0  0  0  0  0  0  0  0  0
    1.0077  -11.2515    4.5241 C   0  0  0  0  0  0  0  0  0  0  0  0
    1.1195  -11.0105    3.0114 C   0  0  0  0  0  0  0  0  0  0  0  0
    2.5262  -10.5302    2.6210 C   0  0  0  0  0  0  0  0  0  0  0  0
    3.8003   -5.1920    4.9110 H   0  0  0  0  0  0  0  0  0  0  0  0
    3.5500   -6.9159    4.6532 H   0  0  0  0  0  0  0  0  0  0  0  0
    2.3721   -5.7253    4.0387 H   0  0  0  0  0  0  0  0  0  0  0  0
    5.2677   -6.1150    3.0279 H   0  0  0  0  0  0  0  0  0  0  0  0
    3.0598   -4.2338    2.2758 H   0  0  0  0  0  0  0  0  0  0  0  0
    4.3012   -2.7355    3.6106 H   0  0  0  0  0  0  0  0  0  0  0  0
    5.8579   -3.3664    3.0330 H   0  0  0  0  0  0  0  0  0  0  0  0
    5.0904   -4.7106   -1.8359 H   0  0  0  0  0  0  0  0  0  0  0  0
    4.8816   -4.0021   -4.1388 H   0  0  0  0  0  0  0  0  0  0  0  0
    3.8431   -1.7855   -4.7078 H   0  0  0  0  0  0  0  0  0  0  0  0
    3.1017   -0.2808   -2.8687 H   0  0  0  0  0  0  0  0  0  0  0  0
    3.3580   -0.9469   -0.5403 H   0  0  0  0  0  0  0  0  0  0  0  0
    6.3315   -6.0776    1.0970 H   0  0  0  0  0  0  0  0  0  0  0  0
    6.8163   -4.3857    1.2436 H   0  0  0  0  0  0  0  0  0  0  0  0
    6.4422   -5.0631   -0.3155 H   0  0  0  0  0  0  0  0  0  0  0  0
    2.6817   -5.4490    0.2829 H   0  0  0  0  0  0  0  0  0  0  0  0
    4.0235   -6.3846   -0.3450 H   0  0  0  0  0  0  0  0  0  0  0  0
    3.6100   -8.5155    0.8549 H   0  0  0  0  0  0  0  0  0  0  0  0
    5.1853   -7.9283    1.2041 H   0  0  0  0  0  0  0  0  0  0  0  0
    4.9041   -9.6960    2.7601 H   0  0  0  0  0  0  0  0  0  0  0  0
    4.7601   -8.2430    3.7263 H   0  0  0  0  0  0  0  0  0  0  0  0
    3.5865  -10.3626    5.1025 H   0  0  0  0  0  0  0  0  0  0  0  0
    3.1325   -8.7053    5.4579 H   0  0  0  0  0  0  0  0  0  0  0  0
    1.4489  -10.2013    6.3625 H   0  0  0  0  0  0  0  0  0  0  0  0
    0.7440   -9.1895    5.1321 H   0  0  0  0  0  0  0  0  0  0  0  0
    1.6423  -12.0923    4.8196 H   0  0  0  0  0  0  0  0  0  0  0  0
   -0.0114  -11.5204    4.8010 H   0  0  0  0  0  0  0  0  0  0  0  0
    0.8698  -11.9418    2.4864 H   0  0  0  0  0  0  0  0  0  0  0  0
    0.3726  -10.2781    2.6932 H   0  0  0  0  0  0  0  0  0  0  0  0
    2.5623  -10.3440    1.5505 H   0  0  0  0  0  0  0  0  0  0  0  0
    3.2404  -11.3308    2.8236 H   0  0  0  0  0  0  0  0  0  0  0  0
    2.2562   -8.5995    3.1704 H   0  0  0  0  0  0  0  0  0  0  0  0
  1  2  1  0
  1 26  1  0
  1 27  1  0
  1 28  1  0
  2 17  1  0
  2  3  1  0
  2 29  1  1
  3 14  1  0
  3  4  1  0
  3 30  1  6
  4  5  1  0
  4 31  1  0
  4 32  1  0
  5  6  2  0
  5  7  1  0
  7  8  1  0
  7 14  1  0
  8 13  1  0
  8  9  2  0
  9 10  1  0
  9 33  1  0
 10 11  2  0
 10 34  1  0
 11 12  1  0
 11 35  1  0
 12 13  2  0
 12 36  1  0
 13 37  1  0
 14 15  1  1
 14 16  1  0
 15 38  1  0
 15 39  1  0
 15 40  1  0
 16 17  1  0
 16 41  1  0
 16 42  1  0
 17 18  1  0
 18 19  1  0
 18 43  1  0
 18 44  1  0
 19 20  1  0
 19 45  1  0
 19 46  1  0
 20 25  1  0
 20 21  1  0
 20 57  1  0
 21 22  1  0
 21 47  1  0
 21 48  1  0
 22 23  1  0
 22 49  1  0
 22 50  1  0
 23 24  1  0
 23 51  1  0
 23 52  1  0
 24 25  1  0
 24 53  1  0
 24 54  1  0
 25 55  1  0
 25 56  1  0
M  CHG  1  20   1
M  END
>  <i_m_ct_stereo_status>  (23) 
1

>  <s_m_source_file>  (23) 
/var/tmp/pbs.5076255.sched01/tmp14hj8t9c/0766azy0n.sdf

>  <i_m_source_file_index>  (23) 
9

>  <i_lp_mmshare_version>  (23) 
48012

>  <i_f3d_flags>  (23) 
0

>  <s_epik_input>  (23) 
W0NIMl0xW0NIMl1bQ0gyXVtDSDJdW0NIMl1OMVtDSDJdW0NIMl1OKFtDSDJdMilbQ0BIXShbQ0gzXSlbQ0BIXShbQ0BAXTIzW0NIM10pW0NIMl1DKD1PKU4zYzRbY0hdW2NIXVtjSF1bY0hdW2NIXTQ=

>  <s_epik_cmdline>  (23) 
J2VwaWtfcHl0aG9uJywgJy1waHQnLCAnMi4wJywgJy1waCcsICc3LjAnLCAnLXRuJywgJzgnLCAnLW1hJywgJzIwMCcsICctaW1hZScsICc8aW5maWxlLm1hZT4nLCAnLW9tYWUnLCAnPG91dGZpbGUubWFlPic=

>  <r_epik_Ionization_Penalty>  (23) 
0.0309994

>  <r_epik_Ionization_Penalty_Charging>  (23) 
0.00451438

>  <r_epik_Ionization_Penalty_Neutral>  (23) 
0.026485

>  <r_epik_State_Penalty>  (23) 
0.166718

>  <r_epik_Charging_Adjusted_Penalty>  (23) 
0.171232

>  <i_epik_Tot_Q>  (23) 
1

>  <i_epik_Tot_abs_Q>  (23) 
1

>  <s_lp_Force_Field>  (23) 
OPLS3e

>  <r_lp_Energy>  (23) 
61.8515

>  <b_lp_Chiralities_Consistent>  (23) 
1

>  <s_lp_Variant>  (23) 
6:0-1

>  <s_i_glide_gridfile>  (23) 
pfpi4k_grid

>  <i_i_glide_lignum>  (23) 
9

>  <i_i_glide_rotatable_bonds>  (23) 
4

>  <r_i_docking_score>  (23) 
-2.90686

>  <r_i_glide_ligand_efficiency>  (23) 
-0.116274

>  <r_i_glide_ligand_efficiency_sa>  (23) 
-0.339989

>  <r_i_glide_ligand_efficiency_ln>  (23) 
-0.689013

>  <r_i_glide_gscore>  (23) 
-2.90686

>  <r_i_glide_lipo>  (23) 
-0.784449

>  <r_i_glide_hbond>  (23) 
0

>  <r_i_glide_metal>  (23) 
-0

>  <r_i_glide_rewards>  (23) 
-1.13684

>  <r_i_glide_evdw>  (23) 
-26.0627

>  <r_i_glide_ecoul>  (23) 
-2.13988

>  <r_i_glide_erotb>  (23) 
0.64663

>  <r_i_glide_esite>  (23) 
-0.00808183

>  <r_i_glide_emodel>  (23) 
-34.0706

>  <r_i_glide_energy>  (23) 
-28.2026

>  <r_i_glide_einternal>  (23) 
1.92062

>  <r_i_glide_intrahb_reward>  (23) 
-0

>  <i_i_glide_confnum>  (23) 
2

>  <i_i_glide_posenum>  (23) 
30

>  <r_i_glide_eff_state_penalty>  (23) 
0

>  <ligand_id>  (23) 
6

>  <original_smiles>  (23) 
CC1C2CC(=O)N(c3ccccc3)C2(C)CN1CCN1CCCCC1

>  <smiles>  (23) 
[H]c1c([H])c([H])c(N2C(=O)C([H])([H])C3([H])C([H])(C([H])([H])[H])N(C([H])([H])C([H])([H])[N+]4([H])C([H])([H])C([H])([H])C([H])([H])C([H])([H])C4([H])[H])C([H])([H])C23C([H])([H])[H])c([H])c1[H]

$$$$
6:1:0
     RDKit          3D

 57 60  0  0  1  0  0  0  0  0999 V2000
    4.3308   -4.7198    4.0234 C   0  0  0  0  0  0  0  0  0  0  0  0
    4.4684   -4.9594    2.5054 C   0  0  2  0  0  0  0  0  0  0  0  0
    4.8103   -3.6896    1.7590 C   0  0  1  0  0  0  0  0  0  0  0  0
    6.1082   -2.9092    1.7263 C   0  0  0  0  0  0  0  0  0  0  0  0
    5.8460   -2.1674    0.4122 C   0  0  0  0  0  0  0  0  0  0  0  0
    6.4763   -1.1528    0.1125 O   0  0  0  0  0  0  0  0  0  0  0  0
    4.8769   -2.7777   -0.3304 N   0  0  0  0  0  0  0  0  0  0  0  0
    4.3947   -2.3310   -1.6024 C   0  0  0  0  0  0  0  0  0  0  0  0
    4.2538   -0.9538   -1.8933 C   0  0  0  0  0  0  0  0  0  0  0  0
    3.8097   -0.5162   -3.1603 C   0  0  0  0  0  0  0  0  0  0  0  0
    3.5031   -1.4477   -4.1613 C   0  0  0  0  0  0  0  0  0  0  0  0
    3.6322   -2.8254   -3.8860 C   0  0  0  0  0  0  0  0  0  0  0  0
    4.0586   -3.2517   -2.6181 C   0  0  0  0  0  0  0  0  0  0  0  0
    4.5729   -4.0673    0.3165 C   0  0  1  0  0  0  0  0  0  0  0  0
    5.5290   -5.1704   -0.2581 C   0  0  0  0  0  0  0  0  0  0  0  0
    3.1427   -4.6116    0.5042 C   0  0  0  0  0  0  0  0  0  0  0  0
    3.1945   -5.3493    1.8234 N   0  0  1  0  0  0  0  0  0  0  0  0
    2.9825   -6.8130    1.7500 C   0  0  0  0  0  0  0  0  0  0  0  0
    1.5372   -7.1837    1.3179 C   0  0  0  0  0  0  0  0  0  0  0  0
    0.6052   -7.2875    2.4434 N   0  0  0  0  0  0  0  0  0  0  0  0
   -0.7594   -7.3737    1.9141 C   0  0  0  0  0  0  0  0  0  0  0  0
   -1.7756   -7.4013    3.0683 C   0  0  0  0  0  0  0  0  0  0  0  0
   -1.5228   -8.5982    3.9806 C   0  0  0  0  0  0  0  0  0  0  0  0
   -0.0594   -8.6011    4.4220 C   0  0  0  0  0  0  0  0  0  0  0  0
    0.8743   -8.5205    3.2078 C   0  0  0  0  0  0  0  0  0  0  0  0
    5.2906   -4.3676    4.4165 H   0  0  0  0  0  0  0  0  0  0  0  0
    4.0786   -5.6438    4.5496 H   0  0  0  0  0  0  0  0  0  0  0  0
    3.5801   -3.9616    4.2570 H   0  0  0  0  0  0  0  0  0  0  0  0
    5.2540   -5.6998    2.3472 H   0  0  0  0  0  0  0  0  0  0  0  0
    4.0615   -2.9524    2.0742 H   0  0  0  0  0  0  0  0  0  0  0  0
    6.2123   -2.2295    2.5746 H   0  0  0  0  0  0  0  0  0  0  0  0
    6.9975   -3.5388    1.6426 H   0  0  0  0  0  0  0  0  0  0  0  0
    4.4706   -0.2189   -1.1340 H   0  0  0  0  0  0  0  0  0  0  0  0
    3.6895    0.5418   -3.3427 H   0  0  0  0  0  0  0  0  0  0  0  0
    3.1468   -1.1152   -5.1256 H   0  0  0  0  0  0  0  0  0  0  0  0
    3.3999   -3.5680   -4.6302 H   0  0  0  0  0  0  0  0  0  0  0  0
    4.1403   -4.3027   -2.4580 H   0  0  0  0  0  0  0  0  0  0  0  0
    5.3926   -6.1426    0.2183 H   0  0  0  0  0  0  0  0  0  0  0  0
    6.5857   -4.9045   -0.1391 H   0  0  0  0  0  0  0  0  0  0  0  0
    5.3706   -5.3536   -1.3130 H   0  0  0  0  0  0  0  0  0  0  0  0
    2.4138   -3.7976    0.5730 H   0  0  0  0  0  0  0  0  0  0  0  0
    2.8510   -5.2461   -0.3283 H   0  0  0  0  0  0  0  0  0  0  0  0
    3.6920   -7.2652    1.0544 H   0  0  0  0  0  0  0  0  0  0  0  0
    3.2316   -7.2252    2.7303 H   0  0  0  0  0  0  0  0  0  0  0  0
    1.1622   -6.4652    0.5785 H   0  0  0  0  0  0  0  0  0  0  0  0
    1.5488   -8.1476    0.8124 H   0  0  0  0  0  0  0  0  0  0  0  0
   -0.9609   -6.5138    1.2768 H   0  0  0  0  0  0  0  0  0  0  0  0
   -0.8768   -8.2584    1.2841 H   0  0  0  0  0  0  0  0  0  0  0  0
   -1.7069   -6.4884    3.6573 H   0  0  0  0  0  0  0  0  0  0  0  0
   -2.7827   -7.4548    2.6654 H   0  0  0  0  0  0  0  0  0  0  0  0
   -2.1778   -8.5813    4.8519 H   0  0  0  0  0  0  0  0  0  0  0  0
   -1.7429   -9.5110    3.4300 H   0  0  0  0  0  0  0  0  0  0  0  0
    0.1368   -7.7587    5.0867 H   0  0  0  0  0  0  0  0  0  0  0  0
    0.1526   -9.5058    4.9900 H   0  0  0  0  0  0  0  0  0  0  0  0
    0.7479   -9.4030    2.5719 H   0  0  0  0  0  0  0  0  0  0  0  0
    1.8952   -8.5534    3.5872 H   0  0  0  0  0  0  0  0  0  0  0  0
    2.4414   -4.9839    2.3930 H   0  0  0  0  0  0  0  0  0  0  0  0
  1  2  1  0
  1 26  1  0
  1 27  1  0
  1 28  1  0
  2 17  1  0
  2  3  1  0
  2 29  1  1
  3 14  1  0
  3  4  1  0
  3 30  1  1
  4  5  1  0
  4 31  1  0
  4 32  1  0
  5  6  2  0
  5  7  1  0
  7  8  1  0
  7 14  1  0
  8 13  1  0
  8  9  2  0
  9 10  1  0
  9 33  1  0
 10 11  2  0
 10 34  1  0
 11 12  1  0
 11 35  1  0
 12 13  2  0
 12 36  1  0
 13 37  1  0
 14 15  1  6
 14 16  1  0
 15 38  1  0
 15 39  1  0
 15 40  1  0
 16 17  1  0
 16 41  1  0
 16 42  1  0
 17 18  1  0
 17 57  1  1
 18 19  1  0
 18 43  1  0
 18 44  1  0
 19 20  1  0
 19 45  1  0
 19 46  1  0
 20 25  1  0
 20 21  1  0
 21 22  1  0
 21 47  1  0
 21 48  1  0
 22 23  1  0
 22 49  1  0
 22 50  1  0
 23 24  1  0
 23 51  1  0
 23 52  1  0
 24 25  1  0
 24 53  1  0
 24 54  1  0
 25 55  1  0
 25 56  1  0
M  CHG  1  17   1
M  END
>  <i_m_ct_stereo_status>  (24) 
1

>  <s_m_source_file>  (24) 
/var/tmp/pbs.5076255.sched01/tmp14hj8t9c/0766azy0n.sdf

>  <i_m_source_file_index>  (24) 
10

>  <i_lp_mmshare_version>  (24) 
48012

>  <i_f3d_flags>  (24) 
0

>  <s_epik_input>  (24) 
W0NIMl0xW0NIMl1bQ0gyXVtDSDJdW0NIMl1OMVtDSDJdW0NIMl1OKFtDSDJdMilbQ0BIXShbQ0gzXSlbQ0BIXShbQ0BAXTIzW0NIM10pW0NIMl1DKD1PKU4zYzRbY0hdW2NIXVtjSF1bY0hdW2NIXTQ=

>  <s_epik_cmdline>  (24) 
J2VwaWtfcHl0aG9uJywgJy1waHQnLCAnMi4wJywgJy1waCcsICc3LjAnLCAnLXRuJywgJzgnLCAnLW1hJywgJzIwMCcsICctaW1hZScsICc8aW5maWxlLm1hZT4nLCAnLW9tYWUnLCAnPG91dGZpbGUubWFlPic=

>  <r_epik_Ionization_Penalty>  (24) 
0.237238

>  <r_epik_Ionization_Penalty_Charging>  (24) 
0.00553348

>  <r_epik_Ionization_Penalty_Neutral>  (24) 
0.231704

>  <r_epik_State_Penalty>  (24) 
0.973929

>  <r_epik_Charging_Adjusted_Penalty>  (24) 
0.979462

>  <i_epik_Tot_Q>  (24) 
1

>  <i_epik_Tot_abs_Q>  (24) 
1

>  <s_lp_Force_Field>  (24) 
OPLS3e

>  <r_lp_Energy>  (24) 
49.3082

>  <b_lp_Chiralities_Consistent>  (24) 
1

>  <s_lp_Variant>  (24) 
6:0-2

>  <s_i_glide_gridfile>  (24) 
pfpi4k_grid

>  <i_i_glide_lignum>  (24) 
10

>  <i_i_glide_rotatable_bonds>  (24) 
4

>  <r_i_docking_score>  (24) 
-3.02088

>  <r_i_glide_ligand_efficiency>  (24) 
-0.120835

>  <r_i_glide_ligand_efficiency_sa>  (24) 
-0.353325

>  <r_i_glide_ligand_efficiency_ln>  (24) 
-0.71604

>  <r_i_glide_gscore>  (24) 
-3.02088

>  <r_i_glide_lipo>  (24) 
-0.433572

>  <r_i_glide_hbond>  (24) 
-0.0331458

>  <r_i_glide_metal>  (24) 
-0

>  <r_i_glide_rewards>  (24) 
-1.15903

>  <r_i_glide_evdw>  (24) 
-29.289

>  <r_i_glide_ecoul>  (24) 
-3.84874

>  <r_i_glide_erotb>  (24) 
0.64663

>  <r_i_glide_esite>  (24) 
0

>  <r_i_glide_emodel>  (24) 
-38.4556

>  <r_i_glide_energy>  (24) 
-33.1378

>  <r_i_glide_einternal>  (24) 
0.936429

>  <r_i_glide_intrahb_reward>  (24) 
-0

>  <i_i_glide_confnum>  (24) 
4

>  <i_i_glide_posenum>  (24) 
36

>  <r_i_glide_eff_state_penalty>  (24) 
0

>  <ligand_id>  (24) 
6

>  <original_smiles>  (24) 
CC1C2CC(=O)N(c3ccccc3)C2(C)CN1CCN1CCCCC1

>  <smiles>  (24) 
[H]c1c([H])c([H])c(N2C(=O)C([H])([H])C3([H])C2(C([H])([H])[H])C([H])([H])[N+]([H])(C([H])([H])C([H])([H])N2C([H])([H])C([H])([H])C([H])([H])C([H])([H])C2([H])[H])C3([H])C([H])([H])[H])c([H])c1[H]

$$$$
6:1:1
     RDKit          3D

 57 60  0  0  1  0  0  0  0  0999 V2000
    6.9466   -5.2015    0.9340 C   0  0  0  0  0  0  0  0  0  0  0  0
    5.6147   -5.2432    1.7039 C   0  0  2  0  0  0  0  0  0  0  0  0
    5.2817   -6.6373    2.1727 C   0  0  1  0  0  0  0  0  0  0  0  0
    5.9210   -7.4698    3.2658 C   0  0  0  0  0  0  0  0  0  0  0  0
    4.7402   -8.4216    3.4727 C   0  0  0  0  0  0  0  0  0  0  0  0
    4.8981   -9.4975    4.0356 O   0  0  0  0  0  0  0  0  0  0  0  0
    3.5690   -7.9047    2.9764 N   0  0  0  0  0  0  0  0  0  0  0  0
    2.2910   -8.5529    2.9871 C   0  0  0  0  0  0  0  0  0  0  0  0
    1.0935   -7.7855    3.1300 C   0  0  0  0  0  0  0  0  0  0  0  0
   -0.1626   -8.4197    3.1993 C   0  0  0  0  0  0  0  0  0  0  0  0
   -0.2567   -9.8161    3.0709 C   0  0  0  0  0  0  0  0  0  0  0  0
    0.9075  -10.5904    2.9048 C   0  0  0  0  0  0  0  0  0  0  0  0
    2.1692   -9.9605    2.8616 C   0  0  0  0  0  0  0  0  0  0  0  0
    3.8389   -6.5131    2.5996 C   0  0  1  0  0  0  0  0  0  0  0  0
    3.5658   -5.5840    3.8402 C   0  0  0  0  0  0  0  0  0  0  0  0
    3.3214   -5.8725    1.2955 C   0  0  0  0  0  0  0  0  0  0  0  0
    4.4133   -4.9164    0.8864 N   0  0  1  0  0  0  0  0  0  0  0  0
    4.0560   -3.4825    0.8763 C   0  0  0  0  0  0  0  0  0  0  0  0
    2.9393   -3.1421   -0.1336 C   0  0  0  0  0  0  0  0  0  0  0  0
    3.4754   -2.8841   -1.4689 N   0  0  0  0  0  0  0  0  0  0  0  0
    2.4327   -3.1580   -2.4679 C   0  0  0  0  0  0  0  0  0  0  0  0
    2.9876   -2.9782   -3.8888 C   0  0  0  0  0  0  0  0  0  0  0  0
    3.5012   -1.5482   -4.0914 C   0  0  0  0  0  0  0  0  0  0  0  0
    4.4836   -1.2035   -2.9679 C   0  0  0  0  0  0  0  0  0  0  0  0
    3.8740   -1.4727   -1.5857 C   0  0  0  0  0  0  0  0  0  0  0  0
    7.7512   -5.5329    1.5890 H   0  0  0  0  0  0  0  0  0  0  0  0
    7.1856   -4.1933    0.5950 H   0  0  0  0  0  0  0  0  0  0  0  0
    6.9404   -5.8768    0.0835 H   0  0  0  0  0  0  0  0  0  0  0  0
    5.7064   -4.5854    2.5713 H   0  0  0  0  0  0  0  0  0  0  0  0
    5.3354   -7.2730    1.2806 H   0  0  0  0  0  0  0  0  0  0  0  0
    6.8236   -8.0002    2.9503 H   0  0  0  0  0  0  0  0  0  0  0  0
    6.1206   -6.9137    4.1846 H   0  0  0  0  0  0  0  0  0  0  0  0
    1.0847   -6.7175    3.2182 H   0  0  0  0  0  0  0  0  0  0  0  0
   -1.0469   -7.8279    3.3563 H   0  0  0  0  0  0  0  0  0  0  0  0
   -1.2319  -10.2612    3.1072 H   0  0  0  0  0  0  0  0  0  0  0  0
    0.8446  -11.6631    2.8047 H   0  0  0  0  0  0  0  0  0  0  0  0
    3.0382  -10.5889    2.7148 H   0  0  0  0  0  0  0  0  0  0  0  0
    3.7827   -4.5366    3.6347 H   0  0  0  0  0  0  0  0  0  0  0  0
    4.1525   -5.8779    4.7169 H   0  0  0  0  0  0  0  0  0  0  0  0
    2.5325   -5.5834    4.1806 H   0  0  0  0  0  0  0  0  0  0  0  0
    3.1771   -6.6194    0.5116 H   0  0  0  0  0  0  0  0  0  0  0  0
    2.3586   -5.3984    1.4609 H   0  0  0  0  0  0  0  0  0  0  0  0
    3.7303   -3.1757    1.8685 H   0  0  0  0  0  0  0  0  0  0  0  0
    4.9478   -2.8854    0.6778 H   0  0  0  0  0  0  0  0  0  0  0  0
    2.2001   -3.9494   -0.1766 H   0  0  0  0  0  0  0  0  0  0  0  0
    2.3816   -2.2760    0.2209 H   0  0  0  0  0  0  0  0  0  0  0  0
    2.0734   -4.1796   -2.3524 H   0  0  0  0  0  0  0  0  0  0  0  0
    1.5664   -2.5154   -2.3155 H   0  0  0  0  0  0  0  0  0  0  0  0
    3.7917   -3.6958   -4.0585 H   0  0  0  0  0  0  0  0  0  0  0  0
    2.2052   -3.2074   -4.6086 H   0  0  0  0  0  0  0  0  0  0  0  0
    3.9763   -1.4333   -5.0647 H   0  0  0  0  0  0  0  0  0  0  0  0
    2.6620   -0.8511   -4.0732 H   0  0  0  0  0  0  0  0  0  0  0  0
    5.3899   -1.8011   -3.0760 H   0  0  0  0  0  0  0  0  0  0  0  0
    4.7622   -0.1544   -3.0393 H   0  0  0  0  0  0  0  0  0  0  0  0
    3.0142   -0.8200   -1.4310 H   0  0  0  0  0  0  0  0  0  0  0  0
    4.6014   -1.2091   -0.8174 H   0  0  0  0  0  0  0  0  0  0  0  0
    4.6300   -5.1402   -0.0901 H   0  0  0  0  0  0  0  0  0  0  0  0
  1  2  1  0
  1 26  1  0
  1 27  1  0
  1 28  1  0
  2 17  1  0
  2  3  1  0
  2 29  1  1
  3 14  1  0
  3  4  1  0
  3 30  1  6
  4  5  1  0
  4 31  1  0
  4 32  1  0
  5  6  2  0
  5  7  1  0
  7  8  1  0
  7 14  1  0
  8 13  1  0
  8  9  2  0
  9 10  1  0
  9 33  1  0
 10 11  2  0
 10 34  1  0
 11 12  1  0
 11 35  1  0
 12 13  2  0
 12 36  1  0
 13 37  1  0
 14 15  1  1
 14 16  1  0
 15 38  1  0
 15 39  1  0
 15 40  1  0
 16 17  1  0
 16 41  1  0
 16 42  1  0
 17 18  1  0
 17 57  1  6
 18 19  1  0
 18 43  1  0
 18 44  1  0
 19 20  1  0
 19 45  1  0
 19 46  1  0
 20 25  1  0
 20 21  1  0
 21 22  1  0
 21 47  1  0
 21 48  1  0
 22 23  1  0
 22 49  1  0
 22 50  1  0
 23 24  1  0
 23 51  1  0
 23 52  1  0
 24 25  1  0
 24 53  1  0
 24 54  1  0
 25 55  1  0
 25 56  1  0
M  CHG  1  17   1
M  END
>  <i_m_ct_stereo_status>  (25) 
1

>  <s_m_source_file>  (25) 
/var/tmp/pbs.5076255.sched01/tmp14hj8t9c/0766azy0n.sdf

>  <i_m_source_file_index>  (25) 
10

>  <i_lp_mmshare_version>  (25) 
48012

>  <i_f3d_flags>  (25) 
0

>  <s_epik_input>  (25) 
W0NIMl0xW0NIMl1bQ0gyXVtDSDJdW0NIMl1OMVtDSDJdW0NIMl1OKFtDSDJdMilbQ0BIXShbQ0gzXSlbQ0BIXShbQ0BAXTIzW0NIM10pW0NIMl1DKD1PKU4zYzRbY0hdW2NIXVtjSF1bY0hdW2NIXTQ=

>  <s_epik_cmdline>  (25) 
J2VwaWtfcHl0aG9uJywgJy1waHQnLCAnMi4wJywgJy1waCcsICc3LjAnLCAnLXRuJywgJzgnLCAnLW1hJywgJzIwMCcsICctaW1hZScsICc8aW5maWxlLm1hZT4nLCAnLW9tYWUnLCAnPG91dGZpbGUubWFlPic=

>  <r_epik_Ionization_Penalty>  (25) 
0.237238

>  <r_epik_Ionization_Penalty_Charging>  (25) 
0.00553348

>  <r_epik_Ionization_Penalty_Neutral>  (25) 
0.231704

>  <r_epik_State_Penalty>  (25) 
0.973929

>  <r_epik_Charging_Adjusted_Penalty>  (25) 
0.979462

>  <i_epik_Tot_Q>  (25) 
1

>  <i_epik_Tot_abs_Q>  (25) 
1

>  <s_lp_Force_Field>  (25) 
OPLS3e

>  <r_lp_Energy>  (25) 
49.3082

>  <b_lp_Chiralities_Consistent>  (25) 
1

>  <s_lp_Variant>  (25) 
6:0-2

>  <s_i_glide_gridfile>  (25) 
pfpi4k_grid

>  <i_i_glide_lignum>  (25) 
10

>  <i_i_glide_rotatable_bonds>  (25) 
4

>  <r_i_docking_score>  (25) 
-2.5535

>  <r_i_glide_ligand_efficiency>  (25) 
-0.10214

>  <r_i_glide_ligand_efficiency_sa>  (25) 
-0.298659

>  <r_i_glide_ligand_efficiency_ln>  (25) 
-0.605256

>  <r_i_glide_gscore>  (25) 
-2.5535

>  <r_i_glide_lipo>  (25) 
-0.618571

>  <r_i_glide_hbond>  (25) 
0

>  <r_i_glide_metal>  (25) 
-0

>  <r_i_glide_rewards>  (25) 
-1.07388

>  <r_i_glide_evdw>  (25) 
-25.3394

>  <r_i_glide_ecoul>  (25) 
-1.5925

>  <r_i_glide_erotb>  (25) 
0.64663

>  <r_i_glide_esite>  (25) 
-0.00183798

>  <r_i_glide_emodel>  (25) 
-31.0447

>  <r_i_glide_energy>  (25) 
-26.9319

>  <r_i_glide_einternal>  (25) 
1.43935

>  <r_i_glide_intrahb_reward>  (25) 
-0

>  <i_i_glide_confnum>  (25) 
4

>  <i_i_glide_posenum>  (25) 
4

>  <r_i_glide_eff_state_penalty>  (25) 
0

>  <ligand_id>  (25) 
6

>  <original_smiles>  (25) 
CC1C2CC(=O)N(c3ccccc3)C2(C)CN1CCN1CCCCC1

>  <smiles>  (25) 
[H]c1c([H])c([H])c(N2C(=O)C([H])([H])C3([H])C2(C([H])([H])[H])C([H])([H])[N+]([H])(C([H])([H])C([H])([H])N2C([H])([H])C([H])([H])C([H])([H])C([H])([H])C2([H])[H])C3([H])C([H])([H])[H])c([H])c1[H]

$$$$
6:1:2
     RDKit          3D

 57 60  0  0  1  0  0  0  0  0999 V2000
    6.2066  -10.0019    1.3107 C   0  0  0  0  0  0  0  0  0  0  0  0
    5.2720   -9.0494    2.0794 C   0  0  2  0  0  0  0  0  0  0  0  0
    4.0269   -9.7442    2.5878 C   0  0  1  0  0  0  0  0  0  0  0  0
    3.8586  -10.7535    3.7100 C   0  0  0  0  0  0  0  0  0  0  0  0
    2.3523  -10.5298    3.9196 C   0  0  0  0  0  0  0  0  0  0  0  0
    1.6298  -11.3630    4.4503 O   0  0  0  0  0  0  0  0  0  0  0  0
    1.9573   -9.3219    3.4287 N   0  0  0  0  0  0  0  0  0  0  0  0
    0.6255   -8.8243    3.4695 C   0  0  0  0  0  0  0  0  0  0  0  0
    0.3091   -7.6433    4.1900 C   0  0  0  0  0  0  0  0  0  0  0  0
   -1.0082   -7.1528    4.2132 C   0  0  0  0  0  0  0  0  0  0  0  0
   -2.0287   -7.8434    3.5387 C   0  0  0  0  0  0  0  0  0  0  0  0
   -1.7402   -9.0372    2.8512 C   0  0  0  0  0  0  0  0  0  0  0  0
   -0.4185   -9.5290    2.8220 C   0  0  0  0  0  0  0  0  0  0  0  0
    3.1506   -8.5857    3.0004 C   0  0  1  0  0  0  0  0  0  0  0  0
    3.6759   -7.7077    4.1882 C   0  0  0  0  0  0  0  0  0  0  0  0
    3.2304   -7.8055    1.6788 C   0  0  0  0  0  0  0  0  0  0  0  0
    4.6703   -7.9617    1.2407 N   0  0  1  0  0  0  0  0  0  0  0  0
    5.4690   -6.7114    1.1981 C   0  0  0  0  0  0  0  0  0  0  0  0
    4.9560   -5.6900    0.1456 C   0  0  0  0  0  0  0  0  0  0  0  0
    5.7464   -4.4553    0.1010 N   0  0  0  0  0  0  0  0  0  0  0  0
    5.3384   -3.6703   -1.0740 C   0  0  0  0  0  0  0  0  0  0  0  0
    6.1813   -2.3857   -1.2118 C   0  0  0  0  0  0  0  0  0  0  0  0
    6.0662   -1.5139    0.0451 C   0  0  0  0  0  0  0  0  0  0  0  0
    6.3823   -2.3653    1.2738 C   0  0  0  0  0  0  0  0  0  0  0  0
    5.5283   -3.6414    1.3078 C   0  0  0  0  0  0  0  0  0  0  0  0
    6.5319  -10.7968    1.9837 H   0  0  0  0  0  0  0  0  0  0  0  0
    7.0874   -9.4780    0.9412 H   0  0  0  0  0  0  0  0  0  0  0  0
    5.7087  -10.4830    0.4815 H   0  0  0  0  0  0  0  0  0  0  0  0
    5.8299   -8.6398    2.9257 H   0  0  0  0  0  0  0  0  0  0  0  0
    3.5898  -10.2423    1.7134 H   0  0  0  0  0  0  0  0  0  0  0  0
    4.0969  -11.7792    3.4134 H   0  0  0  0  0  0  0  0  0  0  0  0
    4.4241  -10.4959    4.6089 H   0  0  0  0  0  0  0  0  0  0  0  0
    1.0291   -7.1143    4.7909 H   0  0  0  0  0  0  0  0  0  0  0  0
   -1.2202   -6.2619    4.7809 H   0  0  0  0  0  0  0  0  0  0  0  0
   -3.0324   -7.4614    3.5897 H   0  0  0  0  0  0  0  0  0  0  0  0
   -2.5317   -9.5832    2.3595 H   0  0  0  0  0  0  0  0  0  0  0  0
   -0.2071  -10.4577    2.3096 H   0  0  0  0  0  0  0  0  0  0  0  0
    4.6180   -7.2062    3.9649 H   0  0  0  0  0  0  0  0  0  0  0  0
    3.8327   -8.2957    5.1005 H   0  0  0  0  0  0  0  0  0  0  0  0
    3.0037   -6.8915    4.4333 H   0  0  0  0  0  0  0  0  0  0  0  0
    2.5686   -8.2381    0.9254 H   0  0  0  0  0  0  0  0  0  0  0  0
    2.9253   -6.7708    1.8173 H   0  0  0  0  0  0  0  0  0  0  0  0
    5.4941   -6.2830    2.1972 H   0  0  0  0  0  0  0  0  0  0  0  0
    6.5043   -6.9672    0.9580 H   0  0  0  0  0  0  0  0  0  0  0  0
    4.9955   -6.1695   -0.8380 H   0  0  0  0  0  0  0  0  0  0  0  0
    3.9062   -5.4321    0.3188 H   0  0  0  0  0  0  0  0  0  0  0  0
    5.4531   -4.2678   -1.9799 H   0  0  0  0  0  0  0  0  0  0  0  0
    4.2786   -3.4153   -1.0042 H   0  0  0  0  0  0  0  0  0  0  0  0
    7.2218   -2.6566   -1.3915 H   0  0  0  0  0  0  0  0  0  0  0  0
    5.8493   -1.8227   -2.0822 H   0  0  0  0  0  0  0  0  0  0  0  0
    6.7371   -0.6560    0.0090 H   0  0  0  0  0  0  0  0  0  0  0  0
    5.0553   -1.1119    0.1241 H   0  0  0  0  0  0  0  0  0  0  0  0
    7.4356   -2.6404    1.2691 H   0  0  0  0  0  0  0  0  0  0  0  0
    6.2145   -1.7825    2.1788 H   0  0  0  0  0  0  0  0  0  0  0  0
    4.4702   -3.3859    1.4022 H   0  0  0  0  0  0  0  0  0  0  0  0
    5.8119   -4.1889    2.2055 H   0  0  0  0  0  0  0  0  0  0  0  0
    4.6305   -8.3229    0.2918 H   0  0  0  0  0  0  0  0  0  0  0  0
  1  2  1  0
  1 26  1  0
  1 27  1  0
  1 28  1  0
  2 17  1  0
  2  3  1  0
  2 29  1  1
  3 14  1  0
  3  4  1  0
  3 30  1  6
  4  5  1  0
  4 31  1  0
  4 32  1  0
  5  6  2  0
  5  7  1  0
  7  8  1  0
  7 14  1  0
  8 13  1  0
  8  9  2  0
  9 10  1  0
  9 33  1  0
 10 11  2  0
 10 34  1  0
 11 12  1  0
 11 35  1  0
 12 13  2  0
 12 36  1  0
 13 37  1  0
 14 15  1  1
 14 16  1  0
 15 38  1  0
 15 39  1  0
 15 40  1  0
 16 17  1  0
 16 41  1  0
 16 42  1  0
 17 18  1  0
 17 57  1  6
 18 19  1  0
 18 43  1  0
 18 44  1  0
 19 20  1  0
 19 45  1  0
 19 46  1  0
 20 25  1  0
 20 21  1  0
 21 22  1  0
 21 47  1  0
 21 48  1  0
 22 23  1  0
 22 49  1  0
 22 50  1  0
 23 24  1  0
 23 51  1  0
 23 52  1  0
 24 25  1  0
 24 53  1  0
 24 54  1  0
 25 55  1  0
 25 56  1  0
M  CHG  1  17   1
M  END
>  <i_m_ct_stereo_status>  (26) 
1

>  <s_m_source_file>  (26) 
/var/tmp/pbs.5076255.sched01/tmp14hj8t9c/0766azy0n.sdf

>  <i_m_source_file_index>  (26) 
10

>  <i_lp_mmshare_version>  (26) 
48012

>  <i_f3d_flags>  (26) 
0

>  <s_epik_input>  (26) 
W0NIMl0xW0NIMl1bQ0gyXVtDSDJdW0NIMl1OMVtDSDJdW0NIMl1OKFtDSDJdMilbQ0BIXShbQ0gzXSlbQ0BIXShbQ0BAXTIzW0NIM10pW0NIMl1DKD1PKU4zYzRbY0hdW2NIXVtjSF1bY0hdW2NIXTQ=

>  <s_epik_cmdline>  (26) 
J2VwaWtfcHl0aG9uJywgJy1waHQnLCAnMi4wJywgJy1waCcsICc3LjAnLCAnLXRuJywgJzgnLCAnLW1hJywgJzIwMCcsICctaW1hZScsICc8aW5maWxlLm1hZT4nLCAnLW9tYWUnLCAnPG91dGZpbGUubWFlPic=

>  <r_epik_Ionization_Penalty>  (26) 
0.237238

>  <r_epik_Ionization_Penalty_Charging>  (26) 
0.00553348

>  <r_epik_Ionization_Penalty_Neutral>  (26) 
0.231704

>  <r_epik_State_Penalty>  (26) 
0.973929

>  <r_epik_Charging_Adjusted_Penalty>  (26) 
0.979462

>  <i_epik_Tot_Q>  (26) 
1

>  <i_epik_Tot_abs_Q>  (26) 
1

>  <s_lp_Force_Field>  (26) 
OPLS3e

>  <r_lp_Energy>  (26) 
49.3082

>  <b_lp_Chiralities_Consistent>  (26) 
1

>  <s_lp_Variant>  (26) 
6:0-2

>  <s_i_glide_gridfile>  (26) 
pfpi4k_grid

>  <i_i_glide_lignum>  (26) 
10

>  <i_i_glide_rotatable_bonds>  (26) 
4

>  <r_i_docking_score>  (26) 
-2.26751

>  <r_i_glide_ligand_efficiency>  (26) 
-0.0907003

>  <r_i_glide_ligand_efficiency_sa>  (26) 
-0.265209

>  <r_i_glide_ligand_efficiency_ln>  (26) 
-0.537467

>  <r_i_glide_gscore>  (26) 
-2.26751

>  <r_i_glide_lipo>  (26) 
-0.36128

>  <r_i_glide_hbond>  (26) 
0

>  <r_i_glide_metal>  (26) 
-0

>  <r_i_glide_rewards>  (26) 
-1.07388

>  <r_i_glide_evdw>  (26) 
-27.7492

>  <r_i_glide_ecoul>  (26) 
-0.496364

>  <r_i_glide_erotb>  (26) 
0.64663

>  <r_i_glide_esite>  (26) 
-0.0170673

>  <r_i_glide_emodel>  (26) 
-30.4804

>  <r_i_glide_energy>  (26) 
-28.2456

>  <r_i_glide_einternal>  (26) 
3.94504

>  <r_i_glide_intrahb_reward>  (26) 
-0

>  <i_i_glide_confnum>  (26) 
3

>  <i_i_glide_posenum>  (26) 
21

>  <r_i_glide_eff_state_penalty>  (26) 
0

>  <ligand_id>  (26) 
6

>  <original_smiles>  (26) 
CC1C2CC(=O)N(c3ccccc3)C2(C)CN1CCN1CCCCC1

>  <smiles>  (26) 
[H]c1c([H])c([H])c(N2C(=O)C([H])([H])C3([H])C2(C([H])([H])[H])C([H])([H])[N+]([H])(C([H])([H])C([H])([H])N2C([H])([H])C([H])([H])C([H])([H])C([H])([H])C2([H])[H])C3([H])C([H])([H])[H])c([H])c1[H]

$$$$
6:2:0
     RDKit          3D

 58 61  0  0  1  0  0  0  0  0999 V2000
    4.6630   -1.3412    4.1382 C   0  0  0  0  0  0  0  0  0  0  0  0
    3.8510   -0.1760    3.5387 C   0  0  2  0  0  0  0  0  0  0  0  0
    2.9502    0.4674    4.5584 C   0  0  1  0  0  0  0  0  0  0  0  0
    3.3214    1.3723    5.7188 C   0  0  0  0  0  0  0  0  0  0  0  0
    1.9341    1.9945    5.8980 C   0  0  0  0  0  0  0  0  0  0  0  0
    1.6283    2.5515    6.9437 O   0  0  0  0  0  0  0  0  0  0  0  0
    1.1532    1.8246    4.7846 N   0  0  0  0  0  0  0  0  0  0  0  0
   -0.2135    2.2016    4.6367 C   0  0  0  0  0  0  0  0  0  0  0  0
   -0.7277    2.5707    3.3628 C   0  0  0  0  0  0  0  0  0  0  0  0
   -2.0715    2.9589    3.2196 C   0  0  0  0  0  0  0  0  0  0  0  0
   -2.9253    2.9518    4.3354 C   0  0  0  0  0  0  0  0  0  0  0  0
   -2.4308    2.5931    5.6043 C   0  0  0  0  0  0  0  0  0  0  0  0
   -1.0896    2.2017    5.7483 C   0  0  0  0  0  0  0  0  0  0  0  0
    2.0059    1.2990    3.7201 C   0  0  1  0  0  0  0  0  0  0  0  0
    2.6177    2.5037    2.9379 C   0  0  0  0  0  0  0  0  0  0  0  0
    1.5869    0.1833    2.7397 C   0  0  0  0  0  0  0  0  0  0  0  0
    2.8591   -0.5880    2.4988 N   0  0  1  0  0  0  0  0  0  0  0  0
    3.3807   -0.5661    1.1108 C   0  0  0  0  0  0  0  0  0  0  0  0
    3.3723   -1.9708    0.4606 C   0  0  0  0  0  0  0  0  0  0  0  0
    3.0431   -1.9481   -0.9891 N   0  0  0  0  0  0  0  0  0  0  0  0
    2.7991   -3.3046   -1.5384 C   0  0  0  0  0  0  0  0  0  0  0  0
    2.3690   -3.2220   -3.0064 C   0  0  0  0  0  0  0  0  0  0  0  0
    3.4073   -2.4973   -3.8564 C   0  0  0  0  0  0  0  0  0  0  0  0
    3.7016   -1.1154   -3.2706 C   0  0  0  0  0  0  0  0  0  0  0  0
    4.0848   -1.2338   -1.7936 C   0  0  0  0  0  0  0  0  0  0  0  0
    5.3094   -0.9497    4.9274 H   0  0  0  0  0  0  0  0  0  0  0  0
    5.3077   -1.8023    3.3878 H   0  0  0  0  0  0  0  0  0  0  0  0
    4.0295   -2.1105    4.5872 H   0  0  0  0  0  0  0  0  0  0  0  0
    4.5450    0.5796    3.1719 H   0  0  0  0  0  0  0  0  0  0  0  0
    2.3792   -0.3515    5.0149 H   0  0  0  0  0  0  0  0  0  0  0  0
    3.6367    0.8346    6.6153 H   0  0  0  0  0  0  0  0  0  0  0  0
    4.0464    2.1475    5.4668 H   0  0  0  0  0  0  0  0  0  0  0  0
   -0.1279    2.5912    2.4718 H   0  0  0  0  0  0  0  0  0  0  0  0
   -2.4289    3.2551    2.2468 H   0  0  0  0  0  0  0  0  0  0  0  0
   -3.9608    3.2207    4.2122 H   0  0  0  0  0  0  0  0  0  0  0  0
   -3.0784    2.5808    6.4650 H   0  0  0  0  0  0  0  0  0  0  0  0
   -0.7646    1.8908    6.7285 H   0  0  0  0  0  0  0  0  0  0  0  0
    3.3170    2.1585    2.1768 H   0  0  0  0  0  0  0  0  0  0  0  0
    3.1597    3.1949    3.5913 H   0  0  0  0  0  0  0  0  0  0  0  0
    1.8908    3.1125    2.4009 H   0  0  0  0  0  0  0  0  0  0  0  0
    0.8329   -0.4665    3.1872 H   0  0  0  0  0  0  0  0  0  0  0  0
    1.1349    0.5894    1.8329 H   0  0  0  0  0  0  0  0  0  0  0  0
    2.7837    0.1265    0.5188 H   0  0  0  0  0  0  0  0  0  0  0  0
    4.4001   -0.1713    1.0624 H   0  0  0  0  0  0  0  0  0  0  0  0
    4.3473   -2.4408    0.6224 H   0  0  0  0  0  0  0  0  0  0  0  0
    2.6343   -2.6066    0.9616 H   0  0  0  0  0  0  0  0  0  0  0  0
    3.7114   -3.8990   -1.4436 H   0  0  0  0  0  0  0  0  0  0  0  0
    2.0235   -3.8018   -0.9556 H   0  0  0  0  0  0  0  0  0  0  0  0
    2.2196   -4.2235   -3.4062 H   0  0  0  0  0  0  0  0  0  0  0  0
    1.4116   -2.7132   -3.0796 H   0  0  0  0  0  0  0  0  0  0  0  0
    4.3197   -3.0938   -3.9171 H   0  0  0  0  0  0  0  0  0  0  0  0
    3.0221   -2.3995   -4.8634 H   0  0  0  0  0  0  0  0  0  0  0  0
    4.5011   -0.6342   -3.8361 H   0  0  0  0  0  0  0  0  0  0  0  0
    2.8264   -0.4729   -3.3647 H   0  0  0  0  0  0  0  0  0  0  0  0
    4.2894   -0.2417   -1.4036 H   0  0  0  0  0  0  0  0  0  0  0  0
    5.0260   -1.7798   -1.7134 H   0  0  0  0  0  0  0  0  0  0  0  0
    2.1223   -1.4671   -1.0818 H   0  0  0  0  0  0  0  0  0  0  0  0
    2.6102   -1.5542    2.7061 H   0  0  0  0  0  0  0  0  0  0  0  0
  1  2  1  0
  1 26  1  0
  1 27  1  0
  1 28  1  0
  2 17  1  0
  2  3  1  0
  2 29  1  6
  3 14  1  0
  3  4  1  0
  3 30  1  1
  4  5  1  0
  4 31  1  0
  4 32  1  0
  5  6  2  0
  5  7  1  0
  7  8  1  0
  7 14  1  0
  8 13  1  0
  8  9  2  0
  9 10  1  0
  9 33  1  0
 10 11  2  0
 10 34  1  0
 11 12  1  0
 11 35  1  0
 12 13  2  0
 12 36  1  0
 13 37  1  0
 14 15  1  6
 14 16  1  0
 15 38  1  0
 15 39  1  0
 15 40  1  0
 16 17  1  0
 16 41  1  0
 16 42  1  0
 17 18  1  0
 17 58  1  1
 18 19  1  0
 18 43  1  0
 18 44  1  0
 19 20  1  0
 19 45  1  0
 19 46  1  0
 20 25  1  0
 20 21  1  0
 20 57  1  0
 21 22  1  0
 21 47  1  0
 21 48  1  0
 22 23  1  0
 22 49  1  0
 22 50  1  0
 23 24  1  0
 23 51  1  0
 23 52  1  0
 24 25  1  0
 24 53  1  0
 24 54  1  0
 25 55  1  0
 25 56  1  0
M  CHG  2  17   1  20   1
M  END
>  <i_m_ct_stereo_status>  (27) 
1

>  <s_m_source_file>  (27) 
/var/tmp/pbs.5076255.sched01/tmp14hj8t9c/0766azy0n.sdf

>  <i_m_source_file_index>  (27) 
11

>  <i_lp_mmshare_version>  (27) 
48012

>  <i_f3d_flags>  (27) 
0

>  <s_epik_input>  (27) 
W0NIMl0xW0NIMl1bQ0gyXVtDSDJdW0NIMl1OMVtDSDJdW0NIMl1OKFtDSDJdMilbQ0BIXShbQ0gzXSlbQ0BIXShbQ0BAXTIzW0NIM10pW0NIMl1DKD1PKU4zYzRbY0hdW2NIXVtjSF1bY0hdW2NIXTQ=

>  <s_epik_cmdline>  (27) 
J2VwaWtfcHl0aG9uJywgJy1waHQnLCAnMi4wJywgJy1waCcsICc3LjAnLCAnLXRuJywgJzgnLCAnLW1hJywgJzIwMCcsICctaW1hZScsICc8aW5maWxlLm1hZT4nLCAnLW9tYWUnLCAnPG91dGZpbGUubWFlPic=

>  <r_epik_Ionization_Penalty>  (27) 
2.52328

>  <r_epik_Ionization_Penalty_Charging>  (27) 
2.52328

>  <r_epik_Ionization_Penalty_Neutral>  (27) 
1.67599e-07

>  <r_epik_State_Penalty>  (27) 
1.77885

>  <r_epik_Charging_Adjusted_Penalty>  (27) 
4.30213

>  <i_epik_Tot_Q>  (27) 
2

>  <i_epik_Tot_abs_Q>  (27) 
2

>  <s_lp_Force_Field>  (27) 
OPLS3e

>  <r_lp_Energy>  (27) 
67.1565

>  <b_lp_Chiralities_Consistent>  (27) 
1

>  <s_lp_Variant>  (27) 
6:0-3

>  <s_i_glide_gridfile>  (27) 
pfpi4k_grid

>  <i_i_glide_lignum>  (27) 
11

>  <i_i_glide_rotatable_bonds>  (27) 
4

>  <r_i_docking_score>  (27) 
-4.16972

>  <r_i_glide_ligand_efficiency>  (27) 
-0.166789

>  <r_i_glide_ligand_efficiency_sa>  (27) 
-0.487693

>  <r_i_glide_ligand_efficiency_ln>  (27) 
-0.988348

>  <r_i_glide_gscore>  (27) 
-4.16972

>  <r_i_glide_lipo>  (27) 
-0.607236

>  <r_i_glide_hbond>  (27) 
-0.180568

>  <r_i_glide_metal>  (27) 
-0

>  <r_i_glide_rewards>  (27) 
-1.067

>  <r_i_glide_evdw>  (27) 
-24.8422

>  <r_i_glide_ecoul>  (27) 
-10.677

>  <r_i_glide_erotb>  (27) 
0.643268

>  <r_i_glide_esite>  (27) 
-0.114525

>  <r_i_glide_emodel>  (27) 
-44.9973

>  <r_i_glide_energy>  (27) 
-35.5192

>  <r_i_glide_einternal>  (27) 
6.06484

>  <r_i_glide_intrahb_reward>  (27) 
-0

>  <i_i_glide_confnum>  (27) 
3

>  <i_i_glide_posenum>  (27) 
34

>  <r_i_glide_eff_state_penalty>  (27) 
0

>  <ligand_id>  (27) 
6

>  <original_smiles>  (27) 
CC1C2CC(=O)N(c3ccccc3)C2(C)CN1CCN1CCCCC1

>  <smiles>  (27) 
[H]c1c([H])c([H])c(N2C(=O)C([H])([H])C3([H])C2(C([H])([H])[H])C([H])([H])[N+]([H])(C([H])([H])C([H])([H])[N+]2([H])C([H])([H])C([H])([H])C([H])([H])C([H])([H])C2([H])[H])C3([H])C([H])([H])[H])c([H])c1[H]

$$$$
6:2:1
     RDKit          3D

 58 61  0  0  1  0  0  0  0  0999 V2000
    4.0352    0.7610    4.5276 C   0  0  0  0  0  0  0  0  0  0  0  0
    3.4894   -0.3938    3.6579 C   0  0  2  0  0  0  0  0  0  0  0  0
    4.3484   -0.6392    2.4425 C   0  0  1  0  0  0  0  0  0  0  0  0
    5.7076   -1.3018    2.3417 C   0  0  0  0  0  0  0  0  0  0  0  0
    5.6433   -1.6329    0.8391 C   0  0  0  0  0  0  0  0  0  0  0  0
    6.6398   -1.8257    0.1645 O   0  0  0  0  0  0  0  0  0  0  0  0
    4.3422   -1.6350    0.4008 N   0  0  0  0  0  0  0  0  0  0  0  0
    3.9480   -1.8408   -0.9477 C   0  0  0  0  0  0  0  0  0  0  0  0
    4.5030   -1.0503   -1.9847 C   0  0  0  0  0  0  0  0  0  0  0  0
    4.1082   -1.2498   -3.3268 C   0  0  0  0  0  0  0  0  0  0  0  0
    3.1617   -2.2409   -3.6418 C   0  0  0  0  0  0  0  0  0  0  0  0
    2.6153   -3.0401   -2.6166 C   0  0  0  0  0  0  0  0  0  0  0  0
    3.0105   -2.8495   -1.2788 C   0  0  0  0  0  0  0  0  0  0  0  0
    3.4594   -1.4918    1.5628 C   0  0  1  0  0  0  0  0  0  0  0  0
    3.0783   -2.9038    2.1308 C   0  0  0  0  0  0  0  0  0  0  0  0
    2.2276   -0.5745    1.5842 C   0  0  0  0  0  0  0  0  0  0  0  0
    2.1824   -0.0861    3.0035 N   0  0  1  0  0  0  0  0  0  0  0  0
    0.9693   -0.4666    3.7770 C   0  0  0  0  0  0  0  0  0  0  0  0
   -0.2885    0.3348    3.3807 C   0  0  0  0  0  0  0  0  0  0  0  0
   -0.2851    1.7347    3.8864 N   0  0  0  0  0  0  0  0  0  0  0  0
   -1.6523    2.3289    3.9245 C   0  0  0  0  0  0  0  0  0  0  0  0
   -1.6179    3.7349    4.5514 C   0  0  0  0  0  0  0  0  0  0  0  0
   -0.6396    4.6620    3.8156 C   0  0  0  0  0  0  0  0  0  0  0  0
    0.7356    4.0092    3.7273 C   0  0  0  0  0  0  0  0  0  0  0  0
    0.6484    2.6117    3.1235 C   0  0  0  0  0  0  0  0  0  0  0  0
    5.0140    0.4737    4.9069 H   0  0  0  0  0  0  0  0  0  0  0  0
    3.3918    0.9544    5.3844 H   0  0  0  0  0  0  0  0  0  0  0  0
    4.1643    1.6890    3.9707 H   0  0  0  0  0  0  0  0  0  0  0  0
    3.4271   -1.3000    4.2664 H   0  0  0  0  0  0  0  0  0  0  0  0
    4.4864    0.3396    1.9665 H   0  0  0  0  0  0  0  0  0  0  0  0
    6.5465   -0.6421    2.5843 H   0  0  0  0  0  0  0  0  0  0  0  0
    5.7815   -2.2133    2.9400 H   0  0  0  0  0  0  0  0  0  0  0  0
    5.2188   -0.2780   -1.7487 H   0  0  0  0  0  0  0  0  0  0  0  0
    4.5280   -0.6287   -4.1040 H   0  0  0  0  0  0  0  0  0  0  0  0
    2.8391   -2.3999   -4.6605 H   0  0  0  0  0  0  0  0  0  0  0  0
    1.8851   -3.8033   -2.8336 H   0  0  0  0  0  0  0  0  0  0  0  0
    2.5705   -3.4935   -0.5457 H   0  0  0  0  0  0  0  0  0  0  0  0
    2.5135   -2.8388    3.0628 H   0  0  0  0  0  0  0  0  0  0  0  0
    3.9618   -3.5178    2.3307 H   0  0  0  0  0  0  0  0  0  0  0  0
    2.4321   -3.4578    1.4618 H   0  0  0  0  0  0  0  0  0  0  0  0
    2.3529    0.2766    0.9046 H   0  0  0  0  0  0  0  0  0  0  0  0
    1.3246   -1.0998    1.2976 H   0  0  0  0  0  0  0  0  0  0  0  0
    0.7727   -1.5301    3.6426 H   0  0  0  0  0  0  0  0  0  0  0  0
    1.1623   -0.3135    4.8381 H   0  0  0  0  0  0  0  0  0  0  0  0
   -0.4614    0.3162    2.2953 H   0  0  0  0  0  0  0  0  0  0  0  0
   -1.1293   -0.1953    3.8198 H   0  0  0  0  0  0  0  0  0  0  0  0
   -2.0526    2.3786    2.9089 H   0  0  0  0  0  0  0  0  0  0  0  0
   -2.3385    1.7008    4.4966 H   0  0  0  0  0  0  0  0  0  0  0  0
   -2.6153    4.1634    4.5259 H   0  0  0  0  0  0  0  0  0  0  0  0
   -1.3379    3.6632    5.6048 H   0  0  0  0  0  0  0  0  0  0  0  0
   -1.0010    4.8502    2.8051 H   0  0  0  0  0  0  0  0  0  0  0  0
   -0.5526    5.6281    4.3131 H   0  0  0  0  0  0  0  0  0  0  0  0
    1.4093    4.6093    3.1147 H   0  0  0  0  0  0  0  0  0  0  0  0
    1.1895    3.9403    4.7171 H   0  0  0  0  0  0  0  0  0  0  0  0
    1.6778    2.2808    3.1329 H   0  0  0  0  0  0  0  0  0  0  0  0
    0.3135    2.6180    2.0801 H   0  0  0  0  0  0  0  0  0  0  0  0
    0.0196    1.7232    4.8535 H   0  0  0  0  0  0  0  0  0  0  0  0
    2.1734    0.9403    2.9025 H   0  0  0  0  0  0  0  0  0  0  0  0
  1  2  1  0
  1 26  1  0
  1 27  1  0
  1 28  1  0
  2 17  1  0
  2  3  1  0
  2 29  1  1
  3 14  1  0
  3  4  1  0
  3 30  1  6
  4  5  1  0
  4 31  1  0
  4 32  1  0
  5  6  2  0
  5  7  1  0
  7  8  1  0
  7 14  1  0
  8 13  1  0
  8  9  2  0
  9 10  1  0
  9 33  1  0
 10 11  2  0
 10 34  1  0
 11 12  1  0
 11 35  1  0
 12 13  2  0
 12 36  1  0
 13 37  1  0
 14 15  1  1
 14 16  1  0
 15 38  1  0
 15 39  1  0
 15 40  1  0
 16 17  1  0
 16 41  1  0
 16 42  1  0
 17 18  1  0
 17 58  1  6
 18 19  1  0
 18 43  1  0
 18 44  1  0
 19 20  1  0
 19 45  1  0
 19 46  1  0
 20 25  1  0
 20 21  1  0
 20 57  1  0
 21 22  1  0
 21 47  1  0
 21 48  1  0
 22 23  1  0
 22 49  1  0
 22 50  1  0
 23 24  1  0
 23 51  1  0
 23 52  1  0
 24 25  1  0
 24 53  1  0
 24 54  1  0
 25 55  1  0
 25 56  1  0
M  CHG  2  17   1  20   1
M  END
>  <i_m_ct_stereo_status>  (28) 
1

>  <s_m_source_file>  (28) 
/var/tmp/pbs.5076255.sched01/tmp14hj8t9c/0766azy0n.sdf

>  <i_m_source_file_index>  (28) 
11

>  <i_lp_mmshare_version>  (28) 
48012

>  <i_f3d_flags>  (28) 
0

>  <s_epik_input>  (28) 
W0NIMl0xW0NIMl1bQ0gyXVtDSDJdW0NIMl1OMVtDSDJdW0NIMl1OKFtDSDJdMilbQ0BIXShbQ0gzXSlbQ0BIXShbQ0BAXTIzW0NIM10pW0NIMl1DKD1PKU4zYzRbY0hdW2NIXVtjSF1bY0hdW2NIXTQ=

>  <s_epik_cmdline>  (28) 
J2VwaWtfcHl0aG9uJywgJy1waHQnLCAnMi4wJywgJy1waCcsICc3LjAnLCAnLXRuJywgJzgnLCAnLW1hJywgJzIwMCcsICctaW1hZScsICc8aW5maWxlLm1hZT4nLCAnLW9tYWUnLCAnPG91dGZpbGUubWFlPic=

>  <r_epik_Ionization_Penalty>  (28) 
2.52328

>  <r_epik_Ionization_Penalty_Charging>  (28) 
2.52328

>  <r_epik_Ionization_Penalty_Neutral>  (28) 
1.67599e-07

>  <r_epik_State_Penalty>  (28) 
1.77885

>  <r_epik_Charging_Adjusted_Penalty>  (28) 
4.30213

>  <i_epik_Tot_Q>  (28) 
2

>  <i_epik_Tot_abs_Q>  (28) 
2

>  <s_lp_Force_Field>  (28) 
OPLS3e

>  <r_lp_Energy>  (28) 
67.1565

>  <b_lp_Chiralities_Consistent>  (28) 
1

>  <s_lp_Variant>  (28) 
6:0-3

>  <s_i_glide_gridfile>  (28) 
pfpi4k_grid

>  <i_i_glide_lignum>  (28) 
11

>  <i_i_glide_rotatable_bonds>  (28) 
4

>  <r_i_docking_score>  (28) 
-3.83888

>  <r_i_glide_ligand_efficiency>  (28) 
-0.153555

>  <r_i_glide_ligand_efficiency_sa>  (28) 
-0.448998

>  <r_i_glide_ligand_efficiency_ln>  (28) 
-0.90993

>  <r_i_glide_gscore>  (28) 
-3.83888

>  <r_i_glide_lipo>  (28) 
-0.57969

>  <r_i_glide_hbond>  (28) 
0

>  <r_i_glide_metal>  (28) 
-0

>  <r_i_glide_rewards>  (28) 
-1.20846

>  <r_i_glide_evdw>  (28) 
-31.0144

>  <r_i_glide_ecoul>  (28) 
-7.30722

>  <r_i_glide_erotb>  (28) 
0.643268

>  <r_i_glide_esite>  (28) 
-0.0472038

>  <r_i_glide_emodel>  (28) 
-48.8169

>  <r_i_glide_energy>  (28) 
-38.3216

>  <r_i_glide_einternal>  (28) 
1.70035

>  <r_i_glide_intrahb_reward>  (28) 
-0

>  <i_i_glide_confnum>  (28) 
4

>  <i_i_glide_posenum>  (28) 
5

>  <r_i_glide_eff_state_penalty>  (28) 
0

>  <ligand_id>  (28) 
6

>  <original_smiles>  (28) 
CC1C2CC(=O)N(c3ccccc3)C2(C)CN1CCN1CCCCC1

>  <smiles>  (28) 
[H]c1c([H])c([H])c(N2C(=O)C([H])([H])C3([H])C2(C([H])([H])[H])C([H])([H])[N+]([H])(C([H])([H])C([H])([H])[N+]2([H])C([H])([H])C([H])([H])C([H])([H])C([H])([H])C2([H])[H])C3([H])C([H])([H])[H])c([H])c1[H]

$$$$
6:2:2
     RDKit          3D

 58 61  0  0  1  0  0  0  0  0999 V2000
    6.9061   -5.2816    0.9000 C   0  0  0  0  0  0  0  0  0  0  0  0
    5.5924   -5.2702    1.7038 C   0  0  2  0  0  0  0  0  0  0  0  0
    5.2526   -6.6358    2.2369 C   0  0  1  0  0  0  0  0  0  0  0  0
    5.8940   -7.4230    3.3614 C   0  0  0  0  0  0  0  0  0  0  0  0
    4.7075   -8.3577    3.6099 C   0  0  0  0  0  0  0  0  0  0  0  0
    4.8545   -9.4106    4.2145 O   0  0  0  0  0  0  0  0  0  0  0  0
    3.5415   -7.8512    3.0948 N   0  0  0  0  0  0  0  0  0  0  0  0
    2.2731   -8.5078    3.0586 C   0  0  0  0  0  0  0  0  0  0  0  0
    1.0694   -7.7554    3.1938 C   0  0  0  0  0  0  0  0  0  0  0  0
   -0.1808   -8.4003    3.1988 C   0  0  0  0  0  0  0  0  0  0  0  0
   -0.2530   -9.7964    3.0304 C   0  0  0  0  0  0  0  0  0  0  0  0
    0.9243  -10.5541    2.8824 C   0  0  0  0  0  0  0  0  0  0  0  0
    2.1785   -9.9086    2.8833 C   0  0  0  0  0  0  0  0  0  0  0  0
    3.8139   -6.4817    2.6683 C   0  0  1  0  0  0  0  0  0  0  0  0
    3.5505   -5.5023    3.8694 C   0  0  0  0  0  0  0  0  0  0  0  0
    3.2832   -5.8964    1.3513 C   0  0  0  0  0  0  0  0  0  0  0  0
    4.3792   -4.9726    0.8937 N   0  0  1  0  0  0  0  0  0  0  0  0
    4.0285   -3.5411    0.8627 C   0  0  0  0  0  0  0  0  0  0  0  0
    2.9018   -3.1889   -0.1276 C   0  0  0  0  0  0  0  0  0  0  0  0
    3.3833   -2.8858   -1.4922 N   0  0  0  0  0  0  0  0  0  0  0  0
    3.9537   -1.5090   -1.6004 C   0  0  0  0  0  0  0  0  0  0  0  0
    4.5592   -1.2726   -2.9781 C   0  0  0  0  0  0  0  0  0  0  0  0
    3.5343   -1.5209   -4.0850 C   0  0  0  0  0  0  0  0  0  0  0  0
    2.9148   -2.9172   -3.9241 C   0  0  0  0  0  0  0  0  0  0  0  0
    2.3359   -3.1038   -2.5261 C   0  0  0  0  0  0  0  0  0  0  0  0
    7.7186   -5.5847    1.5598 H   0  0  0  0  0  0  0  0  0  0  0  0
    7.1514   -4.2936    0.5118 H   0  0  0  0  0  0  0  0  0  0  0  0
    6.8789   -5.9951    0.0779 H   0  0  0  0  0  0  0  0  0  0  0  0
    5.7020   -4.5722    2.5384 H   0  0  0  0  0  0  0  0  0  0  0  0
    5.2885   -7.3100    1.3720 H   0  0  0  0  0  0  0  0  0  0  0  0
    6.7886   -7.9767    3.0638 H   0  0  0  0  0  0  0  0  0  0  0  0
    6.0955   -6.8328    4.2576 H   0  0  0  0  0  0  0  0  0  0  0  0
    1.0520   -6.6942    3.3256 H   0  0  0  0  0  0  0  0  0  0  0  0
   -1.0793   -7.8261    3.3422 H   0  0  0  0  0  0  0  0  0  0  0  0
   -1.2246  -10.2591    3.0299 H   0  0  0  0  0  0  0  0  0  0  0  0
    0.8820  -11.6266    2.7529 H   0  0  0  0  0  0  0  0  0  0  0  0
    3.0595  -10.5214    2.7402 H   0  0  0  0  0  0  0  0  0  0  0  0
    3.8029   -4.4682    3.6412 H   0  0  0  0  0  0  0  0  0  0  0  0
    4.1062   -5.7868    4.7669 H   0  0  0  0  0  0  0  0  0  0  0  0
    2.5085   -5.4611    4.1795 H   0  0  0  0  0  0  0  0  0  0  0  0
    3.1167   -6.6678    0.5966 H   0  0  0  0  0  0  0  0  0  0  0  0
    2.3279   -5.4041    1.5145 H   0  0  0  0  0  0  0  0  0  0  0  0
    3.7124   -3.2113    1.8509 H   0  0  0  0  0  0  0  0  0  0  0  0
    4.9282   -2.9622    0.6418 H   0  0  0  0  0  0  0  0  0  0  0  0
    2.1592   -3.9944   -0.1491 H   0  0  0  0  0  0  0  0  0  0  0  0
    2.3511   -2.3261    0.2475 H   0  0  0  0  0  0  0  0  0  0  0  0
    3.1589   -0.7810   -1.4221 H   0  0  0  0  0  0  0  0  0  0  0  0
    4.7197   -1.3237   -0.8465 H   0  0  0  0  0  0  0  0  0  0  0  0
    4.9329   -0.2509   -3.0319 H   0  0  0  0  0  0  0  0  0  0  0  0
    5.4122   -1.9390   -3.1174 H   0  0  0  0  0  0  0  0  0  0  0  0
    2.7501   -0.7641   -4.0364 H   0  0  0  0  0  0  0  0  0  0  0  0
    4.0012   -1.4147   -5.0629 H   0  0  0  0  0  0  0  0  0  0  0  0
    2.1188   -3.0627   -4.6516 H   0  0  0  0  0  0  0  0  0  0  0  0
    3.6584   -3.6897   -4.1312 H   0  0  0  0  0  0  0  0  0  0  0  0
    1.9122   -4.1066   -2.4499 H   0  0  0  0  0  0  0  0  0  0  0  0
    1.5090   -2.4174   -2.3621 H   0  0  0  0  0  0  0  0  0  0  0  0
    4.1197   -3.5422   -1.7292 H   0  0  0  0  0  0  0  0  0  0  0  0
    4.5918   -5.2611   -0.0640 H   0  0  0  0  0  0  0  0  0  0  0  0
  1  2  1  0
  1 26  1  0
  1 27  1  0
  1 28  1  0
  2 17  1  0
  2  3  1  0
  2 29  1  1
  3 14  1  0
  3  4  1  0
  3 30  1  6
  4  5  1  0
  4 31  1  0
  4 32  1  0
  5  6  2  0
  5  7  1  0
  7  8  1  0
  7 14  1  0
  8 13  1  0
  8  9  2  0
  9 10  1  0
  9 33  1  0
 10 11  2  0
 10 34  1  0
 11 12  1  0
 11 35  1  0
 12 13  2  0
 12 36  1  0
 13 37  1  0
 14 15  1  1
 14 16  1  0
 15 38  1  0
 15 39  1  0
 15 40  1  0
 16 17  1  0
 16 41  1  0
 16 42  1  0
 17 18  1  0
 17 58  1  6
 18 19  1  0
 18 43  1  0
 18 44  1  0
 19 20  1  0
 19 45  1  0
 19 46  1  0
 20 25  1  0
 20 21  1  0
 20 57  1  0
 21 22  1  0
 21 47  1  0
 21 48  1  0
 22 23  1  0
 22 49  1  0
 22 50  1  0
 23 24  1  0
 23 51  1  0
 23 52  1  0
 24 25  1  0
 24 53  1  0
 24 54  1  0
 25 55  1  0
 25 56  1  0
M  CHG  2  17   1  20   1
M  END
>  <i_m_ct_stereo_status>  (29) 
1

>  <s_m_source_file>  (29) 
/var/tmp/pbs.5076255.sched01/tmp14hj8t9c/0766azy0n.sdf

>  <i_m_source_file_index>  (29) 
11

>  <i_lp_mmshare_version>  (29) 
48012

>  <i_f3d_flags>  (29) 
0

>  <s_epik_input>  (29) 
W0NIMl0xW0NIMl1bQ0gyXVtDSDJdW0NIMl1OMVtDSDJdW0NIMl1OKFtDSDJdMilbQ0BIXShbQ0gzXSlbQ0BIXShbQ0BAXTIzW0NIM10pW0NIMl1DKD1PKU4zYzRbY0hdW2NIXVtjSF1bY0hdW2NIXTQ=

>  <s_epik_cmdline>  (29) 
J2VwaWtfcHl0aG9uJywgJy1waHQnLCAnMi4wJywgJy1waCcsICc3LjAnLCAnLXRuJywgJzgnLCAnLW1hJywgJzIwMCcsICctaW1hZScsICc8aW5maWxlLm1hZT4nLCAnLW9tYWUnLCAnPG91dGZpbGUubWFlPic=

>  <r_epik_Ionization_Penalty>  (29) 
2.52328

>  <r_epik_Ionization_Penalty_Charging>  (29) 
2.52328

>  <r_epik_Ionization_Penalty_Neutral>  (29) 
1.67599e-07

>  <r_epik_State_Penalty>  (29) 
1.77885

>  <r_epik_Charging_Adjusted_Penalty>  (29) 
4.30213

>  <i_epik_Tot_Q>  (29) 
2

>  <i_epik_Tot_abs_Q>  (29) 
2

>  <s_lp_Force_Field>  (29) 
OPLS3e

>  <r_lp_Energy>  (29) 
67.1565

>  <b_lp_Chiralities_Consistent>  (29) 
1

>  <s_lp_Variant>  (29) 
6:0-3

>  <s_i_glide_gridfile>  (29) 
pfpi4k_grid

>  <i_i_glide_lignum>  (29) 
11

>  <i_i_glide_rotatable_bonds>  (29) 
4

>  <r_i_docking_score>  (29) 
-3.1999

>  <r_i_glide_ligand_efficiency>  (29) 
-0.127996

>  <r_i_glide_ligand_efficiency_sa>  (29) 
-0.374262

>  <r_i_glide_ligand_efficiency_ln>  (29) 
-0.758472

>  <r_i_glide_gscore>  (29) 
-3.1999

>  <r_i_glide_lipo>  (29) 
-0.613098

>  <r_i_glide_hbond>  (29) 
0

>  <r_i_glide_metal>  (29) 
-0

>  <r_i_glide_rewards>  (29) 
-1.067

>  <r_i_glide_evdw>  (29) 
-27.9517

>  <r_i_glide_ecoul>  (29) 
-4.99802

>  <r_i_glide_erotb>  (29) 
0.643268

>  <r_i_glide_esite>  (29) 
-0.0157765

>  <r_i_glide_emodel>  (29) 
-41.7928

>  <r_i_glide_energy>  (29) 
-32.9497

>  <r_i_glide_einternal>  (29) 
1.25134

>  <r_i_glide_intrahb_reward>  (29) 
-0

>  <i_i_glide_confnum>  (29) 
3

>  <i_i_glide_posenum>  (29) 
3

>  <r_i_glide_eff_state_penalty>  (29) 
0

>  <ligand_id>  (29) 
6

>  <original_smiles>  (29) 
CC1C2CC(=O)N(c3ccccc3)C2(C)CN1CCN1CCCCC1

>  <smiles>  (29) 
[H]c1c([H])c([H])c(N2C(=O)C([H])([H])C3([H])C2(C([H])([H])[H])C([H])([H])[N+]([H])(C([H])([H])C([H])([H])[N+]2([H])C([H])([H])C([H])([H])C([H])([H])C([H])([H])C2([H])[H])C3([H])C([H])([H])[H])c([H])c1[H]

$$$$
7:0:0
     RDKit          3D

 45 48  0  0  1  0  0  0  0  0999 V2000
    2.3925   -0.0877   -4.7034 C   0  0  0  0  0  0  0  0  0  0  0  0
    3.0922   -1.0546   -3.7600 C   0  0  1  0  0  0  0  0  0  0  0  0
    4.1578   -0.3400   -3.0703 C   0  0  0  0  0  0  0  0  0  0  0  0
    4.9544   -1.1876   -2.0760 C   0  0  0  0  0  0  0  0  0  0  0  0
    4.0041   -1.9931   -1.1694 C   0  0  1  0  0  0  0  0  0  0  0  0
    3.2218   -3.0349   -2.0505 C   0  0  1  0  0  0  0  0  0  0  0  0
    2.1336   -3.7257   -1.2250 C   0  0  0  0  0  0  0  0  0  0  0  0
    2.6913   -4.3565    0.0313 C   0  0  0  0  0  0  0  0  0  0  0  0
    3.4473   -3.3238    0.8767 C   0  0  1  0  0  0  0  0  0  0  0  0
    3.8440   -3.9351    2.2215 C   0  0  0  0  0  0  0  0  0  0  0  0
    4.4270   -2.8745    3.1501 C   0  0  1  0  0  0  0  0  0  0  0  0
    4.8688   -3.4940    4.3369 O   0  0  0  0  0  0  0  0  0  0  0  0
    5.5984   -2.1561    2.4801 C   0  0  0  0  0  0  0  0  0  0  0  0
    5.2749   -1.5864    1.0885 C   0  0  1  0  0  0  0  0  0  0  0  0
    6.5080   -1.0781    0.6055 O   0  0  0  0  0  0  0  0  0  0  0  0
    4.6425   -2.6495    0.1058 C   0  0  2  0  0  0  0  0  0  0  0  0
    5.7172   -3.6970   -0.2870 C   0  0  0  0  0  0  0  0  0  0  0  0
    2.6234   -2.3900   -3.3045 C   0  0  2  0  0  0  0  0  0  0  0  0
    3.5607   -2.2259   -4.3430 O   0  0  0  0  0  0  0  0  0  0  0  0
    1.9678    0.7035   -4.1127 H   0  0  0  0  0  0  0  0  0  0  0  0
    1.5652   -0.6461   -5.1164 H   0  0  0  0  0  0  0  0  0  0  0  0
    3.0380    0.3570   -5.4337 H   0  0  0  0  0  0  0  0  0  0  0  0
    4.7408   -0.0511   -3.9282 H   0  0  0  0  0  0  0  0  0  0  0  0
    3.8240    0.5856   -2.6229 H   0  0  0  0  0  0  0  0  0  0  0  0
    5.5783   -1.8828   -2.6257 H   0  0  0  0  0  0  0  0  0  0  0  0
    5.5842   -0.5119   -1.5006 H   0  0  0  0  0  0  0  0  0  0  0  0
    3.3079   -1.2560   -0.7776 H   0  0  0  0  0  0  0  0  0  0  0  0
    3.9010   -3.7899   -2.4406 H   0  0  0  0  0  0  0  0  0  0  0  0
    1.3980   -3.0178   -0.9075 H   0  0  0  0  0  0  0  0  0  0  0  0
    1.5963   -4.4334   -1.8605 H   0  0  0  0  0  0  0  0  0  0  0  0
    1.8421   -4.7098    0.6129 H   0  0  0  0  0  0  0  0  0  0  0  0
    3.3098   -5.2040   -0.2287 H   0  0  0  0  0  0  0  0  0  0  0  0
    2.7514   -2.5164    1.1163 H   0  0  0  0  0  0  0  0  0  0  0  0
    2.9604   -4.3756    2.6935 H   0  0  0  0  0  0  0  0  0  0  0  0
    4.5583   -4.7453    2.0630 H   0  0  0  0  0  0  0  0  0  0  0  0
    3.6564   -2.1424    3.4014 H   0  0  0  0  0  0  0  0  0  0  0  0
    4.9934   -4.4283    4.1635 H   0  0  0  0  0  0  0  0  0  0  0  0
    5.9304   -1.3544    3.1364 H   0  0  0  0  0  0  0  0  0  0  0  0
    6.4297   -2.8569    2.3956 H   0  0  0  0  0  0  0  0  0  0  0  0
    4.5744   -0.7551    1.2105 H   0  0  0  0  0  0  0  0  0  0  0  0
    6.8586   -0.4409    1.2257 H   0  0  0  0  0  0  0  0  0  0  0  0
    6.1816   -4.1665    0.5767 H   0  0  0  0  0  0  0  0  0  0  0  0
    6.5150   -3.2524   -0.8819 H   0  0  0  0  0  0  0  0  0  0  0  0
    5.2934   -4.4949   -0.8898 H   0  0  0  0  0  0  0  0  0  0  0  0
    1.6386   -2.7010   -3.6062 H   0  0  0  0  0  0  0  0  0  0  0  0
  2  1  1  6
  1 20  1  0
  1 21  1  0
  1 22  1  0
  2 18  1  0
  2 19  1  0
  2  3  1  0
  3  4  1  0
  3 23  1  0
  3 24  1  0
  4  5  1  0
  4 25  1  0
  4 26  1  0
  5 16  1  0
  5  6  1  0
  5 27  1  1
  6  7  1  0
  6 18  1  0
  6 28  1  6
  7  8  1  0
  7 29  1  0
  7 30  1  0
  8  9  1  0
  8 31  1  0
  8 32  1  0
  9 16  1  0
  9 10  1  0
  9 33  1  1
 10 11  1  0
 10 34  1  0
 10 35  1  0
 11 12  1  0
 11 13  1  0
 11 36  1  1
 12 37  1  0
 13 14  1  0
 13 38  1  0
 13 39  1  0
 14 15  1  0
 14 16  1  0
 14 40  1  1
 15 41  1  0
 16 17  1  6
 17 42  1  0
 17 43  1  0
 17 44  1  0
 18 19  1  0
 18 45  1  6
M  END
>  <i_m_ct_stereo_status>  (30) 
1

>  <s_m_source_file>  (30) 
/var/tmp/pbs.5076255.sched01/tmp14hj8t9c/0766azy0n.sdf

>  <i_m_source_file_index>  (30) 
12

>  <i_lp_mmshare_version>  (30) 
48012

>  <i_f3d_flags>  (30) 
0

>  <s_epik_input>  (30) 
W0NIM11bQ0BdMTJbQ0BASF0oTzIpW0NASF0zW0NASF0oW0NIMl1bQ0gyXTEpW0NAXTQoW0NIM10pW0NAQEhdKFtDSDJdW0NIMl0zKVtDSDJdW0NAQEhdKFtPSF0pW0NIMl1bQ0BIXTRbT0hd

>  <s_epik_cmdline>  (30) 
J2VwaWtfcHl0aG9uJywgJy1waHQnLCAnMi4wJywgJy1waCcsICc3LjAnLCAnLXRuJywgJzgnLCAnLW1hJywgJzIwMCcsICctaW1hZScsICc8aW5maWxlLm1hZT4nLCAnLW9tYWUnLCAnPG91dGZpbGUubWFlPic=

>  <r_lp_tautomer_probability>  (30) 
1

>  <r_epik_Ionization_Penalty>  (30) 
1.58596e-06

>  <r_epik_Ionization_Penalty_Charging>  (30) 
0

>  <r_epik_Ionization_Penalty_Neutral>  (30) 
1.58596e-06

>  <r_epik_State_Penalty>  (30) 
-0

>  <r_epik_Charging_Adjusted_Penalty>  (30) 
0

>  <i_epik_Tot_Q>  (30) 
0

>  <i_epik_Tot_abs_Q>  (30) 
0

>  <s_lp_Force_Field>  (30) 
OPLS3e

>  <r_lp_Energy>  (30) 
29.6211

>  <b_lp_Chiralities_Consistent>  (30) 
1

>  <s_lp_Variant>  (30) 
7:0-1

>  <s_i_glide_gridfile>  (30) 
pfpi4k_grid

>  <i_i_glide_lignum>  (30) 
12

>  <i_i_glide_rotatable_bonds>  (30) 
2

>  <r_i_docking_score>  (30) 
-4.54868

>  <r_i_glide_ligand_efficiency>  (30) 
-0.239404

>  <r_i_glide_ligand_efficiency_sa>  (30) 
-0.638826

>  <r_i_glide_ligand_efficiency_ln>  (30) 
-1.15319

>  <r_i_glide_gscore>  (30) 
-4.54868

>  <r_i_glide_lipo>  (30) 
-0.797178

>  <r_i_glide_hbond>  (30) 
-0.559765

>  <r_i_glide_metal>  (30) 
-0

>  <r_i_glide_rewards>  (30) 
-1.59289

>  <r_i_glide_evdw>  (30) 
-15.724

>  <r_i_glide_ecoul>  (30) 
-5.41762

>  <r_i_glide_erotb>  (30) 
0

>  <r_i_glide_esite>  (30) 
0

>  <r_i_glide_emodel>  (30) 
-25.1501

>  <r_i_glide_energy>  (30) 
-21.1417

>  <r_i_glide_einternal>  (30) 
1.53733

>  <r_i_glide_intrahb_reward>  (30) 
-0

>  <i_i_glide_confnum>  (30) 
1

>  <i_i_glide_posenum>  (30) 
2

>  <r_i_glide_eff_state_penalty>  (30) 
0

>  <ligand_id>  (30) 
7

>  <original_smiles>  (30) 
CC12CCC3C(CCC4CC(O)CC(O)C43C)C1O2

>  <smiles>  (30) 
[H]OC1([H])C([H])([H])C([H])(O[H])C2(C([H])([H])[H])C([H])(C([H])([H])C([H])([H])C3([H])C4([H])OC4(C([H])([H])[H])C([H])([H])C([H])([H])C32[H])C1([H])[H]

$$$$
7:0:1
     RDKit          3D

 45 48  0  0  1  0  0  0  0  0999 V2000
    4.1655   -6.0454    3.4949 C   0  0  0  0  0  0  0  0  0  0  0  0
    4.8579   -5.3778    2.3237 C   0  0  1  0  0  0  0  0  0  0  0  0
    4.5738   -6.0369    0.9956 C   0  0  0  0  0  0  0  0  0  0  0  0
    5.1342   -5.2253   -0.1962 C   0  0  0  0  0  0  0  0  0  0  0  0
    4.7962   -3.7182   -0.1065 C   0  0  1  0  0  0  0  0  0  0  0  0
    5.4851   -3.1012    1.1529 C   0  0  1  0  0  0  0  0  0  0  0  0
    4.9908   -1.6758    1.3984 C   0  0  0  0  0  0  0  0  0  0  0  0
    5.1868   -0.7966    0.1666 C   0  0  0  0  0  0  0  0  0  0  0  0
    4.5130   -1.4120   -1.0708 C   0  0  1  0  0  0  0  0  0  0  0  0
    4.5678   -0.4834   -2.2931 C   0  0  0  0  0  0  0  0  0  0  0  0
    3.6446   -0.9374   -3.4161 C   0  0  1  0  0  0  0  0  0  0  0  0
    3.8080   -0.1084   -4.5512 O   0  0  0  0  0  0  0  0  0  0  0  0
    4.0183   -2.3416   -3.8025 C   0  0  0  0  0  0  0  0  0  0  0  0
    4.1070   -3.2951   -2.6153 C   0  0  1  0  0  0  0  0  0  0  0  0
    4.6174   -4.3473   -3.3513 O   0  0  0  0  0  0  0  0  0  0  0  0
    5.0151   -2.8477   -1.4059 C   0  0  2  0  0  0  0  0  0  0  0  0
    6.5191   -2.8484   -1.7990 C   0  0  0  0  0  0  0  0  0  0  0  0
    5.2954   -3.9461    2.3970 C   0  0  2  0  0  0  0  0  0  0  0  0
    6.2314   -5.0509    2.5272 O   0  0  0  0  0  0  0  0  0  0  0  0
    3.0856   -5.9329    3.3990 H   0  0  0  0  0  0  0  0  0  0  0  0
    4.4726   -5.5748    4.4317 H   0  0  0  0  0  0  0  0  0  0  0  0
    4.4123   -7.1062    3.5472 H   0  0  0  0  0  0  0  0  0  0  0  0
    5.0007   -7.0419    1.0081 H   0  0  0  0  0  0  0  0  0  0  0  0
    3.4941   -6.1288    0.8980 H   0  0  0  0  0  0  0  0  0  0  0  0
    6.2186   -5.3388   -0.2141 H   0  0  0  0  0  0  0  0  0  0  0  0
    4.7386   -5.6712   -1.1066 H   0  0  0  0  0  0  0  0  0  0  0  0
    3.7212   -3.6964    0.0725 H   0  0  0  0  0  0  0  0  0  0  0  0
    6.5645   -3.0615    0.9978 H   0  0  0  0  0  0  0  0  0  0  0  0
    3.9304   -1.6896    1.6560 H   0  0  0  0  0  0  0  0  0  0  0  0
    5.5267   -1.2311    2.2378 H   0  0  0  0  0  0  0  0  0  0  0  0
    4.7481    0.1814    0.3658 H   0  0  0  0  0  0  0  0  0  0  0  0
    6.2512   -0.6409   -0.0060 H   0  0  0  0  0  0  0  0  0  0  0  0
    3.4531   -1.4920   -0.8210 H   0  0  0  0  0  0  0  0  0  0  0  0
    4.2650    0.5137   -2.0376 H   0  0  0  0  0  0  0  0  0  0  0  0
    5.5922   -0.3685   -2.6046 H   0  0  0  0  0  0  0  0  0  0  0  0
    2.6076   -0.9156   -3.0806 H   0  0  0  0  0  0  0  0  0  0  0  0
    3.0482   -0.2001   -5.1011 H   0  0  0  0  0  0  0  0  0  0  0  0
    3.3393   -2.7424   -4.5572 H   0  0  0  0  0  0  0  0  0  0  0  0
    5.0163   -2.3104   -4.2471 H   0  0  0  0  0  0  0  0  0  0  0  0
    3.0959   -3.5391   -2.2642 H   0  0  0  0  0  0  0  0  0  0  0  0
    4.1883   -5.1283   -3.0386 H   0  0  0  0  0  0  0  0  0  0  0  0
    6.6977   -2.2927   -2.7149 H   0  0  0  0  0  0  0  0  0  0  0  0
    6.8884   -3.8548   -1.9913 H   0  0  0  0  0  0  0  0  0  0  0  0
    7.1623   -2.4087   -1.0376 H   0  0  0  0  0  0  0  0  0  0  0  0
    5.1402   -3.4053    3.3357 H   0  0  0  0  0  0  0  0  0  0  0  0
  2  1  1  1
  1 20  1  0
  1 21  1  0
  1 22  1  0
  2 18  1  0
  2 19  1  0
  2  3  1  0
  3  4  1  0
  3 23  1  0
  3 24  1  0
  4  5  1  0
  4 25  1  0
  4 26  1  0
  5 16  1  0
  5  6  1  0
  5 27  1  1
  6  7  1  0
  6 18  1  0
  6 28  1  6
  7  8  1  0
  7 29  1  0
  7 30  1  0
  8  9  1  0
  8 31  1  0
  8 32  1  0
  9 16  1  0
  9 10  1  0
  9 33  1  1
 10 11  1  0
 10 34  1  0
 10 35  1  0
 11 12  1  0
 11 13  1  0
 11 36  1  1
 12 37  1  0
 13 14  1  0
 13 38  1  0
 13 39  1  0
 14 15  1  0
 14 16  1  0
 14 40  1  1
 15 41  1  0
 16 17  1  6
 17 42  1  0
 17 43  1  0
 17 44  1  0
 18 19  1  0
 18 45  1  1
M  END
>  <i_m_ct_stereo_status>  (31) 
1

>  <s_m_source_file>  (31) 
/var/tmp/pbs.5076255.sched01/tmp14hj8t9c/0766azy0n.sdf

>  <i_m_source_file_index>  (31) 
12

>  <i_lp_mmshare_version>  (31) 
48012

>  <i_f3d_flags>  (31) 
0

>  <s_epik_input>  (31) 
W0NIM11bQ0BdMTJbQ0BASF0oTzIpW0NASF0zW0NASF0oW0NIMl1bQ0gyXTEpW0NAXTQoW0NIM10pW0NAQEhdKFtDSDJdW0NIMl0zKVtDSDJdW0NAQEhdKFtPSF0pW0NIMl1bQ0BIXTRbT0hd

>  <s_epik_cmdline>  (31) 
J2VwaWtfcHl0aG9uJywgJy1waHQnLCAnMi4wJywgJy1waCcsICc3LjAnLCAnLXRuJywgJzgnLCAnLW1hJywgJzIwMCcsICctaW1hZScsICc8aW5maWxlLm1hZT4nLCAnLW9tYWUnLCAnPG91dGZpbGUubWFlPic=

>  <r_lp_tautomer_probability>  (31) 
1

>  <r_epik_Ionization_Penalty>  (31) 
1.58596e-06

>  <r_epik_Ionization_Penalty_Charging>  (31) 
0

>  <r_epik_Ionization_Penalty_Neutral>  (31) 
1.58596e-06

>  <r_epik_State_Penalty>  (31) 
-0

>  <r_epik_Charging_Adjusted_Penalty>  (31) 
0

>  <i_epik_Tot_Q>  (31) 
0

>  <i_epik_Tot_abs_Q>  (31) 
0

>  <s_lp_Force_Field>  (31) 
OPLS3e

>  <r_lp_Energy>  (31) 
29.6211

>  <b_lp_Chiralities_Consistent>  (31) 
1

>  <s_lp_Variant>  (31) 
7:0-1

>  <s_i_glide_gridfile>  (31) 
pfpi4k_grid

>  <i_i_glide_lignum>  (31) 
12

>  <i_i_glide_rotatable_bonds>  (31) 
2

>  <r_i_docking_score>  (31) 
-4.54246

>  <r_i_glide_ligand_efficiency>  (31) 
-0.239077

>  <r_i_glide_ligand_efficiency_sa>  (31) 
-0.637953

>  <r_i_glide_ligand_efficiency_ln>  (31) 
-1.15161

>  <r_i_glide_gscore>  (31) 
-4.54246

>  <r_i_glide_lipo>  (31) 
-0.635708

>  <r_i_glide_hbond>  (31) 
-0.32

>  <r_i_glide_metal>  (31) 
-0

>  <r_i_glide_rewards>  (31) 
-1.59289

>  <r_i_glide_evdw>  (31) 
-17.8909

>  <r_i_glide_ecoul>  (31) 
-7.32876

>  <r_i_glide_erotb>  (31) 
0

>  <r_i_glide_esite>  (31) 
0

>  <r_i_glide_emodel>  (31) 
-29.2345

>  <r_i_glide_energy>  (31) 
-25.2197

>  <r_i_glide_einternal>  (31) 
1.8935

>  <r_i_glide_intrahb_reward>  (31) 
-0

>  <i_i_glide_confnum>  (31) 
1

>  <i_i_glide_posenum>  (31) 
8

>  <r_i_glide_eff_state_penalty>  (31) 
0

>  <ligand_id>  (31) 
7

>  <original_smiles>  (31) 
CC12CCC3C(CCC4CC(O)CC(O)C43C)C1O2

>  <smiles>  (31) 
[H]OC1([H])C([H])([H])C([H])(O[H])C2(C([H])([H])[H])C([H])(C([H])([H])C([H])([H])C3([H])C4([H])OC4(C([H])([H])[H])C([H])([H])C([H])([H])C32[H])C1([H])[H]

$$$$
7:0:2
     RDKit          3D

 45 48  0  0  1  0  0  0  0  0999 V2000
    3.2277   -0.5243   -4.0420 C   0  0  0  0  0  0  0  0  0  0  0  0
    3.8499   -1.4255   -3.0083 C   0  0  1  0  0  0  0  0  0  0  0  0
    4.7456   -0.7019   -2.0475 C   0  0  0  0  0  0  0  0  0  0  0  0
    5.2475   -1.5766   -0.8933 C   0  0  0  0  0  0  0  0  0  0  0  0
    4.0926   -2.3523   -0.2239 C   0  0  1  0  0  0  0  0  0  0  0  0
    3.4985   -3.3570   -1.2673 C   0  0  1  0  0  0  0  0  0  0  0  0
    2.2109   -3.9565   -0.7100 C   0  0  0  0  0  0  0  0  0  0  0  0
    2.4762   -4.6703    0.6256 C   0  0  0  0  0  0  0  0  0  0  0  0
    3.0569   -3.6843    1.6494 C   0  0  1  0  0  0  0  0  0  0  0  0
    3.1349   -4.3095    3.0572 C   0  0  0  0  0  0  0  0  0  0  0  0
    3.5006   -3.2526    4.1011 C   0  0  1  0  0  0  0  0  0  0  0  0
    3.6424   -3.8718    5.3651 O   0  0  0  0  0  0  0  0  0  0  0  0
    4.7966   -2.5296    3.7238 C   0  0  0  0  0  0  0  0  0  0  0  0
    4.7813   -1.9752    2.2774 C   0  0  1  0  0  0  0  0  0  0  0  0
    6.0715   -1.4365    2.0792 O   0  0  0  0  0  0  0  0  0  0  0  0
    4.3968   -3.0260    1.1760 C   0  0  2  0  0  0  0  0  0  0  0  0
    5.5251   -4.0894    1.0391 C   0  0  0  0  0  0  0  0  0  0  0  0
    3.2203   -2.7309   -2.6208 C   0  0  2  0  0  0  0  0  0  0  0  0
    4.3682   -2.6526   -3.4960 O   0  0  0  0  0  0  0  0  0  0  0  0
    2.5618    0.1857   -3.5548 H   0  0  0  0  0  0  0  0  0  0  0  0
    2.6305   -1.1231   -4.7251 H   0  0  0  0  0  0  0  0  0  0  0  0
    3.9900    0.0205   -4.5970 H   0  0  0  0  0  0  0  0  0  0  0  0
    5.5701   -0.2854   -2.6028 H   0  0  0  0  0  0  0  0  0  0  0  0
    4.2160    0.1385   -1.6328 H   0  0  0  0  0  0  0  0  0  0  0  0
    5.9982   -2.2693   -1.2705 H   0  0  0  0  0  0  0  0  0  0  0  0
    5.7377   -0.8868   -0.2118 H   0  0  0  0  0  0  0  0  0  0  0  0
    3.3231   -1.5992   -0.0213 H   0  0  0  0  0  0  0  0  0  0  0  0
    4.2039   -4.1715   -1.4593 H   0  0  0  0  0  0  0  0  0  0  0  0
    1.4770   -3.1588   -0.5955 H   0  0  0  0  0  0  0  0  0  0  0  0
    1.7872   -4.6519   -1.4311 H   0  0  0  0  0  0  0  0  0  0  0  0
    1.5402   -5.0710    1.0134 H   0  0  0  0  0  0  0  0  0  0  0  0
    3.1322   -5.5299    0.4861 H   0  0  0  0  0  0  0  0  0  0  0  0
    2.3176   -2.8822    1.7352 H   0  0  0  0  0  0  0  0  0  0  0  0
    2.1684   -4.7411    3.3203 H   0  0  0  0  0  0  0  0  0  0  0  0
    3.8521   -5.1316    3.0717 H   0  0  0  0  0  0  0  0  0  0  0  0
    2.6944   -2.5234    4.1657 H   0  0  0  0  0  0  0  0  0  0  0  0
    4.3280   -4.5178    5.3070 H   0  0  0  0  0  0  0  0  0  0  0  0
    4.9558   -1.7117    4.4255 H   0  0  0  0  0  0  0  0  0  0  0  0
    5.6412   -3.2034    3.8646 H   0  0  0  0  0  0  0  0  0  0  0  0
    4.0690   -1.1514    2.2361 H   0  0  0  0  0  0  0  0  0  0  0  0
    6.6910   -2.1415    2.1574 H   0  0  0  0  0  0  0  0  0  0  0  0
    5.7688   -4.5477    1.9967 H   0  0  0  0  0  0  0  0  0  0  0  0
    6.4430   -3.6555    0.6449 H   0  0  0  0  0  0  0  0  0  0  0  0
    5.2492   -4.8972    0.3646 H   0  0  0  0  0  0  0  0  0  0  0  0
    2.3094   -3.0323   -3.1309 H   0  0  0  0  0  0  0  0  0  0  0  0
  2  1  1  6
  1 20  1  0
  1 21  1  0
  1 22  1  0
  2 18  1  0
  2 19  1  0
  2  3  1  0
  3  4  1  0
  3 23  1  0
  3 24  1  0
  4  5  1  0
  4 25  1  0
  4 26  1  0
  5 16  1  0
  5  6  1  0
  5 27  1  1
  6  7  1  0
  6 18  1  0
  6 28  1  6
  7  8  1  0
  7 29  1  0
  7 30  1  0
  8  9  1  0
  8 31  1  0
  8 32  1  0
  9 16  1  0
  9 10  1  0
  9 33  1  1
 10 11  1  0
 10 34  1  0
 10 35  1  0
 11 12  1  0
 11 13  1  0
 11 36  1  1
 12 37  1  0
 13 14  1  0
 13 38  1  0
 13 39  1  0
 14 15  1  0
 14 16  1  0
 14 40  1  1
 15 41  1  0
 16 17  1  6
 17 42  1  0
 17 43  1  0
 17 44  1  0
 18 19  1  0
 18 45  1  6
M  END
>  <i_m_ct_stereo_status>  (32) 
1

>  <s_m_source_file>  (32) 
/var/tmp/pbs.5076255.sched01/tmp14hj8t9c/0766azy0n.sdf

>  <i_m_source_file_index>  (32) 
12

>  <i_lp_mmshare_version>  (32) 
48012

>  <i_f3d_flags>  (32) 
0

>  <s_epik_input>  (32) 
W0NIM11bQ0BdMTJbQ0BASF0oTzIpW0NASF0zW0NASF0oW0NIMl1bQ0gyXTEpW0NAXTQoW0NIM10pW0NAQEhdKFtDSDJdW0NIMl0zKVtDSDJdW0NAQEhdKFtPSF0pW0NIMl1bQ0BIXTRbT0hd

>  <s_epik_cmdline>  (32) 
J2VwaWtfcHl0aG9uJywgJy1waHQnLCAnMi4wJywgJy1waCcsICc3LjAnLCAnLXRuJywgJzgnLCAnLW1hJywgJzIwMCcsICctaW1hZScsICc8aW5maWxlLm1hZT4nLCAnLW9tYWUnLCAnPG91dGZpbGUubWFlPic=

>  <r_lp_tautomer_probability>  (32) 
1

>  <r_epik_Ionization_Penalty>  (32) 
1.58596e-06

>  <r_epik_Ionization_Penalty_Charging>  (32) 
0

>  <r_epik_Ionization_Penalty_Neutral>  (32) 
1.58596e-06

>  <r_epik_State_Penalty>  (32) 
-0

>  <r_epik_Charging_Adjusted_Penalty>  (32) 
0

>  <i_epik_Tot_Q>  (32) 
0

>  <i_epik_Tot_abs_Q>  (32) 
0

>  <s_lp_Force_Field>  (32) 
OPLS3e

>  <r_lp_Energy>  (32) 
29.6211

>  <b_lp_Chiralities_Consistent>  (32) 
1

>  <s_lp_Variant>  (32) 
7:0-1

>  <s_i_glide_gridfile>  (32) 
pfpi4k_grid

>  <i_i_glide_lignum>  (32) 
12

>  <i_i_glide_rotatable_bonds>  (32) 
2

>  <r_i_docking_score>  (32) 
-3.29605

>  <r_i_glide_ligand_efficiency>  (32) 
-0.173477

>  <r_i_glide_ligand_efficiency_sa>  (32) 
-0.462905

>  <r_i_glide_ligand_efficiency_ln>  (32) 
-0.83562

>  <r_i_glide_gscore>  (32) 
-3.29605

>  <r_i_glide_lipo>  (32) 
-0.484503

>  <r_i_glide_hbond>  (32) 
0

>  <r_i_glide_metal>  (32) 
-0

>  <r_i_glide_rewards>  (32) 
-1.59289

>  <r_i_glide_evdw>  (32) 
-20.0266

>  <r_i_glide_ecoul>  (32) 
-1.44884

>  <r_i_glide_erotb>  (32) 
0

>  <r_i_glide_esite>  (32) 
0

>  <r_i_glide_emodel>  (32) 
-25.4935

>  <r_i_glide_energy>  (32) 
-21.4755

>  <r_i_glide_einternal>  (32) 
0.00119258

>  <r_i_glide_intrahb_reward>  (32) 
-0

>  <i_i_glide_confnum>  (32) 
2

>  <i_i_glide_posenum>  (32) 
13

>  <r_i_glide_eff_state_penalty>  (32) 
0

>  <ligand_id>  (32) 
7

>  <original_smiles>  (32) 
CC12CCC3C(CCC4CC(O)CC(O)C43C)C1O2

>  <smiles>  (32) 
[H]OC1([H])C([H])([H])C([H])(O[H])C2(C([H])([H])[H])C([H])(C([H])([H])C([H])([H])C3([H])C4([H])OC4(C([H])([H])[H])C([H])([H])C([H])([H])C32[H])C1([H])[H]

$$$$
8:0:0
     RDKit          3D

 81 87  0  0  1  0  0  0  0  0999 V2000
    3.4041   -2.9686    5.7574 C   0  0  0  0  0  0  0  0  0  0  0  0
    3.4393   -1.6605    4.9194 C   0  0  1  0  0  0  0  0  0  0  0  0
    4.8265   -1.4402    5.1199 O   0  0  0  0  0  0  0  0  0  0  0  0
    3.2992   -2.0489    3.3869 C   0  0  0  0  0  0  0  0  0  0  0  0
    2.6274   -1.1387    2.3120 C   0  0  0  0  0  0  0  0  0  0  0  0
    1.1378   -0.6741    2.4224 C   0  0  0  0  0  0  0  0  0  0  0  0
    0.7614   -0.2817    3.8920 C   0  0  1  0  0  0  0  0  0  0  0  0
    0.4320   -1.7472    4.4271 C   0  0  0  0  0  0  0  0  0  0  0  0
    0.5457   -1.7886    5.9117 C   0  0  0  0  0  0  0  0  0  0  0  0
    1.0194   -0.3687    5.9856 C   0  0  1  0  0  0  0  0  0  0  0  0
    0.8763   -0.1075    7.5276 C   0  0  0  0  0  0  0  0  0  0  0  0
    2.6862   -0.3477    5.5276 C   0  0  2  0  0  0  0  0  0  0  0  0
    3.2796    0.9815    4.8095 C   0  0  1  0  0  0  0  0  0  0  0  0
    4.5375    0.9351    4.1468 O   0  0  0  0  0  0  0  0  0  0  0  0
    2.3569    1.8657    3.9431 C   0  0  1  0  0  0  0  0  0  0  0  0
    2.5951    1.9244    2.5572 O   0  0  0  0  0  0  0  0  0  0  0  0
    0.9657    1.4486    4.3255 C   0  0  1  0  0  0  0  0  0  0  0  0
   -0.2717    1.3053    3.6508 C   0  0  0  0  0  0  0  0  0  0  0  0
   -0.1666    0.2436    4.8648 C   0  0  1  0  0  0  0  0  0  0  0  0
   -1.6110    0.0874    5.3022 C   0  0  0  0  0  0  0  0  0  0  0  0
   -1.7673    1.1250    6.4182 C   0  0  0  0  0  0  0  0  0  0  0  0
   -1.0483    2.5367    6.2183 C   0  0  1  0  0  0  0  0  0  0  0  0
   -2.2150    3.3623    5.5469 C   0  0  0  0  0  0  0  0  0  0  0  0
   -0.7843    3.2850    7.5942 C   0  0  1  0  0  0  0  0  0  0  0  0
   -1.4871    2.8076    8.9102 C   0  0  2  0  0  0  0  0  0  0  0  0
   -3.0005    3.0415    8.9113 C   0  0  0  0  0  0  0  0  0  0  0  0
   -3.3414    3.2801   10.2602 O   0  0  0  0  0  0  0  0  0  0  0  0
   -2.3361    4.0832   10.7693 C   0  0  1  0  0  0  0  0  0  0  0  0
   -2.3428    4.1469   12.1752 O   0  0  0  0  0  0  0  0  0  0  0  0
   -1.0373    3.5216   10.2031 C   0  0  1  0  0  0  0  0  0  0  0  0
   -0.4099    2.5917   11.0674 O   0  0  0  0  0  0  0  0  0  0  0  0
    0.7263    3.4861    7.7757 C   0  0  0  0  0  0  0  0  0  0  0  0
    1.4535    2.9229    6.5733 C   0  0  0  0  0  0  0  0  0  0  0  0
    0.4310    2.6306    5.4466 C   0  0  1  0  0  0  0  0  0  0  0  0
    0.3986    4.0286    4.7011 C   0  0  0  0  0  0  0  0  0  0  0  0
    2.5892   -3.6295    5.4653 H   0  0  0  0  0  0  0  0  0  0  0  0
    3.3382   -2.7619    6.8257 H   0  0  0  0  0  0  0  0  0  0  0  0
    4.2882   -3.5923    5.6114 H   0  0  0  0  0  0  0  0  0  0  0  0
    5.0247   -0.6229    4.6659 H   0  0  0  0  0  0  0  0  0  0  0  0
    4.3033   -2.2425    3.0011 H   0  0  0  0  0  0  0  0  0  0  0  0
    2.8553   -3.0412    3.3003 H   0  0  0  0  0  0  0  0  0  0  0  0
    3.2877   -0.2950    2.1561 H   0  0  0  0  0  0  0  0  0  0  0  0
    2.6900   -1.6745    1.3656 H   0  0  0  0  0  0  0  0  0  0  0  0
    1.0538    0.1196    1.6864 H   0  0  0  0  0  0  0  0  0  0  0  0
    0.5082   -1.4721    2.0417 H   0  0  0  0  0  0  0  0  0  0  0  0
   -0.5806   -2.0460    4.1455 H   0  0  0  0  0  0  0  0  0  0  0  0
    0.9918   -2.5659    4.0041 H   0  0  0  0  0  0  0  0  0  0  0  0
   -0.4211   -1.9813    6.3744 H   0  0  0  0  0  0  0  0  0  0  0  0
    1.1679   -2.5221    6.3940 H   0  0  0  0  0  0  0  0  0  0  0  0
    0.5763    0.8831    7.8185 H   0  0  0  0  0  0  0  0  0  0  0  0
    1.8036   -0.3045    8.0553 H   0  0  0  0  0  0  0  0  0  0  0  0
    0.1493   -0.7496    8.0230 H   0  0  0  0  0  0  0  0  0  0  0  0
    3.1790   -0.2986    6.4946 H   0  0  0  0  0  0  0  0  0  0  0  0
    3.5672    1.6125    5.6436 H   0  0  0  0  0  0  0  0  0  0  0  0
    4.5519    1.6424    3.5162 H   0  0  0  0  0  0  0  0  0  0  0  0
    2.6262    2.8706    4.2341 H   0  0  0  0  0  0  0  0  0  0  0  0
    1.9892    2.5498    2.1838 H   0  0  0  0  0  0  0  0  0  0  0  0
   -1.0023    2.0781    3.7518 H   0  0  0  0  0  0  0  0  0  0  0  0
   -0.4401    1.0395    2.6085 H   0  0  0  0  0  0  0  0  0  0  0  0
   -2.2937    0.3290    4.4877 H   0  0  0  0  0  0  0  0  0  0  0  0
   -1.9265   -0.8905    5.6370 H   0  0  0  0  0  0  0  0  0  0  0  0
   -2.8343    1.2612    6.5889 H   0  0  0  0  0  0  0  0  0  0  0  0
   -1.4625    0.6492    7.3343 H   0  0  0  0  0  0  0  0  0  0  0  0
   -1.9936    4.4150    5.3935 H   0  0  0  0  0  0  0  0  0  0  0  0
   -3.0986    3.3710    6.1813 H   0  0  0  0  0  0  0  0  0  0  0  0
   -2.5850    2.9771    4.5988 H   0  0  0  0  0  0  0  0  0  0  0  0
   -1.1306    4.3093    7.4558 H   0  0  0  0  0  0  0  0  0  0  0  0
   -1.3016    1.7444    9.0695 H   0  0  0  0  0  0  0  0  0  0  0  0
   -3.2845    3.9221    8.3293 H   0  0  0  0  0  0  0  0  0  0  0  0
   -3.5278    2.1640    8.5378 H   0  0  0  0  0  0  0  0  0  0  0  0
   -2.4851    5.0960   10.3981 H   0  0  0  0  0  0  0  0  0  0  0  0
   -2.5473    3.2625   12.5113 H   0  0  0  0  0  0  0  0  0  0  0  0
   -0.3555    4.3598   10.0292 H   0  0  0  0  0  0  0  0  0  0  0  0
   -1.0800    2.1582   11.5814 H   0  0  0  0  0  0  0  0  0  0  0  0
    0.9478    4.5512    7.8690 H   0  0  0  0  0  0  0  0  0  0  0  0
    1.1053    3.0041    8.6763 H   0  0  0  0  0  0  0  0  0  0  0  0
    2.2365    3.6211    6.2711 H   0  0  0  0  0  0  0  0  0  0  0  0
    1.9964    2.0475    6.8889 H   0  0  0  0  0  0  0  0  0  0  0  0
    0.1035    4.8286    5.3790 H   0  0  0  0  0  0  0  0  0  0  0  0
   -0.2799    4.0622    3.8465 H   0  0  0  0  0  0  0  0  0  0  0  0
    1.3433    4.3936    4.3077 H   0  0  0  0  0  0  0  0  0  0  0  0
  1  2  1  0
  1 36  1  0
  1 37  1  0
  1 38  1  0
  2 12  1  0
  2  3  1  6
  2  4  1  0
  3 39  1  0
  4  5  1  0
  4 40  1  0
  4 41  1  0
  5  6  1  0
  5 42  1  0
  5 43  1  0
  7  6  1  6
  6 44  1  0
  6 45  1  0
  7 17  1  0
  7 19  1  0
  7  8  1  0
  8  9  1  0
  8 46  1  0
  8 47  1  0
  9 10  1  0
  9 48  1  0
  9 49  1  0
 10 19  1  0
 10 11  1  1
 10 12  1  0
 11 50  1  0
 11 51  1  0
 11 52  1  0
 12 13  1  0
 12 53  1  1
 13 14  1  0
 13 15  1  0
 13 54  1  1
 14 55  1  0
 15 16  1  0
 15 17  1  0
 15 56  1  1
 16 57  1  0
 17 34  1  0
 17 18  1  6
 18 19  1  0
 18 58  1  0
 18 59  1  0
 19 20  1  1
 20 21  1  0
 20 60  1  0
 20 61  1  0
 21 22  1  0
 21 62  1  0
 21 63  1  0
 22 34  1  0
 22 23  1  6
 22 24  1  0
 23 64  1  0
 23 65  1  0
 23 66  1  0
 24 25  1  0
 24 32  1  0
 24 67  1  6
 25 30  1  0
 25 26  1  0
 25 68  1  1
 26 27  1  0
 26 69  1  0
 26 70  1  0
 27 28  1  0
 28 29  1  0
 28 30  1  0
 28 71  1  6
 29 72  1  0
 30 31  1  0
 30 73  1  6
 31 74  1  0
 32 33  1  0
 32 75  1  0
 32 76  1  0
 33 34  1  0
 33 77  1  0
 33 78  1  0
 34 35  1  6
 35 79  1  0
 35 80  1  0
 35 81  1  0
M  END
>  <i_m_ct_stereo_status>  (33) 
1

>  <s_m_source_file>  (33) 
/var/tmp/pbs.5076255.sched01/tmp14hj8t9c/0766azy0n.sdf

>  <i_m_source_file_index>  (33) 
13

>  <i_lp_mmshare_version>  (33) 
48012

>  <i_f3d_flags>  (33) 
0

>  <s_epik_input>  (33) 
W0NIMl0xW0NIMl1bQ0gyXVtDQEBdKFtDSDNdKShbT0hdKVtDQEBIXShbQ0BASF0oW09IXSlbQ0BIXTJbT0hdKVtDQF0oW0NIM10pKFtDSDJdW0NIMl0zKUM0KFtDSDJdNSlbQ0gyXVtDSDJdW0NAXShbQ0gzXSkoW0NAQF02KEMyNUMxMzQpW0NIM10pW0NASF0oW0NIMl1bQ0gyXTYpW0NAQEhdN1tDSDJdT1tDQEBIXShbT0hdKVtDQEhdN1tPSF0=

>  <s_epik_cmdline>  (33) 
J2VwaWtfcHl0aG9uJywgJy1waHQnLCAnMi4wJywgJy1waCcsICc3LjAnLCAnLXRuJywgJzgnLCAnLW1hJywgJzIwMCcsICctaW1hZScsICc8aW5maWxlLm1hZT4nLCAnLW9tYWUnLCAnPG91dGZpbGUubWFlPic=

>  <r_lp_tautomer_probability>  (33) 
1

>  <r_epik_Ionization_Penalty>  (33) 
4.16578e-06

>  <r_epik_Ionization_Penalty_Charging>  (33) 
0

>  <r_epik_Ionization_Penalty_Neutral>  (33) 
4.16578e-06

>  <r_epik_State_Penalty>  (33) 
-0

>  <r_epik_Charging_Adjusted_Penalty>  (33) 
0

>  <i_epik_Tot_Q>  (33) 
0

>  <i_epik_Tot_abs_Q>  (33) 
0

>  <s_epik_Chemistry_Notes>  (33) 
This compound contains an acetal/aminal-like group ( X-CH(R)-Y where X, Y are N, S, or O) that may be acid/base labile, releasing an aldehyde.

>  <s_lp_Force_Field>  (33) 
OPLS3e

>  <r_lp_Energy>  (33) 
466.214

>  <b_lp_Chiralities_Consistent>  (33) 
1

>  <s_lp_Variant>  (33) 
8:0-1

>  <s_i_glide_gridfile>  (33) 
pfpi4k_grid

>  <i_i_glide_lignum>  (33) 
13

>  <i_i_glide_rotatable_bonds>  (33) 
6

>  <r_i_docking_score>  (33) 
-3.04872

>  <r_i_glide_ligand_efficiency>  (33) 
-0.0871063

>  <r_i_glide_ligand_efficiency_sa>  (33) 
-0.28493

>  <r_i_glide_ligand_efficiency_ln>  (33) 
-0.669261

>  <r_i_glide_gscore>  (33) 
-3.04872

>  <r_i_glide_lipo>  (33) 
-0.0096542

>  <r_i_glide_hbond>  (33) 
0

>  <r_i_glide_metal>  (33) 
-0

>  <r_i_glide_rewards>  (33) 
-0.5636

>  <r_i_glide_evdw>  (33) 
-27.6315

>  <r_i_glide_ecoul>  (33) 
-7.46829

>  <r_i_glide_erotb>  (33) 
0.0845334

>  <r_i_glide_esite>  (33) 
-0.0581802

>  <r_i_glide_emodel>  (33) 
-44.4006

>  <r_i_glide_energy>  (33) 
-35.0998

>  <r_i_glide_einternal>  (33) 
3.51457

>  <r_i_glide_intrahb_reward>  (33) 
-0.5

>  <i_i_glide_confnum>  (33) 
1

>  <i_i_glide_posenum>  (33) 
18

>  <r_i_glide_eff_state_penalty>  (33) 
0

>  <ligand_id>  (33) 
8

>  <original_smiles>  (33) 
CC1(O)CCCC23CCC4(C)C1C(O)C(O)C21CC43CCC2(C)C(C3COC(O)C3O)CCC21C

>  <smiles>  (33) 
[H]OC1([H])OC([H])([H])C([H])(C2([H])C([H])([H])C([H])([H])C3(C([H])([H])[H])C2(C([H])([H])[H])C([H])([H])C([H])([H])C24C([H])([H])C35C([H])(O[H])C([H])(O[H])C3([H])C(O[H])(C([H])([H])[H])C([H])([H])C([H])([H])C([H])([H])C25C([H])([H])C([H])([H])C34C([H])([H])[H])C1([H])O[H]

$$$$
8:0:1
     RDKit          3D

 81 87  0  0  1  0  0  0  0  0999 V2000
    3.7426   -2.3744    6.7838 C   0  0  0  0  0  0  0  0  0  0  0  0
    3.6763   -1.4214    5.5688 C   0  0  1  0  0  0  0  0  0  0  0  0
    5.0461   -1.0542    5.6372 O   0  0  0  0  0  0  0  0  0  0  0  0
    3.5240   -2.2723    4.2477 C   0  0  0  0  0  0  0  0  0  0  0  0
    2.7536   -1.8042    2.9768 C   0  0  0  0  0  0  0  0  0  0  0  0
    1.2334   -1.4361    2.9934 C   0  0  0  0  0  0  0  0  0  0  0  0
    0.8760   -0.6251    4.2635 C   0  0  1  0  0  0  0  0  0  0  0  0
    0.6536   -1.8734    5.2525 C   0  0  0  0  0  0  0  0  0  0  0  0
    0.8024   -1.4553    6.6711 C   0  0  0  0  0  0  0  0  0  0  0  0
    1.1797   -0.0794    6.2442 C   0  0  1  0  0  0  0  0  0  0  0  0
    1.0842    0.6425    7.5777 C   0  0  0  0  0  0  0  0  0  0  0  0
    2.8227   -0.0613    5.7345 C   0  0  2  0  0  0  0  0  0  0  0  0
    3.2924    1.0377    4.6516 C   0  0  1  0  0  0  0  0  0  0  0  0
    4.5619    0.9062    4.0452 O   0  0  0  0  0  0  0  0  0  0  0  0
    2.3008    1.5439    3.5763 C   0  0  1  0  0  0  0  0  0  0  0  0
    2.5071    1.1647    2.2351 O   0  0  0  0  0  0  0  0  0  0  0  0
    0.9540    1.1735    4.1430 C   0  0  1  0  0  0  0  0  0  0  0  0
   -0.2763    0.7417    3.5791 C   0  0  0  0  0  0  0  0  0  0  0  0
   -0.0640    0.1226    5.0604 C   0  0  1  0  0  0  0  0  0  0  0  0
   -1.4975    0.0334    5.5816 C   0  0  0  0  0  0  0  0  0  0  0  0
   -1.7379    1.3708    6.2954 C   0  0  0  0  0  0  0  0  0  0  0  0
   -1.1254    2.6862    5.6591 C   0  0  1  0  0  0  0  0  0  0  0  0
   -2.3640    3.1910    4.8189 C   0  0  0  0  0  0  0  0  0  0  0  0
   -0.8927    3.8235    6.7390 C   0  0  1  0  0  0  0  0  0  0  0  0
   -1.5394    3.7448    8.1763 C   0  0  2  0  0  0  0  0  0  0  0  0
   -1.5475    5.1189    8.9068 C   0  0  0  0  0  0  0  0  0  0  0  0
   -1.3579    4.8524   10.2919 O   0  0  0  0  0  0  0  0  0  0  0  0
   -0.4454    3.8040   10.3360 C   0  0  1  0  0  0  0  0  0  0  0  0
   -0.3506    3.1541   11.5802 O   0  0  0  0  0  0  0  0  0  0  0  0
   -0.7659    2.8559    9.1927 C   0  0  1  0  0  0  0  0  0  0  0  0
   -1.5956    1.7683    9.6436 O   0  0  0  0  0  0  0  0  0  0  0  0
    0.5962    4.2255    6.7428 C   0  0  0  0  0  0  0  0  0  0  0  0
    1.3651    3.3603    5.7529 C   0  0  0  0  0  0  0  0  0  0  0  0
    0.3387    2.6225    4.8355 C   0  0  1  0  0  0  0  0  0  0  0  0
    0.1809    3.6999    3.6904 C   0  0  0  0  0  0  0  0  0  0  0  0
    2.9756   -3.1415    6.7479 H   0  0  0  0  0  0  0  0  0  0  0  0
    3.6721   -1.8419    7.7390 H   0  0  0  0  0  0  0  0  0  0  0  0
    4.6664   -2.9515    6.8238 H   0  0  0  0  0  0  0  0  0  0  0  0
    5.1836   -0.4090    4.9535 H   0  0  0  0  0  0  0  0  0  0  0  0
    4.5317   -2.5037    3.9073 H   0  0  0  0  0  0  0  0  0  0  0  0
    3.1545   -3.2555    4.5139 H   0  0  0  0  0  0  0  0  0  0  0  0
    3.3534   -1.0154    2.5375 H   0  0  0  0  0  0  0  0  0  0  0  0
    2.8489   -2.6021    2.2535 H   0  0  0  0  0  0  0  0  0  0  0  0
    1.0702   -0.9227    2.0410 H   0  0  0  0  0  0  0  0  0  0  0  0
    0.6132   -2.3370    2.9098 H   0  0  0  0  0  0  0  0  0  0  0  0
   -0.3479   -2.2876    5.1205 H   0  0  0  0  0  0  0  0  0  0  0  0
    1.2757   -2.7343    5.0693 H   0  0  0  0  0  0  0  0  0  0  0  0
   -0.1464   -1.5051    7.1990 H   0  0  0  0  0  0  0  0  0  0  0  0
    1.4769   -1.9510    7.3310 H   0  0  0  0  0  0  0  0  0  0  0  0
    0.6702    1.5821    7.3372 H   0  0  0  0  0  0  0  0  0  0  0  0
    2.0213    0.7340    8.1336 H   0  0  0  0  0  0  0  0  0  0  0  0
    0.3588    0.2323    8.2878 H   0  0  0  0  0  0  0  0  0  0  0  0
    3.3191    0.3445    6.6009 H   0  0  0  0  0  0  0  0  0  0  0  0
    3.5306    1.9289    5.2215 H   0  0  0  0  0  0  0  0  0  0  0  0
    4.6215    1.5802    3.3854 H   0  0  0  0  0  0  0  0  0  0  0  0
    2.4758    2.6022    3.5128 H   0  0  0  0  0  0  0  0  0  0  0  0
    2.2311    0.2829    2.1398 H   0  0  0  0  0  0  0  0  0  0  0  0
   -1.0731    1.4641    3.4920 H   0  0  0  0  0  0  0  0  0  0  0  0
   -0.4512    0.1544    2.6835 H   0  0  0  0  0  0  0  0  0  0  0  0
   -2.2090   -0.0512    4.7631 H   0  0  0  0  0  0  0  0  0  0  0  0
   -1.7266   -0.8086    6.2172 H   0  0  0  0  0  0  0  0  0  0  0  0
   -2.8101    1.4844    6.5056 H   0  0  0  0  0  0  0  0  0  0  0  0
   -1.3176    1.2010    7.2619 H   0  0  0  0  0  0  0  0  0  0  0  0
   -2.2326    4.1543    4.3335 H   0  0  0  0  0  0  0  0  0  0  0  0
   -3.2180    3.3397    5.4827 H   0  0  0  0  0  0  0  0  0  0  0  0
   -2.7246    2.5002    4.0532 H   0  0  0  0  0  0  0  0  0  0  0  0
   -1.3499    4.6950    6.2799 H   0  0  0  0  0  0  0  0  0  0  0  0
   -2.5915    3.4603    8.0633 H   0  0  0  0  0  0  0  0  0  0  0  0
   -0.7212    5.7529    8.5747 H   0  0  0  0  0  0  0  0  0  0  0  0
   -2.4758    5.6702    8.7653 H   0  0  0  0  0  0  0  0  0  0  0  0
    0.5469    4.2003   10.1285 H   0  0  0  0  0  0  0  0  0  0  0  0
   -1.1478    2.6608   11.7410 H   0  0  0  0  0  0  0  0  0  0  0  0
    0.2168    2.5107    8.9021 H   0  0  0  0  0  0  0  0  0  0  0  0
   -2.2151    2.0289   10.3010 H   0  0  0  0  0  0  0  0  0  0  0  0
    0.7128    5.2792    6.4867 H   0  0  0  0  0  0  0  0  0  0  0  0
    1.0599    4.1503    7.7156 H   0  0  0  0  0  0  0  0  0  0  0  0
    2.0679    3.9880    5.1977 H   0  0  0  0  0  0  0  0  0  0  0  0
    2.0286    2.7051    6.3043 H   0  0  0  0  0  0  0  0  0  0  0  0
   -0.1608    4.6538    4.0844 H   0  0  0  0  0  0  0  0  0  0  0  0
   -0.5130    3.4133    2.8965 H   0  0  0  0  0  0  0  0  0  0  0  0
    1.0930    3.9752    3.1663 H   0  0  0  0  0  0  0  0  0  0  0  0
  1  2  1  0
  1 36  1  0
  1 37  1  0
  1 38  1  0
  2 12  1  0
  2  3  1  6
  2  4  1  0
  3 39  1  0
  4  5  1  0
  4 40  1  0
  4 41  1  0
  5  6  1  0
  5 42  1  0
  5 43  1  0
  7  6  1  6
  6 44  1  0
  6 45  1  0
  7 17  1  0
  7 19  1  0
  7  8  1  0
  8  9  1  0
  8 46  1  0
  8 47  1  0
  9 10  1  0
  9 48  1  0
  9 49  1  0
 10 19  1  0
 10 11  1  1
 10 12  1  0
 11 50  1  0
 11 51  1  0
 11 52  1  0
 12 13  1  0
 12 53  1  1
 13 14  1  0
 13 15  1  0
 13 54  1  1
 14 55  1  0
 15 16  1  0
 15 17  1  0
 15 56  1  6
 16 57  1  0
 17 34  1  0
 17 18  1  6
 18 19  1  0
 18 58  1  0
 18 59  1  0
 19 20  1  1
 20 21  1  0
 20 60  1  0
 20 61  1  0
 21 22  1  0
 21 62  1  0
 21 63  1  0
 22 34  1  0
 22 23  1  6
 22 24  1  0
 23 64  1  0
 23 65  1  0
 23 66  1  0
 24 25  1  0
 24 32  1  0
 24 67  1  6
 25 30  1  0
 25 26  1  0
 25 68  1  6
 26 27  1  0
 26 69  1  0
 26 70  1  0
 27 28  1  0
 28 29  1  0
 28 30  1  0
 28 71  1  6
 29 72  1  0
 30 31  1  0
 30 73  1  6
 31 74  1  0
 32 33  1  0
 32 75  1  0
 32 76  1  0
 33 34  1  0
 33 77  1  0
 33 78  1  0
 34 35  1  6
 35 79  1  0
 35 80  1  0
 35 81  1  0
M  END
>  <i_m_ct_stereo_status>  (34) 
1

>  <s_m_source_file>  (34) 
/var/tmp/pbs.5076255.sched01/tmp14hj8t9c/0766azy0n.sdf

>  <i_m_source_file_index>  (34) 
13

>  <i_lp_mmshare_version>  (34) 
48012

>  <i_f3d_flags>  (34) 
0

>  <s_epik_input>  (34) 
W0NIMl0xW0NIMl1bQ0gyXVtDQEBdKFtDSDNdKShbT0hdKVtDQEBIXShbQ0BASF0oW09IXSlbQ0BIXTJbT0hdKVtDQF0oW0NIM10pKFtDSDJdW0NIMl0zKUM0KFtDSDJdNSlbQ0gyXVtDSDJdW0NAXShbQ0gzXSkoW0NAQF02KEMyNUMxMzQpW0NIM10pW0NASF0oW0NIMl1bQ0gyXTYpW0NAQEhdN1tDSDJdT1tDQEBIXShbT0hdKVtDQEhdN1tPSF0=

>  <s_epik_cmdline>  (34) 
J2VwaWtfcHl0aG9uJywgJy1waHQnLCAnMi4wJywgJy1waCcsICc3LjAnLCAnLXRuJywgJzgnLCAnLW1hJywgJzIwMCcsICctaW1hZScsICc8aW5maWxlLm1hZT4nLCAnLW9tYWUnLCAnPG91dGZpbGUubWFlPic=

>  <r_lp_tautomer_probability>  (34) 
1

>  <r_epik_Ionization_Penalty>  (34) 
4.16578e-06

>  <r_epik_Ionization_Penalty_Charging>  (34) 
0

>  <r_epik_Ionization_Penalty_Neutral>  (34) 
4.16578e-06

>  <r_epik_State_Penalty>  (34) 
-0

>  <r_epik_Charging_Adjusted_Penalty>  (34) 
0

>  <i_epik_Tot_Q>  (34) 
0

>  <i_epik_Tot_abs_Q>  (34) 
0

>  <s_epik_Chemistry_Notes>  (34) 
This compound contains an acetal/aminal-like group ( X-CH(R)-Y where X, Y are N, S, or O) that may be acid/base labile, releasing an aldehyde.

>  <s_lp_Force_Field>  (34) 
OPLS3e

>  <r_lp_Energy>  (34) 
466.214

>  <b_lp_Chiralities_Consistent>  (34) 
1

>  <s_lp_Variant>  (34) 
8:0-1

>  <s_i_glide_gridfile>  (34) 
pfpi4k_grid

>  <i_i_glide_lignum>  (34) 
13

>  <i_i_glide_rotatable_bonds>  (34) 
6

>  <r_i_docking_score>  (34) 
-2.38955

>  <r_i_glide_ligand_efficiency>  (34) 
-0.0682728

>  <r_i_glide_ligand_efficiency_sa>  (34) 
-0.223325

>  <r_i_glide_ligand_efficiency_ln>  (34) 
-0.524559

>  <r_i_glide_gscore>  (34) 
-2.38955

>  <r_i_glide_lipo>  (34) 
-0.00500135

>  <r_i_glide_hbond>  (34) 
0

>  <r_i_glide_metal>  (34) 
-0

>  <r_i_glide_rewards>  (34) 
-0.5636

>  <r_i_glide_evdw>  (34) 
-25.0253

>  <r_i_glide_ecoul>  (34) 
-4.29257

>  <r_i_glide_erotb>  (34) 
0.0845334

>  <r_i_glide_esite>  (34) 
-0.0103322

>  <r_i_glide_emodel>  (34) 
-36.1513

>  <r_i_glide_energy>  (34) 
-29.3178

>  <r_i_glide_einternal>  (34) 
3.13061

>  <r_i_glide_intrahb_reward>  (34) 
-0.5

>  <i_i_glide_confnum>  (34) 
1

>  <i_i_glide_posenum>  (34) 
35

>  <r_i_glide_eff_state_penalty>  (34) 
0

>  <ligand_id>  (34) 
8

>  <original_smiles>  (34) 
CC1(O)CCCC23CCC4(C)C1C(O)C(O)C21CC43CCC2(C)C(C3COC(O)C3O)CCC21C

>  <smiles>  (34) 
[H]OC1([H])OC([H])([H])C([H])(C2([H])C([H])([H])C([H])([H])C3(C([H])([H])[H])C2(C([H])([H])[H])C([H])([H])C([H])([H])C24C([H])([H])C35C([H])(O[H])C([H])(O[H])C3([H])C(O[H])(C([H])([H])[H])C([H])([H])C([H])([H])C([H])([H])C25C([H])([H])C([H])([H])C34C([H])([H])[H])C1([H])O[H]

$$$$
8:0:2
     RDKit          3D

 81 87  0  0  1  0  0  0  0  0999 V2000
    3.6656   -2.3970    6.7112 C   0  0  0  0  0  0  0  0  0  0  0  0
    3.5876   -1.4089    5.5201 C   0  0  1  0  0  0  0  0  0  0  0  0
    4.9650   -1.0716    5.5770 O   0  0  0  0  0  0  0  0  0  0  0  0
    3.3934   -2.2197    4.1828 C   0  0  0  0  0  0  0  0  0  0  0  0
    2.6006   -1.7040    2.9438 C   0  0  0  0  0  0  0  0  0  0  0  0
    1.0882   -1.3166    3.0026 C   0  0  0  0  0  0  0  0  0  0  0  0
    0.7695   -0.5342    4.3120 C   0  0  1  0  0  0  0  0  0  0  0  0
    0.5497   -1.8071    5.2645 C   0  0  0  0  0  0  0  0  0  0  0  0
    0.7362   -1.4297    6.6853 C   0  0  0  0  0  0  0  0  0  0  0  0
    1.1267   -0.0515    6.2932 C   0  0  1  0  0  0  0  0  0  0  0  0
    1.0689    0.6287    7.6568 C   0  0  0  0  0  0  0  0  0  0  0  0
    2.7594   -0.0380    5.7444 C   0  0  2  0  0  0  0  0  0  0  0  0
    3.2202    1.0794    4.6712 C   0  0  1  0  0  0  0  0  0  0  0  0
    4.4734    0.9135    4.0320 O   0  0  0  0  0  0  0  0  0  0  0  0
    2.2099    1.6362    3.6433 C   0  0  1  0  0  0  0  0  0  0  0  0
    2.3613    1.2924    2.2878 O   0  0  0  0  0  0  0  0  0  0  0  0
    0.8699    1.2651    4.2263 C   0  0  1  0  0  0  0  0  0  0  0  0
   -0.3776    0.8690    3.6812 C   0  0  0  0  0  0  0  0  0  0  0  0
   -0.1455    0.2013    5.1388 C   0  0  1  0  0  0  0  0  0  0  0  0
   -1.5646    0.1186    5.6903 C   0  0  0  0  0  0  0  0  0  0  0  0
   -1.7730    1.4373    6.4474 C   0  0  0  0  0  0  0  0  0  0  0  0
   -1.1525    2.7623    5.8322 C   0  0  1  0  0  0  0  0  0  0  0  0
   -2.4021    3.3055    5.0350 C   0  0  0  0  0  0  0  0  0  0  0  0
   -0.8760    3.8679    6.9323 C   0  0  1  0  0  0  0  0  0  0  0  0
   -1.4889    3.7690    8.3759 C   0  0  2  0  0  0  0  0  0  0  0  0
   -1.4803    5.1141    9.1443 C   0  0  0  0  0  0  0  0  0  0  0  0
   -1.2616    4.8217   10.5207 O   0  0  0  0  0  0  0  0  0  0  0  0
   -0.3398    3.7837   10.5210 C   0  0  1  0  0  0  0  0  0  0  0  0
   -0.2307    3.0753   11.7423 O   0  0  0  0  0  0  0  0  0  0  0  0
   -0.6974    2.8759    9.3624 C   0  0  1  0  0  0  0  0  0  0  0  0
   -1.5166    1.8079    9.7911 O   0  0  0  0  0  0  0  0  0  0  0  0
    0.6161    4.2473    6.9155 C   0  0  0  0  0  0  0  0  0  0  0  0
    1.3457    3.3923    5.8898 C   0  0  0  0  0  0  0  0  0  0  0  0
    0.2899    2.7028    4.9745 C   0  0  1  0  0  0  0  0  0  0  0  0
    0.1258    3.8140    3.8624 C   0  0  0  0  0  0  0  0  0  0  0  0
    2.8849   -3.1513    6.6668 H   0  0  0  0  0  0  0  0  0  0  0  0
    3.6225   -1.8927    7.6798 H   0  0  0  0  0  0  0  0  0  0  0  0
    4.5793   -2.9908    6.7138 H   0  0  0  0  0  0  0  0  0  0  0  0
    5.1043   -0.4129    4.8951 H   0  0  0  0  0  0  0  0  0  0  0  0
    4.3878   -2.4554    3.8101 H   0  0  0  0  0  0  0  0  0  0  0  0
    3.0162   -3.2050    4.4281 H   0  0  0  0  0  0  0  0  0  0  0  0
    3.1878   -0.9063    2.5095 H   0  0  0  0  0  0  0  0  0  0  0  0
    2.6690   -2.4832    2.1925 H   0  0  0  0  0  0  0  0  0  0  0  0
    0.9284   -0.7656    2.0756 H   0  0  0  0  0  0  0  0  0  0  0  0
    0.4624   -2.2055    2.9062 H   0  0  0  0  0  0  0  0  0  0  0  0
   -0.4595   -2.2027    5.1423 H   0  0  0  0  0  0  0  0  0  0  0  0
    1.1537   -2.6713    5.0444 H   0  0  0  0  0  0  0  0  0  0  0  0
   -0.1947   -1.4807    7.2397 H   0  0  0  0  0  0  0  0  0  0  0  0
    1.4212   -1.9547    7.3183 H   0  0  0  0  0  0  0  0  0  0  0  0
    0.6733    1.5775    7.4271 H   0  0  0  0  0  0  0  0  0  0  0  0
    2.0186    0.7053    8.1883 H   0  0  0  0  0  0  0  0  0  0  0  0
    0.3582    0.2160    8.3662 H   0  0  0  0  0  0  0  0  0  0  0  0
    3.2801    0.3357    6.6097 H   0  0  0  0  0  0  0  0  0  0  0  0
    3.4874    1.9501    5.2618 H   0  0  0  0  0  0  0  0  0  0  0  0
    4.5692    1.6181    3.4120 H   0  0  0  0  0  0  0  0  0  0  0  0
    2.4014    2.6984    3.6043 H   0  0  0  0  0  0  0  0  0  0  0  0
    1.7252    1.7740    1.7889 H   0  0  0  0  0  0  0  0  0  0  0  0
   -1.1673    1.5973    3.6320 H   0  0  0  0  0  0  0  0  0  0  0  0
   -0.5776    0.2998    2.7728 H   0  0  0  0  0  0  0  0  0  0  0  0
   -2.2929    0.0618    4.8879 H   0  0  0  0  0  0  0  0  0  0  0  0
   -1.7871   -0.7397    6.3049 H   0  0  0  0  0  0  0  0  0  0  0  0
   -2.8395    1.5547    6.6788 H   0  0  0  0  0  0  0  0  0  0  0  0
   -1.3397    1.2348    7.4026 H   0  0  0  0  0  0  0  0  0  0  0  0
   -2.2628    4.2793    4.5743 H   0  0  0  0  0  0  0  0  0  0  0  0
   -3.2403    3.4505    5.7181 H   0  0  0  0  0  0  0  0  0  0  0  0
   -2.7860    2.6428    4.2588 H   0  0  0  0  0  0  0  0  0  0  0  0
   -1.3355    4.7613    6.5205 H   0  0  0  0  0  0  0  0  0  0  0  0
   -2.5453    3.4669    8.2894 H   0  0  0  0  0  0  0  0  0  0  0  0
   -0.6617    5.7497    8.8053 H   0  0  0  0  0  0  0  0  0  0  0  0
   -2.4128    5.6633    9.0338 H   0  0  0  0  0  0  0  0  0  0  0  0
    0.6531    4.1655   10.3003 H   0  0  0  0  0  0  0  0  0  0  0  0
   -1.0402    2.6094   11.8995 H   0  0  0  0  0  0  0  0  0  0  0  0
    0.2828    2.5072    9.0447 H   0  0  0  0  0  0  0  0  0  0  0  0
   -2.1545    2.0513   10.4550 H   0  0  0  0  0  0  0  0  0  0  0  0
    0.7447    5.3057    6.6898 H   0  0  0  0  0  0  0  0  0  0  0  0
    1.1053    4.1415    7.8756 H   0  0  0  0  0  0  0  0  0  0  0  0
    2.0543    4.0207    5.3432 H   0  0  0  0  0  0  0  0  0  0  0  0
    2.0072    2.7085    6.4089 H   0  0  0  0  0  0  0  0  0  0  0  0
   -0.1909    4.7618    4.2916 H   0  0  0  0  0  0  0  0  0  0  0  0
   -0.5875    3.5603    3.0800 H   0  0  0  0  0  0  0  0  0  0  0  0
    1.0299    4.0899    3.3288 H   0  0  0  0  0  0  0  0  0  0  0  0
  1  2  1  0
  1 36  1  0
  1 37  1  0
  1 38  1  0
  2 12  1  0
  2  3  1  6
  2  4  1  0
  3 39  1  0
  4  5  1  0
  4 40  1  0
  4 41  1  0
  5  6  1  0
  5 42  1  0
  5 43  1  0
  7  6  1  6
  6 44  1  0
  6 45  1  0
  7 17  1  0
  7 19  1  0
  7  8  1  0
  8  9  1  0
  8 46  1  0
  8 47  1  0
  9 10  1  0
  9 48  1  0
  9 49  1  0
 10 19  1  0
 10 11  1  1
 10 12  1  0
 11 50  1  0
 11 51  1  0
 11 52  1  0
 12 13  1  0
 12 53  1  1
 13 14  1  0
 13 15  1  0
 13 54  1  1
 14 55  1  0
 15 16  1  0
 15 17  1  0
 15 56  1  6
 16 57  1  0
 17 34  1  0
 17 18  1  6
 18 19  1  0
 18 58  1  0
 18 59  1  0
 19 20  1  1
 20 21  1  0
 20 60  1  0
 20 61  1  0
 21 22  1  0
 21 62  1  0
 21 63  1  0
 22 34  1  0
 22 23  1  6
 22 24  1  0
 23 64  1  0
 23 65  1  0
 23 66  1  0
 24 25  1  0
 24 32  1  0
 24 67  1  6
 25 30  1  0
 25 26  1  0
 25 68  1  6
 26 27  1  0
 26 69  1  0
 26 70  1  0
 27 28  1  0
 28 29  1  0
 28 30  1  0
 28 71  1  6
 29 72  1  0
 30 31  1  0
 30 73  1  6
 31 74  1  0
 32 33  1  0
 32 75  1  0
 32 76  1  0
 33 34  1  0
 33 77  1  0
 33 78  1  0
 34 35  1  6
 35 79  1  0
 35 80  1  0
 35 81  1  0
M  END
>  <i_m_ct_stereo_status>  (35) 
1

>  <s_m_source_file>  (35) 
/var/tmp/pbs.5076255.sched01/tmp14hj8t9c/0766azy0n.sdf

>  <i_m_source_file_index>  (35) 
13

>  <i_lp_mmshare_version>  (35) 
48012

>  <i_f3d_flags>  (35) 
0

>  <s_epik_input>  (35) 
W0NIMl0xW0NIMl1bQ0gyXVtDQEBdKFtDSDNdKShbT0hdKVtDQEBIXShbQ0BASF0oW09IXSlbQ0BIXTJbT0hdKVtDQF0oW0NIM10pKFtDSDJdW0NIMl0zKUM0KFtDSDJdNSlbQ0gyXVtDSDJdW0NAXShbQ0gzXSkoW0NAQF02KEMyNUMxMzQpW0NIM10pW0NASF0oW0NIMl1bQ0gyXTYpW0NAQEhdN1tDSDJdT1tDQEBIXShbT0hdKVtDQEhdN1tPSF0=

>  <s_epik_cmdline>  (35) 
J2VwaWtfcHl0aG9uJywgJy1waHQnLCAnMi4wJywgJy1waCcsICc3LjAnLCAnLXRuJywgJzgnLCAnLW1hJywgJzIwMCcsICctaW1hZScsICc8aW5maWxlLm1hZT4nLCAnLW9tYWUnLCAnPG91dGZpbGUubWFlPic=

>  <r_lp_tautomer_probability>  (35) 
1

>  <r_epik_Ionization_Penalty>  (35) 
4.16578e-06

>  <r_epik_Ionization_Penalty_Charging>  (35) 
0

>  <r_epik_Ionization_Penalty_Neutral>  (35) 
4.16578e-06

>  <r_epik_State_Penalty>  (35) 
-0

>  <r_epik_Charging_Adjusted_Penalty>  (35) 
0

>  <i_epik_Tot_Q>  (35) 
0

>  <i_epik_Tot_abs_Q>  (35) 
0

>  <s_epik_Chemistry_Notes>  (35) 
This compound contains an acetal/aminal-like group ( X-CH(R)-Y where X, Y are N, S, or O) that may be acid/base labile, releasing an aldehyde.

>  <s_lp_Force_Field>  (35) 
OPLS3e

>  <r_lp_Energy>  (35) 
466.214

>  <b_lp_Chiralities_Consistent>  (35) 
1

>  <s_lp_Variant>  (35) 
8:0-1

>  <s_i_glide_gridfile>  (35) 
pfpi4k_grid

>  <i_i_glide_lignum>  (35) 
13

>  <i_i_glide_rotatable_bonds>  (35) 
6

>  <r_i_docking_score>  (35) 
-2.35404

>  <r_i_glide_ligand_efficiency>  (35) 
-0.0672582

>  <r_i_glide_ligand_efficiency_sa>  (35) 
-0.220006

>  <r_i_glide_ligand_efficiency_ln>  (35) 
-0.516763

>  <r_i_glide_gscore>  (35) 
-2.35404

>  <r_i_glide_lipo>  (35) 
-0.00753395

>  <r_i_glide_hbond>  (35) 
0

>  <r_i_glide_metal>  (35) 
-0

>  <r_i_glide_rewards>  (35) 
-0.5636

>  <r_i_glide_evdw>  (35) 
-25.2162

>  <r_i_glide_ecoul>  (35) 
-3.9657

>  <r_i_glide_erotb>  (35) 
0.0845334

>  <r_i_glide_esite>  (35) 
-0.0117714

>  <r_i_glide_emodel>  (35) 
-36.0561

>  <r_i_glide_energy>  (35) 
-29.1819

>  <r_i_glide_einternal>  (35) 
3.33274

>  <r_i_glide_intrahb_reward>  (35) 
-0.5

>  <i_i_glide_confnum>  (35) 
1

>  <i_i_glide_posenum>  (35) 
1

>  <r_i_glide_eff_state_penalty>  (35) 
0

>  <ligand_id>  (35) 
8

>  <original_smiles>  (35) 
CC1(O)CCCC23CCC4(C)C1C(O)C(O)C21CC43CCC2(C)C(C3COC(O)C3O)CCC21C

>  <smiles>  (35) 
[H]OC1([H])OC([H])([H])C([H])(C2([H])C([H])([H])C([H])([H])C3(C([H])([H])[H])C2(C([H])([H])[H])C([H])([H])C([H])([H])C24C([H])([H])C35C([H])(O[H])C([H])(O[H])C3([H])C(O[H])(C([H])([H])[H])C([H])([H])C([H])([H])C([H])([H])C25C([H])([H])C([H])([H])C34C([H])([H])[H])C1([H])O[H]

$$$$
8:1:0
     RDKit          3D

 81 87  0  0  1  0  0  0  0  0999 V2000
    0.3980   -5.1144    5.8953 C   0  0  0  0  0  0  0  0  0  0  0  0
    0.8612   -3.7094    5.4452 C   0  0  1  0  0  0  0  0  0  0  0  0
   -0.3660   -3.0129    5.6512 O   0  0  0  0  0  0  0  0  0  0  0  0
    1.8530   -3.0353    6.4239 C   0  0  0  0  0  0  0  0  0  0  0  0
    3.3632   -3.0583    6.1148 C   0  0  0  0  0  0  0  0  0  0  0  0
    3.8943   -2.4663    4.7772 C   0  0  0  0  0  0  0  0  0  0  0  0
    4.0245   -3.2575    3.3863 C   0  0  2  0  0  0  0  0  0  0  0  0
    4.5828   -4.5824    3.9679 C   0  0  0  0  0  0  0  0  0  0  0  0
    3.2943   -5.4341    4.2186 C   0  0  0  0  0  0  0  0  0  0  0  0
    2.1816   -4.7852    3.3295 C   0  0  1  0  0  0  0  0  0  0  0  0
    1.3023   -5.8787    2.6712 C   0  0  0  0  0  0  0  0  0  0  0  0
    1.2600   -3.5601    3.9266 C   0  0  2  0  0  0  0  0  0  0  0  0
    1.3445   -1.9916    3.4084 C   0  0  1  0  0  0  0  0  0  0  0  0
    0.8321   -1.0257    4.3180 O   0  0  0  0  0  0  0  0  0  0  0  0
    2.5060   -1.3084    2.5121 C   0  0  1  0  0  0  0  0  0  0  0  0
    2.9030   -0.0274    2.9575 O   0  0  0  0  0  0  0  0  0  0  0  0
    3.6627   -2.3060    2.1487 C   0  0  2  0  0  0  0  0  0  0  0  0
    2.7801   -3.2368    1.4122 C   0  0  0  0  0  0  0  0  0  0  0  0
    3.1905   -4.2133    2.3992 C   0  0  1  0  0  0  0  0  0  0  0  0
    3.9870   -5.1804    1.4032 C   0  0  0  0  0  0  0  0  0  0  0  0
    5.3335   -4.5751    0.8192 C   0  0  0  0  0  0  0  0  0  0  0  0
    5.6052   -3.0436    0.4326 C   0  0  1  0  0  0  0  0  0  0  0  0
    7.1623   -2.9676    0.5744 C   0  0  0  0  0  0  0  0  0  0  0  0
    5.4168   -2.6939   -1.1003 C   0  0  1  0  0  0  0  0  0  0  0  0
    4.3869   -3.4525   -2.0025 C   0  0  2  0  0  0  0  0  0  0  0  0
    4.8398   -3.4800   -3.4799 C   0  0  0  0  0  0  0  0  0  0  0  0
    3.6853   -3.4512   -4.2912 O   0  0  0  0  0  0  0  0  0  0  0  0
    2.8312   -2.5989   -3.6137 C   0  0  1  0  0  0  0  0  0  0  0  0
    1.5086   -2.6518   -4.0173 O   0  0  0  0  0  0  0  0  0  0  0  0
    2.9376   -2.8812   -2.1065 C   0  0  1  0  0  0  0  0  0  0  0  0
    1.9587   -3.8522   -1.7031 O   0  0  0  0  0  0  0  0  0  0  0  0
    5.2252   -1.1684   -1.0924 C   0  0  0  0  0  0  0  0  0  0  0  0
    4.3829   -0.8620    0.1489 C   0  0  0  0  0  0  0  0  0  0  0  0
    4.8692   -1.8479    1.2570 C   0  0  1  0  0  0  0  0  0  0  0  0
    5.8372   -1.0557    2.1428 C   0  0  0  0  0  0  0  0  0  0  0  0
    1.1689   -5.8762    5.8877 H   0  0  0  0  0  0  0  0  0  0  0  0
   -0.4192   -5.4819    5.2822 H   0  0  0  0  0  0  0  0  0  0  0  0
    0.0220   -5.0919    6.9213 H   0  0  0  0  0  0  0  0  0  0  0  0
   -0.2161   -2.1287    5.3264 H   0  0  0  0  0  0  0  0  0  0  0  0
    1.5816   -1.9911    6.5746 H   0  0  0  0  0  0  0  0  0  0  0  0
    1.7074   -3.4766    7.4102 H   0  0  0  0  0  0  0  0  0  0  0  0
    3.7805   -2.3936    6.8654 H   0  0  0  0  0  0  0  0  0  0  0  0
    3.8186   -4.0013    6.4237 H   0  0  0  0  0  0  0  0  0  0  0  0
    3.4691   -1.4954    4.7068 H   0  0  0  0  0  0  0  0  0  0  0  0
    4.9367   -2.1815    5.0018 H   0  0  0  0  0  0  0  0  0  0  0  0
    5.3111   -5.1082    3.3889 H   0  0  0  0  0  0  0  0  0  0  0  0
    5.1698   -4.4460    4.8833 H   0  0  0  0  0  0  0  0  0  0  0  0
    3.4780   -6.4742    3.9330 H   0  0  0  0  0  0  0  0  0  0  0  0
    3.0436   -5.4960    5.2668 H   0  0  0  0  0  0  0  0  0  0  0  0
    0.6886   -5.4635    1.8735 H   0  0  0  0  0  0  0  0  0  0  0  0
    0.6349   -6.3323    3.4014 H   0  0  0  0  0  0  0  0  0  0  0  0
    1.8876   -6.6833    2.2361 H   0  0  0  0  0  0  0  0  0  0  0  0
    0.3058   -3.8196    3.4770 H   0  0  0  0  0  0  0  0  0  0  0  0
    0.5035   -1.9314    2.7159 H   0  0  0  0  0  0  0  0  0  0  0  0
    0.8943   -0.1787    3.8967 H   0  0  0  0  0  0  0  0  0  0  0  0
    1.9850   -1.0028    1.5954 H   0  0  0  0  0  0  0  0  0  0  0  0
    3.3070    0.4131    2.2253 H   0  0  0  0  0  0  0  0  0  0  0  0
    1.7094   -3.1270    1.3658 H   0  0  0  0  0  0  0  0  0  0  0  0
    3.1325   -3.3562    0.3972 H   0  0  0  0  0  0  0  0  0  0  0  0
    4.1999   -6.1511    1.8389 H   0  0  0  0  0  0  0  0  0  0  0  0
    3.3617   -5.4566    0.5540 H   0  0  0  0  0  0  0  0  0  0  0  0
    6.0951   -4.8329    1.5438 H   0  0  0  0  0  0  0  0  0  0  0  0
    5.6454   -5.2085   -0.0192 H   0  0  0  0  0  0  0  0  0  0  0  0
    7.5922   -2.0274    0.2210 H   0  0  0  0  0  0  0  0  0  0  0  0
    7.6637   -3.7481   -0.0021 H   0  0  0  0  0  0  0  0  0  0  0  0
    7.4676   -3.1141    1.6046 H   0  0  0  0  0  0  0  0  0  0  0  0
    6.3862   -2.8917   -1.5917 H   0  0  0  0  0  0  0  0  0  0  0  0
    4.3665   -4.5014   -1.6984 H   0  0  0  0  0  0  0  0  0  0  0  0
    5.4218   -2.6007   -3.7330 H   0  0  0  0  0  0  0  0  0  0  0  0
    5.3987   -4.3759   -3.7405 H   0  0  0  0  0  0  0  0  0  0  0  0
    3.1331   -1.5897   -3.8011 H   0  0  0  0  0  0  0  0  0  0  0  0
    1.1706   -3.5167   -3.6576 H   0  0  0  0  0  0  0  0  0  0  0  0
    2.7376   -1.9121   -1.6593 H   0  0  0  0  0  0  0  0  0  0  0  0
    2.1926   -4.7304   -2.0710 H   0  0  0  0  0  0  0  0  0  0  0  0
    6.1980   -0.6820   -0.9877 H   0  0  0  0  0  0  0  0  0  0  0  0
    4.8107   -0.7922   -2.0239 H   0  0  0  0  0  0  0  0  0  0  0  0
    4.5015    0.2040    0.4422 H   0  0  0  0  0  0  0  0  0  0  0  0
    3.3385   -1.0373   -0.0447 H   0  0  0  0  0  0  0  0  0  0  0  0
    6.6218   -0.6059    1.5348 H   0  0  0  0  0  0  0  0  0  0  0  0
    6.2669   -1.6915    2.9051 H   0  0  0  0  0  0  0  0  0  0  0  0
    5.3392   -0.2331    2.6453 H   0  0  0  0  0  0  0  0  0  0  0  0
  1  2  1  0
  1 36  1  0
  1 37  1  0
  1 38  1  0
  2 12  1  0
  2  3  1  6
  2  4  1  0
  3 39  1  0
  4  5  1  0
  4 40  1  0
  4 41  1  0
  5  6  1  0
  5 42  1  0
  5 43  1  0
  7  6  1  1
  6 44  1  0
  6 45  1  0
  7 17  1  0
  7 19  1  0
  7  8  1  0
  8  9  1  0
  8 46  1  0
  8 47  1  0
  9 10  1  0
  9 48  1  0
  9 49  1  0
 10 19  1  0
 10 11  1  6
 10 12  1  0
 11 50  1  0
 11 51  1  0
 11 52  1  0
 12 13  1  0
 12 53  1  6
 13 14  1  0
 13 15  1  0
 13 54  1  6
 14 55  1  0
 15 16  1  0
 15 17  1  0
 15 56  1  6
 16 57  1  0
 17 34  1  0
 17 18  1  6
 18 19  1  0
 18 58  1  0
 18 59  1  0
 19 20  1  6
 20 21  1  0
 20 60  1  0
 20 61  1  0
 21 22  1  0
 21 62  1  0
 21 63  1  0
 22 34  1  0
 22 23  1  1
 22 24  1  0
 23 64  1  0
 23 65  1  0
 23 66  1  0
 24 25  1  0
 24 32  1  0
 24 67  1  6
 25 30  1  0
 25 26  1  0
 25 68  1  1
 26 27  1  0
 26 69  1  0
 26 70  1  0
 27 28  1  0
 28 29  1  0
 28 30  1  0
 28 71  1  1
 29 72  1  0
 30 31  1  0
 30 73  1  1
 31 74  1  0
 32 33  1  0
 32 75  1  0
 32 76  1  0
 33 34  1  0
 33 77  1  0
 33 78  1  0
 34 35  1  1
 35 79  1  0
 35 80  1  0
 35 81  1  0
M  END
>  <i_m_ct_stereo_status>  (36) 
1

>  <s_m_source_file>  (36) 
/var/tmp/pbs.5076255.sched01/tmp14hj8t9c/0766azy0n.sdf

>  <i_m_source_file_index>  (36) 
14

>  <i_lp_mmshare_version>  (36) 
48012

>  <i_f3d_flags>  (36) 
2

>  <s_epik_input>  (36) 
W0NIMl0xW0NIMl1bQ0gyXVtDQEBdKFtDSDNdKShbT0hdKVtDQEBIXShbQ0BASF0oW09IXSlbQ0BIXTJbT0hdKVtDQF0oW0NIM10pKFtDSDJdW0NIMl0zKUM0KFtDSDJdNSlbQ0gyXVtDSDJdW0NAXShbQ0gzXSkoW0NAQF02KEMyNUMxMzQpW0NIM10pW0NASF0oW0NIMl1bQ0gyXTYpW0NAQEhdN1tDSDJdT1tDQEBIXShbT0hdKVtDQEhdN1tPSF0=

>  <s_epik_cmdline>  (36) 
J2VwaWtfcHl0aG9uJywgJy1waHQnLCAnMi4wJywgJy1waCcsICc3LjAnLCAnLXRuJywgJzgnLCAnLW1hJywgJzIwMCcsICctaW1hZScsICc8aW5maWxlLm1hZT4nLCAnLW9tYWUnLCAnPG91dGZpbGUubWFlPic=

>  <r_lp_tautomer_probability>  (36) 
1

>  <r_epik_Ionization_Penalty>  (36) 
4.16578e-06

>  <r_epik_Ionization_Penalty_Charging>  (36) 
0

>  <r_epik_Ionization_Penalty_Neutral>  (36) 
4.16578e-06

>  <r_epik_State_Penalty>  (36) 
-0

>  <r_epik_Charging_Adjusted_Penalty>  (36) 
0

>  <i_epik_Tot_Q>  (36) 
0

>  <i_epik_Tot_abs_Q>  (36) 
0

>  <s_epik_Chemistry_Notes>  (36) 
This compound contains an acetal/aminal-like group ( X-CH(R)-Y where X, Y are N, S, or O) that may be acid/base labile, releasing an aldehyde.

>  <s_lp_Force_Field>  (36) 
OPLS3e

>  <r_lp_Energy>  (36) 
275.824

>  <b_lp_Chiralities_Consistent>  (36) 
0

>  <s_lp_Variant>  (36) 
8:0-2

>  <s_i_glide_gridfile>  (36) 
pfpi4k_grid

>  <i_i_glide_lignum>  (36) 
14

>  <i_i_glide_rotatable_bonds>  (36) 
6

>  <r_i_docking_score>  (36) 
-4.6918

>  <r_i_glide_ligand_efficiency>  (36) 
-0.134051

>  <r_i_glide_ligand_efficiency_sa>  (36) 
-0.438491

>  <r_i_glide_ligand_efficiency_ln>  (36) 
-1.02995

>  <r_i_glide_gscore>  (36) 
-4.6918

>  <r_i_glide_lipo>  (36) 
-0.671912

>  <r_i_glide_hbond>  (36) 
-0.118672

>  <r_i_glide_metal>  (36) 
-0

>  <r_i_glide_rewards>  (36) 
-0.91879

>  <r_i_glide_evdw>  (36) 
-27.9027

>  <r_i_glide_ecoul>  (36) 
-11.2194

>  <r_i_glide_erotb>  (36) 
0.0591734

>  <r_i_glide_esite>  (36) 
0

>  <r_i_glide_emodel>  (36) 
-48.3528

>  <r_i_glide_energy>  (36) 
-39.1221

>  <r_i_glide_einternal>  (36) 
5.50722

>  <r_i_glide_intrahb_reward>  (36) 
-0.5

>  <i_i_glide_confnum>  (36) 
2

>  <i_i_glide_posenum>  (36) 
36

>  <r_i_glide_eff_state_penalty>  (36) 
0

>  <ligand_id>  (36) 
8

>  <original_smiles>  (36) 
CC1(O)CCCC23CCC4(C)C1C(O)C(O)C21CC43CCC2(C)C(C3COC(O)C3O)CCC21C

>  <smiles>  (36) 
[H]OC1([H])OC([H])([H])C([H])(C2([H])C([H])([H])C([H])([H])C3(C([H])([H])[H])C2(C([H])([H])[H])C([H])([H])C([H])([H])C24C([H])([H])C35C([H])(O[H])C([H])(O[H])C3([H])C(O[H])(C([H])([H])[H])C([H])([H])C([H])([H])C([H])([H])C25C([H])([H])C([H])([H])C34C([H])([H])[H])C1([H])O[H]

$$$$
8:1:1
     RDKit          3D

 81 87  0  0  1  0  0  0  0  0999 V2000
    0.3251   -4.7826    6.0222 C   0  0  0  0  0  0  0  0  0  0  0  0
    0.8051   -3.3974    5.5199 C   0  0  1  0  0  0  0  0  0  0  0  0
   -0.4190   -2.6814    5.6923 O   0  0  0  0  0  0  0  0  0  0  0  0
    1.8078   -2.7016    6.4829 C   0  0  0  0  0  0  0  0  0  0  0  0
    3.3130   -2.7574    6.1850 C   0  0  0  0  0  0  0  0  0  0  0  0
    3.8627   -2.2145    4.8207 C   0  0  0  0  0  0  0  0  0  0  0  0
    3.9882   -3.0460    3.4586 C   0  0  2  0  0  0  0  0  0  0  0  0
    4.5263   -4.3584    4.0892 C   0  0  0  0  0  0  0  0  0  0  0  0
    3.2231   -5.1889    4.3681 C   0  0  0  0  0  0  0  0  0  0  0  0
    2.1233   -4.5607    3.4551 C   0  0  1  0  0  0  0  0  0  0  0  0
    1.2346   -5.6785    2.8485 C   0  0  0  0  0  0  0  0  0  0  0  0
    1.2106   -3.3175    4.0025 C   0  0  2  0  0  0  0  0  0  0  0  0
    1.3077   -1.7592    3.4365 C   0  0  1  0  0  0  0  0  0  0  0  0
    0.8636   -0.7722    4.3418 O   0  0  0  0  0  0  0  0  0  0  0  0
    2.4855   -1.1212    2.5237 C   0  0  1  0  0  0  0  0  0  0  0  0
    2.9244    0.1566    2.9492 O   0  0  0  0  0  0  0  0  0  0  0  0
    3.6231   -2.1425    2.1820 C   0  0  2  0  0  0  0  0  0  0  0  0
    2.7389   -3.0891    1.4708 C   0  0  0  0  0  0  0  0  0  0  0  0
    3.1412   -4.0325    2.4996 C   0  0  1  0  0  0  0  0  0  0  0  0
    3.9167   -5.0352    1.5460 C   0  0  0  0  0  0  0  0  0  0  0  0
    5.2696   -4.4680    0.9448 C   0  0  0  0  0  0  0  0  0  0  0  0
    5.5537   -2.9584    0.5077 C   0  0  1  0  0  0  0  0  0  0  0  0
    7.1154   -2.8997    0.6572 C   0  0  0  0  0  0  0  0  0  0  0  0
    5.3702   -2.6588   -1.0386 C   0  0  1  0  0  0  0  0  0  0  0  0
    4.3405   -3.4259   -1.9222 C   0  0  2  0  0  0  0  0  0  0  0  0
    4.8471   -3.5542   -3.3819 C   0  0  0  0  0  0  0  0  0  0  0  0
    3.6990   -3.5311   -4.2057 O   0  0  0  0  0  0  0  0  0  0  0  0
    2.8416   -2.6150   -3.5916 C   0  0  1  0  0  0  0  0  0  0  0  0
    1.5229   -2.6965   -4.0093 O   0  0  0  0  0  0  0  0  0  0  0  0
    2.9292   -2.8353   -2.0870 C   0  0  1  0  0  0  0  0  0  0  0  0
    1.9263   -3.7976   -1.6378 O   0  0  0  0  0  0  0  0  0  0  0  0
    5.2002   -1.1370   -1.0819 C   0  0  0  0  0  0  0  0  0  0  0  0
    4.3751   -0.7704    0.1410 C   0  0  0  0  0  0  0  0  0  0  0  0
    4.8300   -1.7241    1.2844 C   0  0  1  0  0  0  0  0  0  0  0  0
    5.8234   -0.9175    2.1473 C   0  0  0  0  0  0  0  0  0  0  0  0
    1.0839   -5.5487    6.0397 H   0  0  0  0  0  0  0  0  0  0  0  0
   -0.4960   -5.1547    5.4138 H   0  0  0  0  0  0  0  0  0  0  0  0
   -0.0523   -4.7117    7.0423 H   0  0  0  0  0  0  0  0  0  0  0  0
   -0.2626   -1.8133    5.3107 H   0  0  0  0  0  0  0  0  0  0  0  0
    1.5471   -1.6506    6.5960 H   0  0  0  0  0  0  0  0  0  0  0  0
    1.6462   -3.1065    7.4807 H   0  0  0  0  0  0  0  0  0  0  0  0
    3.7398   -2.0681    6.9083 H   0  0  0  0  0  0  0  0  0  0  0  0
    3.7549   -3.6955    6.5243 H   0  0  0  0  0  0  0  0  0  0  0  0
    3.4550   -1.2353    4.7287 H   0  0  0  0  0  0  0  0  0  0  0  0
    4.9032   -1.9430    5.0404 H   0  0  0  0  0  0  0  0  0  0  0  0
    5.2543   -4.9039    3.5230 H   0  0  0  0  0  0  0  0  0  0  0  0
    5.1078   -4.1929    4.9979 H   0  0  0  0  0  0  0  0  0  0  0  0
    3.4033   -6.2366    4.1165 H   0  0  0  0  0  0  0  0  0  0  0  0
    2.9679   -5.2178    5.4152 H   0  0  0  0  0  0  0  0  0  0  0  0
    0.6178   -5.2927    2.0503 H   0  0  0  0  0  0  0  0  0  0  0  0
    0.5626   -6.0983    3.5946 H   0  0  0  0  0  0  0  0  0  0  0  0
    1.8135   -6.5058    2.4309 H   0  0  0  0  0  0  0  0  0  0  0  0
    0.2548   -3.5747    3.5535 H   0  0  0  0  0  0  0  0  0  0  0  0
    0.4657   -1.7096    2.7512 H   0  0  0  0  0  0  0  0  0  0  0  0
    1.6453   -0.4357    4.7731 H   0  0  0  0  0  0  0  0  0  0  0  0
    1.9672   -0.8301    1.6029 H   0  0  0  0  0  0  0  0  0  0  0  0
    3.2757    0.6067    2.1922 H   0  0  0  0  0  0  0  0  0  0  0  0
    1.6684   -2.9626    1.4078 H   0  0  0  0  0  0  0  0  0  0  0  0
    3.0699   -3.2321    0.4551 H   0  0  0  0  0  0  0  0  0  0  0  0
    4.1158   -5.9950    2.0173 H   0  0  0  0  0  0  0  0  0  0  0  0
    3.2848   -5.3362    0.7087 H   0  0  0  0  0  0  0  0  0  0  0  0
    6.0261   -4.7209    1.6756 H   0  0  0  0  0  0  0  0  0  0  0  0
    5.5650   -5.1247    0.1214 H   0  0  0  0  0  0  0  0  0  0  0  0
    7.5613   -1.9793    0.2826 H   0  0  0  0  0  0  0  0  0  0  0  0
    7.6031   -3.7041    0.0988 H   0  0  0  0  0  0  0  0  0  0  0  0
    7.4118   -3.0372    1.6733 H   0  0  0  0  0  0  0  0  0  0  0  0
    6.3385   -2.8802   -1.5069 H   0  0  0  0  0  0  0  0  0  0  0  0
    4.2866   -4.4711   -1.5659 H   0  0  0  0  0  0  0  0  0  0  0  0
    5.4589   -2.7020   -3.6615 H   0  0  0  0  0  0  0  0  0  0  0  0
    5.3926   -4.4733   -3.5785 H   0  0  0  0  0  0  0  0  0  0  0  0
    3.1815   -1.6379   -3.8437 H   0  0  0  0  0  0  0  0  0  0  0  0
    1.1687   -3.5145   -3.6336 H   0  0  0  0  0  0  0  0  0  0  0  0
    2.7149   -1.8650   -1.6867 H   0  0  0  0  0  0  0  0  0  0  0  0
    2.1211   -4.6519   -1.9964 H   0  0  0  0  0  0  0  0  0  0  0  0
    6.1891   -0.6578   -0.9832 H   0  0  0  0  0  0  0  0  0  0  0  0
    4.8078   -0.7832   -2.0164 H   0  0  0  0  0  0  0  0  0  0  0  0
    4.5255    0.2933    0.4181 H   0  0  0  0  0  0  0  0  0  0  0  0
    3.3407   -0.9308   -0.0660 H   0  0  0  0  0  0  0  0  0  0  0  0
    6.6110   -0.4993    1.5312 H   0  0  0  0  0  0  0  0  0  0  0  0
    6.2513   -1.5365    2.9212 H   0  0  0  0  0  0  0  0  0  0  0  0
    5.3462   -0.0706    2.6270 H   0  0  0  0  0  0  0  0  0  0  0  0
  1  2  1  0
  1 36  1  0
  1 37  1  0
  1 38  1  0
  2 12  1  0
  2  3  1  6
  2  4  1  0
  3 39  1  0
  4  5  1  0
  4 40  1  0
  4 41  1  0
  5  6  1  0
  5 42  1  0
  5 43  1  0
  7  6  1  1
  6 44  1  0
  6 45  1  0
  7 17  1  0
  7 19  1  0
  7  8  1  0
  8  9  1  0
  8 46  1  0
  8 47  1  0
  9 10  1  0
  9 48  1  0
  9 49  1  0
 10 19  1  0
 10 11  1  6
 10 12  1  0
 11 50  1  0
 11 51  1  0
 11 52  1  0
 12 13  1  0
 12 53  1  6
 13 14  1  0
 13 15  1  0
 13 54  1  6
 14 55  1  0
 15 16  1  0
 15 17  1  0
 15 56  1  6
 16 57  1  0
 17 34  1  0
 17 18  1  6
 18 19  1  0
 18 58  1  0
 18 59  1  0
 19 20  1  6
 20 21  1  0
 20 60  1  0
 20 61  1  0
 21 22  1  0
 21 62  1  0
 21 63  1  0
 22 34  1  0
 22 23  1  6
 22 24  1  0
 23 64  1  0
 23 65  1  0
 23 66  1  0
 24 25  1  0
 24 32  1  0
 24 67  1  6
 25 30  1  0
 25 26  1  0
 25 68  1  1
 26 27  1  0
 26 69  1  0
 26 70  1  0
 27 28  1  0
 28 29  1  0
 28 30  1  0
 28 71  1  1
 29 72  1  0
 30 31  1  0
 30 73  1  1
 31 74  1  0
 32 33  1  0
 32 75  1  0
 32 76  1  0
 33 34  1  0
 33 77  1  0
 33 78  1  0
 34 35  1  1
 35 79  1  0
 35 80  1  0
 35 81  1  0
M  END
>  <i_m_ct_stereo_status>  (37) 
1

>  <s_m_source_file>  (37) 
/var/tmp/pbs.5076255.sched01/tmp14hj8t9c/0766azy0n.sdf

>  <i_m_source_file_index>  (37) 
14

>  <i_lp_mmshare_version>  (37) 
48012

>  <i_f3d_flags>  (37) 
2

>  <s_epik_input>  (37) 
W0NIMl0xW0NIMl1bQ0gyXVtDQEBdKFtDSDNdKShbT0hdKVtDQEBIXShbQ0BASF0oW09IXSlbQ0BIXTJbT0hdKVtDQF0oW0NIM10pKFtDSDJdW0NIMl0zKUM0KFtDSDJdNSlbQ0gyXVtDSDJdW0NAXShbQ0gzXSkoW0NAQF02KEMyNUMxMzQpW0NIM10pW0NASF0oW0NIMl1bQ0gyXTYpW0NAQEhdN1tDSDJdT1tDQEBIXShbT0hdKVtDQEhdN1tPSF0=

>  <s_epik_cmdline>  (37) 
J2VwaWtfcHl0aG9uJywgJy1waHQnLCAnMi4wJywgJy1waCcsICc3LjAnLCAnLXRuJywgJzgnLCAnLW1hJywgJzIwMCcsICctaW1hZScsICc8aW5maWxlLm1hZT4nLCAnLW9tYWUnLCAnPG91dGZpbGUubWFlPic=

>  <r_lp_tautomer_probability>  (37) 
1

>  <r_epik_Ionization_Penalty>  (37) 
4.16578e-06

>  <r_epik_Ionization_Penalty_Charging>  (37) 
0

>  <r_epik_Ionization_Penalty_Neutral>  (37) 
4.16578e-06

>  <r_epik_State_Penalty>  (37) 
-0

>  <r_epik_Charging_Adjusted_Penalty>  (37) 
0

>  <i_epik_Tot_Q>  (37) 
0

>  <i_epik_Tot_abs_Q>  (37) 
0

>  <s_epik_Chemistry_Notes>  (37) 
This compound contains an acetal/aminal-like group ( X-CH(R)-Y where X, Y are N, S, or O) that may be acid/base labile, releasing an aldehyde.

>  <s_lp_Force_Field>  (37) 
OPLS3e

>  <r_lp_Energy>  (37) 
275.824

>  <b_lp_Chiralities_Consistent>  (37) 
0

>  <s_lp_Variant>  (37) 
8:0-2

>  <s_i_glide_gridfile>  (37) 
pfpi4k_grid

>  <i_i_glide_lignum>  (37) 
14

>  <i_i_glide_rotatable_bonds>  (37) 
6

>  <r_i_docking_score>  (37) 
-4.31412

>  <r_i_glide_ligand_efficiency>  (37) 
-0.123261

>  <r_i_glide_ligand_efficiency_sa>  (37) 
-0.403193

>  <r_i_glide_ligand_efficiency_ln>  (37) 
-0.947045

>  <r_i_glide_gscore>  (37) 
-4.31412

>  <r_i_glide_lipo>  (37) 
-0.583124

>  <r_i_glide_hbond>  (37) 
-0.0706079

>  <r_i_glide_metal>  (37) 
-0

>  <r_i_glide_rewards>  (37) 
-0.905451

>  <r_i_glide_evdw>  (37) 
-27.9215

>  <r_i_glide_ecoul>  (37) 
-9.45356

>  <r_i_glide_erotb>  (37) 
0.0591734

>  <r_i_glide_esite>  (37) 
0

>  <r_i_glide_emodel>  (37) 
-48.0168

>  <r_i_glide_energy>  (37) 
-37.375

>  <r_i_glide_einternal>  (37) 
5.65931

>  <r_i_glide_intrahb_reward>  (37) 
-0.5

>  <i_i_glide_confnum>  (37) 
2

>  <i_i_glide_posenum>  (37) 
1

>  <r_i_glide_eff_state_penalty>  (37) 
0

>  <ligand_id>  (37) 
8

>  <original_smiles>  (37) 
CC1(O)CCCC23CCC4(C)C1C(O)C(O)C21CC43CCC2(C)C(C3COC(O)C3O)CCC21C

>  <smiles>  (37) 
[H]OC1([H])OC([H])([H])C([H])(C2([H])C([H])([H])C([H])([H])C3(C([H])([H])[H])C2(C([H])([H])[H])C([H])([H])C([H])([H])C24C([H])([H])C35C([H])(O[H])C([H])(O[H])C3([H])C(O[H])(C([H])([H])[H])C([H])([H])C([H])([H])C([H])([H])C25C([H])([H])C([H])([H])C34C([H])([H])[H])C1([H])O[H]

$$$$
8:1:2
     RDKit          3D

 81 87  0  0  1  0  0  0  0  0999 V2000
   -1.2906   -9.3528    2.6601 C   0  0  0  0  0  0  0  0  0  0  0  0
   -0.5773   -8.5876    3.8013 C   0  0  1  0  0  0  0  0  0  0  0  0
   -1.7554   -8.3228    4.5301 O   0  0  0  0  0  0  0  0  0  0  0  0
    0.2864   -9.4848    4.7307 C   0  0  0  0  0  0  0  0  0  0  0  0
    1.8085   -9.5575    4.5144 C   0  0  0  0  0  0  0  0  0  0  0  0
    2.6509   -8.2381    4.5816 C   0  0  0  0  0  0  0  0  0  0  0  0
    2.9151   -7.2178    3.3541 C   0  0  2  0  0  0  0  0  0  0  0  0
    3.1784   -8.3123    2.2930 C   0  0  0  0  0  0  0  0  0  0  0  0
    1.7474   -8.5434    1.6766 C   0  0  0  0  0  0  0  0  0  0  0  0
    0.9361   -7.2765    2.0524 C   0  0  1  0  0  0  0  0  0  0  0  0
    0.0312   -6.8381    0.8942 C   0  0  0  0  0  0  0  0  0  0  0  0
    0.0798   -7.2206    3.4330 C   0  0  2  0  0  0  0  0  0  0  0  0
    0.4571   -6.2570    4.7327 C   0  0  1  0  0  0  0  0  0  0  0  0
   -0.0019   -6.7077    5.9998 O   0  0  0  0  0  0  0  0  0  0  0  0
    1.8492   -5.4756    4.9844 C   0  0  1  0  0  0  0  0  0  0  0  0
    2.3763   -5.5749    6.3022 O   0  0  0  0  0  0  0  0  0  0  0  0
    2.8856   -5.6967    3.8380 C   0  0  2  0  0  0  0  0  0  0  0  0
    2.0245   -5.1162    2.7687 C   0  0  0  0  0  0  0  0  0  0  0  0
    2.1404   -6.4329    2.1811 C   0  0  1  0  0  0  0  0  0  0  0  0
    2.9395   -5.9845    0.8812 C   0  0  0  0  0  0  0  0  0  0  0  0
    4.4277   -5.5631    1.1460 C   0  0  0  0  0  0  0  0  0  0  0  0
    4.9640   -4.7942    2.4281 C   0  0  1  0  0  0  0  0  0  0  0  0
    6.4356   -5.2902    2.4315 C   0  0  0  0  0  0  0  0  0  0  0  0
    5.1244   -3.2243    2.2591 C   0  0  1  0  0  0  0  0  0  0  0  0
    4.2029   -2.3672    1.3189 C   0  0  2  0  0  0  0  0  0  0  0  0
    4.9528   -1.1912    0.6372 C   0  0  0  0  0  0  0  0  0  0  0  0
    3.9752   -0.1904    0.4661 O   0  0  0  0  0  0  0  0  0  0  0  0
    3.1868   -0.1968    1.6013 C   0  0  1  0  0  0  0  0  0  0  0  0
    1.9763    0.5181    1.4347 O   0  0  0  0  0  0  0  0  0  0  0  0
    2.9577   -1.6754    1.9446 C   0  0  1  0  0  0  0  0  0  0  0  0
    1.8097   -2.2049    1.3078 O   0  0  0  0  0  0  0  0  0  0  0  0
    5.1299   -2.6974    3.6989 C   0  0  0  0  0  0  0  0  0  0  0  0
    4.1420   -3.5609    4.4580 C   0  0  0  0  0  0  0  0  0  0  0  0
    4.2771   -4.9998    3.8898 C   0  0  1  0  0  0  0  0  0  0  0  0
    5.2061   -5.7802    4.8724 C   0  0  0  0  0  0  0  0  0  0  0  0
   -0.6522   -9.7673    1.8964 H   0  0  0  0  0  0  0  0  0  0  0  0
   -2.0484   -8.7356    2.1731 H   0  0  0  0  0  0  0  0  0  0  0  0
   -1.8132  -10.2133    3.0620 H   0  0  0  0  0  0  0  0  0  0  0  0
   -2.0508   -9.1772    4.8335 H   0  0  0  0  0  0  0  0  0  0  0  0
    0.1140   -9.2289    5.7758 H   0  0  0  0  0  0  0  0  0  0  0  0
   -0.0869  -10.5048    4.6554 H   0  0  0  0  0  0  0  0  0  0  0  0
    2.1609  -10.1274    5.3723 H   0  0  0  0  0  0  0  0  0  0  0  0
    2.0614  -10.2457    3.7121 H   0  0  0  0  0  0  0  0  0  0  0  0
    2.3650   -7.7829    5.5086 H   0  0  0  0  0  0  0  0  0  0  0  0
    3.6536   -8.5826    4.8399 H   0  0  0  0  0  0  0  0  0  0  0  0
    3.9211   -8.0916    1.5332 H   0  0  0  0  0  0  0  0  0  0  0  0
    3.6154   -9.2310    2.6903 H   0  0  0  0  0  0  0  0  0  0  0  0
    1.8340   -8.6721    0.6206 H   0  0  0  0  0  0  0  0  0  0  0  0
    1.3262   -9.4878    1.9988 H   0  0  0  0  0  0  0  0  0  0  0  0
   -0.4272   -5.8689    1.0479 H   0  0  0  0  0  0  0  0  0  0  0  0
   -0.7587   -7.5763    0.7075 H   0  0  0  0  0  0  0  0  0  0  0  0
    0.5967   -6.7872   -0.0402 H   0  0  0  0  0  0  0  0  0  0  0  0
   -0.8098   -6.6934    3.1008 H   0  0  0  0  0  0  0  0  0  0  0  0
   -0.2403   -5.4347    4.5996 H   0  0  0  0  0  0  0  0  0  0  0  0
    0.4430   -7.5062    6.1842 H   0  0  0  0  0  0  0  0  0  0  0  0
    1.5452   -4.4297    4.9993 H   0  0  0  0  0  0  0  0  0  0  0  0
    2.6472   -6.4575    6.4403 H   0  0  0  0  0  0  0  0  0  0  0  0
    1.0029   -4.7895    2.9039 H   0  0  0  0  0  0  0  0  0  0  0  0
    2.5065   -4.2724    2.3142 H   0  0  0  0  0  0  0  0  0  0  0  0
    2.9850   -6.7168    0.0900 H   0  0  0  0  0  0  0  0  0  0  0  0
    2.4399   -5.1517    0.3810 H   0  0  0  0  0  0  0  0  0  0  0  0
    4.9900   -6.4899    1.0740 H   0  0  0  0  0  0  0  0  0  0  0  0
    4.7947   -5.0422    0.2570 H   0  0  0  0  0  0  0  0  0  0  0  0
    6.9657   -4.7524    3.1955 H   0  0  0  0  0  0  0  0  0  0  0  0
    6.9406   -5.0712    1.4897 H   0  0  0  0  0  0  0  0  0  0  0  0
    6.5585   -6.3574    2.6118 H   0  0  0  0  0  0  0  0  0  0  0  0
    6.1191   -3.0559    1.8651 H   0  0  0  0  0  0  0  0  0  0  0  0
    3.8959   -2.9993    0.4682 H   0  0  0  0  0  0  0  0  0  0  0  0
    5.7358   -0.7997    1.2840 H   0  0  0  0  0  0  0  0  0  0  0  0
    5.3809   -1.4543   -0.3275 H   0  0  0  0  0  0  0  0  0  0  0  0
    3.7433    0.2736    2.4020 H   0  0  0  0  0  0  0  0  0  0  0  0
    1.4361    0.0568    0.7931 H   0  0  0  0  0  0  0  0  0  0  0  0
    2.8283   -1.7079    3.0006 H   0  0  0  0  0  0  0  0  0  0  0  0
    1.6725   -1.7752    0.4633 H   0  0  0  0  0  0  0  0  0  0  0  0
    6.0974   -2.8494    4.1681 H   0  0  0  0  0  0  0  0  0  0  0  0
    4.9631   -1.6306    3.7684 H   0  0  0  0  0  0  0  0  0  0  0  0
    4.3489   -3.5358    5.5401 H   0  0  0  0  0  0  0  0  0  0  0  0
    3.1585   -3.1835    4.2945 H   0  0  0  0  0  0  0  0  0  0  0  0
    6.1332   -5.2516    5.0657 H   0  0  0  0  0  0  0  0  0  0  0  0
    5.4384   -6.7798    4.5182 H   0  0  0  0  0  0  0  0  0  0  0  0
    4.7490   -5.8775    5.8451 H   0  0  0  0  0  0  0  0  0  0  0  0
  1  2  1  0
  1 36  1  0
  1 37  1  0
  1 38  1  0
  2 12  1  0
  2  3  1  1
  2  4  1  0
  3 39  1  0
  4  5  1  0
  4 40  1  0
  4 41  1  0
  5  6  1  0
  5 42  1  0
  5 43  1  0
  7  6  1  1
  6 44  1  0
  6 45  1  0
  7 17  1  0
  7 19  1  0
  7  8  1  0
  8  9  1  0
  8 46  1  0
  8 47  1  0
  9 10  1  0
  9 48  1  0
  9 49  1  0
 10 19  1  0
 10 11  1  6
 10 12  1  0
 11 50  1  0
 11 51  1  0
 11 52  1  0
 12 13  1  0
 12 53  1  6
 13 14  1  0
 13 15  1  0
 13 54  1  6
 14 55  1  0
 15 16  1  0
 15 17  1  0
 15 56  1  6
 16 57  1  0
 17 34  1  0
 17 18  1  6
 18 19  1  0
 18 58  1  0
 18 59  1  0
 19 20  1  6
 20 21  1  0
 20 60  1  0
 20 61  1  0
 21 22  1  0
 21 62  1  0
 21 63  1  0
 22 34  1  0
 22 23  1  1
 22 24  1  0
 23 64  1  0
 23 65  1  0
 23 66  1  0
 24 25  1  0
 24 32  1  0
 24 67  1  6
 25 30  1  0
 25 26  1  0
 25 68  1  6
 26 27  1  0
 26 69  1  0
 26 70  1  0
 27 28  1  0
 28 29  1  0
 28 30  1  0
 28 71  1  1
 29 72  1  0
 30 31  1  0
 30 73  1  1
 31 74  1  0
 32 33  1  0
 32 75  1  0
 32 76  1  0
 33 34  1  0
 33 77  1  0
 33 78  1  0
 34 35  1  1
 35 79  1  0
 35 80  1  0
 35 81  1  0
M  END
>  <i_m_ct_stereo_status>  (38) 
1

>  <s_m_source_file>  (38) 
/var/tmp/pbs.5076255.sched01/tmp14hj8t9c/0766azy0n.sdf

>  <i_m_source_file_index>  (38) 
14

>  <i_lp_mmshare_version>  (38) 
48012

>  <i_f3d_flags>  (38) 
2

>  <s_epik_input>  (38) 
W0NIMl0xW0NIMl1bQ0gyXVtDQEBdKFtDSDNdKShbT0hdKVtDQEBIXShbQ0BASF0oW09IXSlbQ0BIXTJbT0hdKVtDQF0oW0NIM10pKFtDSDJdW0NIMl0zKUM0KFtDSDJdNSlbQ0gyXVtDSDJdW0NAXShbQ0gzXSkoW0NAQF02KEMyNUMxMzQpW0NIM10pW0NASF0oW0NIMl1bQ0gyXTYpW0NAQEhdN1tDSDJdT1tDQEBIXShbT0hdKVtDQEhdN1tPSF0=

>  <s_epik_cmdline>  (38) 
J2VwaWtfcHl0aG9uJywgJy1waHQnLCAnMi4wJywgJy1waCcsICc3LjAnLCAnLXRuJywgJzgnLCAnLW1hJywgJzIwMCcsICctaW1hZScsICc8aW5maWxlLm1hZT4nLCAnLW9tYWUnLCAnPG91dGZpbGUubWFlPic=

>  <r_lp_tautomer_probability>  (38) 
1

>  <r_epik_Ionization_Penalty>  (38) 
4.16578e-06

>  <r_epik_Ionization_Penalty_Charging>  (38) 
0

>  <r_epik_Ionization_Penalty_Neutral>  (38) 
4.16578e-06

>  <r_epik_State_Penalty>  (38) 
-0

>  <r_epik_Charging_Adjusted_Penalty>  (38) 
0

>  <i_epik_Tot_Q>  (38) 
0

>  <i_epik_Tot_abs_Q>  (38) 
0

>  <s_epik_Chemistry_Notes>  (38) 
This compound contains an acetal/aminal-like group ( X-CH(R)-Y where X, Y are N, S, or O) that may be acid/base labile, releasing an aldehyde.

>  <s_lp_Force_Field>  (38) 
OPLS3e

>  <r_lp_Energy>  (38) 
275.824

>  <b_lp_Chiralities_Consistent>  (38) 
0

>  <s_lp_Variant>  (38) 
8:0-2

>  <s_i_glide_gridfile>  (38) 
pfpi4k_grid

>  <i_i_glide_lignum>  (38) 
14

>  <i_i_glide_rotatable_bonds>  (38) 
6

>  <r_i_docking_score>  (38) 
-2.55649

>  <r_i_glide_ligand_efficiency>  (38) 
-0.0730427

>  <r_i_glide_ligand_efficiency_sa>  (38) 
-0.238928

>  <r_i_glide_ligand_efficiency_ln>  (38) 
-0.561207

>  <r_i_glide_gscore>  (38) 
-2.55649

>  <r_i_glide_lipo>  (38) 
-0.391378

>  <r_i_glide_hbond>  (38) 
0

>  <r_i_glide_metal>  (38) 
-0

>  <r_i_glide_rewards>  (38) 
-0.0636004

>  <r_i_glide_evdw>  (38) 
-19.8381

>  <r_i_glide_ecoul>  (38) 
-7.69625

>  <r_i_glide_erotb>  (38) 
0.0591734

>  <r_i_glide_esite>  (38) 
-0.0143447

>  <r_i_glide_emodel>  (38) 
-29.25

>  <r_i_glide_energy>  (38) 
-27.5344

>  <r_i_glide_einternal>  (38) 
5.96521

>  <r_i_glide_intrahb_reward>  (38) 
-0

>  <i_i_glide_confnum>  (38) 
2

>  <i_i_glide_posenum>  (38) 
19

>  <r_i_glide_eff_state_penalty>  (38) 
0

>  <ligand_id>  (38) 
8

>  <original_smiles>  (38) 
CC1(O)CCCC23CCC4(C)C1C(O)C(O)C21CC43CCC2(C)C(C3COC(O)C3O)CCC21C

>  <smiles>  (38) 
[H]OC1([H])OC([H])([H])C([H])(C2([H])C([H])([H])C([H])([H])C3(C([H])([H])[H])C2(C([H])([H])[H])C([H])([H])C([H])([H])C24C([H])([H])C35C([H])(O[H])C([H])(O[H])C3([H])C(O[H])(C([H])([H])[H])C([H])([H])C([H])([H])C([H])([H])C25C([H])([H])C([H])([H])C34C([H])([H])[H])C1([H])O[H]

$$$$
10:0:0
     RDKit          3D

 31 33  0  0  1  0  0  0  0  0999 V2000
    8.1407   -2.2588   -0.2243 C   0  0  0  0  0  0  0  0  0  0  0  0
    7.8014   -2.8963   -1.4333 C   0  0  0  0  0  0  0  0  0  0  0  0
    6.4867   -2.7995   -1.9318 C   0  0  0  0  0  0  0  0  0  0  0  0
    5.5072   -2.0684   -1.2254 C   0  0  0  0  0  0  0  0  0  0  0  0
    4.0749   -2.0305   -1.7228 C   0  0  0  0  0  0  0  0  0  0  0  0
    3.0774   -2.6756   -0.8724 N   0  0  0  0  0  0  0  0  0  0  0  0
    3.2517   -3.9700   -0.3177 C   0  0  0  0  0  0  0  0  0  0  0  0
    4.4623   -4.5620   -0.1245 N   0  0  0  0  0  0  0  0  0  0  0  0
    4.1225   -5.7168    0.4394 C   0  0  0  0  0  0  0  0  0  0  0  0
    4.9960   -6.7899    0.8934 C   0  0  0  0  0  0  0  0  0  0  0  0
    4.5379   -8.1242    0.9657 C   0  0  0  0  0  0  0  0  0  0  0  0
    5.4307   -9.1200    1.3991 C   0  0  0  0  0  0  0  0  0  0  0  0
    6.7054   -8.8605    1.7596 N   0  0  0  0  0  0  0  0  0  0  0  0
    7.1377   -7.5820    1.7031 C   0  0  0  0  0  0  0  0  0  0  0  0
    6.3254   -6.5141    1.2811 C   0  0  0  0  0  0  0  0  0  0  0  0
    2.7863   -5.8602    0.5956 O   0  0  0  0  0  0  0  0  0  0  0  0
    2.2147   -4.6845    0.0912 N   0  0  0  0  0  0  0  0  0  0  0  0
    5.8468   -1.4381   -0.0118 C   0  0  0  0  0  0  0  0  0  0  0  0
    7.1610   -1.5347    0.4847 C   0  0  0  0  0  0  0  0  0  0  0  0
    9.1525   -2.3173    0.1502 H   0  0  0  0  0  0  0  0  0  0  0  0
    8.5478   -3.4562   -1.9809 H   0  0  0  0  0  0  0  0  0  0  0  0
    6.2243   -3.3153   -2.8454 H   0  0  0  0  0  0  0  0  0  0  0  0
    3.7922   -0.9809   -1.8073 H   0  0  0  0  0  0  0  0  0  0  0  0
    4.0217   -2.4464   -2.7300 H   0  0  0  0  0  0  0  0  0  0  0  0
    3.5296   -8.3915    0.6829 H   0  0  0  0  0  0  0  0  0  0  0  0
    5.1151  -10.1524    1.4558 H   0  0  0  0  0  0  0  0  0  0  0  0
    8.1610   -7.4059    2.0024 H   0  0  0  0  0  0  0  0  0  0  0  0
    6.7147   -5.5057    1.2458 H   0  0  0  0  0  0  0  0  0  0  0  0
    5.0896   -0.9092    0.5501 H   0  0  0  0  0  0  0  0  0  0  0  0
    7.4136   -1.0572    1.4207 H   0  0  0  0  0  0  0  0  0  0  0  0
    2.1298   -2.3034   -0.9111 H   0  0  0  0  0  0  0  0  0  0  0  0
  1 19  2  0
  1  2  1  0
  1 20  1  0
  2  3  2  0
  2 21  1  0
  3  4  1  0
  3 22  1  0
  4  5  1  0
  4 18  2  0
  5  6  1  0
  5 23  1  0
  5 24  1  0
  6  7  1  0
  6 31  1  0
  7 17  2  0
  7  8  1  0
  8  9  2  0
  9 10  1  0
  9 16  1  0
 10 15  1  0
 10 11  2  0
 11 12  1  0
 11 25  1  0
 12 13  2  0
 12 26  1  0
 13 14  1  0
 14 15  2  0
 14 27  1  0
 15 28  1  0
 16 17  1  0
 18 19  1  0
 18 29  1  0
 19 30  1  0
M  END
>  <i_m_ct_stereo_status>  (39) 
1

>  <s_m_source_file>  (39) 
/var/tmp/pbs.5076255.sched01/tmp14hj8t9c/0766azy0n.sdf

>  <i_m_source_file_index>  (39) 
16

>  <i_lp_mmshare_version>  (39) 
48012

>  <i_f3d_flags>  (39) 
0

>  <s_epik_input>  (39) 
W2NIXTFbY0hdW2NIXVtjSF1bY0hdYzFbQ0gyXS9OPWMyL25jKG9bbkhdMiktYzNbY0hdW2NIXW5bY0hdW2NIXTM=

>  <s_epik_cmdline>  (39) 
J2VwaWtfcHl0aG9uJywgJy1waHQnLCAnMi4wJywgJy1waCcsICc3LjAnLCAnLXRuJywgJzgnLCAnLW1hJywgJzIwMCcsICctaW1hZScsICc8aW5maWxlLm1hZT4nLCAnLW9tYWUnLCAnPG91dGZpbGUubWFlPic=

>  <r_epik_Ionization_Penalty>  (39) 
0.000607894

>  <r_epik_Ionization_Penalty_Charging>  (39) 
0

>  <r_epik_Ionization_Penalty_Neutral>  (39) 
0.000607894

>  <r_epik_State_Penalty>  (39) 
0.000380979

>  <r_epik_Charging_Adjusted_Penalty>  (39) 
0.000380979

>  <i_epik_Tot_Q>  (39) 
0

>  <i_epik_Tot_abs_Q>  (39) 
0

>  <s_lp_Force_Field>  (39) 
OPLS3e

>  <r_lp_Energy>  (39) 
26.8185

>  <b_lp_Chiralities_Consistent>  (39) 
1

>  <s_lp_Variant>  (39) 
10:0-1

>  <s_i_glide_gridfile>  (39) 
pfpi4k_grid

>  <i_i_glide_lignum>  (39) 
16

>  <i_i_glide_rotatable_bonds>  (39) 
4

>  <r_i_docking_score>  (39) 
-3.36626

>  <r_i_glide_ligand_efficiency>  (39) 
-0.177171

>  <r_i_glide_ligand_efficiency_sa>  (39) 
-0.472765

>  <r_i_glide_ligand_efficiency_ln>  (39) 
-0.853418

>  <r_i_glide_gscore>  (39) 
-3.36626

>  <r_i_glide_lipo>  (39) 
-0.352336

>  <r_i_glide_hbond>  (39) 
-0.16

>  <r_i_glide_metal>  (39) 
-0

>  <r_i_glide_rewards>  (39) 
-1.68906

>  <r_i_glide_evdw>  (39) 
-25.3819

>  <r_i_glide_ecoul>  (39) 
-5.64106

>  <r_i_glide_erotb>  (39) 
1.10276

>  <r_i_glide_esite>  (39) 
-0.152365

>  <r_i_glide_emodel>  (39) 
-37.7417

>  <r_i_glide_energy>  (39) 
-31.023

>  <r_i_glide_einternal>  (39) 
1.05564

>  <r_i_glide_intrahb_reward>  (39) 
-0

>  <i_i_glide_confnum>  (39) 
1

>  <i_i_glide_posenum>  (39) 
35

>  <r_i_glide_eff_state_penalty>  (39) 
0

>  <ligand_id>  (39) 
10

>  <original_smiles>  (39) 
c1ccc(CN=c2nc(-c3ccncc3)o[nH]2)cc1

>  <smiles>  (39) 
[H]c1nc([H])c([H])c(-c2nc(N([H])C([H])([H])c3c([H])c([H])c([H])c([H])c3[H])no2)c1[H]

$$$$
10:0:1
     RDKit          3D

 31 33  0  0  1  0  0  0  0  0999 V2000
    8.2286   -5.4497    0.7375 C   0  0  0  0  0  0  0  0  0  0  0  0
    7.9001   -6.6805    1.3351 C   0  0  0  0  0  0  0  0  0  0  0  0
    6.7049   -6.8119    2.0761 C   0  0  0  0  0  0  0  0  0  0  0  0
    5.8453   -5.7078    2.2438 C   0  0  0  0  0  0  0  0  0  0  0  0
    4.5176   -5.8590    2.9843 C   0  0  0  0  0  0  0  0  0  0  0  0
    3.3110   -6.1096    2.1826 N   0  0  0  0  0  0  0  0  0  0  0  0
    2.9234   -5.3756    1.0384 C   0  0  0  0  0  0  0  0  0  0  0  0
    3.6734   -4.3695    0.5418 N   0  0  0  0  0  0  0  0  0  0  0  0
    2.9804   -4.0004   -0.5261 C   0  0  0  0  0  0  0  0  0  0  0  0
    3.3163   -2.9772   -1.5079 C   0  0  0  0  0  0  0  0  0  0  0  0
    2.6468   -2.9076   -2.7530 C   0  0  0  0  0  0  0  0  0  0  0  0
    3.0167   -1.8978   -3.6658 C   0  0  0  0  0  0  0  0  0  0  0  0
    3.9858   -0.9931   -3.4157 N   0  0  0  0  0  0  0  0  0  0  0  0
    4.6118   -1.0515   -2.2216 C   0  0  0  0  0  0  0  0  0  0  0  0
    4.3143   -2.0202   -1.2461 C   0  0  0  0  0  0  0  0  0  0  0  0
    1.8215   -4.6658   -0.6582 O   0  0  0  0  0  0  0  0  0  0  0  0
    1.7919   -5.6091    0.3835 N   0  0  0  0  0  0  0  0  0  0  0  0
    6.2438   -4.4565    1.7293 C   0  0  0  0  0  0  0  0  0  0  0  0
    7.3907   -4.3382    0.9228 C   0  0  0  0  0  0  0  0  0  0  0  0
    9.1125   -5.3596    0.1261 H   0  0  0  0  0  0  0  0  0  0  0  0
    8.5544   -7.5296    1.2066 H   0  0  0  0  0  0  0  0  0  0  0  0
    6.4372   -7.7717    2.4880 H   0  0  0  0  0  0  0  0  0  0  0  0
    4.6266   -6.6988    3.6764 H   0  0  0  0  0  0  0  0  0  0  0  0
    4.3560   -4.9832    3.6124 H   0  0  0  0  0  0  0  0  0  0  0  0
    1.8761   -3.6143   -3.0225 H   0  0  0  0  0  0  0  0  0  0  0  0
    2.5308   -1.8060   -4.6307 H   0  0  0  0  0  0  0  0  0  0  0  0
    5.3668   -0.2989   -2.0396 H   0  0  0  0  0  0  0  0  0  0  0  0
    4.8462   -2.0321   -0.3101 H   0  0  0  0  0  0  0  0  0  0  0  0
    5.6457   -3.5770    1.9027 H   0  0  0  0  0  0  0  0  0  0  0  0
    7.5964   -3.4008    0.4292 H   0  0  0  0  0  0  0  0  0  0  0  0
    2.6284   -6.7537    2.5468 H   0  0  0  0  0  0  0  0  0  0  0  0
  1 19  2  0
  1  2  1  0
  1 20  1  0
  2  3  2  0
  2 21  1  0
  3  4  1  0
  3 22  1  0
  4  5  1  0
  4 18  2  0
  5  6  1  0
  5 23  1  0
  5 24  1  0
  6  7  1  0
  6 31  1  0
  7 17  2  0
  7  8  1  0
  8  9  2  0
  9 10  1  0
  9 16  1  0
 10 15  1  0
 10 11  2  0
 11 12  1  0
 11 25  1  0
 12 13  2  0
 12 26  1  0
 13 14  1  0
 14 15  2  0
 14 27  1  0
 15 28  1  0
 16 17  1  0
 18 19  1  0
 18 29  1  0
 19 30  1  0
M  END
>  <i_m_ct_stereo_status>  (40) 
1

>  <s_m_source_file>  (40) 
/var/tmp/pbs.5076255.sched01/tmp14hj8t9c/0766azy0n.sdf

>  <i_m_source_file_index>  (40) 
16

>  <i_lp_mmshare_version>  (40) 
48012

>  <i_f3d_flags>  (40) 
0

>  <s_epik_input>  (40) 
W2NIXTFbY0hdW2NIXVtjSF1bY0hdYzFbQ0gyXS9OPWMyL25jKG9bbkhdMiktYzNbY0hdW2NIXW5bY0hdW2NIXTM=

>  <s_epik_cmdline>  (40) 
J2VwaWtfcHl0aG9uJywgJy1waHQnLCAnMi4wJywgJy1waCcsICc3LjAnLCAnLXRuJywgJzgnLCAnLW1hJywgJzIwMCcsICctaW1hZScsICc8aW5maWxlLm1hZT4nLCAnLW9tYWUnLCAnPG91dGZpbGUubWFlPic=

>  <r_epik_Ionization_Penalty>  (40) 
0.000607894

>  <r_epik_Ionization_Penalty_Charging>  (40) 
0

>  <r_epik_Ionization_Penalty_Neutral>  (40) 
0.000607894

>  <r_epik_State_Penalty>  (40) 
0.000380979

>  <r_epik_Charging_Adjusted_Penalty>  (40) 
0.000380979

>  <i_epik_Tot_Q>  (40) 
0

>  <i_epik_Tot_abs_Q>  (40) 
0

>  <s_lp_Force_Field>  (40) 
OPLS3e

>  <r_lp_Energy>  (40) 
26.8185

>  <b_lp_Chiralities_Consistent>  (40) 
1

>  <s_lp_Variant>  (40) 
10:0-1

>  <s_i_glide_gridfile>  (40) 
pfpi4k_grid

>  <i_i_glide_lignum>  (40) 
16

>  <i_i_glide_rotatable_bonds>  (40) 
4

>  <r_i_docking_score>  (40) 
-3.11146

>  <r_i_glide_ligand_efficiency>  (40) 
-0.163761

>  <r_i_glide_ligand_efficiency_sa>  (40) 
-0.43698

>  <r_i_glide_ligand_efficiency_ln>  (40) 
-0.788822

>  <r_i_glide_gscore>  (40) 
-3.11146

>  <r_i_glide_lipo>  (40) 
-0.565723

>  <r_i_glide_hbond>  (40) 
0

>  <r_i_glide_metal>  (40) 
-0

>  <r_i_glide_rewards>  (40) 
-1.68906

>  <r_i_glide_evdw>  (40) 
-23.1511

>  <r_i_glide_ecoul>  (40) 
-4.06937

>  <r_i_glide_erotb>  (40) 
1.10276

>  <r_i_glide_esite>  (40) 
-0.19148

>  <r_i_glide_emodel>  (40) 
-32.7112

>  <r_i_glide_energy>  (40) 
-27.2204

>  <r_i_glide_einternal>  (40) 
0.501679

>  <r_i_glide_intrahb_reward>  (40) 
-0

>  <i_i_glide_confnum>  (40) 
2

>  <i_i_glide_posenum>  (40) 
24

>  <r_i_glide_eff_state_penalty>  (40) 
0

>  <ligand_id>  (40) 
10

>  <original_smiles>  (40) 
c1ccc(CN=c2nc(-c3ccncc3)o[nH]2)cc1

>  <smiles>  (40) 
[H]c1nc([H])c([H])c(-c2nc(N([H])C([H])([H])c3c([H])c([H])c([H])c([H])c3[H])no2)c1[H]

$$$$
10:0:2
     RDKit          3D

 31 33  0  0  1  0  0  0  0  0999 V2000
    8.5213   -4.2467    0.0739 C   0  0  0  0  0  0  0  0  0  0  0  0
    8.6360   -5.5903    0.4849 C   0  0  0  0  0  0  0  0  0  0  0  0
    7.7041   -6.1434    1.3877 C   0  0  0  0  0  0  0  0  0  0  0  0
    6.6467   -5.3563    1.8816 C   0  0  0  0  0  0  0  0  0  0  0  0
    5.5578   -5.9691    2.7488 C   0  0  0  0  0  0  0  0  0  0  0  0
    4.2368   -6.2370    2.1598 N   0  0  0  0  0  0  0  0  0  0  0  0
    3.6023   -5.5146    1.1151 C   0  0  0  0  0  0  0  0  0  0  0  0
    4.2715   -4.6448    0.3297 N   0  0  0  0  0  0  0  0  0  0  0  0
    3.3409   -4.1156   -0.4164 C   0  0  0  0  0  0  0  0  0  0  0  0
    3.4976   -3.0660   -1.4144 C   0  0  0  0  0  0  0  0  0  0  0  0
    4.4829   -2.0529   -1.2935 C   0  0  0  0  0  0  0  0  0  0  0  0
    4.6000   -1.0905   -2.3146 C   0  0  0  0  0  0  0  0  0  0  0  0
    3.8202   -1.0827   -3.4122 N   0  0  0  0  0  0  0  0  0  0  0  0
    2.8721   -2.0404   -3.5167 C   0  0  0  0  0  0  0  0  0  0  0  0
    2.6764   -3.0449   -2.5545 C   0  0  0  0  0  0  0  0  0  0  0  0
    2.1306   -4.6666   -0.1942 O   0  0  0  0  0  0  0  0  0  0  0  0
    2.3035   -5.5979    0.8508 N   0  0  0  0  0  0  0  0  0  0  0  0
    6.6054   -3.9846    1.5446 C   0  0  0  0  0  0  0  0  0  0  0  0
    7.4882   -3.4500    0.5899 C   0  0  0  0  0  0  0  0  0  0  0  0
    9.1863   -3.8282   -0.6672 H   0  0  0  0  0  0  0  0  0  0  0  0
    9.4182   -6.2155    0.0919 H   0  0  0  0  0  0  0  0  0  0  0  0
    7.7734   -7.1895    1.6371 H   0  0  0  0  0  0  0  0  0  0  0  0
    5.9419   -6.9295    3.1118 H   0  0  0  0  0  0  0  0  0  0  0  0
    5.4478   -5.3589    3.6494 H   0  0  0  0  0  0  0  0  0  0  0  0
    5.1454   -2.0184   -0.4479 H   0  0  0  0  0  0  0  0  0  0  0  0
    5.3383   -0.3001   -2.2538 H   0  0  0  0  0  0  0  0  0  0  0  0
    2.2335   -2.0018   -4.3836 H   0  0  0  0  0  0  0  0  0  0  0  0
    1.9180   -3.8018   -2.6989 H   0  0  0  0  0  0  0  0  0  0  0  0
    5.8087   -3.3650    1.9337 H   0  0  0  0  0  0  0  0  0  0  0  0
    7.3319   -2.4502    0.2264 H   0  0  0  0  0  0  0  0  0  0  0  0
    3.6374   -6.8417    2.6829 H   0  0  0  0  0  0  0  0  0  0  0  0
  1 19  2  0
  1  2  1  0
  1 20  1  0
  2  3  2  0
  2 21  1  0
  3  4  1  0
  3 22  1  0
  4  5  1  0
  4 18  2  0
  5  6  1  0
  5 23  1  0
  5 24  1  0
  6  7  1  0
  6 31  1  0
  7 17  2  0
  7  8  1  0
  8  9  2  0
  9 10  1  0
  9 16  1  0
 10 15  1  0
 10 11  2  0
 11 12  1  0
 11 25  1  0
 12 13  2  0
 12 26  1  0
 13 14  1  0
 14 15  2  0
 14 27  1  0
 15 28  1  0
 16 17  1  0
 18 19  1  0
 18 29  1  0
 19 30  1  0
M  END
>  <i_m_ct_stereo_status>  (41) 
1

>  <s_m_source_file>  (41) 
/var/tmp/pbs.5076255.sched01/tmp14hj8t9c/0766azy0n.sdf

>  <i_m_source_file_index>  (41) 
16

>  <i_lp_mmshare_version>  (41) 
48012

>  <i_f3d_flags>  (41) 
0

>  <s_epik_input>  (41) 
W2NIXTFbY0hdW2NIXVtjSF1bY0hdYzFbQ0gyXS9OPWMyL25jKG9bbkhdMiktYzNbY0hdW2NIXW5bY0hdW2NIXTM=

>  <s_epik_cmdline>  (41) 
J2VwaWtfcHl0aG9uJywgJy1waHQnLCAnMi4wJywgJy1waCcsICc3LjAnLCAnLXRuJywgJzgnLCAnLW1hJywgJzIwMCcsICctaW1hZScsICc8aW5maWxlLm1hZT4nLCAnLW9tYWUnLCAnPG91dGZpbGUubWFlPic=

>  <r_epik_Ionization_Penalty>  (41) 
0.000607894

>  <r_epik_Ionization_Penalty_Charging>  (41) 
0

>  <r_epik_Ionization_Penalty_Neutral>  (41) 
0.000607894

>  <r_epik_State_Penalty>  (41) 
0.000380979

>  <r_epik_Charging_Adjusted_Penalty>  (41) 
0.000380979

>  <i_epik_Tot_Q>  (41) 
0

>  <i_epik_Tot_abs_Q>  (41) 
0

>  <s_lp_Force_Field>  (41) 
OPLS3e

>  <r_lp_Energy>  (41) 
26.8185

>  <b_lp_Chiralities_Consistent>  (41) 
1

>  <s_lp_Variant>  (41) 
10:0-1

>  <s_i_glide_gridfile>  (41) 
pfpi4k_grid

>  <i_i_glide_lignum>  (41) 
16

>  <i_i_glide_rotatable_bonds>  (41) 
4

>  <r_i_docking_score>  (41) 
-2.9485

>  <r_i_glide_ligand_efficiency>  (41) 
-0.155184

>  <r_i_glide_ligand_efficiency_sa>  (41) 
-0.414094

>  <r_i_glide_ligand_efficiency_ln>  (41) 
-0.747508

>  <r_i_glide_gscore>  (41) 
-2.9485

>  <r_i_glide_lipo>  (41) 
-0.493769

>  <r_i_glide_hbond>  (41) 
0

>  <r_i_glide_metal>  (41) 
-0

>  <r_i_glide_rewards>  (41) 
-1.70503

>  <r_i_glide_evdw>  (41) 
-25.1304

>  <r_i_glide_ecoul>  (41) 
-3.20169

>  <r_i_glide_erotb>  (41) 
1.10276

>  <r_i_glide_esite>  (41) 
-0.115689

>  <r_i_glide_emodel>  (41) 
-32.4344

>  <r_i_glide_energy>  (41) 
-28.3321

>  <r_i_glide_einternal>  (41) 
1.00302

>  <r_i_glide_intrahb_reward>  (41) 
-0

>  <i_i_glide_confnum>  (41) 
5

>  <i_i_glide_posenum>  (41) 
2

>  <r_i_glide_eff_state_penalty>  (41) 
0

>  <ligand_id>  (41) 
10

>  <original_smiles>  (41) 
c1ccc(CN=c2nc(-c3ccncc3)o[nH]2)cc1

>  <smiles>  (41) 
[H]c1nc([H])c([H])c(-c2nc(N([H])C([H])([H])c3c([H])c([H])c([H])c([H])c3[H])no2)c1[H]

$$$$
11:0:0
     RDKit          3D

 32 34  0  0  1  0  0  0  0  0999 V2000
   -0.5232   -5.1087    6.9970 C   0  0  0  0  0  0  0  0  0  0  0  0
    0.2391   -5.3556    5.8309 O   0  0  0  0  0  0  0  0  0  0  0  0
    0.6597   -4.3328    5.0681 C   0  0  0  0  0  0  0  0  0  0  0  0
    0.4069   -3.1434    5.2925 O   0  0  0  0  0  0  0  0  0  0  0  0
    1.4475   -4.7887    3.9238 C   0  0  0  0  0  0  0  0  0  0  0  0
    1.7203   -6.0641    3.5142 C   0  0  0  0  0  0  0  0  0  0  0  0
    2.5471   -6.1018    2.3393 C   0  0  0  0  0  0  0  0  0  0  0  0
    2.8877   -4.8609    1.8706 C   0  0  0  0  0  0  0  0  0  0  0  0
    3.7664   -4.5421    0.7000 C   0  0  2  0  0  0  0  0  0  0  0  0
    5.1575   -4.0088    1.0589 C   0  0  0  0  0  0  0  0  0  0  0  0
    5.4071   -2.9672    0.1205 O   0  0  0  0  0  0  0  0  0  0  0  0
    4.3101   -2.9264   -0.7321 C   0  0  0  0  0  0  0  0  0  0  0  0
    4.6113   -3.7438   -1.9889 C   0  0  0  0  0  0  0  0  0  0  0  0
    4.5572   -3.3068   -3.2437 C   0  0  0  0  0  0  0  0  0  0  0  0
    4.2066   -1.8987   -3.5342 C   0  0  0  0  0  0  0  0  0  0  0  0
    4.1592   -1.4726   -4.6722 O   0  0  0  0  0  0  0  0  0  0  0  0
    3.9522   -1.0139   -2.4042 C   0  0  0  0  0  0  0  0  0  0  0  0
    4.0035   -1.4743   -1.1045 C   0  0  0  0  0  0  0  0  0  0  0  0
    3.2296   -3.4505   -0.0342 O   0  0  0  0  0  0  0  0  0  0  0  0
    2.2035   -3.6053    2.8794 S   0  0  0  0  0  0  0  0  0  0  0  0
   -0.7592   -6.0554    7.4824 H   0  0  0  0  0  0  0  0  0  0  0  0
   -1.4624   -4.6084    6.7565 H   0  0  0  0  0  0  0  0  0  0  0  0
    0.0299   -4.4958    7.7106 H   0  0  0  0  0  0  0  0  0  0  0  0
    1.3813   -6.9637    4.0019 H   0  0  0  0  0  0  0  0  0  0  0  0
    2.8555   -7.0392    1.9022 H   0  0  0  0  0  0  0  0  0  0  0  0
    3.8358   -5.4121    0.0459 H   0  0  0  0  0  0  0  0  0  0  0  0
    5.1726   -3.5700    2.0592 H   0  0  0  0  0  0  0  0  0  0  0  0
    5.9181   -4.7900    1.0217 H   0  0  0  0  0  0  0  0  0  0  0  0
    4.8813   -4.7772   -1.8243 H   0  0  0  0  0  0  0  0  0  0  0  0
    4.7715   -3.9640   -4.0700 H   0  0  0  0  0  0  0  0  0  0  0  0
    3.7316    0.0174   -2.6107 H   0  0  0  0  0  0  0  0  0  0  0  0
    3.8113   -0.7975   -0.3063 H   0  0  0  0  0  0  0  0  0  0  0  0
  1  2  1  0
  1 21  1  0
  1 22  1  0
  1 23  1  0
  2  3  1  0
  3  4  2  0
  3  5  1  0
  5 20  1  0
  5  6  2  0
  6  7  1  0
  6 24  1  0
  7  8  2  0
  7 25  1  0
  8  9  1  0
  8 20  1  0
  9 19  1  0
  9 10  1  0
  9 26  1  6
 10 11  1  0
 10 27  1  0
 10 28  1  0
 11 12  1  0
 12 18  1  0
 12 13  1  0
 12 19  1  0
 13 14  2  0
 13 29  1  0
 14 15  1  0
 14 30  1  0
 15 16  2  0
 15 17  1  0
 17 18  2  0
 17 31  1  0
 18 32  1  0
M  END
>  <i_m_ct_stereo_status>  (42) 
1

>  <s_m_source_file>  (42) 
/var/tmp/pbs.5076255.sched01/tmp14hj8t9c/0766azy0n.sdf

>  <i_m_source_file_index>  (42) 
17

>  <i_lp_mmshare_version>  (42) 
48012

>  <i_f3d_flags>  (42) 
0

>  <s_epik_input>  (42) 
W0NIM11PQyg9TyljMVtjSF1bY0hdYyhzMSlbQ0BASF0oTzIpW0NIMl1PQzIzW0NIXT1bQ0hdQyg9TylbQ0hdPVtDSF0z

>  <s_epik_cmdline>  (42) 
J2VwaWtfcHl0aG9uJywgJy1waHQnLCAnMi4wJywgJy1waCcsICc3LjAnLCAnLXRuJywgJzgnLCAnLW1hJywgJzIwMCcsICctaW1hZScsICc8aW5maWxlLm1hZT4nLCAnLW9tYWUnLCAnPG91dGZpbGUubWFlPic=

>  <r_lp_tautomer_probability>  (42) 
1

>  <r_epik_Ionization_Penalty>  (42) 
0

>  <r_epik_Ionization_Penalty_Charging>  (42) 
0

>  <r_epik_Ionization_Penalty_Neutral>  (42) 
0

>  <r_epik_State_Penalty>  (42) 
-0

>  <r_epik_Charging_Adjusted_Penalty>  (42) 
0

>  <i_epik_Tot_Q>  (42) 
0

>  <i_epik_Tot_abs_Q>  (42) 
0

>  <s_epik_Chemistry_Notes>  (42) 
This compound has an ester and may undergo hydrolysis at high or low pH.

>  <s_lp_Force_Field>  (42) 
OPLS3e

>  <r_lp_Energy>  (42) 
2.95325

>  <b_lp_Chiralities_Consistent>  (42) 
1

>  <s_lp_Variant>  (42) 
11:0-1

>  <s_i_glide_gridfile>  (42) 
pfpi4k_grid

>  <i_i_glide_lignum>  (42) 
17

>  <i_i_glide_rotatable_bonds>  (42) 
3

>  <r_i_docking_score>  (42) 
-3.48484

>  <r_i_glide_ligand_efficiency>  (42) 
-0.174242

>  <r_i_glide_ligand_efficiency_sa>  (42) 
-0.472965

>  <r_i_glide_ligand_efficiency_ln>  (42) 
-0.87214

>  <r_i_glide_gscore>  (42) 
-3.48484

>  <r_i_glide_lipo>  (42) 
-0.257135

>  <r_i_glide_hbond>  (42) 
-0.32

>  <r_i_glide_metal>  (42) 
-0

>  <r_i_glide_rewards>  (42) 
-1.66285

>  <r_i_glide_evdw>  (42) 
-23.9568

>  <r_i_glide_ecoul>  (42) 
-3.13707

>  <r_i_glide_erotb>  (42) 
0.427295

>  <r_i_glide_esite>  (42) 
-0.00374819

>  <r_i_glide_emodel>  (42) 
-33.6063

>  <r_i_glide_energy>  (42) 
-27.0939

>  <r_i_glide_einternal>  (42) 
0.129103

>  <r_i_glide_intrahb_reward>  (42) 
-0

>  <i_i_glide_confnum>  (42) 
1

>  <i_i_glide_posenum>  (42) 
20

>  <r_i_glide_eff_state_penalty>  (42) 
0

>  <ligand_id>  (42) 
11

>  <original_smiles>  (42) 
COC(=O)c1ccc(C2COC3(C=CC(=O)C=C3)O2)s1

>  <smiles>  (42) 
[H]C1=C([H])C2(OC([H])([H])C([H])(c3sc(C(=O)OC([H])([H])[H])c([H])c3[H])O2)C([H])=C([H])C1=O

$$$$
11:0:1
     RDKit          3D

 32 34  0  0  1  0  0  0  0  0999 V2000
   -1.6366   -8.6887    2.9992 C   0  0  0  0  0  0  0  0  0  0  0  0
   -0.3352   -8.3005    2.6216 O   0  0  0  0  0  0  0  0  0  0  0  0
    0.6975   -9.1583    2.7308 C   0  0  0  0  0  0  0  0  0  0  0  0
    0.6180  -10.3042    3.1737 O   0  0  0  0  0  0  0  0  0  0  0  0
    1.9483   -8.5889    2.2459 C   0  0  0  0  0  0  0  0  0  0  0  0
    3.2016   -9.1578    2.1497 C   0  0  0  0  0  0  0  0  0  0  0  0
    4.1754   -8.2540    1.6165 C   0  0  0  0  0  0  0  0  0  0  0  0
    3.6669   -7.0174    1.3029 C   0  0  0  0  0  0  0  0  0  0  0  0
    4.4100   -5.8414    0.7735 C   0  0  2  0  0  0  0  0  0  0  0  0
    4.6278   -4.6959    1.7708 C   0  0  0  0  0  0  0  0  0  0  0  0
    4.4048   -3.5028    1.0248 O   0  0  0  0  0  0  0  0  0  0  0  0
    4.1200   -3.8901   -0.2727 C   0  0  0  0  0  0  0  0  0  0  0  0
    5.4003   -3.8208   -1.1260 C   0  0  0  0  0  0  0  0  0  0  0  0
    5.5858   -3.1160   -2.2434 C   0  0  0  0  0  0  0  0  0  0  0  0
    4.4926   -2.2903   -2.7855 C   0  0  0  0  0  0  0  0  0  0  0  0
    4.6153   -1.6707   -3.8201 O   0  0  0  0  0  0  0  0  0  0  0  0
    3.2280   -2.2554   -2.0120 C   0  0  0  0  0  0  0  0  0  0  0  0
    3.0534   -2.9663   -0.8776 C   0  0  0  0  0  0  0  0  0  0  0  0
    3.6215   -5.1826   -0.1950 O   0  0  0  0  0  0  0  0  0  0  0  0
    1.9714   -6.9358    1.6731 S   0  0  0  0  0  0  0  0  0  0  0  0
   -2.3130   -7.8516    2.8296 H   0  0  0  0  0  0  0  0  0  0  0  0
   -1.6786   -8.9544    4.0555 H   0  0  0  0  0  0  0  0  0  0  0  0
   -1.9827   -9.5318    2.4014 H   0  0  0  0  0  0  0  0  0  0  0  0
    3.4499  -10.1685    2.4467 H   0  0  0  0  0  0  0  0  0  0  0  0
    5.2119   -8.5502    1.4885 H   0  0  0  0  0  0  0  0  0  0  0  0
    5.3495   -6.1637    0.3185 H   0  0  0  0  0  0  0  0  0  0  0  0
    3.8945   -4.7286    2.5802 H   0  0  0  0  0  0  0  0  0  0  0  0
    5.6252   -4.7276    2.2141 H   0  0  0  0  0  0  0  0  0  0  0  0
    6.2165   -4.4015   -0.7349 H   0  0  0  0  0  0  0  0  0  0  0  0
    6.5265   -3.1355   -2.7716 H   0  0  0  0  0  0  0  0  0  0  0  0
    2.4407   -1.6002   -2.4086 H   0  0  0  0  0  0  0  0  0  0  0  0
    2.1157   -2.9136   -0.3177 H   0  0  0  0  0  0  0  0  0  0  0  0
  1  2  1  0
  1 21  1  0
  1 22  1  0
  1 23  1  0
  2  3  1  0
  3  4  2  0
  3  5  1  0
  5 20  1  0
  5  6  2  0
  6  7  1  0
  6 24  1  0
  7  8  2  0
  7 25  1  0
  8  9  1  0
  8 20  1  0
  9 19  1  0
  9 10  1  0
  9 26  1  6
 10 11  1  0
 10 27  1  0
 10 28  1  0
 11 12  1  0
 12 18  1  0
 12 13  1  0
 12 19  1  0
 13 14  2  0
 13 29  1  0
 14 15  1  0
 14 30  1  0
 15 16  2  0
 15 17  1  0
 17 18  2  0
 17 31  1  0
 18 32  1  0
M  END
>  <i_m_ct_stereo_status>  (43) 
1

>  <s_m_source_file>  (43) 
/var/tmp/pbs.5076255.sched01/tmp14hj8t9c/0766azy0n.sdf

>  <i_m_source_file_index>  (43) 
17

>  <i_lp_mmshare_version>  (43) 
48012

>  <i_f3d_flags>  (43) 
0

>  <s_epik_input>  (43) 
W0NIM11PQyg9TyljMVtjSF1bY0hdYyhzMSlbQ0BASF0oTzIpW0NIMl1PQzIzW0NIXT1bQ0hdQyg9TylbQ0hdPVtDSF0z

>  <s_epik_cmdline>  (43) 
J2VwaWtfcHl0aG9uJywgJy1waHQnLCAnMi4wJywgJy1waCcsICc3LjAnLCAnLXRuJywgJzgnLCAnLW1hJywgJzIwMCcsICctaW1hZScsICc8aW5maWxlLm1hZT4nLCAnLW9tYWUnLCAnPG91dGZpbGUubWFlPic=

>  <r_lp_tautomer_probability>  (43) 
1

>  <r_epik_Ionization_Penalty>  (43) 
0

>  <r_epik_Ionization_Penalty_Charging>  (43) 
0

>  <r_epik_Ionization_Penalty_Neutral>  (43) 
0

>  <r_epik_State_Penalty>  (43) 
-0

>  <r_epik_Charging_Adjusted_Penalty>  (43) 
0

>  <i_epik_Tot_Q>  (43) 
0

>  <i_epik_Tot_abs_Q>  (43) 
0

>  <s_epik_Chemistry_Notes>  (43) 
This compound has an ester and may undergo hydrolysis at high or low pH.

>  <s_lp_Force_Field>  (43) 
OPLS3e

>  <r_lp_Energy>  (43) 
2.95325

>  <b_lp_Chiralities_Consistent>  (43) 
1

>  <s_lp_Variant>  (43) 
11:0-1

>  <s_i_glide_gridfile>  (43) 
pfpi4k_grid

>  <i_i_glide_lignum>  (43) 
17

>  <i_i_glide_rotatable_bonds>  (43) 
3

>  <r_i_docking_score>  (43) 
-3.24312

>  <r_i_glide_ligand_efficiency>  (43) 
-0.162156

>  <r_i_glide_ligand_efficiency_sa>  (43) 
-0.440159

>  <r_i_glide_ligand_efficiency_ln>  (43) 
-0.811645

>  <r_i_glide_gscore>  (43) 
-3.24312

>  <r_i_glide_lipo>  (43) 
-0.387728

>  <r_i_glide_hbond>  (43) 
0

>  <r_i_glide_metal>  (43) 
-0

>  <r_i_glide_rewards>  (43) 
-1.57826

>  <r_i_glide_evdw>  (43) 
-29.2689

>  <r_i_glide_ecoul>  (43) 
-1.50363

>  <r_i_glide_erotb>  (43) 
0.427295

>  <r_i_glide_esite>  (43) 
-0.0154314

>  <r_i_glide_emodel>  (43) 
-36.2674

>  <r_i_glide_energy>  (43) 
-30.7725

>  <r_i_glide_einternal>  (43) 
1.03132

>  <r_i_glide_intrahb_reward>  (43) 
-0

>  <i_i_glide_confnum>  (43) 
2

>  <i_i_glide_posenum>  (43) 
24

>  <r_i_glide_eff_state_penalty>  (43) 
0

>  <ligand_id>  (43) 
11

>  <original_smiles>  (43) 
COC(=O)c1ccc(C2COC3(C=CC(=O)C=C3)O2)s1

>  <smiles>  (43) 
[H]C1=C([H])C2(OC([H])([H])C([H])(c3sc(C(=O)OC([H])([H])[H])c([H])c3[H])O2)C([H])=C([H])C1=O

$$$$
11:0:2
     RDKit          3D

 32 34  0  0  1  0  0  0  0  0999 V2000
    0.1026   -8.6445    4.1300 C   0  0  0  0  0  0  0  0  0  0  0  0
    0.7345   -7.5759    3.4528 O   0  0  0  0  0  0  0  0  0  0  0  0
    0.9388   -6.3937    4.0622 C   0  0  0  0  0  0  0  0  0  0  0  0
    0.5861   -6.1244    5.2129 O   0  0  0  0  0  0  0  0  0  0  0  0
    1.6171   -5.4201    3.2012 C   0  0  0  0  0  0  0  0  0  0  0  0
    1.9845   -4.1267    3.4570 C   0  0  0  0  0  0  0  0  0  0  0  0
    2.6345   -3.5005    2.3364 C   0  0  0  0  0  0  0  0  0  0  0  0
    2.7476   -4.3262    1.2512 C   0  0  0  0  0  0  0  0  0  0  0  0
    3.3815   -4.0770   -0.0779 C   0  0  2  0  0  0  0  0  0  0  0  0
    4.9042   -4.1929   -0.1215 C   0  0  0  0  0  0  0  0  0  0  0  0
    5.3139   -3.1480   -0.9992 O   0  0  0  0  0  0  0  0  0  0  0  0
    4.1550   -2.5364   -1.4623 C   0  0  0  0  0  0  0  0  0  0  0  0
    3.7692   -3.1326   -2.8193 C   0  0  0  0  0  0  0  0  0  0  0  0
    3.5917   -2.4763   -3.9484 C   0  0  0  0  0  0  0  0  0  0  0  0
    3.7955   -1.0144   -4.0172 C   0  0  0  0  0  0  0  0  0  0  0  0
    3.6713   -0.4035   -5.0600 O   0  0  0  0  0  0  0  0  0  0  0  0
    4.2112   -0.3460   -2.7797 C   0  0  0  0  0  0  0  0  0  0  0  0
    4.3811   -1.0312   -1.6097 C   0  0  0  0  0  0  0  0  0  0  0  0
    3.1691   -2.7463   -0.5086 O   0  0  0  0  0  0  0  0  0  0  0  0
    2.0755   -5.9013    1.5851 S   0  0  0  0  0  0  0  0  0  0  0  0
    0.0439   -9.5032    3.4605 H   0  0  0  0  0  0  0  0  0  0  0  0
   -0.9123   -8.3795    4.4296 H   0  0  0  0  0  0  0  0  0  0  0  0
    0.6691   -8.9437    5.0131 H   0  0  0  0  0  0  0  0  0  0  0  0
    1.8300   -3.6070    4.3896 H   0  0  0  0  0  0  0  0  0  0  0  0
    2.9958   -2.4840    2.3751 H   0  0  0  0  0  0  0  0  0  0  0  0
    2.9209   -4.7462   -0.7989 H   0  0  0  0  0  0  0  0  0  0  0  0
    5.3395   -4.0016    0.8622 H   0  0  0  0  0  0  0  0  0  0  0  0
    5.2334   -5.1758   -0.4609 H   0  0  0  0  0  0  0  0  0  0  0  0
    3.6612   -4.2063   -2.8459 H   0  0  0  0  0  0  0  0  0  0  0  0
    3.3100   -2.9950   -4.8540 H   0  0  0  0  0  0  0  0  0  0  0  0
    4.3618    0.7219   -2.8173 H   0  0  0  0  0  0  0  0  0  0  0  0
    4.6768   -0.5090   -0.7254 H   0  0  0  0  0  0  0  0  0  0  0  0
  1  2  1  0
  1 21  1  0
  1 22  1  0
  1 23  1  0
  2  3  1  0
  3  4  2  0
  3  5  1  0
  5 20  1  0
  5  6  2  0
  6  7  1  0
  6 24  1  0
  7  8  2  0
  7 25  1  0
  8  9  1  0
  8 20  1  0
  9 19  1  0
  9 10  1  0
  9 26  1  6
 10 11  1  0
 10 27  1  0
 10 28  1  0
 11 12  1  0
 12 18  1  0
 12 13  1  0
 12 19  1  0
 13 14  2  0
 13 29  1  0
 14 15  1  0
 14 30  1  0
 15 16  2  0
 15 17  1  0
 17 18  2  0
 17 31  1  0
 18 32  1  0
M  END
>  <i_m_ct_stereo_status>  (44) 
1

>  <s_m_source_file>  (44) 
/var/tmp/pbs.5076255.sched01/tmp14hj8t9c/0766azy0n.sdf

>  <i_m_source_file_index>  (44) 
17

>  <i_lp_mmshare_version>  (44) 
48012

>  <i_f3d_flags>  (44) 
0

>  <s_epik_input>  (44) 
W0NIM11PQyg9TyljMVtjSF1bY0hdYyhzMSlbQ0BASF0oTzIpW0NIMl1PQzIzW0NIXT1bQ0hdQyg9TylbQ0hdPVtDSF0z

>  <s_epik_cmdline>  (44) 
J2VwaWtfcHl0aG9uJywgJy1waHQnLCAnMi4wJywgJy1waCcsICc3LjAnLCAnLXRuJywgJzgnLCAnLW1hJywgJzIwMCcsICctaW1hZScsICc8aW5maWxlLm1hZT4nLCAnLW9tYWUnLCAnPG91dGZpbGUubWFlPic=

>  <r_lp_tautomer_probability>  (44) 
1

>  <r_epik_Ionization_Penalty>  (44) 
0

>  <r_epik_Ionization_Penalty_Charging>  (44) 
0

>  <r_epik_Ionization_Penalty_Neutral>  (44) 
0

>  <r_epik_State_Penalty>  (44) 
-0

>  <r_epik_Charging_Adjusted_Penalty>  (44) 
0

>  <i_epik_Tot_Q>  (44) 
0

>  <i_epik_Tot_abs_Q>  (44) 
0

>  <s_epik_Chemistry_Notes>  (44) 
This compound has an ester and may undergo hydrolysis at high or low pH.

>  <s_lp_Force_Field>  (44) 
OPLS3e

>  <r_lp_Energy>  (44) 
2.95325

>  <b_lp_Chiralities_Consistent>  (44) 
1

>  <s_lp_Variant>  (44) 
11:0-1

>  <s_i_glide_gridfile>  (44) 
pfpi4k_grid

>  <i_i_glide_lignum>  (44) 
17

>  <i_i_glide_rotatable_bonds>  (44) 
3

>  <r_i_docking_score>  (44) 
-3.20534

>  <r_i_glide_ligand_efficiency>  (44) 
-0.160267

>  <r_i_glide_ligand_efficiency_sa>  (44) 
-0.435032

>  <r_i_glide_ligand_efficiency_ln>  (44) 
-0.802191

>  <r_i_glide_gscore>  (44) 
-3.20534

>  <r_i_glide_lipo>  (44) 
-0.28988

>  <r_i_glide_hbond>  (44) 
-0.0756498

>  <r_i_glide_metal>  (44) 
-0

>  <r_i_glide_rewards>  (44) 
-1.5927

>  <r_i_glide_evdw>  (44) 
-26.4917

>  <r_i_glide_ecoul>  (44) 
-2.07578

>  <r_i_glide_erotb>  (44) 
0.427295

>  <r_i_glide_esite>  (44) 
-0.0384565

>  <r_i_glide_emodel>  (44) 
-33.3512

>  <r_i_glide_energy>  (44) 
-28.5675

>  <r_i_glide_einternal>  (44) 
2.26042

>  <r_i_glide_intrahb_reward>  (44) 
-0

>  <i_i_glide_confnum>  (44) 
4

>  <i_i_glide_posenum>  (44) 
3

>  <r_i_glide_eff_state_penalty>  (44) 
0

>  <ligand_id>  (44) 
11

>  <original_smiles>  (44) 
COC(=O)c1ccc(C2COC3(C=CC(=O)C=C3)O2)s1

>  <smiles>  (44) 
[H]C1=C([H])C2(OC([H])([H])C([H])(c3sc(C(=O)OC([H])([H])[H])c([H])c3[H])O2)C([H])=C([H])C1=O

$$$$
12:0:0
     RDKit          3D

 31 32  0  0  1  0  0  0  0  0999 V2000
    1.5570   -7.3330    1.4367 C   0  0  0  0  0  0  0  0  0  0  0  0
    2.5924   -6.3673    1.3978 O   0  0  0  0  0  0  0  0  0  0  0  0
    2.4077   -5.2331    0.7337 C   0  0  0  0  0  0  0  0  0  0  0  0
    1.6883   -5.1744   -0.2855 O   0  0  0  0  0  0  0  0  0  0  0  0
    3.0279   -4.0374    1.3856 C   0  0  0  0  0  0  0  0  0  0  0  0
    3.3343   -4.0012    2.7209 C   0  0  0  0  0  0  0  0  0  0  0  0
    3.1159   -5.0328    3.8181 C   0  0  0  0  0  0  0  0  0  0  0  0
    3.9192   -2.8432    3.2388 N   0  0  0  0  0  0  0  0  0  0  0  0
    4.2753   -1.7359    2.5836 C   0  0  0  0  0  0  0  0  0  0  0  0
    5.0145   -0.4560    3.3563 S   0  0  0  0  0  0  0  0  0  0  0  0
    4.0059   -1.7270    1.2450 N   0  0  0  0  0  0  0  0  0  0  0  0
    3.2265   -2.7658    0.5383 C   0  0  1  0  0  0  0  0  0  0  0  0
    3.7345   -2.9748   -0.8954 C   0  0  0  0  0  0  0  0  0  0  0  0
    5.0879   -3.2208   -1.1574 C   0  0  0  0  0  0  0  0  0  0  0  0
    5.4832   -3.4522   -2.5010 C   0  0  0  0  0  0  0  0  0  0  0  0
    4.6322   -3.4173   -3.5445 N   0  0  0  0  0  0  0  0  0  0  0  0
    3.3336   -3.1747   -3.2827 C   0  0  0  0  0  0  0  0  0  0  0  0
    2.8374   -2.9409   -1.9800 C   0  0  0  0  0  0  0  0  0  0  0  0
    1.8422   -8.1293    2.1264 H   0  0  0  0  0  0  0  0  0  0  0  0
    1.3441   -7.8012    0.4755 H   0  0  0  0  0  0  0  0  0  0  0  0
    0.6254   -6.8944    1.7998 H   0  0  0  0  0  0  0  0  0  0  0  0
    4.1197   -2.8821    4.2231 H   0  0  0  0  0  0  0  0  0  0  0  0
    2.4183   -5.8405    3.5924 H   0  0  0  0  0  0  0  0  0  0  0  0
    2.7026   -4.5483    4.7185 H   0  0  0  0  0  0  0  0  0  0  0  0
    4.0723   -5.4812    4.1115 H   0  0  0  0  0  0  0  0  0  0  0  0
    4.2460   -0.9022    0.7184 H   0  0  0  0  0  0  0  0  0  0  0  0
    2.2349   -2.3128    0.4476 H   0  0  0  0  0  0  0  0  0  0  0  0
    5.8223   -3.2620   -0.3641 H   0  0  0  0  0  0  0  0  0  0  0  0
    6.5105   -3.6466   -2.7412 H   0  0  0  0  0  0  0  0  0  0  0  0
    2.6594   -3.1979   -4.1314 H   0  0  0  0  0  0  0  0  0  0  0  0
    1.7880   -2.7703   -1.8491 H   0  0  0  0  0  0  0  0  0  0  0  0
  1  2  1  0
  1 19  1  0
  1 20  1  0
  1 21  1  0
  2  3  1  0
  3  4  2  0
  3  5  1  0
  5 12  1  0
  5  6  2  0
  6  7  1  0
  6  8  1  0
  7 23  1  0
  7 24  1  0
  7 25  1  0
  8  9  1  0
  8 22  1  0
  9 10  2  0
  9 11  1  0
 11 12  1  0
 11 26  1  0
 12 13  1  0
 12 27  1  6
 13 18  1  0
 13 14  2  0
 14 15  1  0
 14 28  1  0
 15 16  2  0
 15 29  1  0
 16 17  1  0
 17 18  2  0
 17 30  1  0
 18 31  1  0
M  END
>  <i_m_ct_stereo_status>  (45) 
1

>  <s_m_source_file>  (45) 
/var/tmp/pbs.5076255.sched01/tmp14hj8t9c/0766azy0n.sdf

>  <i_m_source_file_index>  (45) 
18

>  <i_lp_mmshare_version>  (45) 
48012

>  <i_f3d_flags>  (45) 
0

>  <s_epik_input>  (45) 
W0NIM11PQyg9TylbQ0BASF0xQyhbQ0gzXSk9TkMoPVMpW05IXVtDQEhdMWMyW2NIXVtjSF1uW2NIXVtjSF0y

>  <s_epik_cmdline>  (45) 
J2VwaWtfcHl0aG9uJywgJy1waHQnLCAnMi4wJywgJy1waCcsICc3LjAnLCAnLXRuJywgJzgnLCAnLW1hJywgJzIwMCcsICctaW1hZScsICc8aW5maWxlLm1hZT4nLCAnLW9tYWUnLCAnPG91dGZpbGUubWFlPic=

>  <r_lp_tautomer_probability>  (45) 
1

>  <r_epik_Ionization_Penalty>  (45) 
0.000664098

>  <r_epik_Ionization_Penalty_Charging>  (45) 
0

>  <r_epik_Ionization_Penalty_Neutral>  (45) 
0.000664098

>  <r_epik_State_Penalty>  (45) 
0.000395531

>  <r_epik_Charging_Adjusted_Penalty>  (45) 
0.000395531

>  <i_epik_Tot_Q>  (45) 
0

>  <i_epik_Tot_abs_Q>  (45) 
0

>  <s_epik_Chemistry_Notes>  (45) 
This compound has an ester and may undergo hydrolysis at high or low pH.

>  <s_lp_Force_Field>  (45) 
OPLS3e

>  <r_lp_Energy>  (45) 
38.1697

>  <b_lp_Chiralities_Consistent>  (45) 
1

>  <s_lp_Variant>  (45) 
12:0-1

>  <s_i_glide_gridfile>  (45) 
pfpi4k_grid

>  <i_i_glide_lignum>  (45) 
18

>  <i_i_glide_rotatable_bonds>  (45) 
3

>  <r_i_docking_score>  (45) 
-3.33594

>  <r_i_glide_ligand_efficiency>  (45) 
-0.18533

>  <r_i_glide_ligand_efficiency_sa>  (45) 
-0.485701

>  <r_i_glide_ligand_efficiency_ln>  (45) 
-0.857485

>  <r_i_glide_gscore>  (45) 
-3.33594

>  <r_i_glide_lipo>  (45) 
-0.37806

>  <r_i_glide_hbond>  (45) 
-0.0672606

>  <r_i_glide_metal>  (45) 
-0

>  <r_i_glide_rewards>  (45) 
-1.81588

>  <r_i_glide_evdw>  (45) 
-21.8497

>  <r_i_glide_ecoul>  (45) 
-2.92963

>  <r_i_glide_erotb>  (45) 
0.512192

>  <r_i_glide_esite>  (45) 
-0.0549959

>  <r_i_glide_emodel>  (45) 
-27.6081

>  <r_i_glide_energy>  (45) 
-24.7793

>  <r_i_glide_einternal>  (45) 
2.66568

>  <r_i_glide_intrahb_reward>  (45) 
-0

>  <i_i_glide_confnum>  (45) 
3

>  <i_i_glide_posenum>  (45) 
35

>  <r_i_glide_eff_state_penalty>  (45) 
0

>  <ligand_id>  (45) 
12

>  <original_smiles>  (45) 
COC(=O)C1C(C)=NC(=S)NC1c1ccncc1

>  <smiles>  (45) 
[H]c1nc([H])c([H])c(C2([H])C(C(=O)OC([H])([H])[H])=C(C([H])([H])[H])N([H])C(=S)N2[H])c1[H]

$$$$
12:0:1
     RDKit          3D

 31 32  0  0  1  0  0  0  0  0999 V2000
    4.2126   -7.5477    0.8745 C   0  0  0  0  0  0  0  0  0  0  0  0
    4.0914   -6.1809    1.2236 O   0  0  0  0  0  0  0  0  0  0  0  0
    3.0376   -5.4487    0.8003 C   0  0  0  0  0  0  0  0  0  0  0  0
    2.1138   -5.8599    0.0903 O   0  0  0  0  0  0  0  0  0  0  0  0
    3.1046   -4.0638    1.3131 C   0  0  0  0  0  0  0  0  0  0  0  0
    3.3186   -3.7841    2.6156 C   0  0  0  0  0  0  0  0  0  0  0  0
    3.4700   -4.7513    3.7871 C   0  0  0  0  0  0  0  0  0  0  0  0
    3.3729   -2.4571    3.0244 N   0  0  0  0  0  0  0  0  0  0  0  0
    3.2925   -1.3552    2.2350 C   0  0  0  0  0  0  0  0  0  0  0  0
    3.3920    0.1629    2.8783 S   0  0  0  0  0  0  0  0  0  0  0  0
    3.1456   -1.6074    0.9043 N   0  0  0  0  0  0  0  0  0  0  0  0
    2.8779   -2.9245    0.3185 C   0  0  1  0  0  0  0  0  0  0  0  0
    3.4901   -3.0885   -1.0692 C   0  0  0  0  0  0  0  0  0  0  0  0
    2.6799   -3.0488   -2.2244 C   0  0  0  0  0  0  0  0  0  0  0  0
    3.2864   -3.2079   -3.4868 C   0  0  0  0  0  0  0  0  0  0  0  0
    4.6100   -3.3995   -3.6522 N   0  0  0  0  0  0  0  0  0  0  0  0
    5.3760   -3.4408   -2.5436 C   0  0  0  0  0  0  0  0  0  0  0  0
    4.8758   -3.2805   -1.2345 C   0  0  0  0  0  0  0  0  0  0  0  0
    5.0961   -7.9784    1.3431 H   0  0  0  0  0  0  0  0  0  0  0  0
    4.3225   -7.6440   -0.2056 H   0  0  0  0  0  0  0  0  0  0  0  0
    3.3410   -8.1260    1.1929 H   0  0  0  0  0  0  0  0  0  0  0  0
    3.4934   -2.3094    4.0138 H   0  0  0  0  0  0  0  0  0  0  0  0
    3.2132   -5.7815    3.5380 H   0  0  0  0  0  0  0  0  0  0  0  0
    2.8049   -4.4626    4.6015 H   0  0  0  0  0  0  0  0  0  0  0  0
    4.4955   -4.7345    4.1606 H   0  0  0  0  0  0  0  0  0  0  0  0
    3.0005   -0.8165    0.2867 H   0  0  0  0  0  0  0  0  0  0  0  0
    1.8081   -2.9246    0.1551 H   0  0  0  0  0  0  0  0  0  0  0  0
    1.6128   -2.9001   -2.1693 H   0  0  0  0  0  0  0  0  0  0  0  0
    2.6955   -3.1945   -4.3898 H   0  0  0  0  0  0  0  0  0  0  0  0
    6.4307   -3.6066   -2.7089 H   0  0  0  0  0  0  0  0  0  0  0  0
    5.5372   -3.3244   -0.3841 H   0  0  0  0  0  0  0  0  0  0  0  0
  1  2  1  0
  1 19  1  0
  1 20  1  0
  1 21  1  0
  2  3  1  0
  3  4  2  0
  3  5  1  0
  5 12  1  0
  5  6  2  0
  6  7  1  0
  6  8  1  0
  7 23  1  0
  7 24  1  0
  7 25  1  0
  8  9  1  0
  8 22  1  0
  9 10  2  0
  9 11  1  0
 11 12  1  0
 11 26  1  0
 12 13  1  0
 12 27  1  6
 13 18  1  0
 13 14  2  0
 14 15  1  0
 14 28  1  0
 15 16  2  0
 15 29  1  0
 16 17  1  0
 17 18  2  0
 17 30  1  0
 18 31  1  0
M  END
>  <i_m_ct_stereo_status>  (46) 
1

>  <s_m_source_file>  (46) 
/var/tmp/pbs.5076255.sched01/tmp14hj8t9c/0766azy0n.sdf

>  <i_m_source_file_index>  (46) 
18

>  <i_lp_mmshare_version>  (46) 
48012

>  <i_f3d_flags>  (46) 
0

>  <s_epik_input>  (46) 
W0NIM11PQyg9TylbQ0BASF0xQyhbQ0gzXSk9TkMoPVMpW05IXVtDQEhdMWMyW2NIXVtjSF1uW2NIXVtjSF0y

>  <s_epik_cmdline>  (46) 
J2VwaWtfcHl0aG9uJywgJy1waHQnLCAnMi4wJywgJy1waCcsICc3LjAnLCAnLXRuJywgJzgnLCAnLW1hJywgJzIwMCcsICctaW1hZScsICc8aW5maWxlLm1hZT4nLCAnLW9tYWUnLCAnPG91dGZpbGUubWFlPic=

>  <r_lp_tautomer_probability>  (46) 
1

>  <r_epik_Ionization_Penalty>  (46) 
0.000664098

>  <r_epik_Ionization_Penalty_Charging>  (46) 
0

>  <r_epik_Ionization_Penalty_Neutral>  (46) 
0.000664098

>  <r_epik_State_Penalty>  (46) 
0.000395531

>  <r_epik_Charging_Adjusted_Penalty>  (46) 
0.000395531

>  <i_epik_Tot_Q>  (46) 
0

>  <i_epik_Tot_abs_Q>  (46) 
0

>  <s_epik_Chemistry_Notes>  (46) 
This compound has an ester and may undergo hydrolysis at high or low pH.

>  <s_lp_Force_Field>  (46) 
OPLS3e

>  <r_lp_Energy>  (46) 
38.1697

>  <b_lp_Chiralities_Consistent>  (46) 
1

>  <s_lp_Variant>  (46) 
12:0-1

>  <s_i_glide_gridfile>  (46) 
pfpi4k_grid

>  <i_i_glide_lignum>  (46) 
18

>  <i_i_glide_rotatable_bonds>  (46) 
3

>  <r_i_docking_score>  (46) 
-3.31007

>  <r_i_glide_ligand_efficiency>  (46) 
-0.183893

>  <r_i_glide_ligand_efficiency_sa>  (46) 
-0.481936

>  <r_i_glide_ligand_efficiency_ln>  (46) 
-0.850838

>  <r_i_glide_gscore>  (46) 
-3.31007

>  <r_i_glide_lipo>  (46) 
-0.535172

>  <r_i_glide_hbond>  (46) 
0

>  <r_i_glide_metal>  (46) 
-0

>  <r_i_glide_rewards>  (46) 
-1.63131

>  <r_i_glide_evdw>  (46) 
-24.2004

>  <r_i_glide_ecoul>  (46) 
-2.43657

>  <r_i_glide_erotb>  (46) 
0.512192

>  <r_i_glide_esite>  (46) 
-0.0802804

>  <r_i_glide_emodel>  (46) 
-30.8452

>  <r_i_glide_energy>  (46) 
-26.6369

>  <r_i_glide_einternal>  (46) 
1.90602

>  <r_i_glide_intrahb_reward>  (46) 
-0

>  <i_i_glide_confnum>  (46) 
6

>  <i_i_glide_posenum>  (46) 
40

>  <r_i_glide_eff_state_penalty>  (46) 
0

>  <ligand_id>  (46) 
12

>  <original_smiles>  (46) 
COC(=O)C1C(C)=NC(=S)NC1c1ccncc1

>  <smiles>  (46) 
[H]c1nc([H])c([H])c(C2([H])C(C(=O)OC([H])([H])[H])=C(C([H])([H])[H])N([H])C(=S)N2[H])c1[H]

$$$$
12:0:2
     RDKit          3D

 31 32  0  0  1  0  0  0  0  0999 V2000
   -2.5999    2.9959    7.1399 C   0  0  0  0  0  0  0  0  0  0  0  0
   -1.6086    2.5280    6.2486 O   0  0  0  0  0  0  0  0  0  0  0  0
   -1.5150    1.2531    5.9237 C   0  0  0  0  0  0  0  0  0  0  0  0
   -2.2084    0.3763    6.4564 O   0  0  0  0  0  0  0  0  0  0  0  0
   -0.4962    0.9796    4.8733 C   0  0  0  0  0  0  0  0  0  0  0  0
    0.0434    1.9406    4.0757 C   0  0  0  0  0  0  0  0  0  0  0  0
   -0.2549    3.4385    3.9792 C   0  0  0  0  0  0  0  0  0  0  0  0
    1.0513    1.5918    3.1874 N   0  0  0  0  0  0  0  0  0  0  0  0
    1.6374    0.3821    3.0235 C   0  0  0  0  0  0  0  0  0  0  0  0
    2.8939    0.1052    1.9724 S   0  0  0  0  0  0  0  0  0  0  0  0
    1.1158   -0.6186    3.7992 N   0  0  0  0  0  0  0  0  0  0  0  0
   -0.0499   -0.4958    4.6950 C   0  0  1  0  0  0  0  0  0  0  0  0
    0.1282   -1.3350    5.9605 C   0  0  0  0  0  0  0  0  0  0  0  0
    0.8123   -0.8298    7.0804 C   0  0  0  0  0  0  0  0  0  0  0  0
    0.8718   -1.6254    8.2403 C   0  0  0  0  0  0  0  0  0  0  0  0
    0.3029   -2.8461    8.3355 N   0  0  0  0  0  0  0  0  0  0  0  0
   -0.3024   -3.3405    7.2364 C   0  0  0  0  0  0  0  0  0  0  0  0
   -0.4301   -2.6216    6.0341 C   0  0  0  0  0  0  0  0  0  0  0  0
   -2.5689    4.0780    7.1201 H   0  0  0  0  0  0  0  0  0  0  0  0
   -2.4558    2.6747    8.1764 H   0  0  0  0  0  0  0  0  0  0  0  0
   -3.6020    2.7038    6.8323 H   0  0  0  0  0  0  0  0  0  0  0  0
    1.4080    2.3452    2.6278 H   0  0  0  0  0  0  0  0  0  0  0  0
   -1.1995    3.7612    4.4463 H   0  0  0  0  0  0  0  0  0  0  0  0
   -0.2717    3.7238    2.9106 H   0  0  0  0  0  0  0  0  0  0  0  0
    0.5741    4.0274    4.4042 H   0  0  0  0  0  0  0  0  0  0  0  0
    1.5259   -1.5404    3.7110 H   0  0  0  0  0  0  0  0  0  0  0  0
   -0.8630   -0.9462    4.1198 H   0  0  0  0  0  0  0  0  0  0  0  0
    1.2546    0.1542    7.0875 H   0  0  0  0  0  0  0  0  0  0  0  0
    1.3593   -1.2738    9.1383 H   0  0  0  0  0  0  0  0  0  0  0  0
   -0.7247   -4.3298    7.3477 H   0  0  0  0  0  0  0  0  0  0  0  0
   -0.9700   -3.0516    5.2087 H   0  0  0  0  0  0  0  0  0  0  0  0
  1  2  1  0
  1 19  1  0
  1 20  1  0
  1 21  1  0
  2  3  1  0
  3  4  2  0
  3  5  1  0
  5 12  1  0
  5  6  2  0
  6  7  1  0
  6  8  1  0
  7 23  1  0
  7 24  1  0
  7 25  1  0
  8  9  1  0
  8 22  1  0
  9 10  2  0
  9 11  1  0
 11 12  1  0
 11 26  1  0
 12 13  1  0
 12 27  1  6
 13 18  1  0
 13 14  2  0
 14 15  1  0
 14 28  1  0
 15 16  2  0
 15 29  1  0
 16 17  1  0
 17 18  2  0
 17 30  1  0
 18 31  1  0
M  END
>  <i_m_ct_stereo_status>  (47) 
1

>  <s_m_source_file>  (47) 
/var/tmp/pbs.5076255.sched01/tmp14hj8t9c/0766azy0n.sdf

>  <i_m_source_file_index>  (47) 
18

>  <i_lp_mmshare_version>  (47) 
48012

>  <i_f3d_flags>  (47) 
0

>  <s_epik_input>  (47) 
W0NIM11PQyg9TylbQ0BASF0xQyhbQ0gzXSk9TkMoPVMpW05IXVtDQEhdMWMyW2NIXVtjSF1uW2NIXVtjSF0y

>  <s_epik_cmdline>  (47) 
J2VwaWtfcHl0aG9uJywgJy1waHQnLCAnMi4wJywgJy1waCcsICc3LjAnLCAnLXRuJywgJzgnLCAnLW1hJywgJzIwMCcsICctaW1hZScsICc8aW5maWxlLm1hZT4nLCAnLW9tYWUnLCAnPG91dGZpbGUubWFlPic=

>  <r_lp_tautomer_probability>  (47) 
1

>  <r_epik_Ionization_Penalty>  (47) 
0.000664098

>  <r_epik_Ionization_Penalty_Charging>  (47) 
0

>  <r_epik_Ionization_Penalty_Neutral>  (47) 
0.000664098

>  <r_epik_State_Penalty>  (47) 
0.000395531

>  <r_epik_Charging_Adjusted_Penalty>  (47) 
0.000395531

>  <i_epik_Tot_Q>  (47) 
0

>  <i_epik_Tot_abs_Q>  (47) 
0

>  <s_epik_Chemistry_Notes>  (47) 
This compound has an ester and may undergo hydrolysis at high or low pH.

>  <s_lp_Force_Field>  (47) 
OPLS3e

>  <r_lp_Energy>  (47) 
38.1697

>  <b_lp_Chiralities_Consistent>  (47) 
1

>  <s_lp_Variant>  (47) 
12:0-1

>  <s_i_glide_gridfile>  (47) 
pfpi4k_grid

>  <i_i_glide_lignum>  (47) 
18

>  <i_i_glide_rotatable_bonds>  (47) 
3

>  <r_i_docking_score>  (47) 
-3.16155

>  <r_i_glide_ligand_efficiency>  (47) 
-0.175642

>  <r_i_glide_ligand_efficiency_sa>  (47) 
-0.460312

>  <r_i_glide_ligand_efficiency_ln>  (47) 
-0.81266

>  <r_i_glide_gscore>  (47) 
-3.16155

>  <r_i_glide_lipo>  (47) 
-0.143823

>  <r_i_glide_hbond>  (47) 
-0.16

>  <r_i_glide_metal>  (47) 
-0

>  <r_i_glide_rewards>  (47) 
-1.61375

>  <r_i_glide_evdw>  (47) 
-18.8777

>  <r_i_glide_ecoul>  (47) 
-4.84086

>  <r_i_glide_erotb>  (47) 
0.512192

>  <r_i_glide_esite>  (47) 
-0.0861552

>  <r_i_glide_emodel>  (47) 
-27.4546

>  <r_i_glide_energy>  (47) 
-23.7186

>  <r_i_glide_einternal>  (47) 
1.08188

>  <r_i_glide_intrahb_reward>  (47) 
-0

>  <i_i_glide_confnum>  (47) 
5

>  <i_i_glide_posenum>  (47) 
26

>  <r_i_glide_eff_state_penalty>  (47) 
0

>  <ligand_id>  (47) 
12

>  <original_smiles>  (47) 
COC(=O)C1C(C)=NC(=S)NC1c1ccncc1

>  <smiles>  (47) 
[H]c1nc([H])c([H])c(C2([H])C(C(=O)OC([H])([H])[H])=C(C([H])([H])[H])N([H])C(=S)N2[H])c1[H]

$$$$
13:0:0
     RDKit          3D

 48 51  0  0  1  0  0  0  0  0999 V2000
    2.9642   -4.4964    6.5913 C   0  0  0  0  0  0  0  0  0  0  0  0
    4.1943   -4.0461    5.8120 C   0  0  0  0  0  0  0  0  0  0  0  0
    5.3333   -4.3189    6.1899 O   0  0  0  0  0  0  0  0  0  0  0  0
    3.8708   -3.3447    4.7125 O   0  0  0  0  0  0  0  0  0  0  0  0
    4.8818   -2.8412    3.8414 C   0  0  2  0  0  0  0  0  0  0  0  0
    4.3502   -1.5342    3.2181 C   0  0  1  0  0  0  0  0  0  0  0  0
    5.0718   -0.2788    3.7372 C   0  0  0  0  0  0  0  0  0  0  0  0
    4.5104   -1.7621    1.7102 C   0  0  2  0  0  0  0  0  0  0  0  0
    3.6404   -0.9321    0.7670 C   0  0  0  0  0  0  0  0  0  0  0  0
    4.0744   -1.2396   -0.6712 C   0  0  0  0  0  0  0  0  0  0  0  0
    4.0029   -2.7459   -1.0111 C   0  0  1  0  0  0  0  0  0  0  0  0
    4.5215   -2.9704   -2.4454 C   0  0  0  0  0  0  0  0  0  0  0  0
    4.7133   -3.6571    0.0454 C   0  0  2  0  0  0  0  0  0  0  0  0
    4.4329   -5.1358   -0.2736 C   0  0  0  0  0  0  0  0  0  0  0  0
    4.6652   -6.1679    0.8397 C   0  0  0  0  0  0  0  0  0  0  0  0
    3.9844   -5.8225    2.1776 C   0  0  2  0  0  0  0  0  0  0  0  0
    3.6332   -7.0896    2.9702 C   0  0  0  0  0  0  0  0  0  0  0  0
    2.7562   -5.1328    1.9304 O   0  0  0  0  0  0  0  0  0  0  0  0
    2.9496   -3.6156    1.7927 O   0  0  0  0  0  0  0  0  0  0  0  0
    4.3027   -3.2685    1.4945 C   0  0  2  0  0  0  0  0  0  0  0  0
    5.1512   -3.7991    2.6538 C   0  0  2  0  0  0  0  0  0  0  0  0
    4.8770   -5.1315    3.0264 O   0  0  0  0  0  0  0  0  0  0  0  0
    2.4563   -3.6347    7.0236 H   0  0  0  0  0  0  0  0  0  0  0  0
    3.2423   -5.1757    7.3974 H   0  0  0  0  0  0  0  0  0  0  0  0
    2.2691   -5.0122    5.9293 H   0  0  0  0  0  0  0  0  0  0  0  0
    5.8128   -2.6647    4.3818 H   0  0  0  0  0  0  0  0  0  0  0  0
    3.2850   -1.4421    3.4363 H   0  0  0  0  0  0  0  0  0  0  0  0
    6.1440   -0.3030    3.5289 H   0  0  0  0  0  0  0  0  0  0  0  0
    4.9442   -0.1778    4.8161 H   0  0  0  0  0  0  0  0  0  0  0  0
    4.6612    0.6180    3.2737 H   0  0  0  0  0  0  0  0  0  0  0  0
    5.5526   -1.5333    1.4654 H   0  0  0  0  0  0  0  0  0  0  0  0
    2.5822   -1.1646    0.8965 H   0  0  0  0  0  0  0  0  0  0  0  0
    3.7611    0.1325    0.9670 H   0  0  0  0  0  0  0  0  0  0  0  0
    3.4281   -0.6878   -1.3563 H   0  0  0  0  0  0  0  0  0  0  0  0
    5.0869   -0.8668   -0.8328 H   0  0  0  0  0  0  0  0  0  0  0  0
    2.9424   -3.0017   -1.0119 H   0  0  0  0  0  0  0  0  0  0  0  0
    5.5943   -2.7894   -2.5141 H   0  0  0  0  0  0  0  0  0  0  0  0
    4.0262   -2.2991   -3.1486 H   0  0  0  0  0  0  0  0  0  0  0  0
    4.3286   -3.9852   -2.7928 H   0  0  0  0  0  0  0  0  0  0  0  0
    5.7871   -3.4940   -0.0462 H   0  0  0  0  0  0  0  0  0  0  0  0
    3.3906   -5.2173   -0.5775 H   0  0  0  0  0  0  0  0  0  0  0  0
    5.0162   -5.4437   -1.1388 H   0  0  0  0  0  0  0  0  0  0  0  0
    4.2461   -7.1074    0.4766 H   0  0  0  0  0  0  0  0  0  0  0  0
    5.7269   -6.3573    0.9895 H   0  0  0  0  0  0  0  0  0  0  0  0
    3.2132   -6.8282    3.9453 H   0  0  0  0  0  0  0  0  0  0  0  0
    4.5159   -7.7081    3.1504 H   0  0  0  0  0  0  0  0  0  0  0  0
    2.8964   -7.7002    2.4424 H   0  0  0  0  0  0  0  0  0  0  0  0
    6.2058   -3.7215    2.3819 H   0  0  0  0  0  0  0  0  0  0  0  0
  1  2  1  0
  1 23  1  0
  1 24  1  0
  1 25  1  0
  2  3  2  0
  2  4  1  0
  4  5  1  0
  5 21  1  0
  5  6  1  0
  5 26  1  1
  6  7  1  0
  6  8  1  0
  6 27  1  6
  7 28  1  0
  7 29  1  0
  7 30  1  0
  8 20  1  0
  8  9  1  0
  8 31  1  6
  9 10  1  0
  9 32  1  0
  9 33  1  0
 10 11  1  0
 10 34  1  0
 10 35  1  0
 11 12  1  0
 11 13  1  0
 11 36  1  6
 12 37  1  0
 12 38  1  0
 12 39  1  0
 13 20  1  0
 13 14  1  0
 13 40  1  1
 14 15  1  0
 14 41  1  0
 14 42  1  0
 15 16  1  0
 15 43  1  0
 15 44  1  0
 16 22  1  0
 16 17  1  1
 16 18  1  0
 17 45  1  0
 17 46  1  0
 17 47  1  0
 18 19  1  0
 20 19  1  1
 20 21  1  0
 21 22  1  0
 21 48  1  6
M  END
>  <i_m_ct_stereo_status>  (48) 
1

>  <s_m_source_file>  (48) 
/var/tmp/pbs.5076255.sched01/tmp14hj8t9c/0766azy0n.sdf

>  <i_m_source_file_index>  (48) 
19

>  <i_lp_mmshare_version>  (48) 
48012

>  <i_f3d_flags>  (48) 
0

>  <s_epik_input>  (48) 
W0NIM11DKD1PKU9bQ0BIXShbQ0BASF0oW0NIM10pW0NASF0xW0NAXTIzNClbQ0BIXTRPW0NAQF0oW0NIM10pKE9PMylbQ0gyXVtDSDJdW0NASF0yW0NASF0oW0NIM10pW0NIMl1bQ0gyXTE=

>  <s_epik_cmdline>  (48) 
J2VwaWtfcHl0aG9uJywgJy1waHQnLCAnMi4wJywgJy1waCcsICc3LjAnLCAnLXRuJywgJzgnLCAnLW1hJywgJzIwMCcsICctaW1hZScsICc8aW5maWxlLm1hZT4nLCAnLW9tYWUnLCAnPG91dGZpbGUubWFlPic=

>  <r_lp_tautomer_probability>  (48) 
1

>  <r_epik_Ionization_Penalty>  (48) 
2.10493e-15

>  <r_epik_Ionization_Penalty_Charging>  (48) 
0

>  <r_epik_Ionization_Penalty_Neutral>  (48) 
2.10493e-15

>  <r_epik_State_Penalty>  (48) 
-0

>  <r_epik_Charging_Adjusted_Penalty>  (48) 
0

>  <i_epik_Tot_Q>  (48) 
0

>  <i_epik_Tot_abs_Q>  (48) 
0

>  <s_epik_Chemistry_Notes>  (48) 
This compound has an ester and may undergo hydrolysis at high or low pH.

>  <s_lp_Force_Field>  (48) 
OPLS3e

>  <r_lp_Energy>  (48) 
35.3881

>  <b_lp_Chiralities_Consistent>  (48) 
1

>  <s_lp_Variant>  (48) 
13:0-1

>  <s_i_glide_gridfile>  (48) 
pfpi4k_grid

>  <i_i_glide_lignum>  (48) 
19

>  <i_i_glide_rotatable_bonds>  (48) 
2

>  <r_i_docking_score>  (48) 
-2.53002

>  <r_i_glide_ligand_efficiency>  (48) 
-0.115001

>  <r_i_glide_ligand_efficiency_sa>  (48) 
-0.322237

>  <r_i_glide_ligand_efficiency_ln>  (48) 
-0.61843

>  <r_i_glide_gscore>  (48) 
-2.53002

>  <r_i_glide_lipo>  (48) 
-0.43553

>  <r_i_glide_hbond>  (48) 
0

>  <r_i_glide_metal>  (48) 
-0

>  <r_i_glide_rewards>  (48) 
-1.30472

>  <r_i_glide_evdw>  (48) 
-19.2386

>  <r_i_glide_ecoul>  (48) 
-0.134556

>  <r_i_glide_erotb>  (48) 
0.192342

>  <r_i_glide_esite>  (48) 
0

>  <r_i_glide_emodel>  (48) 
-23.0502

>  <r_i_glide_energy>  (48) 
-19.3732

>  <r_i_glide_einternal>  (48) 
0.00566009

>  <r_i_glide_intrahb_reward>  (48) 
-0

>  <i_i_glide_confnum>  (48) 
2

>  <i_i_glide_posenum>  (48) 
23

>  <r_i_glide_eff_state_penalty>  (48) 
0

>  <ligand_id>  (48) 
13

>  <original_smiles>  (48) 
CC(=O)OC1C(C)C2CCC(C)C3CCC4(C)OOC32C1O4

>  <smiles>  (48) 
[H]C([H])([H])C(=O)OC1([H])C2([H])OC3(C([H])([H])[H])OOC24C([H])(C([H])([H])C3([H])[H])C([H])(C([H])([H])[H])C([H])([H])C([H])([H])C4([H])C1([H])C([H])([H])[H]

$$$$
13:0:1
     RDKit          3D

 48 51  0  0  1  0  0  0  0  0999 V2000
    1.6973   -1.7020    5.9197 C   0  0  0  0  0  0  0  0  0  0  0  0
    1.0100   -2.6546    4.9205 C   0  0  0  0  0  0  0  0  0  0  0  0
   -0.2215   -2.9365    5.0108 O   0  0  0  0  0  0  0  0  0  0  0  0
    1.7673   -3.0877    3.8812 O   0  0  0  0  0  0  0  0  0  0  0  0
    3.1326   -2.6450    3.6744 C   0  0  2  0  0  0  0  0  0  0  0  0
    3.1490   -1.2894    2.9012 C   0  0  1  0  0  0  0  0  0  0  0  0
    3.6236   -0.0133    3.6702 C   0  0  0  0  0  0  0  0  0  0  0  0
    4.0740   -1.6055    1.7103 C   0  0  2  0  0  0  0  0  0  0  0  0
    3.9381   -0.7517    0.4560 C   0  0  0  0  0  0  0  0  0  0  0  0
    5.0728   -1.1283   -0.5083 C   0  0  0  0  0  0  0  0  0  0  0  0
    5.0882   -2.6350   -0.8485 C   0  0  1  0  0  0  0  0  0  0  0  0
    6.3000   -2.9281   -1.7562 C   0  0  0  0  0  0  0  0  0  0  0  0
    5.0355   -3.5723    0.4086 C   0  0  2  0  0  0  0  0  0  0  0  0
    4.8663   -5.0445   -0.0422 C   0  0  0  0  0  0  0  0  0  0  0  0
    4.3729   -6.0639    0.9990 C   0  0  0  0  0  0  0  0  0  0  0  0
    3.1004   -5.6287    1.7671 C   0  0  2  0  0  0  0  0  0  0  0  0
    2.2627   -6.8562    2.2053 C   0  0  0  0  0  0  0  0  0  0  0  0
    2.3036   -4.8782    0.8777 O   0  0  0  0  0  0  0  0  0  0  0  0
    2.6200   -3.3754    0.8987 O   0  0  0  0  0  0  0  0  0  0  0  0
    3.9139   -3.1151    1.4039 C   0  0  2  0  0  0  0  0  0  0  0  0
    3.9412   -3.6632    2.8259 C   0  0  2  0  0  0  0  0  0  0  0  0
    3.4134   -4.9799    2.9781 O   0  0  0  0  0  0  0  0  0  0  0  0
    2.5099   -2.2243    6.4645 H   0  0  0  0  0  0  0  0  0  0  0  0
    1.0104   -1.2637    6.6268 H   0  0  0  0  0  0  0  0  0  0  0  0
    2.0826   -0.9196    5.3097 H   0  0  0  0  0  0  0  0  0  0  0  0
    3.6553   -2.5759    4.6210 H   0  0  0  0  0  0  0  0  0  0  0  0
    2.1548   -1.1339    2.4909 H   0  0  0  0  0  0  0  0  0  0  0  0
    4.6053   -0.1951    4.1151 H   0  0  0  0  0  0  0  0  0  0  0  0
    2.9450    0.3159    4.4566 H   0  0  0  0  0  0  0  0  0  0  0  0
    3.7191    0.8136    2.9564 H   0  0  0  0  0  0  0  0  0  0  0  0
    5.0863   -1.4763    2.0737 H   0  0  0  0  0  0  0  0  0  0  0  0
    2.9687   -0.9031   -0.0094 H   0  0  0  0  0  0  0  0  0  0  0  0
    4.0047    0.3030    0.7163 H   0  0  0  0  0  0  0  0  0  0  0  0
    4.9581   -0.5389   -1.4175 H   0  0  0  0  0  0  0  0  0  0  0  0
    6.0195   -0.8267   -0.0653 H   0  0  0  0  0  0  0  0  0  0  0  0
    4.1924   -2.8207   -1.4413 H   0  0  0  0  0  0  0  0  0  0  0  0
    7.2438   -2.8353   -1.2236 H   0  0  0  0  0  0  0  0  0  0  0  0
    6.3281   -2.2544   -2.6078 H   0  0  0  0  0  0  0  0  0  0  0  0
    6.2375   -3.9227   -2.1771 H   0  0  0  0  0  0  0  0  0  0  0  0
    5.9863   -3.4895    0.9330 H   0  0  0  0  0  0  0  0  0  0  0  0
    4.1994   -5.0746   -0.9030 H   0  0  0  0  0  0  0  0  0  0  0  0
    5.8254   -5.4053   -0.4192 H   0  0  0  0  0  0  0  0  0  0  0  0
    4.1589   -6.9776    0.4508 H   0  0  0  0  0  0  0  0  0  0  0  0
    5.1639   -6.3145    1.6964 H   0  0  0  0  0  0  0  0  0  0  0  0
    1.3979   -6.5298    2.7849 H   0  0  0  0  0  0  0  0  0  0  0  0
    2.8367   -7.5316    2.8323 H   0  0  0  0  0  0  0  0  0  0  0  0
    1.8893   -7.4175    1.3515 H   0  0  0  0  0  0  0  0  0  0  0  0
    4.9726   -3.6786    3.1822 H   0  0  0  0  0  0  0  0  0  0  0  0
  1  2  1  0
  1 23  1  0
  1 24  1  0
  1 25  1  0
  2  3  2  0
  2  4  1  0
  4  5  1  0
  5 21  1  0
  5  6  1  0
  5 26  1  1
  6  7  1  0
  6  8  1  0
  6 27  1  6
  7 28  1  0
  7 29  1  0
  7 30  1  0
  8 20  1  0
  8  9  1  0
  8 31  1  1
  9 10  1  0
  9 32  1  0
  9 33  1  0
 10 11  1  0
 10 34  1  0
 10 35  1  0
 11 12  1  0
 11 13  1  0
 11 36  1  6
 12 37  1  0
 12 38  1  0
 12 39  1  0
 13 20  1  0
 13 14  1  0
 13 40  1  1
 14 15  1  0
 14 41  1  0
 14 42  1  0
 15 16  1  0
 15 43  1  0
 15 44  1  0
 16 22  1  0
 16 17  1  1
 16 18  1  0
 17 45  1  0
 17 46  1  0
 17 47  1  0
 18 19  1  0
 20 19  1  6
 20 21  1  0
 21 22  1  0
 21 48  1  1
M  END
>  <i_m_ct_stereo_status>  (49) 
1

>  <s_m_source_file>  (49) 
/var/tmp/pbs.5076255.sched01/tmp14hj8t9c/0766azy0n.sdf

>  <i_m_source_file_index>  (49) 
19

>  <i_lp_mmshare_version>  (49) 
48012

>  <i_f3d_flags>  (49) 
0

>  <s_epik_input>  (49) 
W0NIM11DKD1PKU9bQ0BIXShbQ0BASF0oW0NIM10pW0NASF0xW0NAXTIzNClbQ0BIXTRPW0NAQF0oW0NIM10pKE9PMylbQ0gyXVtDSDJdW0NASF0yW0NASF0oW0NIM10pW0NIMl1bQ0gyXTE=

>  <s_epik_cmdline>  (49) 
J2VwaWtfcHl0aG9uJywgJy1waHQnLCAnMi4wJywgJy1waCcsICc3LjAnLCAnLXRuJywgJzgnLCAnLW1hJywgJzIwMCcsICctaW1hZScsICc8aW5maWxlLm1hZT4nLCAnLW9tYWUnLCAnPG91dGZpbGUubWFlPic=

>  <r_lp_tautomer_probability>  (49) 
1

>  <r_epik_Ionization_Penalty>  (49) 
2.10493e-15

>  <r_epik_Ionization_Penalty_Charging>  (49) 
0

>  <r_epik_Ionization_Penalty_Neutral>  (49) 
2.10493e-15

>  <r_epik_State_Penalty>  (49) 
-0

>  <r_epik_Charging_Adjusted_Penalty>  (49) 
0

>  <i_epik_Tot_Q>  (49) 
0

>  <i_epik_Tot_abs_Q>  (49) 
0

>  <s_epik_Chemistry_Notes>  (49) 
This compound has an ester and may undergo hydrolysis at high or low pH.

>  <s_lp_Force_Field>  (49) 
OPLS3e

>  <r_lp_Energy>  (49) 
35.3881

>  <b_lp_Chiralities_Consistent>  (49) 
1

>  <s_lp_Variant>  (49) 
13:0-1

>  <s_i_glide_gridfile>  (49) 
pfpi4k_grid

>  <i_i_glide_lignum>  (49) 
19

>  <i_i_glide_rotatable_bonds>  (49) 
2

>  <r_i_docking_score>  (49) 
-2.22108

>  <r_i_glide_ligand_efficiency>  (49) 
-0.100958

>  <r_i_glide_ligand_efficiency_sa>  (49) 
-0.282889

>  <r_i_glide_ligand_efficiency_ln>  (49) 
-0.542914

>  <r_i_glide_gscore>  (49) 
-2.22108

>  <r_i_glide_lipo>  (49) 
-0.164906

>  <r_i_glide_hbond>  (49) 
-0.00775035

>  <r_i_glide_metal>  (49) 
-0

>  <r_i_glide_rewards>  (49) 
-1.3112

>  <r_i_glide_evdw>  (49) 
-21.4092

>  <r_i_glide_ecoul>  (49) 
0.939278

>  <r_i_glide_erotb>  (49) 
0.192342

>  <r_i_glide_esite>  (49) 
0

>  <r_i_glide_emodel>  (49) 
-19.4567

>  <r_i_glide_energy>  (49) 
-20.4699

>  <r_i_glide_einternal>  (49) 
5.29232

>  <r_i_glide_intrahb_reward>  (49) 
-0

>  <i_i_glide_confnum>  (49) 
4

>  <i_i_glide_posenum>  (49) 
1

>  <r_i_glide_eff_state_penalty>  (49) 
0

>  <ligand_id>  (49) 
13

>  <original_smiles>  (49) 
CC(=O)OC1C(C)C2CCC(C)C3CCC4(C)OOC32C1O4

>  <smiles>  (49) 
[H]C([H])([H])C(=O)OC1([H])C2([H])OC3(C([H])([H])[H])OOC24C([H])(C([H])([H])C3([H])[H])C([H])(C([H])([H])[H])C([H])([H])C([H])([H])C4([H])C1([H])C([H])([H])[H]

$$$$
13:0:2
     RDKit          3D

 48 51  0  0  1  0  0  0  0  0999 V2000
    0.6546   -0.6857    6.1589 C   0  0  0  0  0  0  0  0  0  0  0  0
    0.1840   -1.8849    5.3249 C   0  0  0  0  0  0  0  0  0  0  0  0
   -0.9880   -2.2919    5.3837 O   0  0  0  0  0  0  0  0  0  0  0  0
    1.1022   -2.4015    4.4846 O   0  0  0  0  0  0  0  0  0  0  0  0
    2.4346   -1.8680    4.3285 C   0  0  2  0  0  0  0  0  0  0  0  0
    2.4503   -0.7115    3.2809 C   0  0  1  0  0  0  0  0  0  0  0  0
    2.7062    0.7220    3.8063 C   0  0  0  0  0  0  0  0  0  0  0  0
    3.5556   -1.1725    2.3071 C   0  0  2  0  0  0  0  0  0  0  0  0
    3.5271   -0.6144    0.8922 C   0  0  0  0  0  0  0  0  0  0  0  0
    4.8082   -1.0586    0.1726 C   0  0  0  0  0  0  0  0  0  0  0  0
    4.9931   -2.5926    0.1706 C   0  0  1  0  0  0  0  0  0  0  0  0
    6.3343   -2.9376   -0.5031 C   0  0  0  0  0  0  0  0  0  0  0  0
    4.8288   -3.2496    1.5868 C   0  0  2  0  0  0  0  0  0  0  0  0
    4.8484   -4.7933    1.4443 C   0  0  0  0  0  0  0  0  0  0  0  0
    4.2855   -5.6104    2.6214 C   0  0  0  0  0  0  0  0  0  0  0  0
    2.8893   -5.1794    3.1161 C   0  0  2  0  0  0  0  0  0  0  0  0
    2.1032   -6.3575    3.7126 C   0  0  0  0  0  0  0  0  0  0  0  0
    2.1206   -4.6973    2.0166 O   0  0  0  0  0  0  0  0  0  0  0  0
    2.3577   -3.2098    1.7241 O   0  0  0  0  0  0  0  0  0  0  0  0
    3.5576   -2.7071    2.3164 C   0  0  2  0  0  0  0  0  0  0  0  0
    3.4215   -2.9557    3.8233 C   0  0  2  0  0  0  0  0  0  0  0  0
    2.9859   -4.2525    4.1847 O   0  0  0  0  0  0  0  0  0  0  0  0
    1.4375   -0.9795    6.8758 H   0  0  0  0  0  0  0  0  0  0  0  0
   -0.1493   -0.2397    6.7402 H   0  0  0  0  0  0  0  0  0  0  0  0
    1.0025    0.0270    5.4746 H   0  0  0  0  0  0  0  0  0  0  0  0
    2.8234   -1.5521    5.2899 H   0  0  0  0  0  0  0  0  0  0  0  0
    1.5115   -0.7461    2.7313 H   0  0  0  0  0  0  0  0  0  0  0  0
    3.6305    0.7597    4.3838 H   0  0  0  0  0  0  0  0  0  0  0  0
    1.9146    1.1372    4.4077 H   0  0  0  0  0  0  0  0  0  0  0  0
    2.8645    1.3972    2.9497 H   0  0  0  0  0  0  0  0  0  0  0  0
    4.4955   -0.8616    2.7524 H   0  0  0  0  0  0  0  0  0  0  0  0
    2.6366   -0.9562    0.3619 H   0  0  0  0  0  0  0  0  0  0  0  0
    3.4760    0.4732    0.9210 H   0  0  0  0  0  0  0  0  0  0  0  0
    4.7747   -0.6781   -0.8495 H   0  0  0  0  0  0  0  0  0  0  0  0
    5.6624   -0.5727    0.6472 H   0  0  0  0  0  0  0  0  0  0  0  0
    4.1986   -2.9844   -0.4671 H   0  0  0  0  0  0  0  0  0  0  0  0
    7.1807   -2.6279    0.1100 H   0  0  0  0  0  0  0  0  0  0  0  0
    6.4298   -2.4439   -1.4718 H   0  0  0  0  0  0  0  0  0  0  0  0
    6.4271   -4.0062   -0.6862 H   0  0  0  0  0  0  0  0  0  0  0  0
    5.6957   -2.9612    2.1865 H   0  0  0  0  0  0  0  0  0  0  0  0
    4.2973   -5.0737    0.5438 H   0  0  0  0  0  0  0  0  0  0  0  0
    5.8739   -5.1209    1.2700 H   0  0  0  0  0  0  0  0  0  0  0  0
    4.2223   -6.6418    2.2699 H   0  0  0  0  0  0  0  0  0  0  0  0
    4.9936   -5.6334    3.4485 H   0  0  0  0  0  0  0  0  0  0  0  0
    1.1424   -6.0167    4.1028 H   0  0  0  0  0  0  0  0  0  0  0  0
    2.6424   -6.8293    4.5366 H   0  0  0  0  0  0  0  0  0  0  0  0
    1.9005   -7.1228    2.9614 H   0  0  0  0  0  0  0  0  0  0  0  0
    4.3967   -2.7866    4.2891 H   0  0  0  0  0  0  0  0  0  0  0  0
  1  2  1  0
  1 23  1  0
  1 24  1  0
  1 25  1  0
  2  3  2  0
  2  4  1  0
  4  5  1  0
  5 21  1  0
  5  6  1  0
  5 26  1  1
  6  7  1  0
  6  8  1  0
  6 27  1  6
  7 28  1  0
  7 29  1  0
  7 30  1  0
  8 20  1  0
  8  9  1  0
  8 31  1  1
  9 10  1  0
  9 32  1  0
  9 33  1  0
 10 11  1  0
 10 34  1  0
 10 35  1  0
 11 12  1  0
 11 13  1  0
 11 36  1  6
 12 37  1  0
 12 38  1  0
 12 39  1  0
 13 20  1  0
 13 14  1  0
 13 40  1  1
 14 15  1  0
 14 41  1  0
 14 42  1  0
 15 16  1  0
 15 43  1  0
 15 44  1  0
 16 22  1  0
 16 17  1  1
 16 18  1  0
 17 45  1  0
 17 46  1  0
 17 47  1  0
 18 19  1  0
 20 19  1  6
 20 21  1  0
 21 22  1  0
 21 48  1  1
M  END
>  <i_m_ct_stereo_status>  (50) 
1

>  <s_m_source_file>  (50) 
/var/tmp/pbs.5076255.sched01/tmp14hj8t9c/0766azy0n.sdf

>  <i_m_source_file_index>  (50) 
19

>  <i_lp_mmshare_version>  (50) 
48012

>  <i_f3d_flags>  (50) 
0

>  <s_epik_input>  (50) 
W0NIM11DKD1PKU9bQ0BIXShbQ0BASF0oW0NIM10pW0NASF0xW0NAXTIzNClbQ0BIXTRPW0NAQF0oW0NIM10pKE9PMylbQ0gyXVtDSDJdW0NASF0yW0NASF0oW0NIM10pW0NIMl1bQ0gyXTE=

>  <s_epik_cmdline>  (50) 
J2VwaWtfcHl0aG9uJywgJy1waHQnLCAnMi4wJywgJy1waCcsICc3LjAnLCAnLXRuJywgJzgnLCAnLW1hJywgJzIwMCcsICctaW1hZScsICc8aW5maWxlLm1hZT4nLCAnLW9tYWUnLCAnPG91dGZpbGUubWFlPic=

>  <r_lp_tautomer_probability>  (50) 
1

>  <r_epik_Ionization_Penalty>  (50) 
2.10493e-15

>  <r_epik_Ionization_Penalty_Charging>  (50) 
0

>  <r_epik_Ionization_Penalty_Neutral>  (50) 
2.10493e-15

>  <r_epik_State_Penalty>  (50) 
-0

>  <r_epik_Charging_Adjusted_Penalty>  (50) 
0

>  <i_epik_Tot_Q>  (50) 
0

>  <i_epik_Tot_abs_Q>  (50) 
0

>  <s_epik_Chemistry_Notes>  (50) 
This compound has an ester and may undergo hydrolysis at high or low pH.

>  <s_lp_Force_Field>  (50) 
OPLS3e

>  <r_lp_Energy>  (50) 
35.3881

>  <b_lp_Chiralities_Consistent>  (50) 
1

>  <s_lp_Variant>  (50) 
13:0-1

>  <s_i_glide_gridfile>  (50) 
pfpi4k_grid

>  <i_i_glide_lignum>  (50) 
19

>  <i_i_glide_rotatable_bonds>  (50) 
2

>  <r_i_docking_score>  (50) 
-2.09654

>  <r_i_glide_ligand_efficiency>  (50) 
-0.0952973

>  <r_i_glide_ligand_efficiency_sa>  (50) 
-0.267027

>  <r_i_glide_ligand_efficiency_ln>  (50) 
-0.512471

>  <r_i_glide_gscore>  (50) 
-2.09654

>  <r_i_glide_lipo>  (50) 
-0.129472

>  <r_i_glide_hbond>  (50) 
0

>  <r_i_glide_metal>  (50) 
-0

>  <r_i_glide_rewards>  (50) 
-1.29283

>  <r_i_glide_evdw>  (50) 
-18.4121

>  <r_i_glide_ecoul>  (50) 
0.432279

>  <r_i_glide_erotb>  (50) 
0.192342

>  <r_i_glide_esite>  (50) 
-0.0108182

>  <r_i_glide_emodel>  (50) 
-17.5743

>  <r_i_glide_energy>  (50) 
-17.9799

>  <r_i_glide_einternal>  (50) 
5.24862

>  <r_i_glide_intrahb_reward>  (50) 
-0

>  <i_i_glide_confnum>  (50) 
4

>  <i_i_glide_posenum>  (50) 
32

>  <r_i_glide_eff_state_penalty>  (50) 
0

>  <ligand_id>  (50) 
13

>  <original_smiles>  (50) 
CC(=O)OC1C(C)C2CCC(C)C3CCC4(C)OOC32C1O4

>  <smiles>  (50) 
[H]C([H])([H])C(=O)OC1([H])C2([H])OC3(C([H])([H])[H])OOC24C([H])(C([H])([H])C3([H])[H])C([H])(C([H])([H])[H])C([H])([H])C([H])([H])C4([H])C1([H])C([H])([H])[H]

$$$$
14:0:0
     RDKit          3D

 14 15  0  0  1  0  0  0  0  0999 V2000
    2.6558   -2.3810   -3.5205 C   0  0  0  0  0  0  0  0  0  0  0  0
    3.4518   -1.2139   -3.6259 C   0  0  0  0  0  0  0  0  0  0  0  0
    4.2199   -0.6829   -2.6762 N   0  0  0  0  0  0  0  0  0  0  0  0
    4.1570   -1.3936   -1.5159 N   0  0  0  0  0  0  0  0  0  0  0  0
    4.8338   -1.0945   -0.3459 C   0  0  0  0  0  0  0  0  0  0  0  0
    4.4891   -2.0580    0.5630 C   0  0  0  0  0  0  0  0  0  0  0  0
    3.6133   -2.9766   -0.0009 N   0  0  0  0  0  0  0  0  0  0  0  0
    3.4128   -2.5685   -1.2526 C   0  0  0  0  0  0  0  0  0  0  0  0
    2.6283   -3.0567   -2.3266 C   0  0  0  0  0  0  0  0  0  0  0  0
    2.0520   -2.7346   -4.3473 H   0  0  0  0  0  0  0  0  0  0  0  0
    3.4500   -0.6785   -4.5701 H   0  0  0  0  0  0  0  0  0  0  0  0
    5.4617   -0.2213   -0.2947 H   0  0  0  0  0  0  0  0  0  0  0  0
    4.8047   -2.1677    1.5934 H   0  0  0  0  0  0  0  0  0  0  0  0
    2.0275   -3.9497   -2.2014 H   0  0  0  0  0  0  0  0  0  0  0  0
  1  9  2  0
  1  2  1  0
  1 10  1  0
  2  3  2  0
  2 11  1  0
  3  4  1  0
  4  8  1  0
  4  5  1  0
  5  6  2  0
  5 12  1  0
  6  7  1  0
  6 13  1  0
  7  8  2  0
  8  9  1  0
  9 14  1  0
M  END
>  <i_m_ct_stereo_status>  (51) 
1

>  <s_m_source_file>  (51) 
/var/tmp/pbs.5076255.sched01/tmp14hj8t9c/0766azy0n.sdf

>  <i_m_source_file_index>  (51) 
20

>  <i_lp_mmshare_version>  (51) 
48012

>  <i_f3d_flags>  (51) 
0

>  <s_epik_input>  (51) 
bjFbY0hdW2NIXVtjSF1jKG4xMiluW2NIXVtjSF0y

>  <s_epik_cmdline>  (51) 
J2VwaWtfcHl0aG9uJywgJy1waHQnLCAnMi4wJywgJy1waCcsICc3LjAnLCAnLXRuJywgJzgnLCAnLW1hJywgJzIwMCcsICctaW1hZScsICc8aW5maWxlLm1hZT4nLCAnLW9tYWUnLCAnPG91dGZpbGUubWFlPic=

>  <r_lp_tautomer_probability>  (51) 
1

>  <r_epik_Ionization_Penalty>  (51) 
0.00304482

>  <r_epik_Ionization_Penalty_Charging>  (51) 
0

>  <r_epik_Ionization_Penalty_Neutral>  (51) 
0.00304482

>  <r_epik_State_Penalty>  (51) 
0.00214

>  <r_epik_Charging_Adjusted_Penalty>  (51) 
0.00214

>  <i_epik_Tot_Q>  (51) 
0

>  <i_epik_Tot_abs_Q>  (51) 
0

>  <s_lp_Force_Field>  (51) 
OPLS3e

>  <r_lp_Energy>  (51) 
13.0914

>  <b_lp_Chiralities_Consistent>  (51) 
1

>  <s_lp_Variant>  (51) 
14:0-1

>  <s_i_glide_gridfile>  (51) 
pfpi4k_grid

>  <i_i_glide_lignum>  (51) 
20

>  <i_i_glide_rotatable_bonds>  (51) 
0

>  <r_i_docking_score>  (51) 
-3.91486

>  <r_i_glide_ligand_efficiency>  (51) 
-0.434984

>  <r_i_glide_ligand_efficiency_sa>  (51) 
-0.904803

>  <r_i_glide_ligand_efficiency_ln>  (51) 
-1.22445

>  <r_i_glide_gscore>  (51) 
-3.91486

>  <r_i_glide_lipo>  (51) 
-0.483009

>  <r_i_glide_hbond>  (51) 
0

>  <r_i_glide_metal>  (51) 
-0

>  <r_i_glide_rewards>  (51) 
-2.25

>  <r_i_glide_evdw>  (51) 
-16.8221

>  <r_i_glide_ecoul>  (51) 
-1.68112

>  <r_i_glide_erotb>  (51) 
0

>  <r_i_glide_esite>  (51) 
-0.0885746

>  <r_i_glide_emodel>  (51) 
-23.3982

>  <r_i_glide_energy>  (51) 
-18.5032

>  <r_i_glide_einternal>  (51) 
0

>  <r_i_glide_intrahb_reward>  (51) 
-0

>  <i_i_glide_confnum>  (51) 
2

>  <i_i_glide_posenum>  (51) 
19

>  <r_i_glide_eff_state_penalty>  (51) 
0

>  <ligand_id>  (51) 
14

>  <original_smiles>  (51) 
c1cnn2ccnc2c1

>  <smiles>  (51) 
[H]c1nn2c([H])c([H])nc2c([H])c1[H]

$$$$
14:0:1
     RDKit          3D

 14 15  0  0  1  0  0  0  0  0999 V2000
   -1.0747    1.7931    3.2049 C   0  0  0  0  0  0  0  0  0  0  0  0
   -1.4551    3.1480    3.3649 C   0  0  0  0  0  0  0  0  0  0  0  0
   -1.8932    3.7258    4.4844 N   0  0  0  0  0  0  0  0  0  0  0  0
   -1.9458    2.8461    5.5230 N   0  0  0  0  0  0  0  0  0  0  0  0
   -2.3554    3.1420    6.8120 C   0  0  0  0  0  0  0  0  0  0  0  0
   -2.2527    1.9847    7.5326 C   0  0  0  0  0  0  0  0  0  0  0  0
   -1.8044    0.9394    6.7331 N   0  0  0  0  0  0  0  0  0  0  0  0
   -1.6068    1.4701    5.5234 C   0  0  0  0  0  0  0  0  0  0  0  0
   -1.1489    0.9457    4.2859 C   0  0  0  0  0  0  0  0  0  0  0  0
   -0.7341    1.4349    2.2372 H   0  0  0  0  0  0  0  0  0  0  0  0
   -1.3855    3.8019    2.4972 H   0  0  0  0  0  0  0  0  0  0  0  0
   -2.6666    4.1415    7.0746 H   0  0  0  0  0  0  0  0  0  0  0  0
   -2.4804    1.8157    8.5757 H   0  0  0  0  0  0  0  0  0  0  0  0
   -0.8691   -0.0981    4.2024 H   0  0  0  0  0  0  0  0  0  0  0  0
  1  9  2  0
  1  2  1  0
  1 10  1  0
  2  3  2  0
  2 11  1  0
  3  4  1  0
  4  8  1  0
  4  5  1  0
  5  6  2  0
  5 12  1  0
  6  7  1  0
  6 13  1  0
  7  8  2  0
  8  9  1  0
  9 14  1  0
M  END
>  <i_m_ct_stereo_status>  (52) 
1

>  <s_m_source_file>  (52) 
/var/tmp/pbs.5076255.sched01/tmp14hj8t9c/0766azy0n.sdf

>  <i_m_source_file_index>  (52) 
20

>  <i_lp_mmshare_version>  (52) 
48012

>  <i_f3d_flags>  (52) 
0

>  <s_epik_input>  (52) 
bjFbY0hdW2NIXVtjSF1jKG4xMiluW2NIXVtjSF0y

>  <s_epik_cmdline>  (52) 
J2VwaWtfcHl0aG9uJywgJy1waHQnLCAnMi4wJywgJy1waCcsICc3LjAnLCAnLXRuJywgJzgnLCAnLW1hJywgJzIwMCcsICctaW1hZScsICc8aW5maWxlLm1hZT4nLCAnLW9tYWUnLCAnPG91dGZpbGUubWFlPic=

>  <r_lp_tautomer_probability>  (52) 
1

>  <r_epik_Ionization_Penalty>  (52) 
0.00304482

>  <r_epik_Ionization_Penalty_Charging>  (52) 
0

>  <r_epik_Ionization_Penalty_Neutral>  (52) 
0.00304482

>  <r_epik_State_Penalty>  (52) 
0.00214

>  <r_epik_Charging_Adjusted_Penalty>  (52) 
0.00214

>  <i_epik_Tot_Q>  (52) 
0

>  <i_epik_Tot_abs_Q>  (52) 
0

>  <s_lp_Force_Field>  (52) 
OPLS3e

>  <r_lp_Energy>  (52) 
13.0914

>  <b_lp_Chiralities_Consistent>  (52) 
1

>  <s_lp_Variant>  (52) 
14:0-1

>  <s_i_glide_gridfile>  (52) 
pfpi4k_grid

>  <i_i_glide_lignum>  (52) 
20

>  <i_i_glide_rotatable_bonds>  (52) 
0

>  <r_i_docking_score>  (52) 
-3.85973

>  <r_i_glide_ligand_efficiency>  (52) 
-0.428858

>  <r_i_glide_ligand_efficiency_sa>  (52) 
-0.892061

>  <r_i_glide_ligand_efficiency_ln>  (52) 
-1.20721

>  <r_i_glide_gscore>  (52) 
-3.85973

>  <r_i_glide_lipo>  (52) 
-0.109858

>  <r_i_glide_hbond>  (52) 
-0.151913

>  <r_i_glide_metal>  (52) 
-0

>  <r_i_glide_rewards>  (52) 
-2.29825

>  <r_i_glide_evdw>  (52) 
-12.428

>  <r_i_glide_ecoul>  (52) 
-4.36498

>  <r_i_glide_erotb>  (52) 
0

>  <r_i_glide_esite>  (52) 
-0.0235586

>  <r_i_glide_emodel>  (52) 
-21.6212

>  <r_i_glide_energy>  (52) 
-16.793

>  <r_i_glide_einternal>  (52) 
0

>  <r_i_glide_intrahb_reward>  (52) 
-0

>  <i_i_glide_confnum>  (52) 
2

>  <i_i_glide_posenum>  (52) 
17

>  <r_i_glide_eff_state_penalty>  (52) 
0

>  <ligand_id>  (52) 
14

>  <original_smiles>  (52) 
c1cnn2ccnc2c1

>  <smiles>  (52) 
[H]c1nn2c([H])c([H])nc2c([H])c1[H]

$$$$
14:0:2
     RDKit          3D

 14 15  0  0  1  0  0  0  0  0999 V2000
    2.9946   -2.0828   -3.5933 C   0  0  0  0  0  0  0  0  0  0  0  0
    3.9135   -1.1268   -3.1023 C   0  0  0  0  0  0  0  0  0  0  0  0
    4.4253   -1.0674   -1.8736 N   0  0  0  0  0  0  0  0  0  0  0  0
    3.9233   -2.0444   -1.0684 N   0  0  0  0  0  0  0  0  0  0  0  0
    4.2498   -2.2368    0.2617 C   0  0  0  0  0  0  0  0  0  0  0  0
    3.5339   -3.3248    0.6859 C   0  0  0  0  0  0  0  0  0  0  0  0
    2.7497   -3.8348   -0.3412 N   0  0  0  0  0  0  0  0  0  0  0  0
    2.9976   -3.0615   -1.4020 C   0  0  0  0  0  0  0  0  0  0  0  0
    2.5318   -3.0561   -2.7422 C   0  0  0  0  0  0  0  0  0  0  0  0
    2.6260   -2.0380   -4.6120 H   0  0  0  0  0  0  0  0  0  0  0  0
    4.2530   -0.3517   -3.7818 H   0  0  0  0  0  0  0  0  0  0  0  0
    4.9470   -1.5744    0.7488 H   0  0  0  0  0  0  0  0  0  0  0  0
    3.5180   -3.7921    1.6621 H   0  0  0  0  0  0  0  0  0  0  0  0
    1.8270   -3.8136   -3.0692 H   0  0  0  0  0  0  0  0  0  0  0  0
  1  9  2  0
  1  2  1  0
  1 10  1  0
  2  3  2  0
  2 11  1  0
  3  4  1  0
  4  8  1  0
  4  5  1  0
  5  6  2  0
  5 12  1  0
  6  7  1  0
  6 13  1  0
  7  8  2  0
  8  9  1  0
  9 14  1  0
M  END
>  <i_m_ct_stereo_status>  (53) 
1

>  <s_m_source_file>  (53) 
/var/tmp/pbs.5076255.sched01/tmp14hj8t9c/0766azy0n.sdf

>  <i_m_source_file_index>  (53) 
20

>  <i_lp_mmshare_version>  (53) 
48012

>  <i_f3d_flags>  (53) 
0

>  <s_epik_input>  (53) 
bjFbY0hdW2NIXVtjSF1jKG4xMiluW2NIXVtjSF0y

>  <s_epik_cmdline>  (53) 
J2VwaWtfcHl0aG9uJywgJy1waHQnLCAnMi4wJywgJy1waCcsICc3LjAnLCAnLXRuJywgJzgnLCAnLW1hJywgJzIwMCcsICctaW1hZScsICc8aW5maWxlLm1hZT4nLCAnLW9tYWUnLCAnPG91dGZpbGUubWFlPic=

>  <r_lp_tautomer_probability>  (53) 
1

>  <r_epik_Ionization_Penalty>  (53) 
0.00304482

>  <r_epik_Ionization_Penalty_Charging>  (53) 
0

>  <r_epik_Ionization_Penalty_Neutral>  (53) 
0.00304482

>  <r_epik_State_Penalty>  (53) 
0.00214

>  <r_epik_Charging_Adjusted_Penalty>  (53) 
0.00214

>  <i_epik_Tot_Q>  (53) 
0

>  <i_epik_Tot_abs_Q>  (53) 
0

>  <s_lp_Force_Field>  (53) 
OPLS3e

>  <r_lp_Energy>  (53) 
13.0914

>  <b_lp_Chiralities_Consistent>  (53) 
1

>  <s_lp_Variant>  (53) 
14:0-1

>  <s_i_glide_gridfile>  (53) 
pfpi4k_grid

>  <i_i_glide_lignum>  (53) 
20

>  <i_i_glide_rotatable_bonds>  (53) 
0

>  <r_i_docking_score>  (53) 
-3.65439

>  <r_i_glide_ligand_efficiency>  (53) 
-0.406043

>  <r_i_glide_ligand_efficiency_sa>  (53) 
-0.844604

>  <r_i_glide_ligand_efficiency_ln>  (53) 
-1.14299

>  <r_i_glide_gscore>  (53) 
-3.65439

>  <r_i_glide_lipo>  (53) 
-0.361239

>  <r_i_glide_hbond>  (53) 
0

>  <r_i_glide_metal>  (53) 
-0

>  <r_i_glide_rewards>  (53) 
-2.26252

>  <r_i_glide_evdw>  (53) 
-15.5884

>  <r_i_glide_ecoul>  (53) 
-1.38611

>  <r_i_glide_erotb>  (53) 
0

>  <r_i_glide_esite>  (53) 
-0.0432919

>  <r_i_glide_emodel>  (53) 
-21.5429

>  <r_i_glide_energy>  (53) 
-16.9745

>  <r_i_glide_einternal>  (53) 
0

>  <r_i_glide_intrahb_reward>  (53) 
-0

>  <i_i_glide_confnum>  (53) 
2

>  <i_i_glide_posenum>  (53) 
23

>  <r_i_glide_eff_state_penalty>  (53) 
0

>  <ligand_id>  (53) 
14

>  <original_smiles>  (53) 
c1cnn2ccnc2c1

>  <smiles>  (53) 
[H]c1nn2c([H])c([H])nc2c([H])c1[H]

$$$$
16:0:0
     RDKit          3D

 14 15  0  0  1  0  0  0  0  0999 V2000
    1.8758   -3.0429   -3.6088 C   0  0  0  0  0  0  0  0  0  0  0  0
    2.9358   -2.1353   -3.2438 N   0  0  0  0  0  0  0  0  0  0  0  0
    3.1158   -0.8437   -3.6517 C   0  0  0  0  0  0  0  0  0  0  0  0
    4.2083   -0.2765   -3.0861 N   0  0  0  0  0  0  0  0  0  0  0  0
    4.6237   -1.2535   -2.3187 C   0  0  0  0  0  0  0  0  0  0  0  0
    5.6470   -1.4128   -1.5443 N   0  0  0  0  0  0  0  0  0  0  0  0
    5.4328   -2.7292   -1.1462 C   0  0  0  0  0  0  0  0  0  0  0  0
    4.3588   -3.3638   -1.6677 N   0  0  0  0  0  0  0  0  0  0  0  0
    3.9059   -2.3514   -2.4087 N   0  0  0  0  0  0  0  0  0  0  0  0
    1.1866   -2.5741   -4.3112 H   0  0  0  0  0  0  0  0  0  0  0  0
    1.3384   -3.3334   -2.7061 H   0  0  0  0  0  0  0  0  0  0  0  0
    2.2984   -3.9361   -4.0683 H   0  0  0  0  0  0  0  0  0  0  0  0
    2.4295   -0.3785   -4.3509 H   0  0  0  0  0  0  0  0  0  0  0  0
    6.0940   -3.2254   -0.4570 H   0  0  0  0  0  0  0  0  0  0  0  0
  1  2  1  0
  1 10  1  0
  1 11  1  0
  1 12  1  0
  2  9  1  0
  2  3  1  0
  3  4  2  0
  3 13  1  0
  4  5  1  0
  5  9  1  0
  5  6  2  0
  6  7  1  0
  7  8  2  0
  7 14  1  0
  8  9  1  0
M  END
>  <i_m_ct_stereo_status>  (54) 
1

>  <s_m_source_file>  (54) 
/var/tmp/pbs.5076255.sched01/tmp14hj8t9c/0766azy0n.sdf

>  <i_m_source_file_index>  (54) 
23

>  <i_lp_mmshare_version>  (54) 
48012

>  <i_f3d_flags>  (54) 
0

>  <s_epik_input>  (54) 
bjFbY0hdbihbQ0gzXSluKGMxMiluW2NIXW4y

>  <s_epik_cmdline>  (54) 
J2VwaWtfcHl0aG9uJywgJy1waHQnLCAnMi4wJywgJy1waCcsICc3LjAnLCAnLXRuJywgJzgnLCAnLW1hJywgJzIwMCcsICctaW1hZScsICc8aW5maWxlLm1hZT4nLCAnLW9tYWUnLCAnPG91dGZpbGUubWFlPic=

>  <r_lp_tautomer_probability>  (54) 
1

>  <r_epik_Ionization_Penalty>  (54) 
1.21555e-05

>  <r_epik_Ionization_Penalty_Charging>  (54) 
0

>  <r_epik_Ionization_Penalty_Neutral>  (54) 
1.21555e-05

>  <r_epik_State_Penalty>  (54) 
-0

>  <r_epik_Charging_Adjusted_Penalty>  (54) 
0

>  <i_epik_Tot_Q>  (54) 
0

>  <i_epik_Tot_abs_Q>  (54) 
0

>  <s_lp_Force_Field>  (54) 
OPLS3e

>  <r_lp_Energy>  (54) 
10.4775

>  <b_lp_Chiralities_Consistent>  (54) 
1

>  <s_lp_Variant>  (54) 
16:0-1

>  <s_i_glide_gridfile>  (54) 
pfpi4k_grid

>  <i_i_glide_lignum>  (54) 
23

>  <i_i_glide_rotatable_bonds>  (54) 
0

>  <r_i_docking_score>  (54) 
-4.0823

>  <r_i_glide_ligand_efficiency>  (54) 
-0.453589

>  <r_i_glide_ligand_efficiency_sa>  (54) 
-0.943503

>  <r_i_glide_ligand_efficiency_ln>  (54) 
-1.27683

>  <r_i_glide_gscore>  (54) 
-4.0823

>  <r_i_glide_lipo>  (54) 
-0.192238

>  <r_i_glide_hbond>  (54) 
-0.040017

>  <r_i_glide_metal>  (54) 
-0

>  <r_i_glide_rewards>  (54) 
-2.73906

>  <r_i_glide_evdw>  (54) 
-17.9418

>  <r_i_glide_ecoul>  (54) 
-1.13318

>  <r_i_glide_erotb>  (54) 
0

>  <r_i_glide_esite>  (54) 
-0.0439203

>  <r_i_glide_emodel>  (54) 
-24.3527

>  <r_i_glide_energy>  (54) 
-19.075

>  <r_i_glide_einternal>  (54) 
0

>  <r_i_glide_intrahb_reward>  (54) 
-0

>  <i_i_glide_confnum>  (54) 
1

>  <i_i_glide_posenum>  (54) 
2

>  <r_i_glide_eff_state_penalty>  (54) 
0

>  <ligand_id>  (54) 
16

>  <original_smiles>  (54) 
Cn1cnc2ncnn21

>  <smiles>  (54) 
[H]c1nc2nc([H])n(C([H])([H])[H])n2n1

$$$$
16:0:1
     RDKit          3D

 14 15  0  0  1  0  0  0  0  0999 V2000
    2.9202   -9.1118    1.6452 C   0  0  0  0  0  0  0  0  0  0  0  0
    1.8284   -8.1637    1.7389 N   0  0  0  0  0  0  0  0  0  0  0  0
    1.7938   -6.8749    1.2879 C   0  0  0  0  0  0  0  0  0  0  0  0
    0.5996   -6.2721    1.5284 N   0  0  0  0  0  0  0  0  0  0  0  0
   -0.0429   -7.2419    2.1292 C   0  0  0  0  0  0  0  0  0  0  0  0
   -1.2264   -7.3478    2.6375 N   0  0  0  0  0  0  0  0  0  0  0  0
   -1.1592   -8.6684    3.0853 C   0  0  0  0  0  0  0  0  0  0  0  0
    0.0011   -9.3326    2.8798 N   0  0  0  0  0  0  0  0  0  0  0  0
    0.6571   -8.3505    2.2661 N   0  0  0  0  0  0  0  0  0  0  0  0
    3.7789   -8.6617    1.1480 H   0  0  0  0  0  0  0  0  0  0  0  0
    2.6000   -9.9851    1.0794 H   0  0  0  0  0  0  0  0  0  0  0  0
    3.2091   -9.4334    2.6446 H   0  0  0  0  0  0  0  0  0  0  0  0
    2.6522   -6.4335    0.7961 H   0  0  0  0  0  0  0  0  0  0  0  0
   -1.9921   -9.1466    3.5752 H   0  0  0  0  0  0  0  0  0  0  0  0
  1  2  1  0
  1 10  1  0
  1 11  1  0
  1 12  1  0
  2  9  1  0
  2  3  1  0
  3  4  2  0
  3 13  1  0
  4  5  1  0
  5  9  1  0
  5  6  2  0
  6  7  1  0
  7  8  2  0
  7 14  1  0
  8  9  1  0
M  END
>  <i_m_ct_stereo_status>  (55) 
1

>  <s_m_source_file>  (55) 
/var/tmp/pbs.5076255.sched01/tmp14hj8t9c/0766azy0n.sdf

>  <i_m_source_file_index>  (55) 
23

>  <i_lp_mmshare_version>  (55) 
48012

>  <i_f3d_flags>  (55) 
0

>  <s_epik_input>  (55) 
bjFbY0hdbihbQ0gzXSluKGMxMiluW2NIXW4y

>  <s_epik_cmdline>  (55) 
J2VwaWtfcHl0aG9uJywgJy1waHQnLCAnMi4wJywgJy1waCcsICc3LjAnLCAnLXRuJywgJzgnLCAnLW1hJywgJzIwMCcsICctaW1hZScsICc8aW5maWxlLm1hZT4nLCAnLW9tYWUnLCAnPG91dGZpbGUubWFlPic=

>  <r_lp_tautomer_probability>  (55) 
1

>  <r_epik_Ionization_Penalty>  (55) 
1.21555e-05

>  <r_epik_Ionization_Penalty_Charging>  (55) 
0

>  <r_epik_Ionization_Penalty_Neutral>  (55) 
1.21555e-05

>  <r_epik_State_Penalty>  (55) 
-0

>  <r_epik_Charging_Adjusted_Penalty>  (55) 
0

>  <i_epik_Tot_Q>  (55) 
0

>  <i_epik_Tot_abs_Q>  (55) 
0

>  <s_lp_Force_Field>  (55) 
OPLS3e

>  <r_lp_Energy>  (55) 
10.4775

>  <b_lp_Chiralities_Consistent>  (55) 
1

>  <s_lp_Variant>  (55) 
16:0-1

>  <s_i_glide_gridfile>  (55) 
pfpi4k_grid

>  <i_i_glide_lignum>  (55) 
23

>  <i_i_glide_rotatable_bonds>  (55) 
0

>  <r_i_docking_score>  (55) 
-4.00853

>  <r_i_glide_ligand_efficiency>  (55) 
-0.445392

>  <r_i_glide_ligand_efficiency_sa>  (55) 
-0.926453

>  <r_i_glide_ligand_efficiency_ln>  (55) 
-1.25375

>  <r_i_glide_gscore>  (55) 
-4.00853

>  <r_i_glide_lipo>  (55) 
0

>  <r_i_glide_hbond>  (55) 
-0.2603

>  <r_i_glide_metal>  (55) 
-0

>  <r_i_glide_rewards>  (55) 
-2.25

>  <r_i_glide_evdw>  (55) 
-14.5103

>  <r_i_glide_ecoul>  (55) 
-3.61099

>  <r_i_glide_erotb>  (55) 
0

>  <r_i_glide_esite>  (55) 
-0.23107

>  <r_i_glide_emodel>  (55) 
-23.3135

>  <r_i_glide_energy>  (55) 
-18.1213

>  <r_i_glide_einternal>  (55) 
0

>  <r_i_glide_intrahb_reward>  (55) 
-0

>  <i_i_glide_confnum>  (55) 
1

>  <i_i_glide_posenum>  (55) 
4

>  <r_i_glide_eff_state_penalty>  (55) 
0

>  <ligand_id>  (55) 
16

>  <original_smiles>  (55) 
Cn1cnc2ncnn21

>  <smiles>  (55) 
[H]c1nc2nc([H])n(C([H])([H])[H])n2n1

$$$$
16:0:2
     RDKit          3D

 14 15  0  0  1  0  0  0  0  0999 V2000
   -1.2418    2.5632    2.8525 C   0  0  0  0  0  0  0  0  0  0  0  0
   -1.3627    1.7338    4.0322 N   0  0  0  0  0  0  0  0  0  0  0  0
   -1.0635    0.4058    4.1594 C   0  0  0  0  0  0  0  0  0  0  0  0
   -1.3142   -0.0662    5.4099 N   0  0  0  0  0  0  0  0  0  0  0  0
   -1.7367    1.0257    5.9975 C   0  0  0  0  0  0  0  0  0  0  0  0
   -2.1653    1.2905    7.1887 N   0  0  0  0  0  0  0  0  0  0  0  0
   -2.4463    2.6452    7.0278 C   0  0  0  0  0  0  0  0  0  0  0  0
   -2.2367    3.1843    5.8056 N   0  0  0  0  0  0  0  0  0  0  0  0
   -1.7817    2.0821    5.2109 N   0  0  0  0  0  0  0  0  0  0  0  0
   -0.8525    1.9850    2.0145 H   0  0  0  0  0  0  0  0  0  0  0  0
   -0.5604    3.3887    3.0547 H   0  0  0  0  0  0  0  0  0  0  0  0
   -2.2187    2.9685    2.5884 H   0  0  0  0  0  0  0  0  0  0  0  0
   -0.6761   -0.1593    3.3204 H   0  0  0  0  0  0  0  0  0  0  0  0
   -2.8274    3.2438    7.8424 H   0  0  0  0  0  0  0  0  0  0  0  0
  1  2  1  0
  1 10  1  0
  1 11  1  0
  1 12  1  0
  2  9  1  0
  2  3  1  0
  3  4  2  0
  3 13  1  0
  4  5  1  0
  5  9  1  0
  5  6  2  0
  6  7  1  0
  7  8  2  0
  7 14  1  0
  8  9  1  0
M  END
>  <i_m_ct_stereo_status>  (56) 
1

>  <s_m_source_file>  (56) 
/var/tmp/pbs.5076255.sched01/tmp14hj8t9c/0766azy0n.sdf

>  <i_m_source_file_index>  (56) 
23

>  <i_lp_mmshare_version>  (56) 
48012

>  <i_f3d_flags>  (56) 
0

>  <s_epik_input>  (56) 
bjFbY0hdbihbQ0gzXSluKGMxMiluW2NIXW4y

>  <s_epik_cmdline>  (56) 
J2VwaWtfcHl0aG9uJywgJy1waHQnLCAnMi4wJywgJy1waCcsICc3LjAnLCAnLXRuJywgJzgnLCAnLW1hJywgJzIwMCcsICctaW1hZScsICc8aW5maWxlLm1hZT4nLCAnLW9tYWUnLCAnPG91dGZpbGUubWFlPic=

>  <r_lp_tautomer_probability>  (56) 
1

>  <r_epik_Ionization_Penalty>  (56) 
1.21555e-05

>  <r_epik_Ionization_Penalty_Charging>  (56) 
0

>  <r_epik_Ionization_Penalty_Neutral>  (56) 
1.21555e-05

>  <r_epik_State_Penalty>  (56) 
-0

>  <r_epik_Charging_Adjusted_Penalty>  (56) 
0

>  <i_epik_Tot_Q>  (56) 
0

>  <i_epik_Tot_abs_Q>  (56) 
0

>  <s_lp_Force_Field>  (56) 
OPLS3e

>  <r_lp_Energy>  (56) 
10.4775

>  <b_lp_Chiralities_Consistent>  (56) 
1

>  <s_lp_Variant>  (56) 
16:0-1

>  <s_i_glide_gridfile>  (56) 
pfpi4k_grid

>  <i_i_glide_lignum>  (56) 
23

>  <i_i_glide_rotatable_bonds>  (56) 
0

>  <r_i_docking_score>  (56) 
-4.00134

>  <r_i_glide_ligand_efficiency>  (56) 
-0.444593

>  <r_i_glide_ligand_efficiency_sa>  (56) 
-0.924791

>  <r_i_glide_ligand_efficiency_ln>  (56) 
-1.2515

>  <r_i_glide_gscore>  (56) 
-4.00134

>  <r_i_glide_lipo>  (56) 
0

>  <r_i_glide_hbond>  (56) 
-0.155184

>  <r_i_glide_metal>  (56) 
-0

>  <r_i_glide_rewards>  (56) 
-2.43931

>  <r_i_glide_evdw>  (56) 
-12.7386

>  <r_i_glide_ecoul>  (56) 
-4.40084

>  <r_i_glide_erotb>  (56) 
0

>  <r_i_glide_esite>  (56) 
-0.109784

>  <r_i_glide_emodel>  (56) 
-22.3219

>  <r_i_glide_energy>  (56) 
-17.1395

>  <r_i_glide_einternal>  (56) 
0

>  <r_i_glide_intrahb_reward>  (56) 
-0

>  <i_i_glide_confnum>  (56) 
2

>  <i_i_glide_posenum>  (56) 
28

>  <r_i_glide_eff_state_penalty>  (56) 
0

>  <ligand_id>  (56) 
16

>  <original_smiles>  (56) 
Cn1cnc2ncnn21

>  <smiles>  (56) 
[H]c1nc2nc([H])n(C([H])([H])[H])n2n1

$$$$
17:0:0
     RDKit          3D

 48 52  0  0  1  0  0  0  0  0999 V2000
    2.3802    0.3994    4.8118 C   0  0  0  0  0  0  0  0  0  0  0  0
    2.4370   -0.8631    4.1685 O   0  0  0  0  0  0  0  0  0  0  0  0
    2.9935   -0.9324    2.9120 C   0  0  0  0  0  0  0  0  0  0  0  0
    3.5358    0.1869    2.2162 C   0  0  0  0  0  0  0  0  0  0  0  0
    4.1776    0.0394    0.9602 C   0  0  0  0  0  0  0  0  0  0  0  0
    4.2224   -1.2181    0.3347 C   0  0  0  0  0  0  0  0  0  0  0  0
    3.5775   -2.2561    1.0285 C   0  0  0  0  0  0  0  0  0  0  0  0
    3.0386   -2.2000    2.3004 C   0  0  0  0  0  0  0  0  0  0  0  0
    2.6939   -3.4140    2.8283 O   0  0  0  0  0  0  0  0  0  0  0  0
    3.0134   -4.4160    1.8493 C   0  0  2  0  0  0  0  0  0  0  0  0
    4.0277   -5.4460    2.3602 C   0  0  0  0  0  0  0  0  0  0  0  0
    4.2640   -5.5899    3.5569 O   0  0  0  0  0  0  0  0  0  0  0  0
    4.7377   -6.3041    1.3033 C   0  0  0  0  0  0  0  0  0  0  0  0
    4.9671   -5.5824   -0.0533 C   0  0  0  0  0  0  0  0  0  0  0  0
    4.9020   -4.0382    0.0451 C   0  0  1  0  0  0  0  0  0  0  0  0
    5.8691   -3.6208    1.0254 O   0  0  0  0  0  0  0  0  0  0  0  0
    7.2545   -3.8357    0.7903 C   0  0  0  0  0  0  0  0  0  0  0  0
    5.0999   -3.1640   -1.2451 C   0  0  2  0  0  0  0  0  0  0  0  0
    5.0665   -1.6426   -0.8813 C   0  0  0  0  0  0  0  0  0  0  0  0
    4.0706   -3.4715   -2.2846 N   0  0  2  0  0  0  0  0  0  0  0  0
    4.3626   -2.9287   -3.6299 C   0  0  0  0  0  0  0  0  0  0  0  0
    2.7004   -3.1604   -1.8430 C   0  0  0  0  0  0  0  0  0  0  0  0
    2.4142   -3.8779   -0.5300 C   0  0  0  0  0  0  0  0  0  0  0  0
    3.4979   -3.6671    0.5675 C   0  0  2  0  0  0  0  0  0  0  0  0
    1.9156    0.2688    5.7875 H   0  0  0  0  0  0  0  0  0  0  0  0
    1.7732    1.1100    4.2501 H   0  0  0  0  0  0  0  0  0  0  0  0
    3.3740    0.8179    4.9753 H   0  0  0  0  0  0  0  0  0  0  0  0
    3.5343    1.1733    2.6458 H   0  0  0  0  0  0  0  0  0  0  0  0
    4.6594    0.8886    0.4941 H   0  0  0  0  0  0  0  0  0  0  0  0
    2.0915   -4.9618    1.6552 H   0  0  0  0  0  0  0  0  0  0  0  0
    5.7004   -6.6060    1.7155 H   0  0  0  0  0  0  0  0  0  0  0  0
    4.1678   -7.2223    1.1548 H   0  0  0  0  0  0  0  0  0  0  0  0
    5.9208   -5.8917   -0.4611 H   0  0  0  0  0  0  0  0  0  0  0  0
    4.2177   -5.9613   -0.7405 H   0  0  0  0  0  0  0  0  0  0  0  0
    7.7962   -3.4707    1.6588 H   0  0  0  0  0  0  0  0  0  0  0  0
    7.6172   -3.2750   -0.0691 H   0  0  0  0  0  0  0  0  0  0  0  0
    7.5194   -4.8869    0.6805 H   0  0  0  0  0  0  0  0  0  0  0  0
    6.0591   -3.4046   -1.7000 H   0  0  0  0  0  0  0  0  0  0  0  0
    4.7761   -1.0185   -1.7266 H   0  0  0  0  0  0  0  0  0  0  0  0
    6.0840   -1.3367   -0.6495 H   0  0  0  0  0  0  0  0  0  0  0  0
    4.2305   -1.8487   -3.6794 H   0  0  0  0  0  0  0  0  0  0  0  0
    3.6864   -3.3725   -4.3593 H   0  0  0  0  0  0  0  0  0  0  0  0
    5.3813   -3.1776   -3.9155 H   0  0  0  0  0  0  0  0  0  0  0  0
    2.5796   -2.0861   -1.7353 H   0  0  0  0  0  0  0  0  0  0  0  0
    1.9825   -3.4840   -2.5963 H   0  0  0  0  0  0  0  0  0  0  0  0
    1.4511   -3.5169   -0.2074 H   0  0  0  0  0  0  0  0  0  0  0  0
    2.2730   -4.9467   -0.7084 H   0  0  0  0  0  0  0  0  0  0  0  0
    4.0718   -4.4787   -2.4005 H   0  0  0  0  0  0  0  0  0  0  0  0
  1  2  1  0
  1 25  1  0
  1 26  1  0
  1 27  1  0
  2  3  1  0
  3  8  2  0
  3  4  1  0
  4  5  2  0
  4 28  1  0
  5  6  1  0
  5 29  1  0
  6 19  1  0
  6  7  2  0
  7 24  1  0
  7  8  1  0
  8  9  1  0
  9 10  1  0
 10 24  1  0
 10 11  1  0
 10 30  1  6
 11 12  2  0
 11 13  1  0
 13 14  1  0
 13 31  1  0
 13 32  1  0
 14 15  1  0
 14 33  1  0
 14 34  1  0
 15 24  1  0
 15 16  1  1
 15 18  1  0
 16 17  1  0
 17 35  1  0
 17 36  1  0
 17 37  1  0
 18 19  1  0
 18 20  1  0
 18 38  1  6
 19 39  1  0
 19 40  1  0
 20 21  1  0
 20 22  1  0
 20 48  1  6
 21 41  1  0
 21 42  1  0
 21 43  1  0
 22 23  1  0
 22 44  1  0
 22 45  1  0
 24 23  1  6
 23 46  1  0
 23 47  1  0
M  CHG  1  20   1
M  END
>  <i_m_ct_stereo_status>  (57) 
1

>  <s_m_source_file>  (57) 
/var/tmp/pbs.5076255.sched01/tmp14hj8t9c/0766azy0n.sdf

>  <i_m_source_file_index>  (57) 
24

>  <i_lp_mmshare_version>  (57) 
48012

>  <i_f3d_flags>  (57) 
0

>  <s_epik_input>  (57) 
W0NAQF0xMjNjNGM1W2NIXVtjSF1jKE9bQ0gzXSljNE9bQ0BASF0xQyg9TylbQ0gyXVtDSDJdW0NAQF0yKE9bQ0gzXSlbQ0BIXShbQ0gyXTUpTihbQ0gzXSlbQ0gyXVtDSDJdMw==

>  <s_epik_cmdline>  (57) 
J2VwaWtfcHl0aG9uJywgJy1waHQnLCAnMi4wJywgJy1waCcsICc3LjAnLCAnLXRuJywgJzgnLCAnLW1hJywgJzIwMCcsICctaW1hZScsICc8aW5maWxlLm1hZT4nLCAnLW9tYWUnLCAnPG91dGZpbGUubWFlPic=

>  <r_lp_tautomer_probability>  (57) 
1

>  <r_epik_Ionization_Penalty>  (57) 
0.314833

>  <r_epik_Ionization_Penalty_Charging>  (57) 
0.314833

>  <r_epik_Ionization_Penalty_Neutral>  (57) 
4.21973e-10

>  <r_epik_State_Penalty>  (57) 
0.30906

>  <r_epik_Charging_Adjusted_Penalty>  (57) 
0.623893

>  <i_epik_Tot_Q>  (57) 
1

>  <i_epik_Tot_abs_Q>  (57) 
1

>  <s_lp_Force_Field>  (57) 
OPLS3e

>  <r_lp_Energy>  (57) 
70.7286

>  <b_lp_Chiralities_Consistent>  (57) 
1

>  <s_lp_Variant>  (57) 
17:0-1

>  <s_i_glide_gridfile>  (57) 
pfpi4k_grid

>  <i_i_glide_lignum>  (57) 
24

>  <i_i_glide_rotatable_bonds>  (57) 
2

>  <r_i_docking_score>  (57) 
-3.30879

>  <r_i_glide_ligand_efficiency>  (57) 
-0.137866

>  <r_i_glide_ligand_efficiency_sa>  (57) 
-0.397675

>  <r_i_glide_ligand_efficiency_ln>  (57) 
-0.791946

>  <r_i_glide_gscore>  (57) 
-3.30879

>  <r_i_glide_lipo>  (57) 
-0.648343

>  <r_i_glide_hbond>  (57) 
0

>  <r_i_glide_metal>  (57) 
-0

>  <r_i_glide_rewards>  (57) 
-1.1571

>  <r_i_glide_evdw>  (57) 
-17.8306

>  <r_i_glide_ecoul>  (57) 
-3.83474

>  <r_i_glide_erotb>  (57) 
0

>  <r_i_glide_esite>  (57) 
-0.0366081

>  <r_i_glide_emodel>  (57) 
-27.1093

>  <r_i_glide_energy>  (57) 
-21.6653

>  <r_i_glide_einternal>  (57) 
0.00714553

>  <r_i_glide_intrahb_reward>  (57) 
-0

>  <i_i_glide_confnum>  (57) 
1

>  <i_i_glide_posenum>  (57) 
7

>  <r_i_glide_eff_state_penalty>  (57) 
0

>  <ligand_id>  (57) 
17

>  <original_smiles>  (57) 
COc1ccc2c3c1OC1C(=O)CCC4(OC)C(C2)N(C)CCC314

>  <smiles>  (57) 
[H]c1c([H])c2c3c(c1OC([H])([H])[H])OC1([H])C(=O)C([H])([H])C([H])([H])C4(OC([H])([H])[H])C31C([H])([H])C([H])([H])[N+]([H])(C([H])([H])[H])C4([H])C2([H])[H]

$$$$
17:0:1
     RDKit          3D

 48 52  0  0  1  0  0  0  0  0999 V2000
   -1.6910    3.9214   10.8154 C   0  0  0  0  0  0  0  0  0  0  0  0
   -0.6689    3.8907    9.8320 O   0  0  0  0  0  0  0  0  0  0  0  0
   -1.0025    3.5144    8.5507 C   0  0  0  0  0  0  0  0  0  0  0  0
   -2.3330    3.2464    8.1106 C   0  0  0  0  0  0  0  0  0  0  0  0
   -2.6154    2.9441    6.7524 C   0  0  0  0  0  0  0  0  0  0  0  0
   -1.5613    2.8305    5.8267 C   0  0  0  0  0  0  0  0  0  0  0  0
   -0.2695    3.0075    6.3483 C   0  0  0  0  0  0  0  0  0  0  0  0
    0.0584    3.4175    7.6259 C   0  0  0  0  0  0  0  0  0  0  0  0
    1.3764    3.7429    7.7945 O   0  0  0  0  0  0  0  0  0  0  0  0
    2.0427    3.5491    6.5328 C   0  0  2  0  0  0  0  0  0  0  0  0
    2.6863    4.8300    5.9896 C   0  0  0  0  0  0  0  0  0  0  0  0
    2.9090    5.8001    6.7109 O   0  0  0  0  0  0  0  0  0  0  0  0
    3.0559    4.8466    4.4958 C   0  0  0  0  0  0  0  0  0  0  0  0
    2.1162    4.0022    3.5804 C   0  0  0  0  0  0  0  0  0  0  0  0
    0.7381    3.7200    4.2405 C   0  0  1  0  0  0  0  0  0  0  0  0
    0.1252    4.9750    4.5891 O   0  0  0  0  0  0  0  0  0  0  0  0
   -0.1086    5.9396    3.5729 C   0  0  0  0  0  0  0  0  0  0  0  0
   -0.3273    2.8633    3.4707 C   0  0  2  0  0  0  0  0  0  0  0  0
   -1.6574    2.7634    4.2923 C   0  0  0  0  0  0  0  0  0  0  0  0
    0.2042    1.5047    3.1437 N   0  0  2  0  0  0  0  0  0  0  0  0
   -0.6040    0.7538    2.1536 C   0  0  0  0  0  0  0  0  0  0  0  0
    0.4886    0.7045    4.3597 C   0  0  0  0  0  0  0  0  0  0  0  0
    1.4371    1.4693    5.2826 C   0  0  0  0  0  0  0  0  0  0  0  0
    0.9927    2.9374    5.5545 C   0  0  2  0  0  0  0  0  0  0  0  0
   -1.2550    4.2364   11.7623 H   0  0  0  0  0  0  0  0  0  0  0  0
   -2.1289    2.9342   10.9666 H   0  0  0  0  0  0  0  0  0  0  0  0
   -2.4764    4.6356   10.5648 H   0  0  0  0  0  0  0  0  0  0  0  0
   -3.1677    3.3328    8.7847 H   0  0  0  0  0  0  0  0  0  0  0  0
   -3.6412    2.8539    6.4167 H   0  0  0  0  0  0  0  0  0  0  0  0
    2.8594    2.8501    6.7139 H   0  0  0  0  0  0  0  0  0  0  0  0
    3.0337    5.8882    4.1719 H   0  0  0  0  0  0  0  0  0  0  0  0
    4.0897    4.5176    4.3958 H   0  0  0  0  0  0  0  0  0  0  0  0
    1.9992    4.5000    2.6177 H   0  0  0  0  0  0  0  0  0  0  0  0
    2.6271    3.0710    3.3379 H   0  0  0  0  0  0  0  0  0  0  0  0
   -0.5259    6.8243    4.0472 H   0  0  0  0  0  0  0  0  0  0  0  0
   -0.8289    5.5876    2.8370 H   0  0  0  0  0  0  0  0  0  0  0  0
    0.7959    6.2778    3.0691 H   0  0  0  0  0  0  0  0  0  0  0  0
   -0.5497    3.3319    2.5135 H   0  0  0  0  0  0  0  0  0  0  0  0
   -2.2423    1.8843    4.0205 H   0  0  0  0  0  0  0  0  0  0  0  0
   -2.2786    3.6056    3.9952 H   0  0  0  0  0  0  0  0  0  0  0  0
   -1.5490    0.4176    2.5775 H   0  0  0  0  0  0  0  0  0  0  0  0
   -0.0550   -0.1281    1.8281 H   0  0  0  0  0  0  0  0  0  0  0  0
   -0.8168    1.3561    1.2767 H   0  0  0  0  0  0  0  0  0  0  0  0
   -0.4326    0.4557    4.8888 H   0  0  0  0  0  0  0  0  0  0  0  0
    0.9378   -0.2468    4.0758 H   0  0  0  0  0  0  0  0  0  0  0  0
    1.5474    0.9198    6.2168 H   0  0  0  0  0  0  0  0  0  0  0  0
    2.4302    1.4590    4.8304 H   0  0  0  0  0  0  0  0  0  0  0  0
    1.0921    1.6597    2.6757 H   0  0  0  0  0  0  0  0  0  0  0  0
  1  2  1  0
  1 25  1  0
  1 26  1  0
  1 27  1  0
  2  3  1  0
  3  8  2  0
  3  4  1  0
  4  5  2  0
  4 28  1  0
  5  6  1  0
  5 29  1  0
  6 19  1  0
  6  7  2  0
  7 24  1  0
  7  8  1  0
  8  9  1  0
  9 10  1  0
 10 24  1  0
 10 11  1  0
 10 30  1  1
 11 12  2  0
 11 13  1  0
 13 14  1  0
 13 31  1  0
 13 32  1  0
 14 15  1  0
 14 33  1  0
 14 34  1  0
 15 24  1  0
 15 16  1  1
 15 18  1  0
 16 17  1  0
 17 35  1  0
 17 36  1  0
 17 37  1  0
 18 19  1  0
 18 20  1  0
 18 38  1  6
 19 39  1  0
 19 40  1  0
 20 21  1  0
 20 22  1  0
 20 48  1  6
 21 41  1  0
 21 42  1  0
 21 43  1  0
 22 23  1  0
 22 44  1  0
 22 45  1  0
 24 23  1  6
 23 46  1  0
 23 47  1  0
M  CHG  1  20   1
M  END
>  <i_m_ct_stereo_status>  (58) 
1

>  <s_m_source_file>  (58) 
/var/tmp/pbs.5076255.sched01/tmp14hj8t9c/0766azy0n.sdf

>  <i_m_source_file_index>  (58) 
24

>  <i_lp_mmshare_version>  (58) 
48012

>  <i_f3d_flags>  (58) 
0

>  <s_epik_input>  (58) 
W0NAQF0xMjNjNGM1W2NIXVtjSF1jKE9bQ0gzXSljNE9bQ0BASF0xQyg9TylbQ0gyXVtDSDJdW0NAQF0yKE9bQ0gzXSlbQ0BIXShbQ0gyXTUpTihbQ0gzXSlbQ0gyXVtDSDJdMw==

>  <s_epik_cmdline>  (58) 
J2VwaWtfcHl0aG9uJywgJy1waHQnLCAnMi4wJywgJy1waCcsICc3LjAnLCAnLXRuJywgJzgnLCAnLW1hJywgJzIwMCcsICctaW1hZScsICc8aW5maWxlLm1hZT4nLCAnLW9tYWUnLCAnPG91dGZpbGUubWFlPic=

>  <r_lp_tautomer_probability>  (58) 
1

>  <r_epik_Ionization_Penalty>  (58) 
0.314833

>  <r_epik_Ionization_Penalty_Charging>  (58) 
0.314833

>  <r_epik_Ionization_Penalty_Neutral>  (58) 
4.21973e-10

>  <r_epik_State_Penalty>  (58) 
0.30906

>  <r_epik_Charging_Adjusted_Penalty>  (58) 
0.623893

>  <i_epik_Tot_Q>  (58) 
1

>  <i_epik_Tot_abs_Q>  (58) 
1

>  <s_lp_Force_Field>  (58) 
OPLS3e

>  <r_lp_Energy>  (58) 
70.7286

>  <b_lp_Chiralities_Consistent>  (58) 
1

>  <s_lp_Variant>  (58) 
17:0-1

>  <s_i_glide_gridfile>  (58) 
pfpi4k_grid

>  <i_i_glide_lignum>  (58) 
24

>  <i_i_glide_rotatable_bonds>  (58) 
2

>  <r_i_docking_score>  (58) 
-3.02761

>  <r_i_glide_ligand_efficiency>  (58) 
-0.126151

>  <r_i_glide_ligand_efficiency_sa>  (58) 
-0.363881

>  <r_i_glide_ligand_efficiency_ln>  (58) 
-0.724647

>  <r_i_glide_gscore>  (58) 
-3.02761

>  <r_i_glide_lipo>  (58) 
-0.234136

>  <r_i_glide_hbond>  (58) 
0

>  <r_i_glide_metal>  (58) 
-0

>  <r_i_glide_rewards>  (58) 
-1.15638

>  <r_i_glide_evdw>  (58) 
-17.0639

>  <r_i_glide_ecoul>  (58) 
-4.96608

>  <r_i_glide_erotb>  (58) 
0

>  <r_i_glide_esite>  (58) 
-0.0389907

>  <r_i_glide_emodel>  (58) 
-26.9575

>  <r_i_glide_energy>  (58) 
-22.03

>  <r_i_glide_einternal>  (58) 
0.113815

>  <r_i_glide_intrahb_reward>  (58) 
-0

>  <i_i_glide_confnum>  (58) 
1

>  <i_i_glide_posenum>  (58) 
9

>  <r_i_glide_eff_state_penalty>  (58) 
0

>  <ligand_id>  (58) 
17

>  <original_smiles>  (58) 
COc1ccc2c3c1OC1C(=O)CCC4(OC)C(C2)N(C)CCC314

>  <smiles>  (58) 
[H]c1c([H])c2c3c(c1OC([H])([H])[H])OC1([H])C(=O)C([H])([H])C([H])([H])C4(OC([H])([H])[H])C31C([H])([H])C([H])([H])[N+]([H])(C([H])([H])[H])C4([H])C2([H])[H]

$$$$
17:0:2
     RDKit          3D

 48 52  0  0  1  0  0  0  0  0999 V2000
   -3.8738    3.3313    2.4697 C   0  0  0  0  0  0  0  0  0  0  0  0
   -3.1635    3.0194    3.6576 O   0  0  0  0  0  0  0  0  0  0  0  0
   -1.8645    2.5917    3.5351 C   0  0  0  0  0  0  0  0  0  0  0  0
   -1.3917    1.7530    2.4812 C   0  0  0  0  0  0  0  0  0  0  0  0
   -0.0284    1.3818    2.3740 C   0  0  0  0  0  0  0  0  0  0  0  0
    0.8774    1.7893    3.3723 C   0  0  0  0  0  0  0  0  0  0  0  0
    0.3263    2.5246    4.4348 C   0  0  0  0  0  0  0  0  0  0  0  0
   -0.9660    3.0026    4.5344 C   0  0  0  0  0  0  0  0  0  0  0  0
   -1.1747    3.8920    5.5551 O   0  0  0  0  0  0  0  0  0  0  0  0
    0.0796    4.0650    6.2371 C   0  0  2  0  0  0  0  0  0  0  0  0
    0.5722    5.5153    6.2180 C   0  0  0  0  0  0  0  0  0  0  0  0
   -0.1854    6.4529    5.9715 O   0  0  0  0  0  0  0  0  0  0  0  0
    2.0608    5.7457    6.5423 C   0  0  0  0  0  0  0  0  0  0  0  0
    3.0158    4.5932    6.0980 C   0  0  0  0  0  0  0  0  0  0  0  0
    2.3887    3.6817    5.0102 C   0  0  1  0  0  0  0  0  0  0  0  0
    2.0172    4.5195    3.9010 O   0  0  0  0  0  0  0  0  0  0  0  0
    3.0200    5.1269    3.0965 C   0  0  0  0  0  0  0  0  0  0  0  0
    3.2069    2.4563    4.4706 C   0  0  2  0  0  0  0  0  0  0  0  0
    2.4147    1.7359    3.3241 C   0  0  0  0  0  0  0  0  0  0  0  0
    3.5505    1.4988    5.5617 N   0  0  2  0  0  0  0  0  0  0  0  0
    4.5720    0.4868    5.1905 C   0  0  0  0  0  0  0  0  0  0  0  0
    2.3503    0.8850    6.1712 C   0  0  0  0  0  0  0  0  0  0  0  0
    1.3945    1.9748    6.6608 C   0  0  0  0  0  0  0  0  0  0  0  0
    1.0932    3.0677    5.5931 C   0  0  2  0  0  0  0  0  0  0  0  0
   -4.8683    3.6892    2.7322 H   0  0  0  0  0  0  0  0  0  0  0  0
   -3.9991    2.4893    1.7933 H   0  0  0  0  0  0  0  0  0  0  0  0
   -3.3786    4.1428    1.9445 H   0  0  0  0  0  0  0  0  0  0  0  0
   -2.0601    1.4190    1.7044 H   0  0  0  0  0  0  0  0  0  0  0  0
    0.3217    0.8371    1.5048 H   0  0  0  0  0  0  0  0  0  0  0  0
   -0.0970    3.8142    7.2822 H   0  0  0  0  0  0  0  0  0  0  0  0
    2.3627    6.6695    6.0473 H   0  0  0  0  0  0  0  0  0  0  0  0
    2.1571    5.9279    7.6126 H   0  0  0  0  0  0  0  0  0  0  0  0
    3.9612    5.0170    5.7580 H   0  0  0  0  0  0  0  0  0  0  0  0
    3.2759    4.0074    6.9805 H   0  0  0  0  0  0  0  0  0  0  0  0
    2.5221    5.7206    2.3334 H   0  0  0  0  0  0  0  0  0  0  0  0
    3.6268    4.3953    2.5673 H   0  0  0  0  0  0  0  0  0  0  0  0
    3.6692    5.8005    3.6554 H   0  0  0  0  0  0  0  0  0  0  0  0
    4.1616    2.8093    4.0846 H   0  0  0  0  0  0  0  0  0  0  0  0
    2.7133    0.6950    3.2046 H   0  0  0  0  0  0  0  0  0  0  0  0
    2.6934    2.2064    2.3817 H   0  0  0  0  0  0  0  0  0  0  0  0
    4.1810   -0.2656    4.5021 H   0  0  0  0  0  0  0  0  0  0  0  0
    4.9104   -0.0434    6.0817 H   0  0  0  0  0  0  0  0  0  0  0  0
    5.4464    0.9489    4.7293 H   0  0  0  0  0  0  0  0  0  0  0  0
    1.8434    0.2273    5.4638 H   0  0  0  0  0  0  0  0  0  0  0  0
    2.6487    0.2569    7.0103 H   0  0  0  0  0  0  0  0  0  0  0  0
    0.4698    1.5101    7.0060 H   0  0  0  0  0  0  0  0  0  0  0  0
    1.8288    2.4373    7.5499 H   0  0  0  0  0  0  0  0  0  0  0  0
    3.9867    2.0550    6.2860 H   0  0  0  0  0  0  0  0  0  0  0  0
  1  2  1  0
  1 25  1  0
  1 26  1  0
  1 27  1  0
  2  3  1  0
  3  8  2  0
  3  4  1  0
  4  5  2  0
  4 28  1  0
  5  6  1  0
  5 29  1  0
  6 19  1  0
  6  7  2  0
  7 24  1  0
  7  8  1  0
  8  9  1  0
  9 10  1  0
 10 24  1  0
 10 11  1  0
 10 30  1  1
 11 12  2  0
 11 13  1  0
 13 14  1  0
 13 31  1  0
 13 32  1  0
 14 15  1  0
 14 33  1  0
 14 34  1  0
 15 24  1  0
 15 16  1  6
 15 18  1  0
 16 17  1  0
 17 35  1  0
 17 36  1  0
 17 37  1  0
 18 19  1  0
 18 20  1  0
 18 38  1  6
 19 39  1  0
 19 40  1  0
 20 21  1  0
 20 22  1  0
 20 48  1  1
 21 41  1  0
 21 42  1  0
 21 43  1  0
 22 23  1  0
 22 44  1  0
 22 45  1  0
 24 23  1  1
 23 46  1  0
 23 47  1  0
M  CHG  1  20   1
M  END
>  <i_m_ct_stereo_status>  (59) 
1

>  <s_m_source_file>  (59) 
/var/tmp/pbs.5076255.sched01/tmp14hj8t9c/0766azy0n.sdf

>  <i_m_source_file_index>  (59) 
24

>  <i_lp_mmshare_version>  (59) 
48012

>  <i_f3d_flags>  (59) 
0

>  <s_epik_input>  (59) 
W0NAQF0xMjNjNGM1W2NIXVtjSF1jKE9bQ0gzXSljNE9bQ0BASF0xQyg9TylbQ0gyXVtDSDJdW0NAQF0yKE9bQ0gzXSlbQ0BIXShbQ0gyXTUpTihbQ0gzXSlbQ0gyXVtDSDJdMw==

>  <s_epik_cmdline>  (59) 
J2VwaWtfcHl0aG9uJywgJy1waHQnLCAnMi4wJywgJy1waCcsICc3LjAnLCAnLXRuJywgJzgnLCAnLW1hJywgJzIwMCcsICctaW1hZScsICc8aW5maWxlLm1hZT4nLCAnLW9tYWUnLCAnPG91dGZpbGUubWFlPic=

>  <r_lp_tautomer_probability>  (59) 
1

>  <r_epik_Ionization_Penalty>  (59) 
0.314833

>  <r_epik_Ionization_Penalty_Charging>  (59) 
0.314833

>  <r_epik_Ionization_Penalty_Neutral>  (59) 
4.21973e-10

>  <r_epik_State_Penalty>  (59) 
0.30906

>  <r_epik_Charging_Adjusted_Penalty>  (59) 
0.623893

>  <i_epik_Tot_Q>  (59) 
1

>  <i_epik_Tot_abs_Q>  (59) 
1

>  <s_lp_Force_Field>  (59) 
OPLS3e

>  <r_lp_Energy>  (59) 
70.7286

>  <b_lp_Chiralities_Consistent>  (59) 
1

>  <s_lp_Variant>  (59) 
17:0-1

>  <s_i_glide_gridfile>  (59) 
pfpi4k_grid

>  <i_i_glide_lignum>  (59) 
24

>  <i_i_glide_rotatable_bonds>  (59) 
2

>  <r_i_docking_score>  (59) 
-2.94689

>  <r_i_glide_ligand_efficiency>  (59) 
-0.122787

>  <r_i_glide_ligand_efficiency_sa>  (59) 
-0.35418

>  <r_i_glide_ligand_efficiency_ln>  (59) 
-0.705327

>  <r_i_glide_gscore>  (59) 
-2.94689

>  <r_i_glide_lipo>  (59) 
-0.26979

>  <r_i_glide_hbond>  (59) 
-0.00242843

>  <r_i_glide_metal>  (59) 
-0

>  <r_i_glide_rewards>  (59) 
-1.15638

>  <r_i_glide_evdw>  (59) 
-20.4288

>  <r_i_glide_ecoul>  (59) 
-3.26471

>  <r_i_glide_erotb>  (59) 
0

>  <r_i_glide_esite>  (59) 
-0.00714978

>  <r_i_glide_emodel>  (59) 
-27.248

>  <r_i_glide_energy>  (59) 
-23.6936

>  <r_i_glide_einternal>  (59) 
2.28515

>  <r_i_glide_intrahb_reward>  (59) 
-0

>  <i_i_glide_confnum>  (59) 
1

>  <i_i_glide_posenum>  (59) 
3

>  <r_i_glide_eff_state_penalty>  (59) 
0

>  <ligand_id>  (59) 
17

>  <original_smiles>  (59) 
COc1ccc2c3c1OC1C(=O)CCC4(OC)C(C2)N(C)CCC314

>  <smiles>  (59) 
[H]c1c([H])c2c3c(c1OC([H])([H])[H])OC1([H])C(=O)C([H])([H])C([H])([H])C4(OC([H])([H])[H])C31C([H])([H])C([H])([H])[N+]([H])(C([H])([H])[H])C4([H])C2([H])[H]

$$$$
17:1:0
     RDKit          3D

 47 51  0  0  1  0  0  0  0  0999 V2000
    0.7732   -0.0674    3.2110 C   0  0  0  0  0  0  0  0  0  0  0  0
    1.9783   -0.3136    3.9242 O   0  0  0  0  0  0  0  0  0  0  0  0
    3.0616   -0.6274    3.1388 C   0  0  0  0  0  0  0  0  0  0  0  0
    4.2829    0.0352    3.4351 C   0  0  0  0  0  0  0  0  0  0  0  0
    5.4646   -0.2539    2.7160 C   0  0  0  0  0  0  0  0  0  0  0  0
    5.4202   -1.1488    1.6236 C   0  0  0  0  0  0  0  0  0  0  0  0
    4.1762   -1.7411    1.3697 C   0  0  0  0  0  0  0  0  0  0  0  0
    3.0278   -1.5951    2.1177 C   0  0  0  0  0  0  0  0  0  0  0  0
    2.0446   -2.4957    1.7943 O   0  0  0  0  0  0  0  0  0  0  0  0
    2.5583   -3.3331    0.7485 C   0  0  2  0  0  0  0  0  0  0  0  0
    2.5995   -4.8019    1.1907 C   0  0  0  0  0  0  0  0  0  0  0  0
    1.8969   -5.2159    2.1009 O   0  0  0  0  0  0  0  0  0  0  0  0
    3.4671   -5.7548    0.3683 C   0  0  0  0  0  0  0  0  0  0  0  0
    4.6677   -5.0744   -0.3445 C   0  0  0  0  0  0  0  0  0  0  0  0
    5.1133   -3.7693    0.3741 C   0  0  1  0  0  0  0  0  0  0  0  0
    5.3541   -4.1267    1.7497 O   0  0  0  0  0  0  0  0  0  0  0  0
    6.3877   -5.0503    2.0641 C   0  0  0  0  0  0  0  0  0  0  0  0
    6.3381   -2.9290   -0.1263 C   0  0  2  0  0  0  0  0  0  0  0  0
    6.5989   -1.7744    0.8711 C   0  0  0  0  0  0  0  0  0  0  0  0
    6.2328   -2.3419   -1.4669 N   0  0  0  0  0  0  0  0  0  0  0  0
    6.4697   -3.2520   -2.5694 C   0  0  0  0  0  0  0  0  0  0  0  0
    5.0550   -1.4980   -1.6063 C   0  0  0  0  0  0  0  0  0  0  0  0
    3.7798   -2.1554   -1.0897 C   0  0  0  0  0  0  0  0  0  0  0  0
    3.9383   -2.7768    0.3243 C   0  0  2  0  0  0  0  0  0  0  0  0
   -0.0536    0.0158    3.9193 H   0  0  0  0  0  0  0  0  0  0  0  0
    0.4916   -0.8326    2.4928 H   0  0  0  0  0  0  0  0  0  0  0  0
    0.8774    0.8746    2.6765 H   0  0  0  0  0  0  0  0  0  0  0  0
    4.3001    0.7515    4.2300 H   0  0  0  0  0  0  0  0  0  0  0  0
    6.4057    0.1717    3.0201 H   0  0  0  0  0  0  0  0  0  0  0  0
    1.8647   -3.2649   -0.0872 H   0  0  0  0  0  0  0  0  0  0  0  0
    3.8126   -6.5489    1.0348 H   0  0  0  0  0  0  0  0  0  0  0  0
    2.7802   -6.2173   -0.3322 H   0  0  0  0  0  0  0  0  0  0  0  0
    5.4741   -5.7943   -0.4530 H   0  0  0  0  0  0  0  0  0  0  0  0
    4.3554   -4.8364   -1.3548 H   0  0  0  0  0  0  0  0  0  0  0  0
    6.3908   -5.1929    3.1429 H   0  0  0  0  0  0  0  0  0  0  0  0
    7.3664   -4.6665    1.7846 H   0  0  0  0  0  0  0  0  0  0  0  0
    6.2439   -6.0328    1.6152 H   0  0  0  0  0  0  0  0  0  0  0  0
    7.2186   -3.5737   -0.1242 H   0  0  0  0  0  0  0  0  0  0  0  0
    7.2319   -0.9992    0.4323 H   0  0  0  0  0  0  0  0  0  0  0  0
    7.1246   -2.2304    1.6786 H   0  0  0  0  0  0  0  0  0  0  0  0
    6.5845   -2.6915   -3.4933 H   0  0  0  0  0  0  0  0  0  0  0  0
    5.6572   -3.9598   -2.7165 H   0  0  0  0  0  0  0  0  0  0  0  0
    7.4031   -3.7996   -2.4140 H   0  0  0  0  0  0  0  0  0  0  0  0
    5.1961   -0.5723   -1.0427 H   0  0  0  0  0  0  0  0  0  0  0  0
    4.9245   -1.2013   -2.6468 H   0  0  0  0  0  0  0  0  0  0  0  0
    2.9922   -1.4098   -1.0971 H   0  0  0  0  0  0  0  0  0  0  0  0
    3.4613   -2.9211   -1.7990 H   0  0  0  0  0  0  0  0  0  0  0  0
  1  2  1  0
  1 25  1  0
  1 26  1  0
  1 27  1  0
  2  3  1  0
  3  8  2  0
  3  4  1  0
  4  5  2  0
  4 28  1  0
  5  6  1  0
  5 29  1  0
  6 19  1  0
  6  7  2  0
  7 24  1  0
  7  8  1  0
  8  9  1  0
  9 10  1  0
 10 24  1  0
 10 11  1  0
 10 30  1  6
 11 12  2  0
 11 13  1  0
 13 14  1  0
 13 31  1  0
 13 32  1  0
 14 15  1  0
 14 33  1  0
 14 34  1  0
 15 24  1  0
 15 16  1  1
 15 18  1  0
 16 17  1  0
 17 35  1  0
 17 36  1  0
 17 37  1  0
 18 19  1  0
 18 20  1  0
 18 38  1  6
 19 39  1  0
 19 40  1  0
 20 21  1  0
 20 22  1  0
 21 41  1  0
 21 42  1  0
 21 43  1  0
 22 23  1  0
 22 44  1  0
 22 45  1  0
 24 23  1  6
 23 46  1  0
 23 47  1  0
M  END
>  <i_m_ct_stereo_status>  (60) 
1

>  <s_m_source_file>  (60) 
/var/tmp/pbs.5076255.sched01/tmp14hj8t9c/0766azy0n.sdf

>  <i_m_source_file_index>  (60) 
25

>  <i_lp_mmshare_version>  (60) 
48012

>  <i_f3d_flags>  (60) 
0

>  <s_epik_input>  (60) 
W0NAQF0xMjNjNGM1W2NIXVtjSF1jKE9bQ0gzXSljNE9bQ0BASF0xQyg9TylbQ0gyXVtDSDJdW0NAQF0yKE9bQ0gzXSlbQ0BIXShbQ0gyXTUpTihbQ0gzXSlbQ0gyXVtDSDJdMw==

>  <s_epik_cmdline>  (60) 
J2VwaWtfcHl0aG9uJywgJy1waHQnLCAnMi4wJywgJy1waCcsICc3LjAnLCAnLXRuJywgJzgnLCAnLW1hJywgJzIwMCcsICctaW1hZScsICc8aW5maWxlLm1hZT4nLCAnLW9tYWUnLCAnPG91dGZpbGUubWFlPic=

>  <r_lp_tautomer_probability>  (60) 
1

>  <r_epik_Ionization_Penalty>  (60) 
0.525082

>  <r_epik_Ionization_Penalty_Charging>  (60) 
0

>  <r_epik_Ionization_Penalty_Neutral>  (60) 
0.525082

>  <r_epik_State_Penalty>  (60) 
0.533413

>  <r_epik_Charging_Adjusted_Penalty>  (60) 
0.533413

>  <i_epik_Tot_Q>  (60) 
0

>  <i_epik_Tot_abs_Q>  (60) 
0

>  <s_lp_Force_Field>  (60) 
OPLS3e

>  <r_lp_Energy>  (60) 
69.6382

>  <b_lp_Chiralities_Consistent>  (60) 
1

>  <s_lp_Variant>  (60) 
17:0-2

>  <s_i_glide_gridfile>  (60) 
pfpi4k_grid

>  <i_i_glide_lignum>  (60) 
25

>  <i_i_glide_rotatable_bonds>  (60) 
2

>  <r_i_docking_score>  (60) 
-3.11534

>  <r_i_glide_ligand_efficiency>  (60) 
-0.129806

>  <r_i_glide_ligand_efficiency_sa>  (60) 
-0.374424

>  <r_i_glide_ligand_efficiency_ln>  (60) 
-0.745643

>  <r_i_glide_gscore>  (60) 
-3.11534

>  <r_i_glide_lipo>  (60) 
-0.541647

>  <r_i_glide_hbond>  (60) 
-0.0468827

>  <r_i_glide_metal>  (60) 
-0

>  <r_i_glide_rewards>  (60) 
-1.16325

>  <r_i_glide_evdw>  (60) 
-18.8624

>  <r_i_glide_ecoul>  (60) 
-2.64635

>  <r_i_glide_erotb>  (60) 
0

>  <r_i_glide_esite>  (60) 
-0.0234871

>  <r_i_glide_emodel>  (60) 
-22.3641

>  <r_i_glide_energy>  (60) 
-21.5087

>  <r_i_glide_einternal>  (60) 
5.5638

>  <r_i_glide_intrahb_reward>  (60) 
-0

>  <i_i_glide_confnum>  (60) 
2

>  <i_i_glide_posenum>  (60) 
39

>  <r_i_glide_eff_state_penalty>  (60) 
0

>  <ligand_id>  (60) 
17

>  <original_smiles>  (60) 
COc1ccc2c3c1OC1C(=O)CCC4(OC)C(C2)N(C)CCC314

>  <smiles>  (60) 
[H]c1c([H])c2c3c(c1OC([H])([H])[H])OC1([H])C(=O)C([H])([H])C([H])([H])C4(OC([H])([H])[H])C([H])(N(C([H])([H])[H])C([H])([H])C([H])([H])C314)C2([H])[H]

$$$$
17:1:1
     RDKit          3D

 47 51  0  0  1  0  0  0  0  0999 V2000
    3.2290   -0.4925    6.2342 C   0  0  0  0  0  0  0  0  0  0  0  0
    2.9267   -1.2430    5.0742 O   0  0  0  0  0  0  0  0  0  0  0  0
    3.8424   -1.2384    4.0428 C   0  0  0  0  0  0  0  0  0  0  0  0
    5.0658   -0.5074    4.0721 C   0  0  0  0  0  0  0  0  0  0  0  0
    6.0088   -0.6194    3.0176 C   0  0  0  0  0  0  0  0  0  0  0  0
    5.7131   -1.3928    1.8769 C   0  0  0  0  0  0  0  0  0  0  0  0
    4.4647   -2.0067    1.8837 C   0  0  0  0  0  0  0  0  0  0  0  0
    3.5531   -2.0330    2.9227 C   0  0  0  0  0  0  0  0  0  0  0  0
    2.5083   -2.8932    2.7225 O   0  0  0  0  0  0  0  0  0  0  0  0
    2.7249   -3.5558    1.4633 C   0  0  2  0  0  0  0  0  0  0  0  0
    2.8916   -5.0728    1.6324 C   0  0  0  0  0  0  0  0  0  0  0  0
    2.4877   -5.6568    2.6307 O   0  0  0  0  0  0  0  0  0  0  0  0
    3.5390   -5.8419    0.4685 C   0  0  0  0  0  0  0  0  0  0  0  0
    4.5172   -5.0082   -0.3979 C   0  0  0  0  0  0  0  0  0  0  0  0
    5.1248   -3.8073    0.3744 C   0  0  1  0  0  0  0  0  0  0  0  0
    5.7262   -4.3505    1.5643 O   0  0  0  0  0  0  0  0  0  0  0  0
    6.7998   -5.2726    1.4391 C   0  0  0  0  0  0  0  0  0  0  0  0
    6.1710   -2.8417   -0.2955 C   0  0  2  0  0  0  0  0  0  0  0  0
    6.6848   -1.8348    0.7684 C   0  0  0  0  0  0  0  0  0  0  0  0
    5.6967   -2.0722   -1.4571 N   0  0  0  0  0  0  0  0  0  0  0  0
    5.6217   -2.7999   -2.7119 C   0  0  0  0  0  0  0  0  0  0  0  0
    4.5167   -1.2743   -1.1397 C   0  0  0  0  0  0  0  0  0  0  0  0
    3.4319   -2.0652   -0.4092 C   0  0  0  0  0  0  0  0  0  0  0  0
    3.9600   -2.8855    0.7917 C   0  0  2  0  0  0  0  0  0  0  0  0
    2.4087   -0.6063    6.9385 H   0  0  0  0  0  0  0  0  0  0  0  0
    3.3293    0.5747    6.0201 H   0  0  0  0  0  0  0  0  0  0  0  0
    4.1372   -0.8530    6.7251 H   0  0  0  0  0  0  0  0  0  0  0  0
    5.3521    0.0856    4.9215 H   0  0  0  0  0  0  0  0  0  0  0  0
    6.9913   -0.1883    3.1389 H   0  0  0  0  0  0  0  0  0  0  0  0
    1.8313   -3.4029    0.8663 H   0  0  0  0  0  0  0  0  0  0  0  0
    4.0562   -6.7061    0.8873 H   0  0  0  0  0  0  0  0  0  0  0  0
    2.7253   -6.2255   -0.1456 H   0  0  0  0  0  0  0  0  0  0  0  0
    5.2767   -5.6542   -0.8283 H   0  0  0  0  0  0  0  0  0  0  0  0
    3.9427   -4.6437   -1.2390 H   0  0  0  0  0  0  0  0  0  0  0  0
    7.0994   -5.5678    2.4424 H   0  0  0  0  0  0  0  0  0  0  0  0
    7.6676   -4.8246    0.9578 H   0  0  0  0  0  0  0  0  0  0  0  0
    6.5294   -6.1886    0.9121 H   0  0  0  0  0  0  0  0  0  0  0  0
    7.0235   -3.4390   -0.6283 H   0  0  0  0  0  0  0  0  0  0  0  0
    7.1225   -0.9594    0.2814 H   0  0  0  0  0  0  0  0  0  0  0  0
    7.5004   -2.3424    1.2713 H   0  0  0  0  0  0  0  0  0  0  0  0
    5.3858   -2.1190   -3.5292 H   0  0  0  0  0  0  0  0  0  0  0  0
    4.8332   -3.5449   -2.7209 H   0  0  0  0  0  0  0  0  0  0  0  0
    6.5790   -3.2929   -2.9233 H   0  0  0  0  0  0  0  0  0  0  0  0
    4.7967   -0.4295   -0.5043 H   0  0  0  0  0  0  0  0  0  0  0  0
    4.1076   -0.8376   -2.0506 H   0  0  0  0  0  0  0  0  0  0  0  0
    2.6495   -1.3897   -0.0709 H   0  0  0  0  0  0  0  0  0  0  0  0
    2.9490   -2.7294   -1.1262 H   0  0  0  0  0  0  0  0  0  0  0  0
  1  2  1  0
  1 25  1  0
  1 26  1  0
  1 27  1  0
  2  3  1  0
  3  8  2  0
  3  4  1  0
  4  5  2  0
  4 28  1  0
  5  6  1  0
  5 29  1  0
  6 19  1  0
  6  7  2  0
  7 24  1  0
  7  8  1  0
  8  9  1  0
  9 10  1  0
 10 24  1  0
 10 11  1  0
 10 30  1  6
 11 12  2  0
 11 13  1  0
 13 14  1  0
 13 31  1  0
 13 32  1  0
 14 15  1  0
 14 33  1  0
 14 34  1  0
 15 24  1  0
 15 16  1  1
 15 18  1  0
 16 17  1  0
 17 35  1  0
 17 36  1  0
 17 37  1  0
 18 19  1  0
 18 20  1  0
 18 38  1  6
 19 39  1  0
 19 40  1  0
 20 21  1  0
 20 22  1  0
 21 41  1  0
 21 42  1  0
 21 43  1  0
 22 23  1  0
 22 44  1  0
 22 45  1  0
 24 23  1  6
 23 46  1  0
 23 47  1  0
M  END
>  <i_m_ct_stereo_status>  (61) 
1

>  <s_m_source_file>  (61) 
/var/tmp/pbs.5076255.sched01/tmp14hj8t9c/0766azy0n.sdf

>  <i_m_source_file_index>  (61) 
25

>  <i_lp_mmshare_version>  (61) 
48012

>  <i_f3d_flags>  (61) 
0

>  <s_epik_input>  (61) 
W0NAQF0xMjNjNGM1W2NIXVtjSF1jKE9bQ0gzXSljNE9bQ0BASF0xQyg9TylbQ0gyXVtDSDJdW0NAQF0yKE9bQ0gzXSlbQ0BIXShbQ0gyXTUpTihbQ0gzXSlbQ0gyXVtDSDJdMw==

>  <s_epik_cmdline>  (61) 
J2VwaWtfcHl0aG9uJywgJy1waHQnLCAnMi4wJywgJy1waCcsICc3LjAnLCAnLXRuJywgJzgnLCAnLW1hJywgJzIwMCcsICctaW1hZScsICc8aW5maWxlLm1hZT4nLCAnLW9tYWUnLCAnPG91dGZpbGUubWFlPic=

>  <r_lp_tautomer_probability>  (61) 
1

>  <r_epik_Ionization_Penalty>  (61) 
0.525082

>  <r_epik_Ionization_Penalty_Charging>  (61) 
0

>  <r_epik_Ionization_Penalty_Neutral>  (61) 
0.525082

>  <r_epik_State_Penalty>  (61) 
0.533413

>  <r_epik_Charging_Adjusted_Penalty>  (61) 
0.533413

>  <i_epik_Tot_Q>  (61) 
0

>  <i_epik_Tot_abs_Q>  (61) 
0

>  <s_lp_Force_Field>  (61) 
OPLS3e

>  <r_lp_Energy>  (61) 
69.6382

>  <b_lp_Chiralities_Consistent>  (61) 
1

>  <s_lp_Variant>  (61) 
17:0-2

>  <s_i_glide_gridfile>  (61) 
pfpi4k_grid

>  <i_i_glide_lignum>  (61) 
25

>  <i_i_glide_rotatable_bonds>  (61) 
2

>  <r_i_docking_score>  (61) 
-3.0007

>  <r_i_glide_ligand_efficiency>  (61) 
-0.125029

>  <r_i_glide_ligand_efficiency_sa>  (61) 
-0.360647

>  <r_i_glide_ligand_efficiency_ln>  (61) 
-0.718205

>  <r_i_glide_gscore>  (61) 
-3.0007

>  <r_i_glide_lipo>  (61) 
-0.690691

>  <r_i_glide_hbond>  (61) 
0

>  <r_i_glide_metal>  (61) 
-0

>  <r_i_glide_rewards>  (61) 
-1.16325

>  <r_i_glide_evdw>  (61) 
-16.8031

>  <r_i_glide_ecoul>  (61) 
-1.99695

>  <r_i_glide_erotb>  (61) 
0

>  <r_i_glide_esite>  (61) 
-0.00706555

>  <r_i_glide_emodel>  (61) 
-22.5986

>  <r_i_glide_energy>  (61) 
-18.8

>  <r_i_glide_einternal>  (61) 
0.0139739

>  <r_i_glide_intrahb_reward>  (61) 
-0

>  <i_i_glide_confnum>  (61) 
2

>  <i_i_glide_posenum>  (61) 
15

>  <r_i_glide_eff_state_penalty>  (61) 
0

>  <ligand_id>  (61) 
17

>  <original_smiles>  (61) 
COc1ccc2c3c1OC1C(=O)CCC4(OC)C(C2)N(C)CCC314

>  <smiles>  (61) 
[H]c1c([H])c2c3c(c1OC([H])([H])[H])OC1([H])C(=O)C([H])([H])C([H])([H])C4(OC([H])([H])[H])C([H])(N(C([H])([H])[H])C([H])([H])C([H])([H])C314)C2([H])[H]

$$$$
17:1:2
     RDKit          3D

 47 51  0  0  1  0  0  0  0  0999 V2000
    0.9090   -0.3069    4.8706 C   0  0  0  0  0  0  0  0  0  0  0  0
    1.2146   -1.3152    3.9239 O   0  0  0  0  0  0  0  0  0  0  0  0
    2.4066   -1.2262    3.2364 C   0  0  0  0  0  0  0  0  0  0  0  0
    3.3944   -0.2246    3.4573 C   0  0  0  0  0  0  0  0  0  0  0  0
    4.6366   -0.2559    2.7723 C   0  0  0  0  0  0  0  0  0  0  0  0
    4.8725   -1.2205    1.7735 C   0  0  0  0  0  0  0  0  0  0  0  0
    3.8188   -2.1160    1.5353 C   0  0  0  0  0  0  0  0  0  0  0  0
    2.6579   -2.2168    2.2737 C   0  0  0  0  0  0  0  0  0  0  0  0
    1.9326   -3.3542    2.0260 O   0  0  0  0  0  0  0  0  0  0  0  0
    2.6241   -4.0957    1.0016 C   0  0  2  0  0  0  0  0  0  0  0  0
    3.0043   -5.4997    1.4859 C   0  0  0  0  0  0  0  0  0  0  0  0
    2.4437   -6.0139    2.4506 O   0  0  0  0  0  0  0  0  0  0  0  0
    4.1131   -6.2407    0.7185 C   0  0  0  0  0  0  0  0  0  0  0  0
    5.1309   -5.3091   -0.0100 C   0  0  0  0  0  0  0  0  0  0  0  0
    5.2336   -3.9077    0.6643 C   0  0  1  0  0  0  0  0  0  0  0  0
    5.5180   -4.1269    2.0634 O   0  0  0  0  0  0  0  0  0  0  0  0
    6.5957   -4.9811    2.4412 C   0  0  0  0  0  0  0  0  0  0  0  0
    6.2399   -2.8083    0.1496 C   0  0  2  0  0  0  0  0  0  0  0  0
    6.2085   -1.5588    1.0894 C   0  0  0  0  0  0  0  0  0  0  0  0
    6.0205   -2.3313   -1.2274 N   0  0  0  0  0  0  0  0  0  0  0  0
    6.5178   -3.1963   -2.2828 C   0  0  0  0  0  0  0  0  0  0  0  0
    4.6637   -1.8284   -1.4463 C   0  0  0  0  0  0  0  0  0  0  0  0
    3.5773   -2.7645   -0.9111 C   0  0  0  0  0  0  0  0  0  0  0  0
    3.8438   -3.2370    0.5509 C   0  0  2  0  0  0  0  0  0  0  0  0
   -0.0499   -0.5365    5.3295 H   0  0  0  0  0  0  0  0  0  0  0  0
    0.8254    0.6690    4.3938 H   0  0  0  0  0  0  0  0  0  0  0  0
    1.6519   -0.2626    5.6664 H   0  0  0  0  0  0  0  0  0  0  0  0
    3.2514    0.5414    4.2024 H   0  0  0  0  0  0  0  0  0  0  0  0
    5.4093    0.4467    3.0343 H   0  0  0  0  0  0  0  0  0  0  0  0
    1.9405   -4.2485    0.1656 H   0  0  0  0  0  0  0  0  0  0  0  0
    4.6285   -6.8680    1.4459 H   0  0  0  0  0  0  0  0  0  0  0  0
    3.6487   -6.9297    0.0180 H   0  0  0  0  0  0  0  0  0  0  0  0
    6.1068   -5.7939   -0.0593 H   0  0  0  0  0  0  0  0  0  0  0  0
    4.8093   -5.2364   -1.0451 H   0  0  0  0  0  0  0  0  0  0  0  0
    6.6251   -5.0284    3.5287 H   0  0  0  0  0  0  0  0  0  0  0  0
    7.5519   -4.6159    2.0706 H   0  0  0  0  0  0  0  0  0  0  0  0
    6.4740   -6.0143    2.1246 H   0  0  0  0  0  0  0  0  0  0  0  0
    7.2485   -3.2161    0.2025 H   0  0  0  0  0  0  0  0  0  0  0  0
    6.5565   -0.6728    0.5580 H   0  0  0  0  0  0  0  0  0  0  0  0
    6.9334   -1.7242    1.8776 H   0  0  0  0  0  0  0  0  0  0  0  0
    6.5119   -2.6576   -3.2303 H   0  0  0  0  0  0  0  0  0  0  0  0
    5.9106   -4.0900   -2.4051 H   0  0  0  0  0  0  0  0  0  0  0  0
    7.5508   -3.4879   -2.0871 H   0  0  0  0  0  0  0  0  0  0  0  0
    4.5519   -0.8643   -0.9490 H   0  0  0  0  0  0  0  0  0  0  0  0
    4.5012   -1.6292   -2.5050 H   0  0  0  0  0  0  0  0  0  0  0  0
    2.6165   -2.2590   -0.9835 H   0  0  0  0  0  0  0  0  0  0  0  0
    3.4939   -3.6190   -1.5817 H   0  0  0  0  0  0  0  0  0  0  0  0
  1  2  1  0
  1 25  1  0
  1 26  1  0
  1 27  1  0
  2  3  1  0
  3  8  2  0
  3  4  1  0
  4  5  2  0
  4 28  1  0
  5  6  1  0
  5 29  1  0
  6 19  1  0
  6  7  2  0
  7 24  1  0
  7  8  1  0
  8  9  1  0
  9 10  1  0
 10 24  1  0
 10 11  1  0
 10 30  1  6
 11 12  2  0
 11 13  1  0
 13 14  1  0
 13 31  1  0
 13 32  1  0
 14 15  1  0
 14 33  1  0
 14 34  1  0
 15 24  1  0
 15 16  1  1
 15 18  1  0
 16 17  1  0
 17 35  1  0
 17 36  1  0
 17 37  1  0
 18 19  1  0
 18 20  1  0
 18 38  1  6
 19 39  1  0
 19 40  1  0
 20 21  1  0
 20 22  1  0
 21 41  1  0
 21 42  1  0
 21 43  1  0
 22 23  1  0
 22 44  1  0
 22 45  1  0
 24 23  1  6
 23 46  1  0
 23 47  1  0
M  END
>  <i_m_ct_stereo_status>  (62) 
1

>  <s_m_source_file>  (62) 
/var/tmp/pbs.5076255.sched01/tmp14hj8t9c/0766azy0n.sdf

>  <i_m_source_file_index>  (62) 
25

>  <i_lp_mmshare_version>  (62) 
48012

>  <i_f3d_flags>  (62) 
0

>  <s_epik_input>  (62) 
W0NAQF0xMjNjNGM1W2NIXVtjSF1jKE9bQ0gzXSljNE9bQ0BASF0xQyg9TylbQ0gyXVtDSDJdW0NAQF0yKE9bQ0gzXSlbQ0BIXShbQ0gyXTUpTihbQ0gzXSlbQ0gyXVtDSDJdMw==

>  <s_epik_cmdline>  (62) 
J2VwaWtfcHl0aG9uJywgJy1waHQnLCAnMi4wJywgJy1waCcsICc3LjAnLCAnLXRuJywgJzgnLCAnLW1hJywgJzIwMCcsICctaW1hZScsICc8aW5maWxlLm1hZT4nLCAnLW9tYWUnLCAnPG91dGZpbGUubWFlPic=

>  <r_lp_tautomer_probability>  (62) 
1

>  <r_epik_Ionization_Penalty>  (62) 
0.525082

>  <r_epik_Ionization_Penalty_Charging>  (62) 
0

>  <r_epik_Ionization_Penalty_Neutral>  (62) 
0.525082

>  <r_epik_State_Penalty>  (62) 
0.533413

>  <r_epik_Charging_Adjusted_Penalty>  (62) 
0.533413

>  <i_epik_Tot_Q>  (62) 
0

>  <i_epik_Tot_abs_Q>  (62) 
0

>  <s_lp_Force_Field>  (62) 
OPLS3e

>  <r_lp_Energy>  (62) 
69.6382

>  <b_lp_Chiralities_Consistent>  (62) 
1

>  <s_lp_Variant>  (62) 
17:0-2

>  <s_i_glide_gridfile>  (62) 
pfpi4k_grid

>  <i_i_glide_lignum>  (62) 
25

>  <i_i_glide_rotatable_bonds>  (62) 
2

>  <r_i_docking_score>  (62) 
-2.78247

>  <r_i_glide_ligand_efficiency>  (62) 
-0.115936

>  <r_i_glide_ligand_efficiency_sa>  (62) 
-0.334418

>  <r_i_glide_ligand_efficiency_ln>  (62) 
-0.665973

>  <r_i_glide_gscore>  (62) 
-2.78247

>  <r_i_glide_lipo>  (62) 
-0.665545

>  <r_i_glide_hbond>  (62) 
0

>  <r_i_glide_metal>  (62) 
-0

>  <r_i_glide_rewards>  (62) 
-1.16325

>  <r_i_glide_evdw>  (62) 
-18.3945

>  <r_i_glide_ecoul>  (62) 
-0.215615

>  <r_i_glide_erotb>  (62) 
0

>  <r_i_glide_esite>  (62) 
-0.00160812

>  <r_i_glide_emodel>  (62) 
-21.3589

>  <r_i_glide_energy>  (62) 
-18.6101

>  <r_i_glide_einternal>  (62) 
0.919864

>  <r_i_glide_intrahb_reward>  (62) 
-0

>  <i_i_glide_confnum>  (62) 
1

>  <i_i_glide_posenum>  (62) 
17

>  <r_i_glide_eff_state_penalty>  (62) 
0

>  <ligand_id>  (62) 
17

>  <original_smiles>  (62) 
COc1ccc2c3c1OC1C(=O)CCC4(OC)C(C2)N(C)CCC314

>  <smiles>  (62) 
[H]c1c([H])c2c3c(c1OC([H])([H])[H])OC1([H])C(=O)C([H])([H])C([H])([H])C4(OC([H])([H])[H])C([H])(N(C([H])([H])[H])C([H])([H])C([H])([H])C314)C2([H])[H]

$$$$
18:0:0
     RDKit          3D

 54 57  0  0  1  0  0  0  0  0999 V2000
    2.2698   -3.0244   -3.3876 C   0  0  0  0  0  0  0  0  0  0  0  0
    3.2700   -2.4871   -2.5382 O   0  0  0  0  0  0  0  0  0  0  0  0
    3.7901   -3.3923   -1.5684 C   0  0  0  0  0  0  0  0  0  0  0  0
    2.7396   -3.8075   -0.5130 C   0  0  0  0  0  0  0  0  0  0  0  0
    3.3498   -4.5684    0.5189 O   0  0  0  0  0  0  0  0  0  0  0  0
    2.7954   -5.8386    0.6821 C   0  0  2  0  0  0  0  0  0  0  0  0
    1.4979   -5.7199    1.2624 O   0  0  0  0  0  0  0  0  0  0  0  0
    1.0751   -6.9078    1.8609 C   0  0  2  0  0  0  0  0  0  0  0  0
   -0.2985   -7.0270    2.0248 O   0  0  0  0  0  0  0  0  0  0  0  0
   -0.5945   -8.1564    2.8485 C   0  0  2  0  0  0  0  0  0  0  0  0
   -1.7569   -8.9252    2.2308 C   0  0  0  0  0  0  0  0  0  0  0  0
   -1.0521   -7.5587    4.1806 C   0  0  0  0  0  0  0  0  0  0  0  0
   -0.1784   -6.3813    4.6200 C   0  0  0  0  0  0  0  0  0  0  0  0
    1.2899   -6.8113    4.6208 C   0  0  2  0  0  0  0  0  0  0  0  0
    2.2541   -5.9636    5.5045 C   0  0  1  0  0  0  0  0  0  0  0  0
    1.7599   -5.8279    6.9620 C   0  0  0  0  0  0  0  0  0  0  0  0
    3.6823   -6.5671    5.5096 C   0  0  0  0  0  0  0  0  0  0  0  0
    4.2388   -6.9408    4.1179 C   0  0  0  0  0  0  0  0  0  0  0  0
    3.2738   -6.5445    3.0104 C   0  0  1  0  0  0  0  0  0  0  0  0
    3.7717   -6.6757    1.5630 C   0  0  1  0  0  0  0  0  0  0  0  0
    3.9751   -8.1351    1.0410 C   0  0  0  0  0  0  0  0  0  0  0  0
    1.8753   -7.1806    3.1885 C   0  0  2  0  0  0  0  0  0  0  0  0
    1.8850   -8.5917    3.2133 O   0  0  0  0  0  0  0  0  0  0  0  0
    0.4594   -9.1515    2.9701 O   0  0  0  0  0  0  0  0  0  0  0  0
    1.9457   -2.2744   -4.1133 H   0  0  0  0  0  0  0  0  0  0  0  0
    1.3903   -3.3132   -2.8147 H   0  0  0  0  0  0  0  0  0  0  0  0
    2.6399   -3.8933   -3.9351 H   0  0  0  0  0  0  0  0  0  0  0  0
    4.2311   -4.2628   -2.0491 H   0  0  0  0  0  0  0  0  0  0  0  0
    4.6016   -2.8717   -1.0664 H   0  0  0  0  0  0  0  0  0  0  0  0
    2.2665   -2.9303   -0.0609 H   0  0  0  0  0  0  0  0  0  0  0  0
    1.9243   -4.3657   -0.9818 H   0  0  0  0  0  0  0  0  0  0  0  0
    2.7184   -6.2579   -0.3161 H   0  0  0  0  0  0  0  0  0  0  0  0
    1.3064   -7.6946    1.1282 H   0  0  0  0  0  0  0  0  0  0  0  0
   -1.4657   -9.3705    1.2805 H   0  0  0  0  0  0  0  0  0  0  0  0
   -2.6081   -8.2723    2.0521 H   0  0  0  0  0  0  0  0  0  0  0  0
   -2.0857   -9.7437    2.8720 H   0  0  0  0  0  0  0  0  0  0  0  0
   -2.0686   -7.1756    4.0982 H   0  0  0  0  0  0  0  0  0  0  0  0
   -1.0658   -8.3354    4.9449 H   0  0  0  0  0  0  0  0  0  0  0  0
   -0.2886   -5.5096    3.9702 H   0  0  0  0  0  0  0  0  0  0  0  0
   -0.5413   -6.0942    5.6074 H   0  0  0  0  0  0  0  0  0  0  0  0
    1.2782   -7.7488    5.1841 H   0  0  0  0  0  0  0  0  0  0  0  0
    2.3039   -4.9626    5.0862 H   0  0  0  0  0  0  0  0  0  0  0  0
    1.5725   -6.8081    7.4093 H   0  0  0  0  0  0  0  0  0  0  0  0
    0.8285   -5.2567    7.0437 H   0  0  0  0  0  0  0  0  0  0  0  0
    2.4999   -5.3322    7.6021 H   0  0  0  0  0  0  0  0  0  0  0  0
    4.3663   -5.8651    5.9908 H   0  0  0  0  0  0  0  0  0  0  0  0
    3.7023   -7.4657    6.1306 H   0  0  0  0  0  0  0  0  0  0  0  0
    5.2099   -6.4658    3.9762 H   0  0  0  0  0  0  0  0  0  0  0  0
    4.4255   -8.0146    4.0794 H   0  0  0  0  0  0  0  0  0  0  0  0
    3.1663   -5.4690    3.1189 H   0  0  0  0  0  0  0  0  0  0  0  0
    4.7414   -6.1741    1.4946 H   0  0  0  0  0  0  0  0  0  0  0  0
    3.0371   -8.7094    1.0403 H   0  0  0  0  0  0  0  0  0  0  0  0
    4.7196   -8.6534    1.6453 H   0  0  0  0  0  0  0  0  0  0  0  0
    4.3880   -8.1540    0.0222 H   0  0  0  0  0  0  0  0  0  0  0  0
  1  2  1  0
  1 25  1  0
  1 26  1  0
  1 27  1  0
  2  3  1  0
  3  4  1  0
  3 28  1  0
  3 29  1  0
  4  5  1  0
  4 30  1  0
  4 31  1  0
  5  6  1  0
  6 20  1  0
  6  7  1  0
  6 32  1  6
  7  8  1  0
  8 22  1  0
  8  9  1  0
  8 33  1  6
  9 10  1  0
 10 24  1  0
 10 11  1  6
 10 12  1  0
 11 34  1  0
 11 35  1  0
 11 36  1  0
 12 13  1  0
 12 37  1  0
 12 38  1  0
 13 14  1  0
 13 39  1  0
 13 40  1  0
 14 22  1  0
 14 15  1  0
 14 41  1  1
 15 16  1  0
 15 17  1  0
 15 42  1  6
 16 43  1  0
 16 44  1  0
 16 45  1  0
 17 18  1  0
 17 46  1  0
 17 47  1  0
 18 19  1  0
 18 48  1  0
 18 49  1  0
 19 20  1  0
 19 22  1  0
 19 50  1  1
 20 21  1  0
 20 51  1  1
 21 52  1  0
 21 53  1  0
 21 54  1  0
 22 23  1  1
 23 24  1  0
M  END
>  <i_m_ct_stereo_status>  (63) 
1

>  <s_m_source_file>  (63) 
/var/tmp/pbs.5076255.sched01/tmp14hj8t9c/0766azy0n.sdf

>  <i_m_source_file_index>  (63) 
26

>  <i_lp_mmshare_version>  (63) 
48012

>  <i_f3d_flags>  (63) 
0

>  <s_epik_input>  (63) 
W0NIM11PW0NIMl1bQ0gyXU9bQ0BIXShPW0NASF0xW0NAXTIzNClbQ0BIXShbQ0gzXSlbQ0BASF0zW0NIMl1bQ0gyXVtDQEhdKFtDSDNdKVtDQEhdMltDSDJdW0NIMl1bQ0BdKE8xKShbQ0gzXSlPTzQ=

>  <s_epik_cmdline>  (63) 
J2VwaWtfcHl0aG9uJywgJy1waHQnLCAnMi4wJywgJy1waCcsICc3LjAnLCAnLXRuJywgJzgnLCAnLW1hJywgJzIwMCcsICctaW1hZScsICc8aW5maWxlLm1hZT4nLCAnLW9tYWUnLCAnPG91dGZpbGUubWFlPic=

>  <r_lp_tautomer_probability>  (63) 
1

>  <r_epik_Ionization_Penalty>  (63) 
6.36137e-12

>  <r_epik_Ionization_Penalty_Charging>  (63) 
0

>  <r_epik_Ionization_Penalty_Neutral>  (63) 
6.36137e-12

>  <r_epik_State_Penalty>  (63) 
-0

>  <r_epik_Charging_Adjusted_Penalty>  (63) 
0

>  <i_epik_Tot_Q>  (63) 
0

>  <i_epik_Tot_abs_Q>  (63) 
0

>  <s_epik_Chemistry_Notes>  (63) 
This compound contains an acetal/aminal-like group ( X-CH(R)-Y where X, Y are N, S, or O) that may be acid/base labile, releasing an aldehyde.

>  <s_lp_Force_Field>  (63) 
OPLS3e

>  <r_lp_Energy>  (63) 
67.8875

>  <b_lp_Chiralities_Consistent>  (63) 
1

>  <s_lp_Variant>  (63) 
18:0-1

>  <s_i_glide_gridfile>  (63) 
pfpi4k_grid

>  <i_i_glide_lignum>  (63) 
26

>  <i_i_glide_rotatable_bonds>  (63) 
4

>  <r_i_docking_score>  (63) 
-3.14619

>  <r_i_glide_ligand_efficiency>  (63) 
-0.131091

>  <r_i_glide_ligand_efficiency_sa>  (63) 
-0.378132

>  <r_i_glide_ligand_efficiency_ln>  (63) 
-0.753027

>  <r_i_glide_gscore>  (63) 
-3.14619

>  <r_i_glide_lipo>  (63) 
-0.496652

>  <r_i_glide_hbond>  (63) 
-0.218851

>  <r_i_glide_metal>  (63) 
-0

>  <r_i_glide_rewards>  (63) 
-1.07436

>  <r_i_glide_evdw>  (63) 
-22.9701

>  <r_i_glide_ecoul>  (63) 
-3.74044

>  <r_i_glide_erotb>  (63) 
0.485151

>  <r_i_glide_esite>  (63) 
-0.131903

>  <r_i_glide_emodel>  (63) 
-29.8961

>  <r_i_glide_energy>  (63) 
-26.7106

>  <r_i_glide_einternal>  (63) 
3.96865

>  <r_i_glide_intrahb_reward>  (63) 
-0

>  <i_i_glide_confnum>  (63) 
3

>  <i_i_glide_posenum>  (63) 
21

>  <r_i_glide_eff_state_penalty>  (63) 
0

>  <ligand_id>  (63) 
18

>  <original_smiles>  (63) 
COCCOC1OC2OC3(C)CCC4C(C)CCC(C1C)C24OO3

>  <smiles>  (63) 
[H]C([H])([H])OC([H])([H])C([H])([H])OC1([H])OC2([H])OC3(C([H])([H])[H])OOC24C([H])(C([H])([H])C([H])([H])C([H])(C([H])([H])[H])C4([H])C([H])([H])C3([H])[H])C1([H])C([H])([H])[H]

$$$$
18:0:1
     RDKit          3D

 54 57  0  0  1  0  0  0  0  0999 V2000
    2.8743    0.3712   -5.2503 C   0  0  0  0  0  0  0  0  0  0  0  0
    3.5017   -0.4023   -4.2553 O   0  0  0  0  0  0  0  0  0  0  0  0
    3.0811   -1.7516   -4.2592 C   0  0  0  0  0  0  0  0  0  0  0  0
    3.6720   -2.3994   -3.0325 C   0  0  0  0  0  0  0  0  0  0  0  0
    5.0743   -2.6591   -3.2038 O   0  0  0  0  0  0  0  0  0  0  0  0
    5.7492   -3.2333   -2.1208 C   0  0  2  0  0  0  0  0  0  0  0  0
    4.9878   -4.2411   -1.4870 O   0  0  0  0  0  0  0  0  0  0  0  0
    5.4221   -4.5613   -0.2097 C   0  0  2  0  0  0  0  0  0  0  0  0
    5.0685   -5.8023    0.2604 O   0  0  0  0  0  0  0  0  0  0  0  0
    5.3095   -5.9236    1.6509 C   0  0  2  0  0  0  0  0  0  0  0  0
    5.9327   -7.2979    1.9115 C   0  0  0  0  0  0  0  0  0  0  0  0
    3.9233   -5.8483    2.3026 C   0  0  0  0  0  0  0  0  0  0  0  0
    3.0371   -4.7814    1.6688 C   0  0  0  0  0  0  0  0  0  0  0  0
    3.7737   -3.4388    1.6862 C   0  0  2  0  0  0  0  0  0  0  0  0
    2.8705   -2.1687    1.5833 C   0  0  1  0  0  0  0  0  0  0  0  0
    1.7515   -2.1387    2.6455 C   0  0  0  0  0  0  0  0  0  0  0  0
    3.7187   -0.8661    1.7086 C   0  0  0  0  0  0  0  0  0  0  0  0
    5.0158   -0.8366    0.8659 C   0  0  0  0  0  0  0  0  0  0  0  0
    5.1238   -2.0967   -0.0050 C   0  0  1  0  0  0  0  0  0  0  0  0
    6.1858   -2.1010   -1.1124 C   0  0  1  0  0  0  0  0  0  0  0  0
    7.6538   -2.2292   -0.6037 C   0  0  0  0  0  0  0  0  0  0  0  0
    5.0922   -3.4093    0.8137 C   0  0  2  0  0  0  0  0  0  0  0  0
    6.1297   -3.5320    1.7626 O   0  0  0  0  0  0  0  0  0  0  0  0
    6.2806   -5.0013    2.2114 O   0  0  0  0  0  0  0  0  0  0  0  0
    3.2234    1.4048   -5.1864 H   0  0  0  0  0  0  0  0  0  0  0  0
    1.7884    0.3697   -5.1234 H   0  0  0  0  0  0  0  0  0  0  0  0
    3.1265   -0.0210   -6.2371 H   0  0  0  0  0  0  0  0  0  0  0  0
    1.9963   -1.8459   -4.2140 H   0  0  0  0  0  0  0  0  0  0  0  0
    3.4221   -2.2982   -5.1249 H   0  0  0  0  0  0  0  0  0  0  0  0
    3.4491   -1.6872   -2.2558 H   0  0  0  0  0  0  0  0  0  0  0  0
    3.1451   -3.3363   -2.8549 H   0  0  0  0  0  0  0  0  0  0  0  0
    6.6393   -3.6905   -2.5635 H   0  0  0  0  0  0  0  0  0  0  0  0
    6.5006   -4.7093   -0.3034 H   0  0  0  0  0  0  0  0  0  0  0  0
    6.9135   -7.3798    1.4414 H   0  0  0  0  0  0  0  0  0  0  0  0
    5.2963   -8.0914    1.5216 H   0  0  0  0  0  0  0  0  0  0  0  0
    6.0581   -7.4519    2.9846 H   0  0  0  0  0  0  0  0  0  0  0  0
    3.4013   -6.7985    2.1797 H   0  0  0  0  0  0  0  0  0  0  0  0
    4.0283   -5.6741    3.3747 H   0  0  0  0  0  0  0  0  0  0  0  0
    2.7459   -5.0437    0.6475 H   0  0  0  0  0  0  0  0  0  0  0  0
    2.1300   -4.7835    2.2657 H   0  0  0  0  0  0  0  0  0  0  0  0
    4.1153   -3.3421    2.7177 H   0  0  0  0  0  0  0  0  0  0  0  0
    2.3691   -2.1720    0.6105 H   0  0  0  0  0  0  0  0  0  0  0  0
    2.1725   -2.2480    3.6445 H   0  0  0  0  0  0  0  0  0  0  0  0
    1.0215   -2.9360    2.5141 H   0  0  0  0  0  0  0  0  0  0  0  0
    1.1953   -1.2001    2.6228 H   0  0  0  0  0  0  0  0  0  0  0  0
    3.0970   -0.0110    1.4395 H   0  0  0  0  0  0  0  0  0  0  0  0
    4.0002   -0.7187    2.7515 H   0  0  0  0  0  0  0  0  0  0  0  0
    4.9999    0.0472    0.2250 H   0  0  0  0  0  0  0  0  0  0  0  0
    5.8926   -0.7061    1.5148 H   0  0  0  0  0  0  0  0  0  0  0  0
    4.2020   -2.0980   -0.5352 H   0  0  0  0  0  0  0  0  0  0  0  0
    6.0890   -1.1710   -1.6706 H   0  0  0  0  0  0  0  0  0  0  0  0
    7.8455   -3.1159   -0.0053 H   0  0  0  0  0  0  0  0  0  0  0  0
    7.9042   -1.3866    0.0403 H   0  0  0  0  0  0  0  0  0  0  0  0
    8.3958   -2.2372   -1.4043 H   0  0  0  0  0  0  0  0  0  0  0  0
  1  2  1  0
  1 25  1  0
  1 26  1  0
  1 27  1  0
  2  3  1  0
  3  4  1  0
  3 28  1  0
  3 29  1  0
  4  5  1  0
  4 30  1  0
  4 31  1  0
  5  6  1  0
  6 20  1  0
  6  7  1  0
  6 32  1  6
  7  8  1  0
  8 22  1  0
  8  9  1  0
  8 33  1  6
  9 10  1  0
 10 24  1  0
 10 11  1  6
 10 12  1  0
 11 34  1  0
 11 35  1  0
 11 36  1  0
 12 13  1  0
 12 37  1  0
 12 38  1  0
 13 14  1  0
 13 39  1  0
 13 40  1  0
 14 22  1  0
 14 15  1  0
 14 41  1  1
 15 16  1  0
 15 17  1  0
 15 42  1  6
 16 43  1  0
 16 44  1  0
 16 45  1  0
 17 18  1  0
 17 46  1  0
 17 47  1  0
 18 19  1  0
 18 48  1  0
 18 49  1  0
 19 20  1  0
 19 22  1  0
 19 50  1  6
 20 21  1  0
 20 51  1  6
 21 52  1  0
 21 53  1  0
 21 54  1  0
 22 23  1  1
 23 24  1  0
M  END
>  <i_m_ct_stereo_status>  (64) 
1

>  <s_m_source_file>  (64) 
/var/tmp/pbs.5076255.sched01/tmp14hj8t9c/0766azy0n.sdf

>  <i_m_source_file_index>  (64) 
26

>  <i_lp_mmshare_version>  (64) 
48012

>  <i_f3d_flags>  (64) 
0

>  <s_epik_input>  (64) 
W0NIM11PW0NIMl1bQ0gyXU9bQ0BIXShPW0NASF0xW0NAXTIzNClbQ0BIXShbQ0gzXSlbQ0BASF0zW0NIMl1bQ0gyXVtDQEhdKFtDSDNdKVtDQEhdMltDSDJdW0NIMl1bQ0BdKE8xKShbQ0gzXSlPTzQ=

>  <s_epik_cmdline>  (64) 
J2VwaWtfcHl0aG9uJywgJy1waHQnLCAnMi4wJywgJy1waCcsICc3LjAnLCAnLXRuJywgJzgnLCAnLW1hJywgJzIwMCcsICctaW1hZScsICc8aW5maWxlLm1hZT4nLCAnLW9tYWUnLCAnPG91dGZpbGUubWFlPic=

>  <r_lp_tautomer_probability>  (64) 
1

>  <r_epik_Ionization_Penalty>  (64) 
6.36137e-12

>  <r_epik_Ionization_Penalty_Charging>  (64) 
0

>  <r_epik_Ionization_Penalty_Neutral>  (64) 
6.36137e-12

>  <r_epik_State_Penalty>  (64) 
-0

>  <r_epik_Charging_Adjusted_Penalty>  (64) 
0

>  <i_epik_Tot_Q>  (64) 
0

>  <i_epik_Tot_abs_Q>  (64) 
0

>  <s_epik_Chemistry_Notes>  (64) 
This compound contains an acetal/aminal-like group ( X-CH(R)-Y where X, Y are N, S, or O) that may be acid/base labile, releasing an aldehyde.

>  <s_lp_Force_Field>  (64) 
OPLS3e

>  <r_lp_Energy>  (64) 
67.8875

>  <b_lp_Chiralities_Consistent>  (64) 
1

>  <s_lp_Variant>  (64) 
18:0-1

>  <s_i_glide_gridfile>  (64) 
pfpi4k_grid

>  <i_i_glide_lignum>  (64) 
26

>  <i_i_glide_rotatable_bonds>  (64) 
4

>  <r_i_docking_score>  (64) 
-2.79097

>  <r_i_glide_ligand_efficiency>  (64) 
-0.11629

>  <r_i_glide_ligand_efficiency_sa>  (64) 
-0.33544

>  <r_i_glide_ligand_efficiency_ln>  (64) 
-0.668007

>  <r_i_glide_gscore>  (64) 
-2.79097

>  <r_i_glide_lipo>  (64) 
-0.434872

>  <r_i_glide_hbond>  (64) 
0

>  <r_i_glide_metal>  (64) 
-0

>  <r_i_glide_rewards>  (64) 
-1.47005

>  <r_i_glide_evdw>  (64) 
-26.5622

>  <r_i_glide_ecoul>  (64) 
-0.287259

>  <r_i_glide_erotb>  (64) 
0.485151

>  <r_i_glide_esite>  (64) 
0

>  <r_i_glide_emodel>  (64) 
-29.2891

>  <r_i_glide_energy>  (64) 
-26.8495

>  <r_i_glide_einternal>  (64) 
3.08104

>  <r_i_glide_intrahb_reward>  (64) 
-0

>  <i_i_glide_confnum>  (64) 
5

>  <i_i_glide_posenum>  (64) 
2

>  <r_i_glide_eff_state_penalty>  (64) 
0

>  <ligand_id>  (64) 
18

>  <original_smiles>  (64) 
COCCOC1OC2OC3(C)CCC4C(C)CCC(C1C)C24OO3

>  <smiles>  (64) 
[H]C([H])([H])OC([H])([H])C([H])([H])OC1([H])OC2([H])OC3(C([H])([H])[H])OOC24C([H])(C([H])([H])C([H])([H])C([H])(C([H])([H])[H])C4([H])C([H])([H])C3([H])[H])C1([H])C([H])([H])[H]

$$$$
18:0:2
     RDKit          3D

 54 57  0  0  1  0  0  0  0  0999 V2000
    4.0071   -0.4690    1.1596 C   0  0  0  0  0  0  0  0  0  0  0  0
    3.4245   -1.7543    1.0469 O   0  0  0  0  0  0  0  0  0  0  0  0
    3.5828   -2.3230   -0.2414 C   0  0  0  0  0  0  0  0  0  0  0  0
    2.9026   -3.6980   -0.2642 C   0  0  0  0  0  0  0  0  0  0  0  0
    3.5598   -4.6094    0.6052 O   0  0  0  0  0  0  0  0  0  0  0  0
    2.9191   -5.8467    0.7317 C   0  0  2  0  0  0  0  0  0  0  0  0
    1.6494   -5.6578    1.3463 O   0  0  0  0  0  0  0  0  0  0  0  0
    1.1502   -6.8338    1.9124 C   0  0  2  0  0  0  0  0  0  0  0  0
   -0.2251   -6.8726    2.0794 O   0  0  0  0  0  0  0  0  0  0  0  0
   -0.5895   -8.0022    2.8776 C   0  0  2  0  0  0  0  0  0  0  0  0
   -1.8036   -8.6719    2.2441 C   0  0  0  0  0  0  0  0  0  0  0  0
   -1.0001   -7.4131    4.2272 C   0  0  0  0  0  0  0  0  0  0  0  0
   -0.0518   -6.3075    4.6887 C   0  0  0  0  0  0  0  0  0  0  0  0
    1.3871   -6.8345    4.6708 C   0  0  2  0  0  0  0  0  0  0  0  0
    2.4100   -6.0841    5.5746 C   0  0  1  0  0  0  0  0  0  0  0  0
    1.9332   -5.9594    7.0406 C   0  0  0  0  0  0  0  0  0  0  0  0
    3.7950   -6.7832    5.5519 C   0  0  0  0  0  0  0  0  0  0  0  0
    4.3188   -7.1510    4.1450 C   0  0  0  0  0  0  0  0  0  0  0  0
    3.3759   -6.6554    3.0507 C   0  0  1  0  0  0  0  0  0  0  0  0
    3.8549   -6.7742    1.5915 C   0  0  1  0  0  0  0  0  0  0  0  0
    3.9654   -8.2327    1.0381 C   0  0  0  0  0  0  0  0  0  0  0  0
    1.9398   -7.2018    3.2254 C   0  0  2  0  0  0  0  0  0  0  0  0
    1.8562   -8.6115    3.2125 O   0  0  0  0  0  0  0  0  0  0  0  0
    0.3958   -9.0672    2.9602 O   0  0  0  0  0  0  0  0  0  0  0  0
    3.8829   -0.0995    2.1759 H   0  0  0  0  0  0  0  0  0  0  0  0
    3.5211    0.2470    0.4974 H   0  0  0  0  0  0  0  0  0  0  0  0
    5.0737   -0.4941    0.9314 H   0  0  0  0  0  0  0  0  0  0  0  0
    3.1067   -1.6774   -0.9834 H   0  0  0  0  0  0  0  0  0  0  0  0
    4.6354   -2.4085   -0.5108 H   0  0  0  0  0  0  0  0  0  0  0  0
    1.8546   -3.5748    0.0090 H   0  0  0  0  0  0  0  0  0  0  0  0
    2.9223   -4.0943   -1.2794 H   0  0  0  0  0  0  0  0  0  0  0  0
    2.7811   -6.2450   -0.2740 H   0  0  0  0  0  0  0  0  0  0  0  0
    1.3207   -7.6107    1.1524 H   0  0  0  0  0  0  0  0  0  0  0  0
   -1.5472   -9.1082    1.2818 H   0  0  0  0  0  0  0  0  0  0  0  0
   -2.6075   -7.9561    2.0850 H   0  0  0  0  0  0  0  0  0  0  0  0
   -2.1857   -9.4806    2.8704 H   0  0  0  0  0  0  0  0  0  0  0  0
   -1.9900   -6.9638    4.1631 H   0  0  0  0  0  0  0  0  0  0  0  0
   -1.0593   -8.2079    4.9712 H   0  0  0  0  0  0  0  0  0  0  0  0
   -0.1205   -5.4154    4.0613 H   0  0  0  0  0  0  0  0  0  0  0  0
   -0.3901   -6.0247    5.6854 H   0  0  0  0  0  0  0  0  0  0  0  0
    1.3137   -7.7850    5.2074 H   0  0  0  0  0  0  0  0  0  0  0  0
    2.5276   -5.0762    5.1866 H   0  0  0  0  0  0  0  0  0  0  0  0
    1.6818   -6.9380    7.4592 H   0  0  0  0  0  0  0  0  0  0  0  0
    1.0444   -5.3285    7.1455 H   0  0  0  0  0  0  0  0  0  0  0  0
    2.7081   -5.5340    7.6893 H   0  0  0  0  0  0  0  0  0  0  0  0
    4.5261   -6.1443    6.0507 H   0  0  0  0  0  0  0  0  0  0  0  0
    3.7568   -7.6983    6.1474 H   0  0  0  0  0  0  0  0  0  0  0  0
    5.3195   -6.7396    4.0139 H   0  0  0  0  0  0  0  0  0  0  0  0
    4.4322   -8.2327    4.0762 H   0  0  0  0  0  0  0  0  0  0  0  0
    3.3434   -5.5787    3.1949 H   0  0  0  0  0  0  0  0  0  0  0  0
    4.8517   -6.3349    1.5331 H   0  0  0  0  0  0  0  0  0  0  0  0
    2.9992   -8.7566    1.0312 H   0  0  0  0  0  0  0  0  0  0  0  0
    4.6783   -8.8127    1.6325 H   0  0  0  0  0  0  0  0  0  0  0  0
    4.3748   -8.2563    0.0189 H   0  0  0  0  0  0  0  0  0  0  0  0
  1  2  1  0
  1 25  1  0
  1 26  1  0
  1 27  1  0
  2  3  1  0
  3  4  1  0
  3 28  1  0
  3 29  1  0
  4  5  1  0
  4 30  1  0
  4 31  1  0
  5  6  1  0
  6 20  1  0
  6  7  1  0
  6 32  1  6
  7  8  1  0
  8 22  1  0
  8  9  1  0
  8 33  1  6
  9 10  1  0
 10 24  1  0
 10 11  1  6
 10 12  1  0
 11 34  1  0
 11 35  1  0
 11 36  1  0
 12 13  1  0
 12 37  1  0
 12 38  1  0
 13 14  1  0
 13 39  1  0
 13 40  1  0
 14 22  1  0
 14 15  1  0
 14 41  1  1
 15 16  1  0
 15 17  1  0
 15 42  1  6
 16 43  1  0
 16 44  1  0
 16 45  1  0
 17 18  1  0
 17 46  1  0
 17 47  1  0
 18 19  1  0
 18 48  1  0
 18 49  1  0
 19 20  1  0
 19 22  1  0
 19 50  1  1
 20 21  1  0
 20 51  1  1
 21 52  1  0
 21 53  1  0
 21 54  1  0
 22 23  1  1
 23 24  1  0
M  END
>  <i_m_ct_stereo_status>  (65) 
1

>  <s_m_source_file>  (65) 
/var/tmp/pbs.5076255.sched01/tmp14hj8t9c/0766azy0n.sdf

>  <i_m_source_file_index>  (65) 
26

>  <i_lp_mmshare_version>  (65) 
48012

>  <i_f3d_flags>  (65) 
0

>  <s_epik_input>  (65) 
W0NIM11PW0NIMl1bQ0gyXU9bQ0BIXShPW0NASF0xW0NAXTIzNClbQ0BIXShbQ0gzXSlbQ0BASF0zW0NIMl1bQ0gyXVtDQEhdKFtDSDNdKVtDQEhdMltDSDJdW0NIMl1bQ0BdKE8xKShbQ0gzXSlPTzQ=

>  <s_epik_cmdline>  (65) 
J2VwaWtfcHl0aG9uJywgJy1waHQnLCAnMi4wJywgJy1waCcsICc3LjAnLCAnLXRuJywgJzgnLCAnLW1hJywgJzIwMCcsICctaW1hZScsICc8aW5maWxlLm1hZT4nLCAnLW9tYWUnLCAnPG91dGZpbGUubWFlPic=

>  <r_lp_tautomer_probability>  (65) 
1

>  <r_epik_Ionization_Penalty>  (65) 
6.36137e-12

>  <r_epik_Ionization_Penalty_Charging>  (65) 
0

>  <r_epik_Ionization_Penalty_Neutral>  (65) 
6.36137e-12

>  <r_epik_State_Penalty>  (65) 
-0

>  <r_epik_Charging_Adjusted_Penalty>  (65) 
0

>  <i_epik_Tot_Q>  (65) 
0

>  <i_epik_Tot_abs_Q>  (65) 
0

>  <s_epik_Chemistry_Notes>  (65) 
This compound contains an acetal/aminal-like group ( X-CH(R)-Y where X, Y are N, S, or O) that may be acid/base labile, releasing an aldehyde.

>  <s_lp_Force_Field>  (65) 
OPLS3e

>  <r_lp_Energy>  (65) 
67.8875

>  <b_lp_Chiralities_Consistent>  (65) 
1

>  <s_lp_Variant>  (65) 
18:0-1

>  <s_i_glide_gridfile>  (65) 
pfpi4k_grid

>  <i_i_glide_lignum>  (65) 
26

>  <i_i_glide_rotatable_bonds>  (65) 
4

>  <r_i_docking_score>  (65) 
-2.66257

>  <r_i_glide_ligand_efficiency>  (65) 
-0.110941

>  <r_i_glide_ligand_efficiency_sa>  (65) 
-0.320008

>  <r_i_glide_ligand_efficiency_ln>  (65) 
-0.637276

>  <r_i_glide_gscore>  (65) 
-2.66257

>  <r_i_glide_lipo>  (65) 
-0.33571

>  <r_i_glide_hbond>  (65) 
-0.227881

>  <r_i_glide_metal>  (65) 
-0

>  <r_i_glide_rewards>  (65) 
-1.07436

>  <r_i_glide_evdw>  (65) 
-20.3175

>  <r_i_glide_ecoul>  (65) 
-2.44693

>  <r_i_glide_erotb>  (65) 
0.485151

>  <r_i_glide_esite>  (65) 
-0.126862

>  <r_i_glide_emodel>  (65) 
-27.0072

>  <r_i_glide_energy>  (65) 
-22.7644

>  <r_i_glide_einternal>  (65) 
0.257038

>  <r_i_glide_intrahb_reward>  (65) 
-0

>  <i_i_glide_confnum>  (65) 
3

>  <i_i_glide_posenum>  (65) 
18

>  <r_i_glide_eff_state_penalty>  (65) 
0

>  <ligand_id>  (65) 
18

>  <original_smiles>  (65) 
COCCOC1OC2OC3(C)CCC4C(C)CCC(C1C)C24OO3

>  <smiles>  (65) 
[H]C([H])([H])OC([H])([H])C([H])([H])OC1([H])OC2([H])OC3(C([H])([H])[H])OOC24C([H])(C([H])([H])C([H])([H])C([H])(C([H])([H])[H])C4([H])C([H])([H])C3([H])[H])C1([H])C([H])([H])[H]

$$$$
21:0:0
     RDKit          3D

 39 40  0  0  1  0  0  0  0  0999 V2000
    5.1422   -0.2781    1.3715 O   0  0  0  0  0  0  0  0  0  0  0  0
    3.9850   -0.9456    1.8426 C   0  0  2  0  0  0  0  0  0  0  0  0
    3.7107   -2.1193    0.8974 C   0  0  0  0  0  0  0  0  0  0  0  0
    3.4151   -1.6272   -0.4641 N   0  0  0  0  0  0  0  0  0  0  0  0
    3.5676   -2.6226   -1.5462 C   0  0  0  0  0  0  0  0  0  0  0  0
    5.0059   -2.6200   -2.0735 C   0  0  0  0  0  0  0  0  0  0  0  0
    5.1322   -3.5230   -3.3063 C   0  0  0  0  0  0  0  0  0  0  0  0
    4.2142   -3.0957   -4.3073 O   0  0  0  0  0  0  0  0  0  0  0  0
    2.8594   -3.2259   -3.8891 C   0  0  0  0  0  0  0  0  0  0  0  0
    2.6004   -2.3067   -2.6902 C   0  0  0  0  0  0  0  0  0  0  0  0
    2.8042    0.0347    1.9764 C   0  0  0  0  0  0  0  0  0  0  0  0
    1.8317   -0.5316    2.8411 O   0  0  0  0  0  0  0  0  0  0  0  0
    0.7162    0.2285    3.1323 C   0  0  0  0  0  0  0  0  0  0  0  0
    0.4025    1.4663    2.5173 C   0  0  0  0  0  0  0  0  0  0  0  0
   -0.7614    2.1427    2.9296 C   0  0  0  0  0  0  0  0  0  0  0  0
   -1.5687    1.5666    3.9257 C   0  0  0  0  0  0  0  0  0  0  0  0
   -1.2910    0.3844    4.5106 N   0  0  0  0  0  0  0  0  0  0  0  0
   -0.1721   -0.2583    4.1134 C   0  0  0  0  0  0  0  0  0  0  0  0
    5.8900   -0.8482    1.4861 H   0  0  0  0  0  0  0  0  0  0  0  0
    4.2205   -1.3446    2.8280 H   0  0  0  0  0  0  0  0  0  0  0  0
    4.5704   -2.7866    0.8966 H   0  0  0  0  0  0  0  0  0  0  0  0
    2.8687   -2.7088    1.2491 H   0  0  0  0  0  0  0  0  0  0  0  0
    2.4425   -1.3093   -0.4688 H   0  0  0  0  0  0  0  0  0  0  0  0
    3.3131   -3.6161   -1.1759 H   0  0  0  0  0  0  0  0  0  0  0  0
    5.2976   -1.6049   -2.3474 H   0  0  0  0  0  0  0  0  0  0  0  0
    5.7056   -2.9534   -1.3040 H   0  0  0  0  0  0  0  0  0  0  0  0
    6.1436   -3.4623   -3.7039 H   0  0  0  0  0  0  0  0  0  0  0  0
    4.9556   -4.5701   -3.0521 H   0  0  0  0  0  0  0  0  0  0  0  0
    2.1954   -2.9693   -4.7119 H   0  0  0  0  0  0  0  0  0  0  0  0
    2.6231   -4.2525   -3.6460 H   0  0  0  0  0  0  0  0  0  0  0  0
    1.5729   -2.4512   -2.3584 H   0  0  0  0  0  0  0  0  0  0  0  0
    2.6994   -1.2654   -3.0025 H   0  0  0  0  0  0  0  0  0  0  0  0
    3.1572    0.9724    2.4089 H   0  0  0  0  0  0  0  0  0  0  0  0
    2.3696    0.2699    1.0021 H   0  0  0  0  0  0  0  0  0  0  0  0
    1.0206    1.9151    1.7519 H   0  0  0  0  0  0  0  0  0  0  0  0
   -1.0244    3.0891    2.4799 H   0  0  0  0  0  0  0  0  0  0  0  0
   -2.4733    2.0590    4.2539 H   0  0  0  0  0  0  0  0  0  0  0  0
    0.0200   -1.1978    4.6072 H   0  0  0  0  0  0  0  0  0  0  0  0
    4.0208   -0.8298   -0.6386 H   0  0  0  0  0  0  0  0  0  0  0  0
  1  2  1  0
  1 19  1  0
  2  3  1  0
  2 11  1  0
  2 20  1  1
  3  4  1  0
  3 21  1  0
  3 22  1  0
  4  5  1  0
  4 23  1  0
  4 39  1  0
  5 10  1  0
  5  6  1  0
  5 24  1  0
  6  7  1  0
  6 25  1  0
  6 26  1  0
  7  8  1  0
  7 27  1  0
  7 28  1  0
  8  9  1  0
  9 10  1  0
  9 29  1  0
  9 30  1  0
 10 31  1  0
 10 32  1  0
 11 12  1  0
 11 33  1  0
 11 34  1  0
 12 13  1  0
 13 18  1  0
 13 14  2  0
 14 15  1  0
 14 35  1  0
 15 16  2  0
 15 36  1  0
 16 17  1  0
 16 37  1  0
 17 18  2  0
 18 38  1  0
M  CHG  1   4   1
M  END
>  <i_m_ct_stereo_status>  (66) 
1

>  <s_m_source_file>  (66) 
/var/tmp/pbs.5076255.sched01/tmp14hj8t9c/0766azy0n.sdf

>  <i_m_source_file_index>  (66) 
32

>  <i_lp_mmshare_version>  (66) 
48012

>  <i_f3d_flags>  (66) 
0

>  <s_epik_input>  (66) 
W2NIXTFuW2NIXVtjSF1bY0hdYzFPW0NIMl1bQ0BIXShbT0hdKVtDSDJdW05IXVtDSF0yW0NIMl1bQ0gyXU9bQ0gyXVtDSDJdMg==

>  <s_epik_cmdline>  (66) 
J2VwaWtfcHl0aG9uJywgJy1waHQnLCAnMi4wJywgJy1waCcsICc3LjAnLCAnLXRuJywgJzgnLCAnLW1hJywgJzIwMCcsICctaW1hZScsICc8aW5maWxlLm1hZT4nLCAnLW9tYWUnLCAnPG91dGZpbGUubWFlPic=

>  <r_lp_tautomer_probability>  (66) 
1

>  <r_epik_Ionization_Penalty>  (66) 
0.0142961

>  <r_epik_Ionization_Penalty_Charging>  (66) 
0.0123354

>  <r_epik_Ionization_Penalty_Neutral>  (66) 
0.00196067

>  <r_epik_State_Penalty>  (66) 
0.00954303

>  <r_epik_Charging_Adjusted_Penalty>  (66) 
0.0218784

>  <i_epik_Tot_Q>  (66) 
1

>  <i_epik_Tot_abs_Q>  (66) 
1

>  <s_lp_Force_Field>  (66) 
OPLS3e

>  <r_lp_Energy>  (66) 
22.5032

>  <b_lp_Chiralities_Consistent>  (66) 
1

>  <s_lp_Variant>  (66) 
21:0-1

>  <s_i_glide_gridfile>  (66) 
pfpi4k_grid

>  <i_i_glide_lignum>  (66) 
32

>  <i_i_glide_rotatable_bonds>  (66) 
7

>  <r_i_docking_score>  (66) 
-4.25832

>  <r_i_glide_ligand_efficiency>  (66) 
-0.236573

>  <r_i_glide_ligand_efficiency_sa>  (66) 
-0.619997

>  <r_i_glide_ligand_efficiency_ln>  (66) 
-1.09458

>  <r_i_glide_gscore>  (66) 
-4.25832

>  <r_i_glide_lipo>  (66) 
-0.402124

>  <r_i_glide_hbond>  (66) 
-0.514694

>  <r_i_glide_metal>  (66) 
-0

>  <r_i_glide_rewards>  (66) 
-1.68193

>  <r_i_glide_evdw>  (66) 
-21.7157

>  <r_i_glide_ecoul>  (66) 
-10.4583

>  <r_i_glide_erotb>  (66) 
1.09495

>  <r_i_glide_esite>  (66) 
-0.1

>  <r_i_glide_emodel>  (66) 
-42.3317

>  <r_i_glide_energy>  (66) 
-32.174

>  <r_i_glide_einternal>  (66) 
5.02398

>  <r_i_glide_intrahb_reward>  (66) 
-0

>  <i_i_glide_confnum>  (66) 
6

>  <i_i_glide_posenum>  (66) 
4

>  <r_i_glide_eff_state_penalty>  (66) 
0

>  <ligand_id>  (66) 
21

>  <original_smiles>  (66) 
OC(CNC1CCOCC1)COc1cccnc1

>  <smiles>  (66) 
[H]OC([H])(C([H])([H])Oc1c([H])nc([H])c([H])c1[H])C([H])([H])[N+]([H])([H])C1([H])C([H])([H])C([H])([H])OC([H])([H])C1([H])[H]

$$$$
21:0:1
     RDKit          3D

 39 40  0  0  1  0  0  0  0  0999 V2000
   -1.4073    5.1168    2.8960 O   0  0  0  0  0  0  0  0  0  0  0  0
   -1.0990    4.0967    3.8155 C   0  0  2  0  0  0  0  0  0  0  0  0
    0.3389    3.6005    3.6040 C   0  0  0  0  0  0  0  0  0  0  0  0
    0.4239    2.5515    2.5863 N   0  0  0  0  0  0  0  0  0  0  0  0
    1.7013    1.7969    2.4921 C   0  0  0  0  0  0  0  0  0  0  0  0
    1.5234    0.6001    1.5388 C   0  0  0  0  0  0  0  0  0  0  0  0
    2.7803   -0.2869    1.5224 C   0  0  0  0  0  0  0  0  0  0  0  0
    3.0758   -0.7249    2.8413 O   0  0  0  0  0  0  0  0  0  0  0  0
    3.3885    0.3506    3.7096 C   0  0  0  0  0  0  0  0  0  0  0  0
    2.1818    1.2652    3.8557 C   0  0  0  0  0  0  0  0  0  0  0  0
   -2.1567    2.9553    3.7827 C   0  0  0  0  0  0  0  0  0  0  0  0
   -1.7468    1.8689    4.6160 O   0  0  0  0  0  0  0  0  0  0  0  0
   -1.7953    2.0330    5.9792 C   0  0  0  0  0  0  0  0  0  0  0  0
   -2.5642    3.0182    6.6466 C   0  0  0  0  0  0  0  0  0  0  0  0
   -2.5526    3.0782    8.0449 C   0  0  0  0  0  0  0  0  0  0  0  0
   -1.7609    2.1435    8.7505 C   0  0  0  0  0  0  0  0  0  0  0  0
   -1.0407    1.1845    8.1358 N   0  0  0  0  0  0  0  0  0  0  0  0
   -1.0470    1.1407    6.7928 C   0  0  0  0  0  0  0  0  0  0  0  0
   -0.9056    4.9452    2.0909 H   0  0  0  0  0  0  0  0  0  0  0  0
   -1.1108    4.5746    4.8002 H   0  0  0  0  0  0  0  0  0  0  0  0
    1.0305    4.4204    3.3934 H   0  0  0  0  0  0  0  0  0  0  0  0
    0.5847    3.2396    4.5956 H   0  0  0  0  0  0  0  0  0  0  0  0
   -0.3287    1.8794    2.7505 H   0  0  0  0  0  0  0  0  0  0  0  0
    2.4637    2.4668    2.0889 H   0  0  0  0  0  0  0  0  0  0  0  0
    0.6692   -0.0121    1.8412 H   0  0  0  0  0  0  0  0  0  0  0  0
    1.2918    0.9203    0.5219 H   0  0  0  0  0  0  0  0  0  0  0  0
    2.6103   -1.1647    0.8957 H   0  0  0  0  0  0  0  0  0  0  0  0
    3.6346    0.2523    1.1052 H   0  0  0  0  0  0  0  0  0  0  0  0
    3.6505   -0.0366    4.6909 H   0  0  0  0  0  0  0  0  0  0  0  0
    4.2446    0.9193    3.3456 H   0  0  0  0  0  0  0  0  0  0  0  0
    2.5194    2.0617    4.5165 H   0  0  0  0  0  0  0  0  0  0  0  0
    1.3711    0.7275    4.3539 H   0  0  0  0  0  0  0  0  0  0  0  0
   -3.1642    3.3026    4.0084 H   0  0  0  0  0  0  0  0  0  0  0  0
   -2.2334    2.5544    2.7716 H   0  0  0  0  0  0  0  0  0  0  0  0
   -3.1712    3.7332    6.1061 H   0  0  0  0  0  0  0  0  0  0  0  0
   -3.1348    3.8129    8.5830 H   0  0  0  0  0  0  0  0  0  0  0  0
   -1.7435    2.1461    9.8274 H   0  0  0  0  0  0  0  0  0  0  0  0
   -0.4468    0.3658    6.3422 H   0  0  0  0  0  0  0  0  0  0  0  0
    0.2397    3.0558    1.7150 H   0  0  0  0  0  0  0  0  0  0  0  0
  1  2  1  0
  1 19  1  0
  2  3  1  0
  2 11  1  0
  2 20  1  1
  3  4  1  0
  3 21  1  0
  3 22  1  0
  4  5  1  0
  4 23  1  0
  4 39  1  0
  5 10  1  0
  5  6  1  0
  5 24  1  0
  6  7  1  0
  6 25  1  0
  6 26  1  0
  7  8  1  0
  7 27  1  0
  7 28  1  0
  8  9  1  0
  9 10  1  0
  9 29  1  0
  9 30  1  0
 10 31  1  0
 10 32  1  0
 11 12  1  0
 11 33  1  0
 11 34  1  0
 12 13  1  0
 13 18  1  0
 13 14  2  0
 14 15  1  0
 14 35  1  0
 15 16  2  0
 15 36  1  0
 16 17  1  0
 16 37  1  0
 17 18  2  0
 18 38  1  0
M  CHG  1   4   1
M  END
>  <i_m_ct_stereo_status>  (67) 
1

>  <s_m_source_file>  (67) 
/var/tmp/pbs.5076255.sched01/tmp14hj8t9c/0766azy0n.sdf

>  <i_m_source_file_index>  (67) 
32

>  <i_lp_mmshare_version>  (67) 
48012

>  <i_f3d_flags>  (67) 
0

>  <s_epik_input>  (67) 
W2NIXTFuW2NIXVtjSF1bY0hdYzFPW0NIMl1bQ0BIXShbT0hdKVtDSDJdW05IXVtDSF0yW0NIMl1bQ0gyXU9bQ0gyXVtDSDJdMg==

>  <s_epik_cmdline>  (67) 
J2VwaWtfcHl0aG9uJywgJy1waHQnLCAnMi4wJywgJy1waCcsICc3LjAnLCAnLXRuJywgJzgnLCAnLW1hJywgJzIwMCcsICctaW1hZScsICc8aW5maWxlLm1hZT4nLCAnLW9tYWUnLCAnPG91dGZpbGUubWFlPic=

>  <r_lp_tautomer_probability>  (67) 
1

>  <r_epik_Ionization_Penalty>  (67) 
0.0142961

>  <r_epik_Ionization_Penalty_Charging>  (67) 
0.0123354

>  <r_epik_Ionization_Penalty_Neutral>  (67) 
0.00196067

>  <r_epik_State_Penalty>  (67) 
0.00954303

>  <r_epik_Charging_Adjusted_Penalty>  (67) 
0.0218784

>  <i_epik_Tot_Q>  (67) 
1

>  <i_epik_Tot_abs_Q>  (67) 
1

>  <s_lp_Force_Field>  (67) 
OPLS3e

>  <r_lp_Energy>  (67) 
22.5032

>  <b_lp_Chiralities_Consistent>  (67) 
1

>  <s_lp_Variant>  (67) 
21:0-1

>  <s_i_glide_gridfile>  (67) 
pfpi4k_grid

>  <i_i_glide_lignum>  (67) 
32

>  <i_i_glide_rotatable_bonds>  (67) 
7

>  <r_i_docking_score>  (67) 
-4.16785

>  <r_i_glide_ligand_efficiency>  (67) 
-0.231547

>  <r_i_glide_ligand_efficiency_sa>  (67) 
-0.606825

>  <r_i_glide_ligand_efficiency_ln>  (67) 
-1.07132

>  <r_i_glide_gscore>  (67) 
-4.16785

>  <r_i_glide_lipo>  (67) 
-0.226862

>  <r_i_glide_hbond>  (67) 
-0.532508

>  <r_i_glide_metal>  (67) 
-0

>  <r_i_glide_rewards>  (67) 
-1.68193

>  <r_i_glide_evdw>  (67) 
-15.3146

>  <r_i_glide_ecoul>  (67) 
-13.0385

>  <r_i_glide_erotb>  (67) 
1.09495

>  <r_i_glide_esite>  (67) 
-0.1

>  <r_i_glide_emodel>  (67) 
-36.7898

>  <r_i_glide_energy>  (67) 
-28.3531

>  <r_i_glide_einternal>  (67) 
7.04911

>  <r_i_glide_intrahb_reward>  (67) 
-0

>  <i_i_glide_confnum>  (67) 
6

>  <i_i_glide_posenum>  (67) 
18

>  <r_i_glide_eff_state_penalty>  (67) 
0

>  <ligand_id>  (67) 
21

>  <original_smiles>  (67) 
OC(CNC1CCOCC1)COc1cccnc1

>  <smiles>  (67) 
[H]OC([H])(C([H])([H])Oc1c([H])nc([H])c([H])c1[H])C([H])([H])[N+]([H])([H])C1([H])C([H])([H])C([H])([H])OC([H])([H])C1([H])[H]

$$$$
21:0:2
     RDKit          3D

 39 40  0  0  1  0  0  0  0  0999 V2000
    1.8162    2.8601    2.0735 O   0  0  0  0  0  0  0  0  0  0  0  0
    1.2522    1.7670    2.7458 C   0  0  2  0  0  0  0  0  0  0  0  0
    2.1927    0.5493    2.6588 C   0  0  0  0  0  0  0  0  0  0  0  0
    2.4331    0.1564    1.2859 N   0  0  0  0  0  0  0  0  0  0  0  0
    3.4030   -0.9481    1.0968 C   0  0  0  0  0  0  0  0  0  0  0  0
    3.8882   -1.0041   -0.3620 C   0  0  0  0  0  0  0  0  0  0  0  0
    4.7560   -2.2400   -0.6117 C   0  0  0  0  0  0  0  0  0  0  0  0
    4.0299   -3.4049   -0.2514 O   0  0  0  0  0  0  0  0  0  0  0  0
    3.7098   -3.4533    1.1305 C   0  0  0  0  0  0  0  0  0  0  0  0
    2.7715   -2.2951    1.4820 C   0  0  0  0  0  0  0  0  0  0  0  0
   -0.1642    1.4787    2.2066 C   0  0  0  0  0  0  0  0  0  0  0  0
   -0.8745    0.6174    3.0854 O   0  0  0  0  0  0  0  0  0  0  0  0
   -1.2826    1.1152    4.2992 C   0  0  0  0  0  0  0  0  0  0  0  0
   -1.2165    2.4821    4.6857 C   0  0  0  0  0  0  0  0  0  0  0  0
   -1.6210    2.8479    5.9812 C   0  0  0  0  0  0  0  0  0  0  0  0
   -2.1039    1.8392    6.8427 C   0  0  0  0  0  0  0  0  0  0  0  0
   -2.1802    0.5431    6.4846 N   0  0  0  0  0  0  0  0  0  0  0  0
   -1.7878    0.2009    5.2485 C   0  0  0  0  0  0  0  0  0  0  0  0
    1.1303    3.4415    1.7105 H   0  0  0  0  0  0  0  0  0  0  0  0
    1.2379    2.0613    3.7955 H   0  0  0  0  0  0  0  0  0  0  0  0
    3.1356    0.7944    3.1665 H   0  0  0  0  0  0  0  0  0  0  0  0
    1.7454   -0.2766    3.2313 H   0  0  0  0  0  0  0  0  0  0  0  0
    1.5778   -0.1103    0.7913 H   0  0  0  0  0  0  0  0  0  0  0  0
    4.2757   -0.7670    1.7295 H   0  0  0  0  0  0  0  0  0  0  0  0
    3.0350   -1.0412   -1.0393 H   0  0  0  0  0  0  0  0  0  0  0  0
    4.4512   -0.1013   -0.6012 H   0  0  0  0  0  0  0  0  0  0  0  0
    5.0128   -2.2929   -1.6694 H   0  0  0  0  0  0  0  0  0  0  0  0
    5.6891   -2.1824   -0.0501 H   0  0  0  0  0  0  0  0  0  0  0  0
    3.2134   -4.4006    1.3407 H   0  0  0  0  0  0  0  0  0  0  0  0
    4.6182   -3.4207    1.7340 H   0  0  0  0  0  0  0  0  0  0  0  0
    2.5363   -2.3325    2.5472 H   0  0  0  0  0  0  0  0  0  0  0  0
    1.8273   -2.4148    0.9467 H   0  0  0  0  0  0  0  0  0  0  0  0
   -0.7284    2.3915    2.0255 H   0  0  0  0  0  0  0  0  0  0  0  0
   -0.0980    0.9850    1.2360 H   0  0  0  0  0  0  0  0  0  0  0  0
   -0.8355    3.2458    4.0299 H   0  0  0  0  0  0  0  0  0  0  0  0
   -1.5480    3.8676    6.3163 H   0  0  0  0  0  0  0  0  0  0  0  0
   -2.4244    2.0855    7.8416 H   0  0  0  0  0  0  0  0  0  0  0  0
   -1.8656   -0.8466    4.9985 H   0  0  0  0  0  0  0  0  0  0  0  0
    2.7914    0.9863    0.8327 H   0  0  0  0  0  0  0  0  0  0  0  0
  1  2  1  0
  1 19  1  0
  2  3  1  0
  2 11  1  0
  2 20  1  1
  3  4  1  0
  3 21  1  0
  3 22  1  0
  4  5  1  0
  4 23  1  0
  4 39  1  0
  5 10  1  0
  5  6  1  0
  5 24  1  0
  6  7  1  0
  6 25  1  0
  6 26  1  0
  7  8  1  0
  7 27  1  0
  7 28  1  0
  8  9  1  0
  9 10  1  0
  9 29  1  0
  9 30  1  0
 10 31  1  0
 10 32  1  0
 11 12  1  0
 11 33  1  0
 11 34  1  0
 12 13  1  0
 13 18  1  0
 13 14  2  0
 14 15  1  0
 14 35  1  0
 15 16  2  0
 15 36  1  0
 16 17  1  0
 16 37  1  0
 17 18  2  0
 18 38  1  0
M  CHG  1   4   1
M  END
>  <i_m_ct_stereo_status>  (68) 
1

>  <s_m_source_file>  (68) 
/var/tmp/pbs.5076255.sched01/tmp14hj8t9c/0766azy0n.sdf

>  <i_m_source_file_index>  (68) 
32

>  <i_lp_mmshare_version>  (68) 
48012

>  <i_f3d_flags>  (68) 
0

>  <s_epik_input>  (68) 
W2NIXTFuW2NIXVtjSF1bY0hdYzFPW0NIMl1bQ0BIXShbT0hdKVtDSDJdW05IXVtDSF0yW0NIMl1bQ0gyXU9bQ0gyXVtDSDJdMg==

>  <s_epik_cmdline>  (68) 
J2VwaWtfcHl0aG9uJywgJy1waHQnLCAnMi4wJywgJy1waCcsICc3LjAnLCAnLXRuJywgJzgnLCAnLW1hJywgJzIwMCcsICctaW1hZScsICc8aW5maWxlLm1hZT4nLCAnLW9tYWUnLCAnPG91dGZpbGUubWFlPic=

>  <r_lp_tautomer_probability>  (68) 
1

>  <r_epik_Ionization_Penalty>  (68) 
0.0142961

>  <r_epik_Ionization_Penalty_Charging>  (68) 
0.0123354

>  <r_epik_Ionization_Penalty_Neutral>  (68) 
0.00196067

>  <r_epik_State_Penalty>  (68) 
0.00954303

>  <r_epik_Charging_Adjusted_Penalty>  (68) 
0.0218784

>  <i_epik_Tot_Q>  (68) 
1

>  <i_epik_Tot_abs_Q>  (68) 
1

>  <s_lp_Force_Field>  (68) 
OPLS3e

>  <r_lp_Energy>  (68) 
22.5032

>  <b_lp_Chiralities_Consistent>  (68) 
1

>  <s_lp_Variant>  (68) 
21:0-1

>  <s_i_glide_gridfile>  (68) 
pfpi4k_grid

>  <i_i_glide_lignum>  (68) 
32

>  <i_i_glide_rotatable_bonds>  (68) 
7

>  <r_i_docking_score>  (68) 
-3.62457

>  <r_i_glide_ligand_efficiency>  (68) 
-0.201365

>  <r_i_glide_ligand_efficiency_sa>  (68) 
-0.527726

>  <r_i_glide_ligand_efficiency_ln>  (68) 
-0.931678

>  <r_i_glide_gscore>  (68) 
-3.62457

>  <r_i_glide_lipo>  (68) 
-0.0426655

>  <r_i_glide_hbond>  (68) 
-0.519326

>  <r_i_glide_metal>  (68) 
-0

>  <r_i_glide_rewards>  (68) 
-1.68193

>  <r_i_glide_evdw>  (68) 
-15.9155

>  <r_i_glide_ecoul>  (68) 
-10.8904

>  <r_i_glide_erotb>  (68) 
1.09495

>  <r_i_glide_esite>  (68) 
-0.0462759

>  <r_i_glide_emodel>  (68) 
-35.2761

>  <r_i_glide_energy>  (68) 
-26.8059

>  <r_i_glide_einternal>  (68) 
3.97977

>  <r_i_glide_intrahb_reward>  (68) 
-0

>  <i_i_glide_confnum>  (68) 
6

>  <i_i_glide_posenum>  (68) 
3

>  <r_i_glide_eff_state_penalty>  (68) 
0

>  <ligand_id>  (68) 
21

>  <original_smiles>  (68) 
OC(CNC1CCOCC1)COc1cccnc1

>  <smiles>  (68) 
[H]OC([H])(C([H])([H])Oc1c([H])nc([H])c([H])c1[H])C([H])([H])[N+]([H])([H])C1([H])C([H])([H])C([H])([H])OC([H])([H])C1([H])[H]

$$$$
21:1:0
     RDKit          3D

 38 39  0  0  1  0  0  0  0  0999 V2000
   -1.7896    4.6117    2.8772 O   0  0  0  0  0  0  0  0  0  0  0  0
   -1.8703    3.2368    3.2299 C   0  0  2  0  0  0  0  0  0  0  0  0
   -2.1839    3.1200    4.7185 C   0  0  0  0  0  0  0  0  0  0  0  0
   -1.2618    3.9121    5.5500 N   0  0  0  0  0  0  0  0  0  0  0  0
   -1.0658    3.4260    6.9258 C   0  0  0  0  0  0  0  0  0  0  0  0
   -0.1646    2.1764    6.9485 C   0  0  0  0  0  0  0  0  0  0  0  0
   -0.0717    1.6134    8.3726 C   0  0  0  0  0  0  0  0  0  0  0  0
   -1.3818    1.3458    8.8544 O   0  0  0  0  0  0  0  0  0  0  0  0
   -2.1640    2.5293    9.0186 C   0  0  0  0  0  0  0  0  0  0  0  0
   -2.4056    3.1553    7.6432 C   0  0  0  0  0  0  0  0  0  0  0  0
   -0.5785    2.5048    2.8442 C   0  0  0  0  0  0  0  0  0  0  0  0
   -0.4986    1.1596    3.3173 O   0  0  0  0  0  0  0  0  0  0  0  0
    0.6243    0.4617    2.8940 C   0  0  0  0  0  0  0  0  0  0  0  0
    1.6413    0.9599    2.0291 C   0  0  0  0  0  0  0  0  0  0  0  0
    2.7134    0.1261    1.6728 C   0  0  0  0  0  0  0  0  0  0  0  0
    2.7361   -1.1852    2.1711 C   0  0  0  0  0  0  0  0  0  0  0  0
    1.7954   -1.6811    2.9934 N   0  0  0  0  0  0  0  0  0  0  0  0
    0.7719   -0.8743    3.3408 C   0  0  0  0  0  0  0  0  0  0  0  0
   -1.2012    4.6582    2.1262 H   0  0  0  0  0  0  0  0  0  0  0  0
   -2.6877    2.7735    2.6724 H   0  0  0  0  0  0  0  0  0  0  0  0
   -3.2212    3.3991    4.9118 H   0  0  0  0  0  0  0  0  0  0  0  0
   -2.1054    2.0608    4.9459 H   0  0  0  0  0  0  0  0  0  0  0  0
   -0.3671    4.0133    5.0841 H   0  0  0  0  0  0  0  0  0  0  0  0
   -0.5470    4.1990    7.4943 H   0  0  0  0  0  0  0  0  0  0  0  0
   -0.5493    1.3787    6.3144 H   0  0  0  0  0  0  0  0  0  0  0  0
    0.8323    2.4177    6.5736 H   0  0  0  0  0  0  0  0  0  0  0  0
    0.4899    0.6791    8.3514 H   0  0  0  0  0  0  0  0  0  0  0  0
    0.4567    2.2964    9.0416 H   0  0  0  0  0  0  0  0  0  0  0  0
   -3.1206    2.2572    9.4618 H   0  0  0  0  0  0  0  0  0  0  0  0
   -1.6766    3.2283    9.6970 H   0  0  0  0  0  0  0  0  0  0  0  0
   -2.9803    4.0773    7.7370 H   0  0  0  0  0  0  0  0  0  0  0  0
   -3.0280    2.4512    7.0927 H   0  0  0  0  0  0  0  0  0  0  0  0
   -0.5644    2.4871    1.7515 H   0  0  0  0  0  0  0  0  0  0  0  0
    0.2902    3.0588    3.2177 H   0  0  0  0  0  0  0  0  0  0  0  0
    1.6357    1.9638    1.6181 H   0  0  0  0  0  0  0  0  0  0  0  0
    3.4723    0.5011    1.0084 H   0  0  0  0  0  0  0  0  0  0  0  0
    3.5405   -1.8413    1.8997 H   0  0  0  0  0  0  0  0  0  0  0  0
    0.0304   -1.3129    3.9990 H   0  0  0  0  0  0  0  0  0  0  0  0
  1  2  1  0
  1 19  1  0
  2  3  1  0
  2 11  1  0
  2 20  1  6
  3  4  1  0
  3 21  1  0
  3 22  1  0
  4  5  1  0
  4 23  1  0
  5 10  1  0
  5  6  1  0
  5 24  1  0
  6  7  1  0
  6 25  1  0
  6 26  1  0
  7  8  1  0
  7 27  1  0
  7 28  1  0
  8  9  1  0
  9 10  1  0
  9 29  1  0
  9 30  1  0
 10 31  1  0
 10 32  1  0
 11 12  1  0
 11 33  1  0
 11 34  1  0
 12 13  1  0
 13 18  1  0
 13 14  2  0
 14 15  1  0
 14 35  1  0
 15 16  2  0
 15 36  1  0
 16 17  1  0
 16 37  1  0
 17 18  2  0
 18 38  1  0
M  END
>  <i_m_ct_stereo_status>  (69) 
1

>  <s_m_source_file>  (69) 
/var/tmp/pbs.5076255.sched01/tmp14hj8t9c/0766azy0n.sdf

>  <i_m_source_file_index>  (69) 
33

>  <i_lp_mmshare_version>  (69) 
48012

>  <i_f3d_flags>  (69) 
0

>  <s_epik_input>  (69) 
W2NIXTFuW2NIXVtjSF1bY0hdYzFPW0NIMl1bQ0BIXShbT0hdKVtDSDJdW05IXVtDSF0yW0NIMl1bQ0gyXU9bQ0gyXVtDSDJdMg==

>  <s_epik_cmdline>  (69) 
J2VwaWtfcHl0aG9uJywgJy1waHQnLCAnMi4wJywgJy1waCcsICc3LjAnLCAnLXRuJywgJzgnLCAnLW1hJywgJzIwMCcsICctaW1hZScsICc8aW5maWxlLm1hZT4nLCAnLW9tYWUnLCAnPG91dGZpbGUubWFlPic=

>  <r_lp_tautomer_probability>  (69) 
1

>  <r_epik_Ionization_Penalty>  (69) 
2.30265

>  <r_epik_Ionization_Penalty_Charging>  (69) 
0

>  <r_epik_Ionization_Penalty_Neutral>  (69) 
2.30265

>  <r_epik_State_Penalty>  (69) 
2.45085

>  <r_epik_Charging_Adjusted_Penalty>  (69) 
2.45085

>  <i_epik_Tot_Q>  (69) 
0

>  <i_epik_Tot_abs_Q>  (69) 
0

>  <s_lp_Force_Field>  (69) 
OPLS3e

>  <r_lp_Energy>  (69) 
32.6448

>  <b_lp_Chiralities_Consistent>  (69) 
1

>  <s_lp_Variant>  (69) 
21:0-2

>  <s_i_glide_gridfile>  (69) 
pfpi4k_grid

>  <i_i_glide_lignum>  (69) 
33

>  <i_i_glide_rotatable_bonds>  (69) 
7

>  <r_i_docking_score>  (69) 
-3.02571

>  <r_i_glide_ligand_efficiency>  (69) 
-0.168095

>  <r_i_glide_ligand_efficiency_sa>  (69) 
-0.440533

>  <r_i_glide_ligand_efficiency_ln>  (69) 
-0.777742

>  <r_i_glide_gscore>  (69) 
-3.02571

>  <r_i_glide_lipo>  (69) 
-0.104097

>  <r_i_glide_hbond>  (69) 
-0.295377

>  <r_i_glide_metal>  (69) 
-0

>  <r_i_glide_rewards>  (69) 
-1.6888

>  <r_i_glide_evdw>  (69) 
-17.6128

>  <r_i_glide_ecoul>  (69) 
-7.72847

>  <r_i_glide_erotb>  (69) 
1.10247

>  <r_i_glide_esite>  (69) 
0

>  <r_i_glide_emodel>  (69) 
-21.9864

>  <r_i_glide_energy>  (69) 
-25.3412

>  <r_i_glide_einternal>  (69) 
17.2925

>  <r_i_glide_intrahb_reward>  (69) 
-0

>  <i_i_glide_confnum>  (69) 
2

>  <i_i_glide_posenum>  (69) 
23

>  <r_i_glide_eff_state_penalty>  (69) 
0

>  <ligand_id>  (69) 
21

>  <original_smiles>  (69) 
OC(CNC1CCOCC1)COc1cccnc1

>  <smiles>  (69) 
[H]OC([H])(C([H])([H])Oc1c([H])nc([H])c([H])c1[H])C([H])([H])N([H])C1([H])C([H])([H])C([H])([H])OC([H])([H])C1([H])[H]

$$$$
21:1:1
     RDKit          3D

 38 39  0  0  1  0  0  0  0  0999 V2000
   -1.4032    4.4595    2.9644 O   0  0  0  0  0  0  0  0  0  0  0  0
   -1.4277    3.1956    3.5912 C   0  0  2  0  0  0  0  0  0  0  0  0
   -1.7011    3.4896    5.0636 C   0  0  0  0  0  0  0  0  0  0  0  0
   -1.7749    2.2587    5.8479 N   0  0  0  0  0  0  0  0  0  0  0  0
   -1.8819    2.4041    7.3086 C   0  0  0  0  0  0  0  0  0  0  0  0
   -3.2271    3.0164    7.6965 C   0  0  0  0  0  0  0  0  0  0  0  0
   -3.2825    3.2940    9.2028 C   0  0  0  0  0  0  0  0  0  0  0  0
   -2.1825    4.1178    9.5712 O   0  0  0  0  0  0  0  0  0  0  0  0
   -0.9239    3.4804    9.3917 C   0  0  0  0  0  0  0  0  0  0  0  0
   -0.7177    3.2304    7.8940 C   0  0  0  0  0  0  0  0  0  0  0  0
   -0.0516    2.5500    3.3928 C   0  0  0  0  0  0  0  0  0  0  0  0
   -0.0473    1.1768    3.7684 O   0  0  0  0  0  0  0  0  0  0  0  0
    0.9132    0.3557    3.1954 C   0  0  0  0  0  0  0  0  0  0  0  0
    1.8734    0.7997    2.2366 C   0  0  0  0  0  0  0  0  0  0  0  0
    2.7323   -0.1533    1.6749 C   0  0  0  0  0  0  0  0  0  0  0  0
    2.6399   -1.4813    2.0766 C   0  0  0  0  0  0  0  0  0  0  0  0
    1.7662   -1.9179    3.0178 N   0  0  0  0  0  0  0  0  0  0  0  0
    0.9318   -0.9970    3.5484 C   0  0  0  0  0  0  0  0  0  0  0  0
   -0.8596    4.4084    2.1781 H   0  0  0  0  0  0  0  0  0  0  0  0
   -2.2014    2.5682    3.1330 H   0  0  0  0  0  0  0  0  0  0  0  0
   -0.8969    4.1391    5.3970 H   0  0  0  0  0  0  0  0  0  0  0  0
   -2.6340    4.0490    5.1199 H   0  0  0  0  0  0  0  0  0  0  0  0
   -2.5163    1.6723    5.4906 H   0  0  0  0  0  0  0  0  0  0  0  0
   -1.8391    1.4115    7.7606 H   0  0  0  0  0  0  0  0  0  0  0  0
   -3.3580    3.9653    7.1908 H   0  0  0  0  0  0  0  0  0  0  0  0
   -4.0527    2.3777    7.3899 H   0  0  0  0  0  0  0  0  0  0  0  0
   -4.2105    3.8181    9.4228 H   0  0  0  0  0  0  0  0  0  0  0  0
   -3.2739    2.3717    9.7849 H   0  0  0  0  0  0  0  0  0  0  0  0
   -0.1421    4.1559    9.7368 H   0  0  0  0  0  0  0  0  0  0  0  0
   -0.8589    2.5607    9.9805 H   0  0  0  0  0  0  0  0  0  0  0  0
    0.2355    2.7284    7.7145 H   0  0  0  0  0  0  0  0  0  0  0  0
   -0.6502    4.2205    7.4496 H   0  0  0  0  0  0  0  0  0  0  0  0
    0.1443    2.6422    2.3328 H   0  0  0  0  0  0  0  0  0  0  0  0
    0.7345    3.0853    3.9481 H   0  0  0  0  0  0  0  0  0  0  0  0
    1.9558    1.8306    1.9130 H   0  0  0  0  0  0  0  0  0  0  0  0
    3.4281    0.1614    0.9104 H   0  0  0  0  0  0  0  0  0  0  0  0
    3.2953   -2.2325    1.6589 H   0  0  0  0  0  0  0  0  0  0  0  0
    0.2347   -1.3892    4.2952 H   0  0  0  0  0  0  0  0  0  0  0  0
  1  2  1  0
  1 19  1  0
  2  3  1  0
  2 11  1  0
  2 20  1  6
  3  4  1  0
  3 21  1  0
  3 22  1  0
  4  5  1  0
  4 23  1  0
  5 10  1  0
  5  6  1  0
  5 24  1  0
  6  7  1  0
  6 25  1  0
  6 26  1  0
  7  8  1  0
  7 27  1  0
  7 28  1  0
  8  9  1  0
  9 10  1  0
  9 29  1  0
  9 30  1  0
 10 31  1  0
 10 32  1  0
 11 12  1  0
 11 33  1  0
 11 34  1  0
 12 13  1  0
 13 18  1  0
 13 14  2  0
 14 15  1  0
 14 35  1  0
 15 16  2  0
 15 36  1  0
 16 17  1  0
 16 37  1  0
 17 18  2  0
 18 38  1  0
M  END
>  <i_m_ct_stereo_status>  (70) 
1

>  <s_m_source_file>  (70) 
/var/tmp/pbs.5076255.sched01/tmp14hj8t9c/0766azy0n.sdf

>  <i_m_source_file_index>  (70) 
33

>  <i_lp_mmshare_version>  (70) 
48012

>  <i_f3d_flags>  (70) 
0

>  <s_epik_input>  (70) 
W2NIXTFuW2NIXVtjSF1bY0hdYzFPW0NIMl1bQ0BIXShbT0hdKVtDSDJdW05IXVtDSF0yW0NIMl1bQ0gyXU9bQ0gyXVtDSDJdMg==

>  <s_epik_cmdline>  (70) 
J2VwaWtfcHl0aG9uJywgJy1waHQnLCAnMi4wJywgJy1waCcsICc3LjAnLCAnLXRuJywgJzgnLCAnLW1hJywgJzIwMCcsICctaW1hZScsICc8aW5maWxlLm1hZT4nLCAnLW9tYWUnLCAnPG91dGZpbGUubWFlPic=

>  <r_lp_tautomer_probability>  (70) 
1

>  <r_epik_Ionization_Penalty>  (70) 
2.30265

>  <r_epik_Ionization_Penalty_Charging>  (70) 
0

>  <r_epik_Ionization_Penalty_Neutral>  (70) 
2.30265

>  <r_epik_State_Penalty>  (70) 
2.45085

>  <r_epik_Charging_Adjusted_Penalty>  (70) 
2.45085

>  <i_epik_Tot_Q>  (70) 
0

>  <i_epik_Tot_abs_Q>  (70) 
0

>  <s_lp_Force_Field>  (70) 
OPLS3e

>  <r_lp_Energy>  (70) 
32.6448

>  <b_lp_Chiralities_Consistent>  (70) 
1

>  <s_lp_Variant>  (70) 
21:0-2

>  <s_i_glide_gridfile>  (70) 
pfpi4k_grid

>  <i_i_glide_lignum>  (70) 
33

>  <i_i_glide_rotatable_bonds>  (70) 
7

>  <r_i_docking_score>  (70) 
-2.42494

>  <r_i_glide_ligand_efficiency>  (70) 
-0.134719

>  <r_i_glide_ligand_efficiency_sa>  (70) 
-0.353063

>  <r_i_glide_ligand_efficiency_ln>  (70) 
-0.623318

>  <r_i_glide_gscore>  (70) 
-2.42494

>  <r_i_glide_lipo>  (70) 
-0.114043

>  <r_i_glide_hbond>  (70) 
-0.201065

>  <r_i_glide_metal>  (70) 
-0

>  <r_i_glide_rewards>  (70) 
-1.6888

>  <r_i_glide_evdw>  (70) 
-16.5408

>  <r_i_glide_ecoul>  (70) 
-4.64311

>  <r_i_glide_erotb>  (70) 
1.10247

>  <r_i_glide_esite>  (70) 
0

>  <r_i_glide_emodel>  (70) 
-21.4084

>  <r_i_glide_energy>  (70) 
-21.1839

>  <r_i_glide_einternal>  (70) 
8.02099

>  <r_i_glide_intrahb_reward>  (70) 
-0

>  <i_i_glide_confnum>  (70) 
2

>  <i_i_glide_posenum>  (70) 
16

>  <r_i_glide_eff_state_penalty>  (70) 
0

>  <ligand_id>  (70) 
21

>  <original_smiles>  (70) 
OC(CNC1CCOCC1)COc1cccnc1

>  <smiles>  (70) 
[H]OC([H])(C([H])([H])Oc1c([H])nc([H])c([H])c1[H])C([H])([H])N([H])C1([H])C([H])([H])C([H])([H])OC([H])([H])C1([H])[H]

$$$$
21:1:2
     RDKit          3D

 38 39  0  0  1  0  0  0  0  0999 V2000
    1.8646   -1.2489    1.6819 O   0  0  0  0  0  0  0  0  0  0  0  0
    1.1591   -0.8728    2.8499 C   0  0  2  0  0  0  0  0  0  0  0  0
    0.9412    0.6419    2.7437 C   0  0  0  0  0  0  0  0  0  0  0  0
    0.2040    1.1333    3.9036 N   0  0  0  0  0  0  0  0  0  0  0  0
    0.0392    2.5917    3.9747 C   0  0  0  0  0  0  0  0  0  0  0  0
   -0.1998    3.0196    5.4285 C   0  0  0  0  0  0  0  0  0  0  0  0
   -1.6111    2.6372    5.9010 C   0  0  0  0  0  0  0  0  0  0  0  0
   -2.5785    3.2110    5.0291 O   0  0  0  0  0  0  0  0  0  0  0  0
   -2.4840    2.7153    3.6975 C   0  0  0  0  0  0  0  0  0  0  0  0
   -1.1214    3.0829    3.0906 C   0  0  0  0  0  0  0  0  0  0  0  0
    2.0182   -1.2696    4.0691 C   0  0  0  0  0  0  0  0  0  0  0  0
    1.9153   -2.6680    4.3278 O   0  0  0  0  0  0  0  0  0  0  0  0
    0.9173   -3.1635    5.1506 C   0  0  0  0  0  0  0  0  0  0  0  0
    0.9078   -4.5530    5.3869 C   0  0  0  0  0  0  0  0  0  0  0  0
   -0.0477   -5.1098    6.2555 C   0  0  0  0  0  0  0  0  0  0  0  0
   -0.9671   -4.2485    6.8756 C   0  0  0  0  0  0  0  0  0  0  0  0
   -0.9928   -2.9176    6.6494 N   0  0  0  0  0  0  0  0  0  0  0  0
   -0.0790   -2.3919    5.8012 C   0  0  0  0  0  0  0  0  0  0  0  0
    1.3752   -1.0444    0.8952 H   0  0  0  0  0  0  0  0  0  0  0  0
    0.2056   -1.3908    2.8776 H   0  0  0  0  0  0  0  0  0  0  0  0
    1.9099    1.1372    2.6789 H   0  0  0  0  0  0  0  0  0  0  0  0
    0.4043    0.8884    1.8281 H   0  0  0  0  0  0  0  0  0  0  0  0
   -0.7229    0.7253    3.8841 H   0  0  0  0  0  0  0  0  0  0  0  0
    0.9595    3.0784    3.6411 H   0  0  0  0  0  0  0  0  0  0  0  0
    0.5681    2.5988    6.0820 H   0  0  0  0  0  0  0  0  0  0  0  0
   -0.0894    4.1021    5.4824 H   0  0  0  0  0  0  0  0  0  0  0  0
   -1.7236    1.5513    5.9462 H   0  0  0  0  0  0  0  0  0  0  0  0
   -1.7777    3.0158    6.9072 H   0  0  0  0  0  0  0  0  0  0  0  0
   -2.5885    1.6340    3.7066 H   0  0  0  0  0  0  0  0  0  0  0  0
   -3.2982    3.1140    3.0917 H   0  0  0  0  0  0  0  0  0  0  0  0
   -1.0540    4.1667    3.0022 H   0  0  0  0  0  0  0  0  0  0  0  0
   -1.0326    2.6893    2.0819 H   0  0  0  0  0  0  0  0  0  0  0  0
    3.0619   -1.0216    3.8769 H   0  0  0  0  0  0  0  0  0  0  0  0
    1.7856   -0.6860    4.9572 H   0  0  0  0  0  0  0  0  0  0  0  0
    1.6426   -5.1899    4.9069 H   0  0  0  0  0  0  0  0  0  0  0  0
   -0.0704   -6.1769    6.4537 H   0  0  0  0  0  0  0  0  0  0  0  0
   -1.7254   -4.6252    7.5462 H   0  0  0  0  0  0  0  0  0  0  0  0
   -0.1782   -1.3287    5.6756 H   0  0  0  0  0  0  0  0  0  0  0  0
  1  2  1  0
  1 19  1  0
  2  3  1  0
  2 11  1  0
  2 20  1  1
  3  4  1  0
  3 21  1  0
  3 22  1  0
  4  5  1  0
  4 23  1  0
  5 10  1  0
  5  6  1  0
  5 24  1  0
  6  7  1  0
  6 25  1  0
  6 26  1  0
  7  8  1  0
  7 27  1  0
  7 28  1  0
  8  9  1  0
  9 10  1  0
  9 29  1  0
  9 30  1  0
 10 31  1  0
 10 32  1  0
 11 12  1  0
 11 33  1  0
 11 34  1  0
 12 13  1  0
 13 18  1  0
 13 14  2  0
 14 15  1  0
 14 35  1  0
 15 16  2  0
 15 36  1  0
 16 17  1  0
 16 37  1  0
 17 18  2  0
 18 38  1  0
M  END
>  <i_m_ct_stereo_status>  (71) 
1

>  <s_m_source_file>  (71) 
/var/tmp/pbs.5076255.sched01/tmp14hj8t9c/0766azy0n.sdf

>  <i_m_source_file_index>  (71) 
33

>  <i_lp_mmshare_version>  (71) 
48012

>  <i_f3d_flags>  (71) 
0

>  <s_epik_input>  (71) 
W2NIXTFuW2NIXVtjSF1bY0hdYzFPW0NIMl1bQ0BIXShbT0hdKVtDSDJdW05IXVtDSF0yW0NIMl1bQ0gyXU9bQ0gyXVtDSDJdMg==

>  <s_epik_cmdline>  (71) 
J2VwaWtfcHl0aG9uJywgJy1waHQnLCAnMi4wJywgJy1waCcsICc3LjAnLCAnLXRuJywgJzgnLCAnLW1hJywgJzIwMCcsICctaW1hZScsICc8aW5maWxlLm1hZT4nLCAnLW9tYWUnLCAnPG91dGZpbGUubWFlPic=

>  <r_lp_tautomer_probability>  (71) 
1

>  <r_epik_Ionization_Penalty>  (71) 
2.30265

>  <r_epik_Ionization_Penalty_Charging>  (71) 
0

>  <r_epik_Ionization_Penalty_Neutral>  (71) 
2.30265

>  <r_epik_State_Penalty>  (71) 
2.45085

>  <r_epik_Charging_Adjusted_Penalty>  (71) 
2.45085

>  <i_epik_Tot_Q>  (71) 
0

>  <i_epik_Tot_abs_Q>  (71) 
0

>  <s_lp_Force_Field>  (71) 
OPLS3e

>  <r_lp_Energy>  (71) 
32.6448

>  <b_lp_Chiralities_Consistent>  (71) 
1

>  <s_lp_Variant>  (71) 
21:0-2

>  <s_i_glide_gridfile>  (71) 
pfpi4k_grid

>  <i_i_glide_lignum>  (71) 
33

>  <i_i_glide_rotatable_bonds>  (71) 
7

>  <r_i_docking_score>  (71) 
-2.30136

>  <r_i_glide_ligand_efficiency>  (71) 
-0.127853

>  <r_i_glide_ligand_efficiency_sa>  (71) 
-0.33507

>  <r_i_glide_ligand_efficiency_ln>  (71) 
-0.591552

>  <r_i_glide_gscore>  (71) 
-2.30136

>  <r_i_glide_lipo>  (71) 
-0.0468358

>  <r_i_glide_hbond>  (71) 
0

>  <r_i_glide_metal>  (71) 
-0

>  <r_i_glide_rewards>  (71) 
-1.6888

>  <r_i_glide_evdw>  (71) 
-14.8223

>  <r_i_glide_ecoul>  (71) 
-6.18054

>  <r_i_glide_erotb>  (71) 
1.10247

>  <r_i_glide_esite>  (71) 
0

>  <r_i_glide_emodel>  (71) 
-23.3146

>  <r_i_glide_energy>  (71) 
-21.0029

>  <r_i_glide_einternal>  (71) 
4.11885

>  <r_i_glide_intrahb_reward>  (71) 
-0

>  <i_i_glide_confnum>  (71) 
1

>  <i_i_glide_posenum>  (71) 
2

>  <r_i_glide_eff_state_penalty>  (71) 
0

>  <ligand_id>  (71) 
21

>  <original_smiles>  (71) 
OC(CNC1CCOCC1)COc1cccnc1

>  <smiles>  (71) 
[H]OC([H])(C([H])([H])Oc1c([H])nc([H])c([H])c1[H])C([H])([H])N([H])C1([H])C([H])([H])C([H])([H])OC([H])([H])C1([H])[H]

$$$$
22:0:0
     RDKit          3D

 14 15  0  0  1  0  0  0  0  0999 V2000
    5.8138   -1.0567   -0.1463 Cl  0  0  0  0  0  0  0  0  0  0  0  0
    4.4684   -2.1153   -0.3676 C   0  0  0  0  0  0  0  0  0  0  0  0
    4.0475   -2.8881    0.6565 N   0  0  0  0  0  0  0  0  0  0  0  0
    3.0061   -3.6988    0.4726 C   0  0  0  0  0  0  0  0  0  0  0  0
    2.2614   -3.8719   -0.6202 N   0  0  0  0  0  0  0  0  0  0  0  0
    2.7161   -3.1077   -1.6509 C   0  0  0  0  0  0  0  0  0  0  0  0
    2.2201   -3.0559   -2.9351 N   0  0  0  0  0  0  0  0  0  0  0  0
    2.9463   -2.1525   -3.6929 C   0  0  0  0  0  0  0  0  0  0  0  0
    3.9401   -1.6075   -2.9200 C   0  0  0  0  0  0  0  0  0  0  0  0
    3.8152   -2.2053   -1.6188 C   0  0  0  0  0  0  0  0  0  0  0  0
    1.4389   -3.6044   -3.2752 H   0  0  0  0  0  0  0  0  0  0  0  0
    2.7131   -4.2759    1.3353 H   0  0  0  0  0  0  0  0  0  0  0  0
    2.6776   -1.9537   -4.7135 H   0  0  0  0  0  0  0  0  0  0  0  0
    4.6608   -0.8597   -3.2094 H   0  0  0  0  0  0  0  0  0  0  0  0
  1  2  1  0
  2 10  2  0
  2  3  1  0
  3  4  2  0
  4  5  1  0
  4 12  1  0
  5  6  2  0
  6 10  1  0
  6  7  1  0
  7 11  1  0
  7  8  1  0
  8  9  2  0
  8 13  1  0
  9 10  1  0
  9 14  1  0
M  END
>  <i_m_ct_stereo_status>  (72) 
1

>  <s_m_source_file>  (72) 
/var/tmp/pbs.5076255.sched01/tmp14hj8t9c/0766azy0n.sdf

>  <i_m_source_file_index>  (72) 
34

>  <i_lp_mmshare_version>  (72) 
48012

>  <i_f3d_flags>  (72) 
0

>  <s_epik_input>  (72) 
bjFbY0hdbmMoQ2wpYyhjMTIpW2NIXVtjSF1bbkhdMg==

>  <s_epik_cmdline>  (72) 
J2VwaWtfcHl0aG9uJywgJy1waHQnLCAnMi4wJywgJy1waCcsICc3LjAnLCAnLXRuJywgJzgnLCAnLW1hJywgJzIwMCcsICctaW1hZScsICc8aW5maWxlLm1hZT4nLCAnLW9tYWUnLCAnPG91dGZpbGUubWFlPic=

>  <r_lp_tautomer_probability>  (72) 
1

>  <r_epik_Ionization_Penalty>  (72) 
3.31187e-06

>  <r_epik_Ionization_Penalty_Charging>  (72) 
0

>  <r_epik_Ionization_Penalty_Neutral>  (72) 
3.31187e-06

>  <r_epik_State_Penalty>  (72) 
-0

>  <r_epik_Charging_Adjusted_Penalty>  (72) 
0

>  <i_epik_Tot_Q>  (72) 
0

>  <i_epik_Tot_abs_Q>  (72) 
0

>  <s_lp_Force_Field>  (72) 
OPLS3e

>  <r_lp_Energy>  (72) 
13.1956

>  <b_lp_Chiralities_Consistent>  (72) 
1

>  <s_lp_Variant>  (72) 
22:0-1

>  <s_i_glide_gridfile>  (72) 
pfpi4k_grid

>  <i_i_glide_lignum>  (72) 
34

>  <i_i_glide_rotatable_bonds>  (72) 
0

>  <r_i_docking_score>  (72) 
-4.2459

>  <r_i_glide_ligand_efficiency>  (72) 
-0.42459

>  <r_i_glide_ligand_efficiency_sa>  (72) 
-0.914751

>  <r_i_glide_ligand_efficiency_ln>  (72) 
-1.28563

>  <r_i_glide_gscore>  (72) 
-4.2459

>  <r_i_glide_lipo>  (72) 
-0.220372

>  <r_i_glide_hbond>  (72) 
-0.32

>  <r_i_glide_metal>  (72) 
-0

>  <r_i_glide_rewards>  (72) 
-2.30502

>  <r_i_glide_evdw>  (72) 
-15.9881

>  <r_i_glide_ecoul>  (72) 
-3.90869

>  <r_i_glide_erotb>  (72) 
0

>  <r_i_glide_esite>  (72) 
-0.0147964

>  <r_i_glide_emodel>  (72) 
-25.5915

>  <r_i_glide_energy>  (72) 
-19.8968

>  <r_i_glide_einternal>  (72) 
0

>  <r_i_glide_intrahb_reward>  (72) 
-0

>  <i_i_glide_confnum>  (72) 
2

>  <i_i_glide_posenum>  (72) 
37

>  <r_i_glide_eff_state_penalty>  (72) 
0

>  <ligand_id>  (72) 
22

>  <original_smiles>  (72) 
Clc1ncnc2[nH]ccc12

>  <smiles>  (72) 
[H]c1nc(Cl)c2c([H])c([H])n([H])c2n1

$$$$
22:0:1
     RDKit          3D

 14 15  0  0  1  0  0  0  0  0999 V2000
    6.8543   -5.1141    0.8838 Cl  0  0  0  0  0  0  0  0  0  0  0  0
    5.1723   -4.8706    0.5607 C   0  0  0  0  0  0  0  0  0  0  0  0
    4.3027   -5.8899    0.7325 N   0  0  0  0  0  0  0  0  0  0  0  0
    3.0049   -5.6876    0.4949 C   0  0  0  0  0  0  0  0  0  0  0  0
    2.3868   -4.5694    0.1019 N   0  0  0  0  0  0  0  0  0  0  0  0
    3.2754   -3.5505   -0.0805 C   0  0  0  0  0  0  0  0  0  0  0  0
    3.0147   -2.2563   -0.4822 N   0  0  0  0  0  0  0  0  0  0  0  0
    4.1898   -1.5172   -0.5280 C   0  0  0  0  0  0  0  0  0  0  0  0
    5.2379   -2.3198   -0.1579 C   0  0  0  0  0  0  0  0  0  0  0  0
    4.6832   -3.6142    0.1295 C   0  0  0  0  0  0  0  0  0  0  0  0
    2.0914   -1.8461   -0.6929 H   0  0  0  0  0  0  0  0  0  0  0  0
    2.3652   -6.5431    0.6561 H   0  0  0  0  0  0  0  0  0  0  0  0
    4.1798   -0.4734   -0.8140 H   0  0  0  0  0  0  0  0  0  0  0  0
    6.2798   -2.0499   -0.0784 H   0  0  0  0  0  0  0  0  0  0  0  0
  1  2  1  0
  2 10  2  0
  2  3  1  0
  3  4  2  0
  4  5  1  0
  4 12  1  0
  5  6  2  0
  6 10  1  0
  6  7  1  0
  7 11  1  0
  7  8  1  0
  8  9  2  0
  8 13  1  0
  9 10  1  0
  9 14  1  0
M  END
>  <i_m_ct_stereo_status>  (73) 
1

>  <s_m_source_file>  (73) 
/var/tmp/pbs.5076255.sched01/tmp14hj8t9c/0766azy0n.sdf

>  <i_m_source_file_index>  (73) 
34

>  <i_lp_mmshare_version>  (73) 
48012

>  <i_f3d_flags>  (73) 
0

>  <s_epik_input>  (73) 
bjFbY0hdbmMoQ2wpYyhjMTIpW2NIXVtjSF1bbkhdMg==

>  <s_epik_cmdline>  (73) 
J2VwaWtfcHl0aG9uJywgJy1waHQnLCAnMi4wJywgJy1waCcsICc3LjAnLCAnLXRuJywgJzgnLCAnLW1hJywgJzIwMCcsICctaW1hZScsICc8aW5maWxlLm1hZT4nLCAnLW9tYWUnLCAnPG91dGZpbGUubWFlPic=

>  <r_lp_tautomer_probability>  (73) 
1

>  <r_epik_Ionization_Penalty>  (73) 
3.31187e-06

>  <r_epik_Ionization_Penalty_Charging>  (73) 
0

>  <r_epik_Ionization_Penalty_Neutral>  (73) 
3.31187e-06

>  <r_epik_State_Penalty>  (73) 
-0

>  <r_epik_Charging_Adjusted_Penalty>  (73) 
0

>  <i_epik_Tot_Q>  (73) 
0

>  <i_epik_Tot_abs_Q>  (73) 
0

>  <s_lp_Force_Field>  (73) 
OPLS3e

>  <r_lp_Energy>  (73) 
13.1956

>  <b_lp_Chiralities_Consistent>  (73) 
1

>  <s_lp_Variant>  (73) 
22:0-1

>  <s_i_glide_gridfile>  (73) 
pfpi4k_grid

>  <i_i_glide_lignum>  (73) 
34

>  <i_i_glide_rotatable_bonds>  (73) 
0

>  <r_i_docking_score>  (73) 
-4.12401

>  <r_i_glide_ligand_efficiency>  (73) 
-0.412401

>  <r_i_glide_ligand_efficiency_sa>  (73) 
-0.888491

>  <r_i_glide_ligand_efficiency_ln>  (73) 
-1.24872

>  <r_i_glide_gscore>  (73) 
-4.12401

>  <r_i_glide_lipo>  (73) 
-0.211346

>  <r_i_glide_hbond>  (73) 
-0.16

>  <r_i_glide_metal>  (73) 
-0

>  <r_i_glide_rewards>  (73) 
-2.25

>  <r_i_glide_evdw>  (73) 
-10.637

>  <r_i_glide_ecoul>  (73) 
-5.74132

>  <r_i_glide_erotb>  (73) 
0

>  <r_i_glide_esite>  (73) 
-0.109616

>  <r_i_glide_emodel>  (73) 
-21.9019

>  <r_i_glide_energy>  (73) 
-16.3783

>  <r_i_glide_einternal>  (73) 
0

>  <r_i_glide_intrahb_reward>  (73) 
-0

>  <i_i_glide_confnum>  (73) 
2

>  <i_i_glide_posenum>  (73) 
38

>  <r_i_glide_eff_state_penalty>  (73) 
0

>  <ligand_id>  (73) 
22

>  <original_smiles>  (73) 
Clc1ncnc2[nH]ccc12

>  <smiles>  (73) 
[H]c1nc(Cl)c2c([H])c([H])n([H])c2n1

$$$$
22:0:2
     RDKit          3D

 14 15  0  0  1  0  0  0  0  0999 V2000
    7.0073   -2.6567   -1.3221 Cl  0  0  0  0  0  0  0  0  0  0  0  0
    5.3837   -3.1279   -0.9684 C   0  0  0  0  0  0  0  0  0  0  0  0
    5.0858   -3.6994    0.2189 N   0  0  0  0  0  0  0  0  0  0  0  0
    3.8234   -4.0485    0.4794 C   0  0  0  0  0  0  0  0  0  0  0  0
    2.7408   -3.9082   -0.2901 N   0  0  0  0  0  0  0  0  0  0  0  0
    3.0604   -3.3351   -1.4844 C   0  0  0  0  0  0  0  0  0  0  0  0
    2.2141   -3.0558   -2.5310 N   0  0  0  0  0  0  0  0  0  0  0  0
    2.9052   -2.4652   -3.5748 C   0  0  0  0  0  0  0  0  0  0  0  0
    4.2261   -2.3630   -3.2313 C   0  0  0  0  0  0  0  0  0  0  0  0
    4.3511   -2.9148   -1.9088 C   0  0  0  0  0  0  0  0  0  0  0  0
    1.2252   -3.2512   -2.5470 H   0  0  0  0  0  0  0  0  0  0  0  0
    3.6616   -4.5013    1.4476 H   0  0  0  0  0  0  0  0  0  0  0  0
    2.3914   -2.1635   -4.4724 H   0  0  0  0  0  0  0  0  0  0  0  0
    5.0200   -1.9449   -3.8271 H   0  0  0  0  0  0  0  0  0  0  0  0
  1  2  1  0
  2 10  2  0
  2  3  1  0
  3  4  2  0
  4  5  1  0
  4 12  1  0
  5  6  2  0
  6 10  1  0
  6  7  1  0
  7 11  1  0
  7  8  1  0
  8  9  2  0
  8 13  1  0
  9 10  1  0
  9 14  1  0
M  END
>  <i_m_ct_stereo_status>  (74) 
1

>  <s_m_source_file>  (74) 
/var/tmp/pbs.5076255.sched01/tmp14hj8t9c/0766azy0n.sdf

>  <i_m_source_file_index>  (74) 
34

>  <i_lp_mmshare_version>  (74) 
48012

>  <i_f3d_flags>  (74) 
0

>  <s_epik_input>  (74) 
bjFbY0hdbmMoQ2wpYyhjMTIpW2NIXVtjSF1bbkhdMg==

>  <s_epik_cmdline>  (74) 
J2VwaWtfcHl0aG9uJywgJy1waHQnLCAnMi4wJywgJy1waCcsICc3LjAnLCAnLXRuJywgJzgnLCAnLW1hJywgJzIwMCcsICctaW1hZScsICc8aW5maWxlLm1hZT4nLCAnLW9tYWUnLCAnPG91dGZpbGUubWFlPic=

>  <r_lp_tautomer_probability>  (74) 
1

>  <r_epik_Ionization_Penalty>  (74) 
3.31187e-06

>  <r_epik_Ionization_Penalty_Charging>  (74) 
0

>  <r_epik_Ionization_Penalty_Neutral>  (74) 
3.31187e-06

>  <r_epik_State_Penalty>  (74) 
-0

>  <r_epik_Charging_Adjusted_Penalty>  (74) 
0

>  <i_epik_Tot_Q>  (74) 
0

>  <i_epik_Tot_abs_Q>  (74) 
0

>  <s_lp_Force_Field>  (74) 
OPLS3e

>  <r_lp_Energy>  (74) 
13.1956

>  <b_lp_Chiralities_Consistent>  (74) 
1

>  <s_lp_Variant>  (74) 
22:0-1

>  <s_i_glide_gridfile>  (74) 
pfpi4k_grid

>  <i_i_glide_lignum>  (74) 
34

>  <i_i_glide_rotatable_bonds>  (74) 
0

>  <r_i_docking_score>  (74) 
-4.08518

>  <r_i_glide_ligand_efficiency>  (74) 
-0.408518

>  <r_i_glide_ligand_efficiency_sa>  (74) 
-0.880126

>  <r_i_glide_ligand_efficiency_ln>  (74) 
-1.23696

>  <r_i_glide_gscore>  (74) 
-4.08518

>  <r_i_glide_lipo>  (74) 
-0.449593

>  <r_i_glide_hbond>  (74) 
-0.0186829

>  <r_i_glide_metal>  (74) 
-0

>  <r_i_glide_rewards>  (74) 
-2.41923

>  <r_i_glide_evdw>  (74) 
-17.1842

>  <r_i_glide_ecoul>  (74) 
-2.25646

>  <r_i_glide_erotb>  (74) 
0

>  <r_i_glide_esite>  (74) 
0

>  <r_i_glide_emodel>  (74) 
-24.9205

>  <r_i_glide_energy>  (74) 
-19.4406

>  <r_i_glide_einternal>  (74) 
0

>  <r_i_glide_intrahb_reward>  (74) 
-0

>  <i_i_glide_confnum>  (74) 
1

>  <i_i_glide_posenum>  (74) 
8

>  <r_i_glide_eff_state_penalty>  (74) 
0

>  <ligand_id>  (74) 
22

>  <original_smiles>  (74) 
Clc1ncnc2[nH]ccc12

>  <smiles>  (74) 
[H]c1nc(Cl)c2c([H])c([H])n([H])c2n1

$$$$
23:0:0
     RDKit          3D

 32 34  0  0  1  0  0  0  0  0999 V2000
   -4.6981  -12.7665   -7.3128 C   0  0  0  0  0  0  0  0  0  0  0  0
   -4.8461  -11.4399   -6.7611 N   0  0  0  0  0  0  0  0  0  0  0  0
   -3.9833  -11.0367   -5.7933 N   0  0  0  0  0  0  0  0  0  0  0  0
   -4.3415   -9.7993   -5.4787 C   0  0  0  0  0  0  0  0  0  0  0  0
   -5.4432   -9.4030   -6.2763 C   0  0  0  0  0  0  0  0  0  0  0  0
   -5.7459  -10.4478   -7.0817 C   0  0  0  0  0  0  0  0  0  0  0  0
   -6.8582  -10.4618   -8.0894 C   0  0  0  0  0  0  0  0  0  0  0  0
   -7.3062   -9.0170   -8.4837 C   0  0  0  0  0  0  0  0  0  0  0  0
   -7.0665   -7.9865   -7.4045 C   0  0  0  0  0  0  0  0  0  0  0  0
   -7.8419   -6.4342   -7.2922 S   0  0  0  0  0  0  0  0  0  0  0  0
   -6.8956   -6.1009   -5.8189 C   0  0  0  0  0  0  0  0  0  0  0  0
   -6.9444   -4.8137   -5.0407 C   0  0  0  0  0  0  0  0  0  0  0  0
   -5.6729   -3.9994   -5.2733 C   0  0  0  0  0  0  0  0  0  0  0  0
   -8.1943   -3.9894   -5.3937 C   0  0  0  0  0  0  0  0  0  0  0  0
   -6.9765   -5.0395   -3.6502 O   0  0  0  0  0  0  0  0  0  0  0  0
   -6.0699   -7.1025   -5.4949 N   0  0  0  0  0  0  0  0  0  0  0  0
   -6.1734   -8.1704   -6.3863 C   0  0  0  0  0  0  0  0  0  0  0  0
   -5.4877  -12.9646   -8.0391 H   0  0  0  0  0  0  0  0  0  0  0  0
   -4.7492  -13.5090   -6.5118 H   0  0  0  0  0  0  0  0  0  0  0  0
   -3.7281  -12.8387   -7.8086 H   0  0  0  0  0  0  0  0  0  0  0  0
   -3.7990   -9.2403   -4.7311 H   0  0  0  0  0  0  0  0  0  0  0  0
   -6.5909  -11.0409   -8.9755 H   0  0  0  0  0  0  0  0  0  0  0  0
   -7.7022  -10.9700   -7.6225 H   0  0  0  0  0  0  0  0  0  0  0  0
   -6.6988   -8.7159   -9.3351 H   0  0  0  0  0  0  0  0  0  0  0  0
   -8.3443   -9.0056   -8.8192 H   0  0  0  0  0  0  0  0  0  0  0  0
   -5.5613   -3.7304   -6.3226 H   0  0  0  0  0  0  0  0  0  0  0  0
   -4.7747   -4.5527   -4.9952 H   0  0  0  0  0  0  0  0  0  0  0  0
   -5.6896   -3.0896   -4.6720 H   0  0  0  0  0  0  0  0  0  0  0  0
   -8.1983   -3.6867   -6.4442 H   0  0  0  0  0  0  0  0  0  0  0  0
   -8.2538   -3.0769   -4.8076 H   0  0  0  0  0  0  0  0  0  0  0  0
   -9.1016   -4.5623   -5.1997 H   0  0  0  0  0  0  0  0  0  0  0  0
   -7.0328   -4.2005   -3.2177 H   0  0  0  0  0  0  0  0  0  0  0  0
  1  2  1  0
  1 18  1  0
  1 19  1  0
  1 20  1  0
  2  6  1  0
  2  3  1  0
  3  4  2  0
  4  5  1  0
  4 21  1  0
  5 17  1  0
  5  6  2  0
  6  7  1  0
  7  8  1  0
  7 22  1  0
  7 23  1  0
  8  9  1  0
  8 24  1  0
  8 25  1  0
  9 17  2  0
  9 10  1  0
 10 11  1  0
 11 12  1  0
 11 16  2  0
 12 13  1  0
 12 14  1  0
 12 15  1  0
 13 26  1  0
 13 27  1  0
 13 28  1  0
 14 29  1  0
 14 30  1  0
 14 31  1  0
 15 32  1  0
 16 17  1  0
M  END
>  <i_m_ct_stereo_status>  (75) 
1

>  <s_m_source_file>  (75) 
/var/tmp/pbs.5076255.sched01/tmp14hj8t9c/0766azy0n.sdf

>  <i_m_source_file_index>  (75) 
35

>  <i_lp_mmshare_version>  (75) 
48012

>  <i_f3d_flags>  (75) 
0

>  <s_epik_input>  (75) 
W2NIXTFubihbQ0gzXSljKGMxMilbQ0gyXVtDSDJdYzNjMm5jKHMzKUMoW0NIM10pKFtDSDNdKVtPSF0=

>  <s_epik_cmdline>  (75) 
J2VwaWtfcHl0aG9uJywgJy1waHQnLCAnMi4wJywgJy1waCcsICc3LjAnLCAnLXRuJywgJzgnLCAnLW1hJywgJzIwMCcsICctaW1hZScsICc8aW5maWxlLm1hZT4nLCAnLW9tYWUnLCAnPG91dGZpbGUubWFlPic=

>  <r_lp_tautomer_probability>  (75) 
1

>  <r_epik_Ionization_Penalty>  (75) 
0.000101107

>  <r_epik_Ionization_Penalty_Charging>  (75) 
0

>  <r_epik_Ionization_Penalty_Neutral>  (75) 
0.000101107

>  <r_epik_State_Penalty>  (75) 
-0

>  <r_epik_Charging_Adjusted_Penalty>  (75) 
0

>  <i_epik_Tot_Q>  (75) 
0

>  <i_epik_Tot_abs_Q>  (75) 
0

>  <s_lp_Force_Field>  (75) 
OPLS3e

>  <r_lp_Energy>  (75) 
8.84103

>  <b_lp_Chiralities_Consistent>  (75) 
1

>  <s_lp_Variant>  (75) 
23:0-1

>  <s_i_glide_gridfile>  (75) 
pfpi4k_grid

>  <i_i_glide_lignum>  (75) 
35

>  <i_i_glide_rotatable_bonds>  (75) 
2

>  <r_i_docking_score>  (75) 
-5.66679

>  <r_i_glide_ligand_efficiency>  (75) 
-0.333341

>  <r_i_glide_ligand_efficiency_sa>  (75) 
-0.857113

>  <r_i_glide_ligand_efficiency_ln>  (75) 
-1.47834

>  <r_i_glide_gscore>  (75) 
-5.66679

>  <r_i_glide_lipo>  (75) 
-2.37681

>  <r_i_glide_hbond>  (75) 
0

>  <r_i_glide_metal>  (75) 
-0

>  <r_i_glide_rewards>  (75) 
-2.27738

>  <r_i_glide_evdw>  (75) 
-27.0445

>  <r_i_glide_ecoul>  (75) 
0.388923

>  <r_i_glide_erotb>  (75) 
0.281285

>  <r_i_glide_esite>  (75) 
0

>  <r_i_glide_emodel>  (75) 
-36.0361

>  <r_i_glide_energy>  (75) 
-26.6556

>  <r_i_glide_einternal>  (75) 
1.11304

>  <r_i_glide_intrahb_reward>  (75) 
-0

>  <i_i_glide_confnum>  (75) 
2

>  <i_i_glide_posenum>  (75) 
35

>  <r_i_glide_eff_state_penalty>  (75) 
0

>  <ligand_id>  (75) 
23

>  <original_smiles>  (75) 
Cn1ncc2c1CCc1sc(C(C)(C)O)nc1-2

>  <smiles>  (75) 
[H]OC(c1nc2c(s1)C([H])([H])C([H])([H])c1c-2c([H])nn1C([H])([H])[H])(C([H])([H])[H])C([H])([H])[H]

$$$$
23:0:1
     RDKit          3D

 32 34  0  0  1  0  0  0  0  0999 V2000
   -9.2447  -11.5528   -9.1366 C   0  0  0  0  0  0  0  0  0  0  0  0
   -8.5441  -10.6039   -8.2986 N   0  0  0  0  0  0  0  0  0  0  0  0
   -7.4466  -11.0171   -7.6057 N   0  0  0  0  0  0  0  0  0  0  0  0
   -7.0097   -9.9424   -6.9530 C   0  0  0  0  0  0  0  0  0  0  0  0
   -7.8269   -8.8344   -7.2596 C   0  0  0  0  0  0  0  0  0  0  0  0
   -8.8035   -9.2646   -8.0943 C   0  0  0  0  0  0  0  0  0  0  0  0
   -9.9068   -8.4078   -8.6488 C   0  0  0  0  0  0  0  0  0  0  0  0
   -9.5540   -6.8822   -8.5821 C   0  0  0  0  0  0  0  0  0  0  0  0
   -8.5818   -6.5167   -7.4868 C   0  0  0  0  0  0  0  0  0  0  0  0
   -8.3864   -4.9501   -6.7423 S   0  0  0  0  0  0  0  0  0  0  0  0
   -7.1478   -5.6410   -5.6756 C   0  0  0  0  0  0  0  0  0  0  0  0
   -6.3575   -4.8711   -4.6671 C   0  0  0  0  0  0  0  0  0  0  0  0
   -6.7298   -5.2356   -3.2533 C   0  0  0  0  0  0  0  0  0  0  0  0
   -4.8720   -5.0445   -4.9346 C   0  0  0  0  0  0  0  0  0  0  0  0
   -6.6327   -3.4999   -4.7166 O   0  0  0  0  0  0  0  0  0  0  0  0
   -6.9710   -6.9546   -5.8650 N   0  0  0  0  0  0  0  0  0  0  0  0
   -7.7678   -7.4453   -6.8849 C   0  0  0  0  0  0  0  0  0  0  0  0
  -10.1270  -11.0876   -9.5771 H   0  0  0  0  0  0  0  0  0  0  0  0
   -9.5535  -12.4112   -8.5380 H   0  0  0  0  0  0  0  0  0  0  0  0
   -8.5804  -11.8846   -9.9366 H   0  0  0  0  0  0  0  0  0  0  0  0
   -6.1244  -10.0017   -6.3316 H   0  0  0  0  0  0  0  0  0  0  0  0
  -10.1630   -8.7004   -9.6696 H   0  0  0  0  0  0  0  0  0  0  0  0
  -10.8026   -8.5863   -8.0496 H   0  0  0  0  0  0  0  0  0  0  0  0
   -9.0628   -6.6306   -9.5183 H   0  0  0  0  0  0  0  0  0  0  0  0
  -10.4649   -6.2807   -8.5431 H   0  0  0  0  0  0  0  0  0  0  0  0
   -6.5318   -6.2895   -3.0384 H   0  0  0  0  0  0  0  0  0  0  0  0
   -7.7905   -5.0274   -3.1579 H   0  0  0  0  0  0  0  0  0  0  0  0
   -6.2318   -4.5960   -2.5293 H   0  0  0  0  0  0  0  0  0  0  0  0
   -4.5696   -6.0855   -4.8018 H   0  0  0  0  0  0  0  0  0  0  0  0
   -4.2543   -4.4166   -4.3253 H   0  0  0  0  0  0  0  0  0  0  0  0
   -4.6233   -4.6948   -5.9202 H   0  0  0  0  0  0  0  0  0  0  0  0
   -6.1280   -3.0638   -4.0465 H   0  0  0  0  0  0  0  0  0  0  0  0
  1  2  1  0
  1 18  1  0
  1 19  1  0
  1 20  1  0
  2  6  1  0
  2  3  1  0
  3  4  2  0
  4  5  1  0
  4 21  1  0
  5 17  1  0
  5  6  2  0
  6  7  1  0
  7  8  1  0
  7 22  1  0
  7 23  1  0
  8  9  1  0
  8 24  1  0
  8 25  1  0
  9 17  2  0
  9 10  1  0
 10 11  1  0
 11 12  1  0
 11 16  2  0
 12 13  1  0
 12 14  1  0
 12 15  1  0
 13 26  1  0
 13 27  1  0
 13 28  1  0
 14 29  1  0
 14 30  1  0
 14 31  1  0
 15 32  1  0
 16 17  1  0
M  END
>  <i_m_ct_stereo_status>  (76) 
1

>  <s_m_source_file>  (76) 
/var/tmp/pbs.5076255.sched01/tmp14hj8t9c/0766azy0n.sdf

>  <i_m_source_file_index>  (76) 
35

>  <i_lp_mmshare_version>  (76) 
48012

>  <i_f3d_flags>  (76) 
0

>  <s_epik_input>  (76) 
W2NIXTFubihbQ0gzXSljKGMxMilbQ0gyXVtDSDJdYzNjMm5jKHMzKUMoW0NIM10pKFtDSDNdKVtPSF0=

>  <s_epik_cmdline>  (76) 
J2VwaWtfcHl0aG9uJywgJy1waHQnLCAnMi4wJywgJy1waCcsICc3LjAnLCAnLXRuJywgJzgnLCAnLW1hJywgJzIwMCcsICctaW1hZScsICc8aW5maWxlLm1hZT4nLCAnLW9tYWUnLCAnPG91dGZpbGUubWFlPic=

>  <r_lp_tautomer_probability>  (76) 
1

>  <r_epik_Ionization_Penalty>  (76) 
0.000101107

>  <r_epik_Ionization_Penalty_Charging>  (76) 
0

>  <r_epik_Ionization_Penalty_Neutral>  (76) 
0.000101107

>  <r_epik_State_Penalty>  (76) 
-0

>  <r_epik_Charging_Adjusted_Penalty>  (76) 
0

>  <i_epik_Tot_Q>  (76) 
0

>  <i_epik_Tot_abs_Q>  (76) 
0

>  <s_lp_Force_Field>  (76) 
OPLS3e

>  <r_lp_Energy>  (76) 
8.84103

>  <b_lp_Chiralities_Consistent>  (76) 
1

>  <s_lp_Variant>  (76) 
23:0-1

>  <s_i_glide_gridfile>  (76) 
pfpi4k_grid

>  <i_i_glide_lignum>  (76) 
35

>  <i_i_glide_rotatable_bonds>  (76) 
2

>  <r_i_docking_score>  (76) 
-4.5564

>  <r_i_glide_ligand_efficiency>  (76) 
-0.268024

>  <r_i_glide_ligand_efficiency_sa>  (76) 
-0.689164

>  <r_i_glide_ligand_efficiency_ln>  (76) 
-1.18866

>  <r_i_glide_gscore>  (76) 
-4.5564

>  <r_i_glide_lipo>  (76) 
-1.79213

>  <r_i_glide_hbond>  (76) 
0

>  <r_i_glide_metal>  (76) 
-0

>  <r_i_glide_rewards>  (76) 
-2.20988

>  <r_i_glide_evdw>  (76) 
-11.2044

>  <r_i_glide_ecoul>  (76) 
-1.83636

>  <r_i_glide_erotb>  (76) 
0.281285

>  <r_i_glide_esite>  (76) 
0

>  <r_i_glide_emodel>  (76) 
-20.5505

>  <r_i_glide_energy>  (76) 
-13.0408

>  <r_i_glide_einternal>  (76) 
0.441086

>  <r_i_glide_intrahb_reward>  (76) 
-0

>  <i_i_glide_confnum>  (76) 
2

>  <i_i_glide_posenum>  (76) 
7

>  <r_i_glide_eff_state_penalty>  (76) 
0

>  <ligand_id>  (76) 
23

>  <original_smiles>  (76) 
Cn1ncc2c1CCc1sc(C(C)(C)O)nc1-2

>  <smiles>  (76) 
[H]OC(c1nc2c(s1)C([H])([H])C([H])([H])c1c-2c([H])nn1C([H])([H])[H])(C([H])([H])[H])C([H])([H])[H]

$$$$
23:0:2
     RDKit          3D

 32 34  0  0  1  0  0  0  0  0999 V2000
    4.0306   -0.2062   -3.7033 C   0  0  0  0  0  0  0  0  0  0  0  0
    3.5374   -1.3542   -2.9866 N   0  0  0  0  0  0  0  0  0  0  0  0
    2.7603   -2.2453   -3.6534 N   0  0  0  0  0  0  0  0  0  0  0  0
    2.4401   -3.1717   -2.7596 C   0  0  0  0  0  0  0  0  0  0  0  0
    3.0714   -2.8975   -1.5230 C   0  0  0  0  0  0  0  0  0  0  0  0
    3.7546   -1.7426   -1.6785 C   0  0  0  0  0  0  0  0  0  0  0  0
    4.5509   -1.0603   -0.6007 C   0  0  0  0  0  0  0  0  0  0  0  0
    4.9337   -2.0454    0.5542 C   0  0  0  0  0  0  0  0  0  0  0  0
    3.9609   -3.1910    0.7317 C   0  0  0  0  0  0  0  0  0  0  0  0
    3.7910   -4.1858    2.1570 S   0  0  0  0  0  0  0  0  0  0  0  0
    2.5302   -5.1168    1.3149 C   0  0  0  0  0  0  0  0  0  0  0  0
    1.7971   -6.3008    1.8959 C   0  0  0  0  0  0  0  0  0  0  0  0
    2.6844   -7.5565    1.8848 C   0  0  0  0  0  0  0  0  0  0  0  0
    1.2821   -5.9948    3.3083 C   0  0  0  0  0  0  0  0  0  0  0  0
    0.6231   -6.6032    1.1507 O   0  0  0  0  0  0  0  0  0  0  0  0
    2.3099   -4.6832    0.0721 N   0  0  0  0  0  0  0  0  0  0  0  0
    3.1125   -3.5933   -0.2608 C   0  0  0  0  0  0  0  0  0  0  0  0
    4.6134    0.4339   -3.0367 H   0  0  0  0  0  0  0  0  0  0  0  0
    3.1968    0.3667   -4.1154 H   0  0  0  0  0  0  0  0  0  0  0  0
    4.6534   -0.5618   -4.5235 H   0  0  0  0  0  0  0  0  0  0  0  0
    1.8170   -4.0045   -3.0356 H   0  0  0  0  0  0  0  0  0  0  0  0
    5.4356   -0.5744   -1.0084 H   0  0  0  0  0  0  0  0  0  0  0  0
    3.9174   -0.2755   -0.1876 H   0  0  0  0  0  0  0  0  0  0  0  0
    5.8905   -2.4943    0.2887 H   0  0  0  0  0  0  0  0  0  0  0  0
    5.0814   -1.5104    1.4928 H   0  0  0  0  0  0  0  0  0  0  0  0
    3.5718   -7.4195    2.5032 H   0  0  0  0  0  0  0  0  0  0  0  0
    3.0354   -7.7990    0.8837 H   0  0  0  0  0  0  0  0  0  0  0  0
    2.1528   -8.4264    2.2664 H   0  0  0  0  0  0  0  0  0  0  0  0
    2.1063   -5.7973    3.9942 H   0  0  0  0  0  0  0  0  0  0  0  0
    0.7148   -6.8330    3.7125 H   0  0  0  0  0  0  0  0  0  0  0  0
    0.6374   -5.1149    3.3055 H   0  0  0  0  0  0  0  0  0  0  0  0
    0.3818   -7.5029    1.3270 H   0  0  0  0  0  0  0  0  0  0  0  0
  1  2  1  0
  1 18  1  0
  1 19  1  0
  1 20  1  0
  2  6  1  0
  2  3  1  0
  3  4  2  0
  4  5  1  0
  4 21  1  0
  5 17  1  0
  5  6  2  0
  6  7  1  0
  7  8  1  0
  7 22  1  0
  7 23  1  0
  8  9  1  0
  8 24  1  0
  8 25  1  0
  9 17  2  0
  9 10  1  0
 10 11  1  0
 11 12  1  0
 11 16  2  0
 12 13  1  0
 12 14  1  0
 12 15  1  0
 13 26  1  0
 13 27  1  0
 13 28  1  0
 14 29  1  0
 14 30  1  0
 14 31  1  0
 15 32  1  0
 16 17  1  0
M  END
>  <i_m_ct_stereo_status>  (77) 
1

>  <s_m_source_file>  (77) 
/var/tmp/pbs.5076255.sched01/tmp14hj8t9c/0766azy0n.sdf

>  <i_m_source_file_index>  (77) 
35

>  <i_lp_mmshare_version>  (77) 
48012

>  <i_f3d_flags>  (77) 
0

>  <s_epik_input>  (77) 
W2NIXTFubihbQ0gzXSljKGMxMilbQ0gyXVtDSDJdYzNjMm5jKHMzKUMoW0NIM10pKFtDSDNdKVtPSF0=

>  <s_epik_cmdline>  (77) 
J2VwaWtfcHl0aG9uJywgJy1waHQnLCAnMi4wJywgJy1waCcsICc3LjAnLCAnLXRuJywgJzgnLCAnLW1hJywgJzIwMCcsICctaW1hZScsICc8aW5maWxlLm1hZT4nLCAnLW9tYWUnLCAnPG91dGZpbGUubWFlPic=

>  <r_lp_tautomer_probability>  (77) 
1

>  <r_epik_Ionization_Penalty>  (77) 
0.000101107

>  <r_epik_Ionization_Penalty_Charging>  (77) 
0

>  <r_epik_Ionization_Penalty_Neutral>  (77) 
0.000101107

>  <r_epik_State_Penalty>  (77) 
-0

>  <r_epik_Charging_Adjusted_Penalty>  (77) 
0

>  <i_epik_Tot_Q>  (77) 
0

>  <i_epik_Tot_abs_Q>  (77) 
0

>  <s_lp_Force_Field>  (77) 
OPLS3e

>  <r_lp_Energy>  (77) 
8.84103

>  <b_lp_Chiralities_Consistent>  (77) 
1

>  <s_lp_Variant>  (77) 
23:0-1

>  <s_i_glide_gridfile>  (77) 
pfpi4k_grid

>  <i_i_glide_lignum>  (77) 
35

>  <i_i_glide_rotatable_bonds>  (77) 
2

>  <r_i_docking_score>  (77) 
-3.71108

>  <r_i_glide_ligand_efficiency>  (77) 
-0.218299

>  <r_i_glide_ligand_efficiency_sa>  (77) 
-0.561308

>  <r_i_glide_ligand_efficiency_ln>  (77) 
-0.968139

>  <r_i_glide_gscore>  (77) 
-3.71108

>  <r_i_glide_lipo>  (77) 
-0.344997

>  <r_i_glide_hbond>  (77) 
-0.126389

>  <r_i_glide_metal>  (77) 
-0

>  <r_i_glide_rewards>  (77) 
-1.70909

>  <r_i_glide_evdw>  (77) 
-22.9582

>  <r_i_glide_ecoul>  (77) 
-4.35207

>  <r_i_glide_erotb>  (77) 
0.281285

>  <r_i_glide_esite>  (77) 
-0.0111677

>  <r_i_glide_emodel>  (77) 
-33.3783

>  <r_i_glide_energy>  (77) 
-27.3103

>  <r_i_glide_einternal>  (77) 
0.376877

>  <r_i_glide_intrahb_reward>  (77) 
-0

>  <i_i_glide_confnum>  (77) 
3

>  <i_i_glide_posenum>  (77) 
1

>  <r_i_glide_eff_state_penalty>  (77) 
0

>  <ligand_id>  (77) 
23

>  <original_smiles>  (77) 
Cn1ncc2c1CCc1sc(C(C)(C)O)nc1-2

>  <smiles>  (77) 
[H]OC(c1nc2c(s1)C([H])([H])C([H])([H])c1c-2c([H])nn1C([H])([H])[H])(C([H])([H])[H])C([H])([H])[H]

$$$$
24:0:0
     RDKit          3D

 49 51  0  0  1  0  0  0  0  0999 V2000
   -3.0547    3.2475    3.5031 C   0  0  0  0  0  0  0  0  0  0  0  0
   -2.0203    2.4873    2.6739 C   0  0  0  0  0  0  0  0  0  0  0  0
   -1.0871    1.6205    3.5343 C   0  0  0  0  0  0  0  0  0  0  0  0
   -0.0829    0.8631    2.6856 C   0  0  0  0  0  0  0  0  0  0  0  0
    0.5459   -0.2843    2.9945 C   0  0  0  0  0  0  0  0  0  0  0  0
    0.4084   -0.9781    4.2686 C   0  0  0  0  0  0  0  0  0  0  0  0
    0.9883   -2.1812    4.4602 C   0  0  0  0  0  0  0  0  0  0  0  0
    0.8916   -2.8885    5.8021 C   0  0  0  0  0  0  0  0  0  0  0  0
    0.9238   -4.4048    5.6173 C   0  0  0  0  0  0  0  0  0  0  0  0
    0.1168   -5.1149    6.2173 O   0  0  0  0  0  0  0  0  0  0  0  0
    2.0444   -4.9964    4.7343 C   0  0  1  0  0  0  0  0  0  0  0  0
    3.3679   -5.0181    5.5128 C   0  0  0  0  0  0  0  0  0  0  0  0
    1.7680   -6.3921    4.4871 O   0  0  0  0  0  0  0  0  0  0  0  0
    0.8041   -6.8930    3.6511 C   0  0  0  0  0  0  0  0  0  0  0  0
    0.0796   -6.2502    2.8983 O   0  0  0  0  0  0  0  0  0  0  0  0
    0.6764   -8.4172    3.7787 C   0  0  0  0  0  0  0  0  0  0  0  0
    2.0146   -9.1628    3.6028 C   0  0  0  0  0  0  0  0  0  0  0  0
    1.7231  -10.3621    2.6935 C   0  0  0  0  0  0  0  0  0  0  0  0
    0.2036  -10.4736    2.6172 C   0  0  0  0  0  0  0  0  0  0  0  0
   -0.2857   -9.0387    2.7512 C   0  0  0  0  0  0  0  0  0  0  0  0
    2.2257   -4.1721    3.4276 C   0  0  0  0  0  0  0  0  0  0  0  0
    2.8310   -4.7008    2.4904 O   0  0  0  0  0  0  0  0  0  0  0  0
    1.7145   -2.7788    3.3439 C   0  0  0  0  0  0  0  0  0  0  0  0
    1.8771   -2.0763    2.2073 C   0  0  0  0  0  0  0  0  0  0  0  0
    1.3752   -0.8104    2.0332 O   0  0  0  0  0  0  0  0  0  0  0  0
   -3.7026    3.8448    2.8610 H   0  0  0  0  0  0  0  0  0  0  0  0
   -2.5739    3.9151    4.2176 H   0  0  0  0  0  0  0  0  0  0  0  0
   -3.6893    2.5580    4.0573 H   0  0  0  0  0  0  0  0  0  0  0  0
   -2.5381    1.8635    1.9433 H   0  0  0  0  0  0  0  0  0  0  0  0
   -1.4295    3.2029    2.1029 H   0  0  0  0  0  0  0  0  0  0  0  0
   -0.5354    2.2500    4.2332 H   0  0  0  0  0  0  0  0  0  0  0  0
   -1.6847    0.9191    4.1207 H   0  0  0  0  0  0  0  0  0  0  0  0
    0.1381    1.3031    1.7203 H   0  0  0  0  0  0  0  0  0  0  0  0
   -0.1053   -0.5008    5.0914 H   0  0  0  0  0  0  0  0  0  0  0  0
    1.7069   -2.5801    6.4608 H   0  0  0  0  0  0  0  0  0  0  0  0
   -0.0488   -2.6200    6.2879 H   0  0  0  0  0  0  0  0  0  0  0  0
    3.6938   -4.0197    5.7879 H   0  0  0  0  0  0  0  0  0  0  0  0
    4.1604   -5.4773    4.9262 H   0  0  0  0  0  0  0  0  0  0  0  0
    3.2695   -5.6033    6.4240 H   0  0  0  0  0  0  0  0  0  0  0  0
    0.2899   -8.6282    4.7777 H   0  0  0  0  0  0  0  0  0  0  0  0
    2.8004   -8.5462    3.1620 H   0  0  0  0  0  0  0  0  0  0  0  0
    2.3748   -9.4934    4.5784 H   0  0  0  0  0  0  0  0  0  0  0  0
    2.1350  -10.1677    1.7035 H   0  0  0  0  0  0  0  0  0  0  0  0
    2.1782  -11.2782    3.0657 H   0  0  0  0  0  0  0  0  0  0  0  0
   -0.1455  -10.9444    1.6994 H   0  0  0  0  0  0  0  0  0  0  0  0
   -0.1673  -11.0500    3.4640 H   0  0  0  0  0  0  0  0  0  0  0  0
   -1.3272   -8.9911    3.0798 H   0  0  0  0  0  0  0  0  0  0  0  0
   -0.2177   -8.5516    1.7741 H   0  0  0  0  0  0  0  0  0  0  0  0
    2.3920   -2.4366    1.3257 H   0  0  0  0  0  0  0  0  0  0  0  0
  1  2  1  0
  1 26  1  0
  1 27  1  0
  1 28  1  0
  2  3  1  0
  2 29  1  0
  2 30  1  0
  3  4  1  0
  3 31  1  0
  3 32  1  0
  4  5  2  3
  4 33  1  0
  5 25  1  0
  5  6  1  0
  6  7  2  0
  6 34  1  0
  7 23  1  0
  7  8  1  0
  8  9  1  0
  8 35  1  0
  8 36  1  0
  9 10  2  0
  9 11  1  0
 11 12  1  0
 11 13  1  6
 11 21  1  0
 12 37  1  0
 12 38  1  0
 12 39  1  0
 13 14  1  0
 14 15  2  0
 14 16  1  0
 16 20  1  0
 16 17  1  0
 16 40  1  0
 17 18  1  0
 17 41  1  0
 17 42  1  0
 18 19  1  0
 18 43  1  0
 18 44  1  0
 19 20  1  0
 19 45  1  0
 19 46  1  0
 20 47  1  0
 20 48  1  0
 21 22  2  0
 21 23  1  0
 23 24  2  0
 24 25  1  0
 24 49  1  0
M  END
>  <i_m_ct_stereo_status>  (78) 
1

>  <s_m_source_file>  (78) 
/var/tmp/pbs.5076255.sched01/tmp14hj8t9c/0766azy0n.sdf

>  <i_m_source_file_index>  (78) 
36

>  <i_lp_mmshare_version>  (78) 
48012

>  <i_f3d_flags>  (78) 
0

>  <s_epik_input>  (78) 
W0NIM11bQ0gyXVtDSDJdL1tDSF09QyhcW0NIXT0xKU9bQ0hdPUMoQzEyKUMoPU8pW0NAQF0oW0NIM10pKEMoPU8pW0NIMl0yKU9DKD1PKVtDSF0zW0NIMl1bQ0gyXVtDSDJdW0NIMl0z

>  <s_epik_cmdline>  (78) 
J2VwaWtfcHl0aG9uJywgJy1waHQnLCAnMi4wJywgJy1waCcsICc3LjAnLCAnLXRuJywgJzgnLCAnLW1hJywgJzIwMCcsICctaW1hZScsICc8aW5maWxlLm1hZT4nLCAnLW9tYWUnLCAnPG91dGZpbGUubWFlPic=

>  <r_lp_tautomer_probability>  (78) 
1

>  <r_epik_Ionization_Penalty>  (78) 
1.14162e-05

>  <r_epik_Ionization_Penalty_Charging>  (78) 
0

>  <r_epik_Ionization_Penalty_Neutral>  (78) 
1.14162e-05

>  <r_epik_State_Penalty>  (78) 
-0

>  <r_epik_Charging_Adjusted_Penalty>  (78) 
0

>  <i_epik_Tot_Q>  (78) 
0

>  <i_epik_Tot_abs_Q>  (78) 
0

>  <s_epik_Chemistry_Notes>  (78) 
This compound has an ester and may undergo hydrolysis at high or low pH.

>  <s_lp_Force_Field>  (78) 
OPLS3e

>  <r_lp_Energy>  (78) 
31.494

>  <b_lp_Chiralities_Consistent>  (78) 
1

>  <s_lp_Variant>  (78) 
24:0-1

>  <s_i_glide_gridfile>  (78) 
pfpi4k_grid

>  <i_i_glide_lignum>  (78) 
36

>  <i_i_glide_rotatable_bonds>  (78) 
5

>  <r_i_docking_score>  (78) 
-2.29815

>  <r_i_glide_ligand_efficiency>  (78) 
-0.0919259

>  <r_i_glide_ligand_efficiency_sa>  (78) 
-0.268793

>  <r_i_glide_ligand_efficiency_ln>  (78) 
-0.54473

>  <r_i_glide_gscore>  (78) 
-2.29815

>  <r_i_glide_lipo>  (78) 
-0.30675

>  <r_i_glide_hbond>  (78) 
-0.133317

>  <r_i_glide_metal>  (78) 
-0

>  <r_i_glide_rewards>  (78) 
-1.06179

>  <r_i_glide_evdw>  (78) 
-20.8478

>  <r_i_glide_ecoul>  (78) 
-2.44983

>  <r_i_glide_erotb>  (78) 
0.640303

>  <r_i_glide_esite>  (78) 
-0.0267306

>  <r_i_glide_emodel>  (78) 
-25.9371

>  <r_i_glide_energy>  (78) 
-23.2977

>  <r_i_glide_einternal>  (78) 
2.32269

>  <r_i_glide_intrahb_reward>  (78) 
-0

>  <i_i_glide_confnum>  (78) 
2

>  <i_i_glide_posenum>  (78) 
4

>  <r_i_glide_eff_state_penalty>  (78) 
0

>  <ligand_id>  (78) 
24

>  <original_smiles>  (78) 
CCCC=C1C=C2CC(=O)C(C)(OC(=O)C3CCCC3)C(=O)C2=CO1

>  <smiles>  (78) 
[H]C1=C2C(=O)C(OC(=O)C3([H])C([H])([H])C([H])([H])C([H])([H])C3([H])[H])(C([H])([H])[H])C(=O)C([H])([H])C2=C([H])C(=C([H])C([H])([H])C([H])([H])C([H])([H])[H])O1

$$$$
24:0:1
     RDKit          3D

 49 51  0  0  1  0  0  0  0  0999 V2000
    4.2894   -4.5047   -0.6954 C   0  0  0  0  0  0  0  0  0  0  0  0
    4.5958   -3.6923    0.5653 C   0  0  0  0  0  0  0  0  0  0  0  0
    4.5794   -2.1777    0.2984 C   0  0  0  0  0  0  0  0  0  0  0  0
    4.9228   -1.3834    1.5471 C   0  0  0  0  0  0  0  0  0  0  0  0
    4.1842   -0.4427    2.1601 C   0  0  0  0  0  0  0  0  0  0  0  0
    2.8926    0.0322    1.6709 C   0  0  0  0  0  0  0  0  0  0  0  0
    2.1485    0.8889    2.3977 C   0  0  0  0  0  0  0  0  0  0  0  0
    0.8286    1.4081    1.8595 C   0  0  0  0  0  0  0  0  0  0  0  0
   -0.1419    1.7306    2.9894 C   0  0  0  0  0  0  0  0  0  0  0  0
   -1.3317    1.4323    2.8868 O   0  0  0  0  0  0  0  0  0  0  0  0
    0.4023    2.5589    4.1817 C   0  0  1  0  0  0  0  0  0  0  0  0
    0.4554    4.0413    3.7817 C   0  0  0  0  0  0  0  0  0  0  0  0
   -0.4817    2.5486    5.3193 O   0  0  0  0  0  0  0  0  0  0  0  0
   -1.0040    1.4514    5.9431 C   0  0  0  0  0  0  0  0  0  0  0  0
   -0.8663    0.2711    5.6174 O   0  0  0  0  0  0  0  0  0  0  0  0
   -1.8128    1.8285    7.1877 C   0  0  0  0  0  0  0  0  0  0  0  0
   -2.8395    2.9613    6.9552 C   0  0  0  0  0  0  0  0  0  0  0  0
   -2.6679    3.9475    8.1214 C   0  0  0  0  0  0  0  0  0  0  0  0
   -1.7987    3.2365    9.1544 C   0  0  0  0  0  0  0  0  0  0  0  0
   -0.9042    2.3214    8.3240 C   0  0  0  0  0  0  0  0  0  0  0  0
    1.8136    2.0942    4.6184 C   0  0  0  0  0  0  0  0  0  0  0  0
    2.2155    2.4268    5.7392 O   0  0  0  0  0  0  0  0  0  0  0  0
    2.6595    1.2978    3.7015 C   0  0  0  0  0  0  0  0  0  0  0  0
    3.8854    0.8913    4.0939 C   0  0  0  0  0  0  0  0  0  0  0  0
    4.6940    0.0816    3.3281 O   0  0  0  0  0  0  0  0  0  0  0  0
    4.2854   -5.5741   -0.4829 H   0  0  0  0  0  0  0  0  0  0  0  0
    5.0300   -4.3265   -1.4754 H   0  0  0  0  0  0  0  0  0  0  0  0
    3.3102   -4.2487   -1.1018 H   0  0  0  0  0  0  0  0  0  0  0  0
    3.8615   -3.9349    1.3355 H   0  0  0  0  0  0  0  0  0  0  0  0
    5.5645   -3.9958    0.9620 H   0  0  0  0  0  0  0  0  0  0  0  0
    5.3178   -1.9277   -0.4650 H   0  0  0  0  0  0  0  0  0  0  0  0
    3.6045   -1.9069   -0.1140 H   0  0  0  0  0  0  0  0  0  0  0  0
    5.8727   -1.6364    2.0006 H   0  0  0  0  0  0  0  0  0  0  0  0
    2.5266   -0.2509    0.6920 H   0  0  0  0  0  0  0  0  0  0  0  0
    1.0002    2.3086    1.2778 H   0  0  0  0  0  0  0  0  0  0  0  0
    0.3727    0.6602    1.2100 H   0  0  0  0  0  0  0  0  0  0  0  0
    1.1279    4.2171    2.9441 H   0  0  0  0  0  0  0  0  0  0  0  0
    0.7883    4.6668    4.6097 H   0  0  0  0  0  0  0  0  0  0  0  0
   -0.5300    4.4003    3.4870 H   0  0  0  0  0  0  0  0  0  0  0  0
   -2.3592    0.9543    7.5369 H   0  0  0  0  0  0  0  0  0  0  0  0
   -2.7226    3.4895    6.0058 H   0  0  0  0  0  0  0  0  0  0  0  0
   -3.8463    2.5424    6.9525 H   0  0  0  0  0  0  0  0  0  0  0  0
   -2.1454    4.8364    7.7698 H   0  0  0  0  0  0  0  0  0  0  0  0
   -3.6224    4.2641    8.5425 H   0  0  0  0  0  0  0  0  0  0  0  0
   -1.2217    3.9309    9.7651 H   0  0  0  0  0  0  0  0  0  0  0  0
   -2.4207    2.6377    9.8217 H   0  0  0  0  0  0  0  0  0  0  0  0
   -0.4948    1.4993    8.9155 H   0  0  0  0  0  0  0  0  0  0  0  0
   -0.0584    2.8966    7.9378 H   0  0  0  0  0  0  0  0  0  0  0  0
    4.3406    1.1467    5.0464 H   0  0  0  0  0  0  0  0  0  0  0  0
  1  2  1  0
  1 26  1  0
  1 27  1  0
  1 28  1  0
  2  3  1  0
  2 29  1  0
  2 30  1  0
  3  4  1  0
  3 31  1  0
  3 32  1  0
  4  5  2  3
  4 33  1  0
  5 25  1  0
  5  6  1  0
  6  7  2  0
  6 34  1  0
  7 23  1  0
  7  8  1  0
  8  9  1  0
  8 35  1  0
  8 36  1  0
  9 10  2  0
  9 11  1  0
 11 12  1  0
 11 13  1  1
 11 21  1  0
 12 37  1  0
 12 38  1  0
 12 39  1  0
 13 14  1  0
 14 15  2  0
 14 16  1  0
 16 20  1  0
 16 17  1  0
 16 40  1  0
 17 18  1  0
 17 41  1  0
 17 42  1  0
 18 19  1  0
 18 43  1  0
 18 44  1  0
 19 20  1  0
 19 45  1  0
 19 46  1  0
 20 47  1  0
 20 48  1  0
 21 22  2  0
 21 23  1  0
 23 24  2  0
 24 25  1  0
 24 49  1  0
M  END
>  <i_m_ct_stereo_status>  (79) 
1

>  <s_m_source_file>  (79) 
/var/tmp/pbs.5076255.sched01/tmp14hj8t9c/0766azy0n.sdf

>  <i_m_source_file_index>  (79) 
36

>  <i_lp_mmshare_version>  (79) 
48012

>  <i_f3d_flags>  (79) 
0

>  <s_epik_input>  (79) 
W0NIM11bQ0gyXVtDSDJdL1tDSF09QyhcW0NIXT0xKU9bQ0hdPUMoQzEyKUMoPU8pW0NAQF0oW0NIM10pKEMoPU8pW0NIMl0yKU9DKD1PKVtDSF0zW0NIMl1bQ0gyXVtDSDJdW0NIMl0z

>  <s_epik_cmdline>  (79) 
J2VwaWtfcHl0aG9uJywgJy1waHQnLCAnMi4wJywgJy1waCcsICc3LjAnLCAnLXRuJywgJzgnLCAnLW1hJywgJzIwMCcsICctaW1hZScsICc8aW5maWxlLm1hZT4nLCAnLW9tYWUnLCAnPG91dGZpbGUubWFlPic=

>  <r_lp_tautomer_probability>  (79) 
1

>  <r_epik_Ionization_Penalty>  (79) 
1.14162e-05

>  <r_epik_Ionization_Penalty_Charging>  (79) 
0

>  <r_epik_Ionization_Penalty_Neutral>  (79) 
1.14162e-05

>  <r_epik_State_Penalty>  (79) 
-0

>  <r_epik_Charging_Adjusted_Penalty>  (79) 
0

>  <i_epik_Tot_Q>  (79) 
0

>  <i_epik_Tot_abs_Q>  (79) 
0

>  <s_epik_Chemistry_Notes>  (79) 
This compound has an ester and may undergo hydrolysis at high or low pH.

>  <s_lp_Force_Field>  (79) 
OPLS3e

>  <r_lp_Energy>  (79) 
31.494

>  <b_lp_Chiralities_Consistent>  (79) 
1

>  <s_lp_Variant>  (79) 
24:0-1

>  <s_i_glide_gridfile>  (79) 
pfpi4k_grid

>  <i_i_glide_lignum>  (79) 
36

>  <i_i_glide_rotatable_bonds>  (79) 
5

>  <r_i_docking_score>  (79) 
-2.16297

>  <r_i_glide_ligand_efficiency>  (79) 
-0.0865187

>  <r_i_glide_ligand_efficiency_sa>  (79) 
-0.252982

>  <r_i_glide_ligand_efficiency_ln>  (79) 
-0.512688

>  <r_i_glide_gscore>  (79) 
-2.16297

>  <r_i_glide_lipo>  (79) 
-0.430289

>  <r_i_glide_hbond>  (79) 
0

>  <r_i_glide_metal>  (79) 
-0

>  <r_i_glide_rewards>  (79) 
-1.0609

>  <r_i_glide_evdw>  (79) 
-22.7889

>  <r_i_glide_ecoul>  (79) 
-0.661907

>  <r_i_glide_erotb>  (79) 
0.640303

>  <r_i_glide_esite>  (79) 
-0.0733508

>  <r_i_glide_emodel>  (79) 
-26.3679

>  <r_i_glide_energy>  (79) 
-23.4508

>  <r_i_glide_einternal>  (79) 
1.13827

>  <r_i_glide_intrahb_reward>  (79) 
-0

>  <i_i_glide_confnum>  (79) 
3

>  <i_i_glide_posenum>  (79) 
11

>  <r_i_glide_eff_state_penalty>  (79) 
0

>  <ligand_id>  (79) 
24

>  <original_smiles>  (79) 
CCCC=C1C=C2CC(=O)C(C)(OC(=O)C3CCCC3)C(=O)C2=CO1

>  <smiles>  (79) 
[H]C1=C2C(=O)C(OC(=O)C3([H])C([H])([H])C([H])([H])C([H])([H])C3([H])[H])(C([H])([H])[H])C(=O)C([H])([H])C2=C([H])C(=C([H])C([H])([H])C([H])([H])C([H])([H])[H])O1

$$$$
24:0:2
     RDKit          3D

 49 51  0  0  1  0  0  0  0  0999 V2000
    4.0957   -4.8995    0.0805 C   0  0  0  0  0  0  0  0  0  0  0  0
    3.1077   -3.7710   -0.2520 C   0  0  0  0  0  0  0  0  0  0  0  0
    3.7185   -2.3581   -0.1810 C   0  0  0  0  0  0  0  0  0  0  0  0
    4.0975   -1.9682    1.2390 C   0  0  0  0  0  0  0  0  0  0  0  0
    3.5589   -1.0077    2.0105 C   0  0  0  0  0  0  0  0  0  0  0  0
    2.5069   -0.0958    1.5736 C   0  0  0  0  0  0  0  0  0  0  0  0
    1.9196    0.7512    2.4421 C   0  0  0  0  0  0  0  0  0  0  0  0
    0.8504    1.7219    1.9712 C   0  0  0  0  0  0  0  0  0  0  0  0
   -0.1307    2.0471    3.0963 C   0  0  0  0  0  0  0  0  0  0  0  0
   -1.3423    2.0989    2.8761 O   0  0  0  0  0  0  0  0  0  0  0  0
    0.4683    2.4257    4.4729 C   0  0  1  0  0  0  0  0  0  0  0  0
    0.9552    3.8816    4.4348 C   0  0  0  0  0  0  0  0  0  0  0  0
   -0.5241    2.4296    5.5138 O   0  0  0  0  0  0  0  0  0  0  0  0
   -1.3291    1.3890    5.8712 C   0  0  0  0  0  0  0  0  0  0  0  0
   -1.3554    0.2630    5.3719 O   0  0  0  0  0  0  0  0  0  0  0  0
   -2.2445    1.7514    7.0456 C   0  0  0  0  0  0  0  0  0  0  0  0
   -2.9889    3.0985    6.8639 C   0  0  0  0  0  0  0  0  0  0  0  0
   -2.8332    3.8681    8.1846 C   0  0  0  0  0  0  0  0  0  0  0  0
   -2.2928    2.8640    9.1978 C   0  0  0  0  0  0  0  0  0  0  0  0
   -1.4607    1.8968    8.3604 C   0  0  0  0  0  0  0  0  0  0  0  0
    1.6437    1.4960    4.8648 C   0  0  0  0  0  0  0  0  0  0  0  0
    1.9810    1.4583    6.0540 O   0  0  0  0  0  0  0  0  0  0  0  0
    2.3558    0.7075    3.8323 C   0  0  0  0  0  0  0  0  0  0  0  0
    3.3765   -0.0985    4.1888 C   0  0  0  0  0  0  0  0  0  0  0  0
    4.0367   -0.9154    3.2990 O   0  0  0  0  0  0  0  0  0  0  0  0
    3.6157   -5.8751   -0.0069 H   0  0  0  0  0  0  0  0  0  0  0  0
    4.4793   -4.8179    1.0977 H   0  0  0  0  0  0  0  0  0  0  0  0
    4.9450   -4.8924   -0.6034 H   0  0  0  0  0  0  0  0  0  0  0  0
    2.7276   -3.9318   -1.2590 H   0  0  0  0  0  0  0  0  0  0  0  0
    2.2415   -3.8339    0.4087 H   0  0  0  0  0  0  0  0  0  0  0  0
    4.6124   -2.3037   -0.8037 H   0  0  0  0  0  0  0  0  0  0  0  0
    3.0173   -1.6498   -0.6244 H   0  0  0  0  0  0  0  0  0  0  0  0
    4.8743   -2.5750    1.6851 H   0  0  0  0  0  0  0  0  0  0  0  0
    2.2177   -0.0466    0.5347 H   0  0  0  0  0  0  0  0  0  0  0  0
    1.3291    2.6372    1.6245 H   0  0  0  0  0  0  0  0  0  0  0  0
    0.2995    1.2935    1.1313 H   0  0  0  0  0  0  0  0  0  0  0  0
    1.7478    4.0305    3.7042 H   0  0  0  0  0  0  0  0  0  0  0  0
    1.3347    4.1955    5.4071 H   0  0  0  0  0  0  0  0  0  0  0  0
    0.1391    4.5564    4.1790 H   0  0  0  0  0  0  0  0  0  0  0  0
   -2.9888    0.9659    7.1680 H   0  0  0  0  0  0  0  0  0  0  0  0
   -2.6145    3.7089    6.0397 H   0  0  0  0  0  0  0  0  0  0  0  0
   -4.0437    2.9292    6.6482 H   0  0  0  0  0  0  0  0  0  0  0  0
   -2.1104    4.6726    8.0508 H   0  0  0  0  0  0  0  0  0  0  0  0
   -3.7689    4.3173    8.5188 H   0  0  0  0  0  0  0  0  0  0  0  0
   -1.7085    3.3392    9.9854 H   0  0  0  0  0  0  0  0  0  0  0  0
   -3.1176    2.3309    9.6723 H   0  0  0  0  0  0  0  0  0  0  0  0
   -1.3064    0.9433    8.8687 H   0  0  0  0  0  0  0  0  0  0  0  0
   -0.4744    2.3327    8.1863 H   0  0  0  0  0  0  0  0  0  0  0  0
    3.7598   -0.1995    5.1980 H   0  0  0  0  0  0  0  0  0  0  0  0
  1  2  1  0
  1 26  1  0
  1 27  1  0
  1 28  1  0
  2  3  1  0
  2 29  1  0
  2 30  1  0
  3  4  1  0
  3 31  1  0
  3 32  1  0
  4  5  2  3
  4 33  1  0
  5 25  1  0
  5  6  1  0
  6  7  2  0
  6 34  1  0
  7 23  1  0
  7  8  1  0
  8  9  1  0
  8 35  1  0
  8 36  1  0
  9 10  2  0
  9 11  1  0
 11 12  1  0
 11 13  1  1
 11 21  1  0
 12 37  1  0
 12 38  1  0
 12 39  1  0
 13 14  1  0
 14 15  2  0
 14 16  1  0
 16 20  1  0
 16 17  1  0
 16 40  1  0
 17 18  1  0
 17 41  1  0
 17 42  1  0
 18 19  1  0
 18 43  1  0
 18 44  1  0
 19 20  1  0
 19 45  1  0
 19 46  1  0
 20 47  1  0
 20 48  1  0
 21 22  2  0
 21 23  1  0
 23 24  2  0
 24 25  1  0
 24 49  1  0
M  END
>  <i_m_ct_stereo_status>  (80) 
1

>  <s_m_source_file>  (80) 
/var/tmp/pbs.5076255.sched01/tmp14hj8t9c/0766azy0n.sdf

>  <i_m_source_file_index>  (80) 
36

>  <i_lp_mmshare_version>  (80) 
48012

>  <i_f3d_flags>  (80) 
0

>  <s_epik_input>  (80) 
W0NIM11bQ0gyXVtDSDJdL1tDSF09QyhcW0NIXT0xKU9bQ0hdPUMoQzEyKUMoPU8pW0NAQF0oW0NIM10pKEMoPU8pW0NIMl0yKU9DKD1PKVtDSF0zW0NIMl1bQ0gyXVtDSDJdW0NIMl0z

>  <s_epik_cmdline>  (80) 
J2VwaWtfcHl0aG9uJywgJy1waHQnLCAnMi4wJywgJy1waCcsICc3LjAnLCAnLXRuJywgJzgnLCAnLW1hJywgJzIwMCcsICctaW1hZScsICc8aW5maWxlLm1hZT4nLCAnLW9tYWUnLCAnPG91dGZpbGUubWFlPic=

>  <r_lp_tautomer_probability>  (80) 
1

>  <r_epik_Ionization_Penalty>  (80) 
1.14162e-05

>  <r_epik_Ionization_Penalty_Charging>  (80) 
0

>  <r_epik_Ionization_Penalty_Neutral>  (80) 
1.14162e-05

>  <r_epik_State_Penalty>  (80) 
-0

>  <r_epik_Charging_Adjusted_Penalty>  (80) 
0

>  <i_epik_Tot_Q>  (80) 
0

>  <i_epik_Tot_abs_Q>  (80) 
0

>  <s_epik_Chemistry_Notes>  (80) 
This compound has an ester and may undergo hydrolysis at high or low pH.

>  <s_lp_Force_Field>  (80) 
OPLS3e

>  <r_lp_Energy>  (80) 
31.494

>  <b_lp_Chiralities_Consistent>  (80) 
1

>  <s_lp_Variant>  (80) 
24:0-1

>  <s_i_glide_gridfile>  (80) 
pfpi4k_grid

>  <i_i_glide_lignum>  (80) 
36

>  <i_i_glide_rotatable_bonds>  (80) 
5

>  <r_i_docking_score>  (80) 
-2.03723

>  <r_i_glide_ligand_efficiency>  (80) 
-0.081489

>  <r_i_glide_ligand_efficiency_sa>  (80) 
-0.238275

>  <r_i_glide_ligand_efficiency_ln>  (80) 
-0.482883

>  <r_i_glide_gscore>  (80) 
-2.03723

>  <r_i_glide_lipo>  (80) 
-0.266224

>  <r_i_glide_hbond>  (80) 
0

>  <r_i_glide_metal>  (80) 
-0

>  <r_i_glide_rewards>  (80) 
-1.0609

>  <r_i_glide_evdw>  (80) 
-23.0057

>  <r_i_glide_ecoul>  (80) 
-0.742769

>  <r_i_glide_erotb>  (80) 
0.640303

>  <r_i_glide_esite>  (80) 
-0.0887043

>  <r_i_glide_emodel>  (80) 
-26.265

>  <r_i_glide_energy>  (80) 
-23.7485

>  <r_i_glide_einternal>  (80) 
1.58305

>  <r_i_glide_intrahb_reward>  (80) 
-0

>  <i_i_glide_confnum>  (80) 
3

>  <i_i_glide_posenum>  (80) 
1

>  <r_i_glide_eff_state_penalty>  (80) 
0

>  <ligand_id>  (80) 
24

>  <original_smiles>  (80) 
CCCC=C1C=C2CC(=O)C(C)(OC(=O)C3CCCC3)C(=O)C2=CO1

>  <smiles>  (80) 
[H]C1=C2C(=O)C(OC(=O)C3([H])C([H])([H])C([H])([H])C([H])([H])C3([H])[H])(C([H])([H])[H])C(=O)C([H])([H])C2=C([H])C(=C([H])C([H])([H])C([H])([H])C([H])([H])[H])O1

$$$$
24:1:0
     RDKit          3D

 49 51  0  0  1  0  0  0  0  0999 V2000
   -5.3460    7.4373   -1.1076 C   0  0  0  0  0  0  0  0  0  0  0  0
   -4.9014    6.1455   -0.4140 C   0  0  0  0  0  0  0  0  0  0  0  0
   -4.5095    6.3572    1.0599 C   0  0  0  0  0  0  0  0  0  0  0  0
   -4.3399    5.0473    1.8324 C   0  0  0  0  0  0  0  0  0  0  0  0
   -3.2186    4.6592    2.4774 C   0  0  0  0  0  0  0  0  0  0  0  0
   -3.1197    3.3827    3.1678 C   0  0  0  0  0  0  0  0  0  0  0  0
   -1.9469    2.9874    3.7119 C   0  0  0  0  0  0  0  0  0  0  0  0
   -1.8591    1.6811    4.4883 C   0  0  0  0  0  0  0  0  0  0  0  0
   -0.4692    1.0755    4.3440 C   0  0  0  0  0  0  0  0  0  0  0  0
   -0.3546   -0.1449    4.1835 O   0  0  0  0  0  0  0  0  0  0  0  0
    0.7519    1.9889    4.6080 C   0  0  1  0  0  0  0  0  0  0  0  0
    0.9421    2.1800    6.1112 C   0  0  0  0  0  0  0  0  0  0  0  0
    1.9759    1.3581    4.1895 O   0  0  0  0  0  0  0  0  0  0  0  0
    2.2801    1.0241    2.9118 C   0  0  0  0  0  0  0  0  0  0  0  0
    1.5860    1.2639    1.9275 O   0  0  0  0  0  0  0  0  0  0  0  0
    3.6259    0.2750    2.8221 C   0  0  0  0  0  0  0  0  0  0  0  0
    4.0488   -0.1673    1.3991 C   0  0  0  0  0  0  0  0  0  0  0  0
    4.5311   -1.6202    1.5103 C   0  0  0  0  0  0  0  0  0  0  0  0
    4.6847   -1.9043    3.0001 C   0  0  0  0  0  0  0  0  0  0  0  0
    3.6309   -1.0160    3.6603 C   0  0  0  0  0  0  0  0  0  0  0  0
    0.5666    3.3807    3.9393 C   0  0  0  0  0  0  0  0  0  0  0  0
    1.5719    4.0827    3.7982 O   0  0  0  0  0  0  0  0  0  0  0  0
   -0.7945    3.8549    3.5542 C   0  0  0  0  0  0  0  0  0  0  0  0
   -0.9361    5.0613    2.9881 C   0  0  0  0  0  0  0  0  0  0  0  0
   -2.1305    5.4978    2.4374 O   0  0  0  0  0  0  0  0  0  0  0  0
   -5.6269    7.2488   -2.1438 H   0  0  0  0  0  0  0  0  0  0  0  0
   -4.5532    8.1851   -1.1117 H   0  0  0  0  0  0  0  0  0  0  0  0
   -6.2100    7.8718   -0.6088 H   0  0  0  0  0  0  0  0  0  0  0  0
   -5.7090    5.4153   -0.4828 H   0  0  0  0  0  0  0  0  0  0  0  0
   -4.0524    5.7448   -0.9634 H   0  0  0  0  0  0  0  0  0  0  0  0
   -3.6046    6.9614    1.1037 H   0  0  0  0  0  0  0  0  0  0  0  0
   -5.2841    6.9337    1.5611 H   0  0  0  0  0  0  0  0  0  0  0  0
   -5.2013    4.3957    1.8313 H   0  0  0  0  0  0  0  0  0  0  0  0
   -3.9956    2.7661    3.2849 H   0  0  0  0  0  0  0  0  0  0  0  0
   -2.0835    1.8562    5.5389 H   0  0  0  0  0  0  0  0  0  0  0  0
   -2.5897    0.9789    4.0961 H   0  0  0  0  0  0  0  0  0  0  0  0
    0.0871    2.6705    6.5655 H   0  0  0  0  0  0  0  0  0  0  0  0
    1.8242    2.7845    6.3128 H   0  0  0  0  0  0  0  0  0  0  0  0
    1.0912    1.2209    6.6016 H   0  0  0  0  0  0  0  0  0  0  0  0
    4.4031    0.9246    3.2269 H   0  0  0  0  0  0  0  0  0  0  0  0
    3.2470   -0.1308    0.6585 H   0  0  0  0  0  0  0  0  0  0  0  0
    4.8453    0.4817    1.0255 H   0  0  0  0  0  0  0  0  0  0  0  0
    3.7678   -2.2768    1.0934 H   0  0  0  0  0  0  0  0  0  0  0  0
    5.4532   -1.7925    0.9581 H   0  0  0  0  0  0  0  0  0  0  0  0
    4.5515   -2.9590    3.2425 H   0  0  0  0  0  0  0  0  0  0  0  0
    5.6801   -1.6090    3.3323 H   0  0  0  0  0  0  0  0  0  0  0  0
    3.8605   -0.8340    4.7120 H   0  0  0  0  0  0  0  0  0  0  0  0
    2.6588   -1.5100    3.6179 H   0  0  0  0  0  0  0  0  0  0  0  0
   -0.1231    5.7478    2.7612 H   0  0  0  0  0  0  0  0  0  0  0  0
  1  2  1  0
  1 26  1  0
  1 27  1  0
  1 28  1  0
  2  3  1  0
  2 29  1  0
  2 30  1  0
  3  4  1  0
  3 31  1  0
  3 32  1  0
  4  5  2  3
  4 33  1  0
  5 25  1  0
  5  6  1  0
  6  7  2  0
  6 34  1  0
  7 23  1  0
  7  8  1  0
  8  9  1  0
  8 35  1  0
  8 36  1  0
  9 10  2  0
  9 11  1  0
 11 12  1  0
 11 13  1  6
 11 21  1  0
 12 37  1  0
 12 38  1  0
 12 39  1  0
 13 14  1  0
 14 15  2  0
 14 16  1  0
 16 20  1  0
 16 17  1  0
 16 40  1  0
 17 18  1  0
 17 41  1  0
 17 42  1  0
 18 19  1  0
 18 43  1  0
 18 44  1  0
 19 20  1  0
 19 45  1  0
 19 46  1  0
 20 47  1  0
 20 48  1  0
 21 22  2  0
 21 23  1  0
 23 24  2  0
 24 25  1  0
 24 49  1  0
M  END
>  <i_m_ct_stereo_status>  (81) 
1

>  <s_m_source_file>  (81) 
/var/tmp/pbs.5076255.sched01/tmp14hj8t9c/0766azy0n.sdf

>  <i_m_source_file_index>  (81) 
37

>  <i_lp_mmshare_version>  (81) 
48012

>  <i_f3d_flags>  (81) 
0

>  <s_epik_input>  (81) 
W0NIM11bQ0gyXVtDSDJdL1tDSF09QyhcW0NIXT0xKU9bQ0hdPUMoQzEyKUMoPU8pW0NAQF0oW0NIM10pKEMoPU8pW0NIMl0yKU9DKD1PKVtDSF0zW0NIMl1bQ0gyXVtDSDJdW0NIMl0z

>  <s_epik_cmdline>  (81) 
J2VwaWtfcHl0aG9uJywgJy1waHQnLCAnMi4wJywgJy1waCcsICc3LjAnLCAnLXRuJywgJzgnLCAnLW1hJywgJzIwMCcsICctaW1hZScsICc8aW5maWxlLm1hZT4nLCAnLW9tYWUnLCAnPG91dGZpbGUubWFlPic=

>  <r_lp_tautomer_probability>  (81) 
1

>  <r_epik_Ionization_Penalty>  (81) 
1.14162e-05

>  <r_epik_Ionization_Penalty_Charging>  (81) 
0

>  <r_epik_Ionization_Penalty_Neutral>  (81) 
1.14162e-05

>  <r_epik_State_Penalty>  (81) 
-0

>  <r_epik_Charging_Adjusted_Penalty>  (81) 
0

>  <i_epik_Tot_Q>  (81) 
0

>  <i_epik_Tot_abs_Q>  (81) 
0

>  <s_epik_Chemistry_Notes>  (81) 
This compound has an ester and may undergo hydrolysis at high or low pH.

>  <s_lp_Force_Field>  (81) 
OPLS3e

>  <r_lp_Energy>  (81) 
31.2004

>  <b_lp_Chiralities_Consistent>  (81) 
1

>  <s_lp_Variant>  (81) 
24:0-2

>  <s_i_glide_gridfile>  (81) 
pfpi4k_grid

>  <i_i_glide_lignum>  (81) 
37

>  <i_i_glide_rotatable_bonds>  (81) 
5

>  <r_i_docking_score>  (81) 
-2.80733

>  <r_i_glide_ligand_efficiency>  (81) 
-0.112293

>  <r_i_glide_ligand_efficiency_sa>  (81) 
-0.328347

>  <r_i_glide_ligand_efficiency_ln>  (81) 
-0.66542

>  <r_i_glide_gscore>  (81) 
-2.80733

>  <r_i_glide_lipo>  (81) 
-0.740221

>  <r_i_glide_hbond>  (81) 
-0.16

>  <r_i_glide_metal>  (81) 
-0

>  <r_i_glide_rewards>  (81) 
-1.0609

>  <r_i_glide_evdw>  (81) 
-24.4691

>  <r_i_glide_ecoul>  (81) 
-1.24171

>  <r_i_glide_erotb>  (81) 
0.640303

>  <r_i_glide_esite>  (81) 
-0.0767982

>  <r_i_glide_emodel>  (81) 
-30.5848

>  <r_i_glide_energy>  (81) 
-25.7108

>  <r_i_glide_einternal>  (81) 
0.690418

>  <r_i_glide_intrahb_reward>  (81) 
-0

>  <i_i_glide_confnum>  (81) 
3

>  <i_i_glide_posenum>  (81) 
7

>  <r_i_glide_eff_state_penalty>  (81) 
0

>  <ligand_id>  (81) 
24

>  <original_smiles>  (81) 
CCCC=C1C=C2CC(=O)C(C)(OC(=O)C3CCCC3)C(=O)C2=CO1

>  <smiles>  (81) 
[H]C1=C2C(=O)C(OC(=O)C3([H])C([H])([H])C([H])([H])C([H])([H])C3([H])[H])(C([H])([H])[H])C(=O)C([H])([H])C2=C([H])C(=C([H])C([H])([H])C([H])([H])C([H])([H])[H])O1

$$$$
24:1:1
     RDKit          3D

 49 51  0  0  1  0  0  0  0  0999 V2000
   -5.9385    5.7813   -1.2832 C   0  0  0  0  0  0  0  0  0  0  0  0
   -6.5692    6.5540   -0.1267 C   0  0  0  0  0  0  0  0  0  0  0  0
   -6.0836    6.0680    1.2409 C   0  0  0  0  0  0  0  0  0  0  0  0
   -4.6429    6.4832    1.4913 C   0  0  0  0  0  0  0  0  0  0  0  0
   -3.6703    5.6586    1.8986 C   0  0  0  0  0  0  0  0  0  0  0  0
   -2.2969    6.1163    2.0743 C   0  0  0  0  0  0  0  0  0  0  0  0
   -1.3995    5.3266    2.7086 C   0  0  0  0  0  0  0  0  0  0  0  0
   -0.0009    5.8393    3.0533 C   0  0  0  0  0  0  0  0  0  0  0  0
    0.6399    5.0799    4.2119 C   0  0  0  0  0  0  0  0  0  0  0  0
    1.2476    5.6906    5.0875 O   0  0  0  0  0  0  0  0  0  0  0  0
    0.5337    3.5401    4.2114 C   0  0  1  0  0  0  0  0  0  0  0  0
    1.5918    2.9429    3.2689 C   0  0  0  0  0  0  0  0  0  0  0  0
    0.8984    3.0081    5.4987 O   0  0  0  0  0  0  0  0  0  0  0  0
    0.2508    3.2294    6.6761 C   0  0  0  0  0  0  0  0  0  0  0  0
   -0.7559    3.9218    6.8266 O   0  0  0  0  0  0  0  0  0  0  0  0
    0.9218    2.4988    7.8507 C   0  0  0  0  0  0  0  0  0  0  0  0
    2.4118    2.8794    8.0452 C   0  0  0  0  0  0  0  0  0  0  0  0
    3.1878    1.5625    8.2179 C   0  0  0  0  0  0  0  0  0  0  0  0
    2.1409    0.4832    8.4528 C   0  0  0  0  0  0  0  0  0  0  0  0
    0.9189    0.9671    7.6734 C   0  0  0  0  0  0  0  0  0  0  0  0
   -0.8835    3.0537    3.8080 C   0  0  0  0  0  0  0  0  0  0  0  0
   -1.2242    1.9158    4.1384 O   0  0  0  0  0  0  0  0  0  0  0  0
   -1.7985    3.9628    3.0639 C   0  0  0  0  0  0  0  0  0  0  0  0
   -3.0519    3.5453    2.7643 C   0  0  0  0  0  0  0  0  0  0  0  0
   -3.9866    4.3393    2.1337 O   0  0  0  0  0  0  0  0  0  0  0  0
   -6.2958    6.1415   -2.2439 H   0  0  0  0  0  0  0  0  0  0  0  0
   -6.2217    4.7355   -1.2022 H   0  0  0  0  0  0  0  0  0  0  0  0
   -4.8522    5.8654   -1.2838 H   0  0  0  0  0  0  0  0  0  0  0  0
   -6.3789    7.6208   -0.2357 H   0  0  0  0  0  0  0  0  0  0  0  0
   -7.6461    6.4070   -0.1625 H   0  0  0  0  0  0  0  0  0  0  0  0
   -6.6998    6.4872    2.0340 H   0  0  0  0  0  0  0  0  0  0  0  0
   -6.1999    4.9846    1.3098 H   0  0  0  0  0  0  0  0  0  0  0  0
   -4.4173    7.5359    1.3487 H   0  0  0  0  0  0  0  0  0  0  0  0
   -1.9934    7.1203    1.7940 H   0  0  0  0  0  0  0  0  0  0  0  0
    0.6586    5.7600    2.1819 H   0  0  0  0  0  0  0  0  0  0  0  0
   -0.0636    6.8868    3.3551 H   0  0  0  0  0  0  0  0  0  0  0  0
    1.4331    3.2443    2.2419 H   0  0  0  0  0  0  0  0  0  0  0  0
    1.5739    1.8598    3.3082 H   0  0  0  0  0  0  0  0  0  0  0  0
    2.5900    3.2549    3.5639 H   0  0  0  0  0  0  0  0  0  0  0  0
    0.3924    2.7324    8.7801 H   0  0  0  0  0  0  0  0  0  0  0  0
    2.8409    3.4453    7.2182 H   0  0  0  0  0  0  0  0  0  0  0  0
    2.5227    3.5065    8.9374 H   0  0  0  0  0  0  0  0  0  0  0  0
    3.7385    1.3482    7.3030 H   0  0  0  0  0  0  0  0  0  0  0  0
    3.9094    1.6158    9.0303 H   0  0  0  0  0  0  0  0  0  0  0  0
    2.4742   -0.4988    8.1240 H   0  0  0  0  0  0  0  0  0  0  0  0
    1.8997    0.4203    9.5119 H   0  0  0  0  0  0  0  0  0  0  0  0
   -0.0038    0.5086    8.0398 H   0  0  0  0  0  0  0  0  0  0  0  0
    1.0355    0.6744    6.6309 H   0  0  0  0  0  0  0  0  0  0  0  0
   -3.4077    2.5346    2.9535 H   0  0  0  0  0  0  0  0  0  0  0  0
  1  2  1  0
  1 26  1  0
  1 27  1  0
  1 28  1  0
  2  3  1  0
  2 29  1  0
  2 30  1  0
  3  4  1  0
  3 31  1  0
  3 32  1  0
  4  5  2  3
  4 33  1  0
  5 25  1  0
  5  6  1  0
  6  7  2  0
  6 34  1  0
  7 23  1  0
  7  8  1  0
  8  9  1  0
  8 35  1  0
  8 36  1  0
  9 10  2  0
  9 11  1  0
 11 12  1  0
 11 13  1  1
 11 21  1  0
 12 37  1  0
 12 38  1  0
 12 39  1  0
 13 14  1  0
 14 15  2  0
 14 16  1  0
 16 20  1  0
 16 17  1  0
 16 40  1  0
 17 18  1  0
 17 41  1  0
 17 42  1  0
 18 19  1  0
 18 43  1  0
 18 44  1  0
 19 20  1  0
 19 45  1  0
 19 46  1  0
 20 47  1  0
 20 48  1  0
 21 22  2  0
 21 23  1  0
 23 24  2  0
 24 25  1  0
 24 49  1  0
M  END
>  <i_m_ct_stereo_status>  (82) 
1

>  <s_m_source_file>  (82) 
/var/tmp/pbs.5076255.sched01/tmp14hj8t9c/0766azy0n.sdf

>  <i_m_source_file_index>  (82) 
37

>  <i_lp_mmshare_version>  (82) 
48012

>  <i_f3d_flags>  (82) 
0

>  <s_epik_input>  (82) 
W0NIM11bQ0gyXVtDSDJdL1tDSF09QyhcW0NIXT0xKU9bQ0hdPUMoQzEyKUMoPU8pW0NAQF0oW0NIM10pKEMoPU8pW0NIMl0yKU9DKD1PKVtDSF0zW0NIMl1bQ0gyXVtDSDJdW0NIMl0z

>  <s_epik_cmdline>  (82) 
J2VwaWtfcHl0aG9uJywgJy1waHQnLCAnMi4wJywgJy1waCcsICc3LjAnLCAnLXRuJywgJzgnLCAnLW1hJywgJzIwMCcsICctaW1hZScsICc8aW5maWxlLm1hZT4nLCAnLW9tYWUnLCAnPG91dGZpbGUubWFlPic=

>  <r_lp_tautomer_probability>  (82) 
1

>  <r_epik_Ionization_Penalty>  (82) 
1.14162e-05

>  <r_epik_Ionization_Penalty_Charging>  (82) 
0

>  <r_epik_Ionization_Penalty_Neutral>  (82) 
1.14162e-05

>  <r_epik_State_Penalty>  (82) 
-0

>  <r_epik_Charging_Adjusted_Penalty>  (82) 
0

>  <i_epik_Tot_Q>  (82) 
0

>  <i_epik_Tot_abs_Q>  (82) 
0

>  <s_epik_Chemistry_Notes>  (82) 
This compound has an ester and may undergo hydrolysis at high or low pH.

>  <s_lp_Force_Field>  (82) 
OPLS3e

>  <r_lp_Energy>  (82) 
31.2004

>  <b_lp_Chiralities_Consistent>  (82) 
1

>  <s_lp_Variant>  (82) 
24:0-2

>  <s_i_glide_gridfile>  (82) 
pfpi4k_grid

>  <i_i_glide_lignum>  (82) 
37

>  <i_i_glide_rotatable_bonds>  (82) 
5

>  <r_i_docking_score>  (82) 
-2.6434

>  <r_i_glide_ligand_efficiency>  (82) 
-0.105736

>  <r_i_glide_ligand_efficiency_sa>  (82) 
-0.309174

>  <r_i_glide_ligand_efficiency_ln>  (82) 
-0.626565

>  <r_i_glide_gscore>  (82) 
-2.6434

>  <r_i_glide_lipo>  (82) 
-0.542543

>  <r_i_glide_hbond>  (82) 
0

>  <r_i_glide_metal>  (82) 
-0

>  <r_i_glide_rewards>  (82) 
-1.0609

>  <r_i_glide_evdw>  (82) 
-21.866

>  <r_i_glide_ecoul>  (82) 
-3.17336

>  <r_i_glide_erotb>  (82) 
0.640303

>  <r_i_glide_esite>  (82) 
-0.110959

>  <r_i_glide_emodel>  (82) 
-28.914

>  <r_i_glide_energy>  (82) 
-25.0394

>  <r_i_glide_einternal>  (82) 
1.44345

>  <r_i_glide_intrahb_reward>  (82) 
-0

>  <i_i_glide_confnum>  (82) 
4

>  <i_i_glide_posenum>  (82) 
3

>  <r_i_glide_eff_state_penalty>  (82) 
0

>  <ligand_id>  (82) 
24

>  <original_smiles>  (82) 
CCCC=C1C=C2CC(=O)C(C)(OC(=O)C3CCCC3)C(=O)C2=CO1

>  <smiles>  (82) 
[H]C1=C2C(=O)C(OC(=O)C3([H])C([H])([H])C([H])([H])C([H])([H])C3([H])[H])(C([H])([H])[H])C(=O)C([H])([H])C2=C([H])C(=C([H])C([H])([H])C([H])([H])C([H])([H])[H])O1

$$$$
24:1:2
     RDKit          3D

 49 51  0  0  1  0  0  0  0  0999 V2000
    2.1052    0.5413   -5.1867 C   0  0  0  0  0  0  0  0  0  0  0  0
    3.5757    0.1187   -5.2638 C   0  0  0  0  0  0  0  0  0  0  0  0
    3.9248   -1.1198   -4.4198 C   0  0  0  0  0  0  0  0  0  0  0  0
    3.5949   -0.9420   -2.9537 C   0  0  0  0  0  0  0  0  0  0  0  0
    3.7740   -1.8774   -2.0079 C   0  0  0  0  0  0  0  0  0  0  0  0
    3.4135   -1.6457   -0.6170 C   0  0  0  0  0  0  0  0  0  0  0  0
    3.4959   -2.6322    0.2973 C   0  0  0  0  0  0  0  0  0  0  0  0
    3.1322   -2.3772    1.7522 C   0  0  0  0  0  0  0  0  0  0  0  0
    2.6200   -3.6502    2.4228 C   0  0  0  0  0  0  0  0  0  0  0  0
    1.6480   -3.6065    3.1802 O   0  0  0  0  0  0  0  0  0  0  0  0
    3.4362   -4.9474    2.2265 C   0  0  1  0  0  0  0  0  0  0  0  0
    4.6536   -4.9308    3.1588 C   0  0  0  0  0  0  0  0  0  0  0  0
    2.6783   -6.0881    2.6778 O   0  0  0  0  0  0  0  0  0  0  0  0
    1.5291   -6.5502    2.1119 C   0  0  0  0  0  0  0  0  0  0  0  0
    1.0195   -6.1447    1.0638 O   0  0  0  0  0  0  0  0  0  0  0  0
    0.8646   -7.6242    2.9860 C   0  0  0  0  0  0  0  0  0  0  0  0
    1.7112   -8.9047    3.1379 C   0  0  0  0  0  0  0  0  0  0  0  0
    0.7460  -10.0876    2.9774 C   0  0  0  0  0  0  0  0  0  0  0  0
   -0.6584   -9.4987    3.0453 C   0  0  0  0  0  0  0  0  0  0  0  0
   -0.5096   -8.0923    2.4799 C   0  0  0  0  0  0  0  0  0  0  0  0
    3.9140   -5.1105    0.7575 C   0  0  0  0  0  0  0  0  0  0  0  0
    4.2951   -6.2304    0.4014 O   0  0  0  0  0  0  0  0  0  0  0  0
    3.9506   -3.9412   -0.1583 C   0  0  0  0  0  0  0  0  0  0  0  0
    4.3479   -4.0984   -1.4360 C   0  0  0  0  0  0  0  0  0  0  0  0
    4.3155   -3.0902   -2.3718 O   0  0  0  0  0  0  0  0  0  0  0  0
    1.9342    1.4216   -5.7975 H   0  0  0  0  0  0  0  0  0  0  0  0
    1.7861    0.7976   -4.1870 H   0  0  0  0  0  0  0  0  0  0  0  0
    1.4408   -0.2533   -5.5263 H   0  0  0  0  0  0  0  0  0  0  0  0
    3.8137   -0.0850   -6.3064 H   0  0  0  0  0  0  0  0  0  0  0  0
    4.2122    0.9503   -4.9628 H   0  0  0  0  0  0  0  0  0  0  0  0
    3.3901   -1.9990   -4.7757 H   0  0  0  0  0  0  0  0  0  0  0  0
    4.9886   -1.3360   -4.4995 H   0  0  0  0  0  0  0  0  0  0  0  0
    3.1455    0.0036   -2.7051 H   0  0  0  0  0  0  0  0  0  0  0  0
    3.0657   -0.6691   -0.3060 H   0  0  0  0  0  0  0  0  0  0  0  0
    3.9965   -2.0000    2.2999 H   0  0  0  0  0  0  0  0  0  0  0  0
    2.3515   -1.6165    1.8061 H   0  0  0  0  0  0  0  0  0  0  0  0
    5.3265   -4.1062    2.9326 H   0  0  0  0  0  0  0  0  0  0  0  0
    5.2210   -5.8584    3.0794 H   0  0  0  0  0  0  0  0  0  0  0  0
    4.3428   -4.8368    4.1985 H   0  0  0  0  0  0  0  0  0  0  0  0
    0.7281   -7.2025    3.9825 H   0  0  0  0  0  0  0  0  0  0  0  0
    2.5121   -8.9755    2.3993 H   0  0  0  0  0  0  0  0  0  0  0  0
    2.1827   -8.9318    4.1224 H   0  0  0  0  0  0  0  0  0  0  0  0
    0.8972  -10.5416    2.0015 H   0  0  0  0  0  0  0  0  0  0  0  0
    0.9022  -10.8648    3.7260 H   0  0  0  0  0  0  0  0  0  0  0  0
   -1.3855  -10.0878    2.4889 H   0  0  0  0  0  0  0  0  0  0  0  0
   -0.9862   -9.4530    4.0827 H   0  0  0  0  0  0  0  0  0  0  0  0
   -1.3194   -7.4369    2.8063 H   0  0  0  0  0  0  0  0  0  0  0  0
   -0.5425   -8.1551    1.3899 H   0  0  0  0  0  0  0  0  0  0  0  0
    4.6918   -5.0340   -1.8589 H   0  0  0  0  0  0  0  0  0  0  0  0
  1  2  1  0
  1 26  1  0
  1 27  1  0
  1 28  1  0
  2  3  1  0
  2 29  1  0
  2 30  1  0
  3  4  1  0
  3 31  1  0
  3 32  1  0
  4  5  2  3
  4 33  1  0
  5 25  1  0
  5  6  1  0
  6  7  2  0
  6 34  1  0
  7 23  1  0
  7  8  1  0
  8  9  1  0
  8 35  1  0
  8 36  1  0
  9 10  2  0
  9 11  1  0
 11 12  1  0
 11 13  1  1
 11 21  1  0
 12 37  1  0
 12 38  1  0
 12 39  1  0
 13 14  1  0
 14 15  2  0
 14 16  1  0
 16 20  1  0
 16 17  1  0
 16 40  1  0
 17 18  1  0
 17 41  1  0
 17 42  1  0
 18 19  1  0
 18 43  1  0
 18 44  1  0
 19 20  1  0
 19 45  1  0
 19 46  1  0
 20 47  1  0
 20 48  1  0
 21 22  2  0
 21 23  1  0
 23 24  2  0
 24 25  1  0
 24 49  1  0
M  END
>  <i_m_ct_stereo_status>  (83) 
1

>  <s_m_source_file>  (83) 
/var/tmp/pbs.5076255.sched01/tmp14hj8t9c/0766azy0n.sdf

>  <i_m_source_file_index>  (83) 
37

>  <i_lp_mmshare_version>  (83) 
48012

>  <i_f3d_flags>  (83) 
0

>  <s_epik_input>  (83) 
W0NIM11bQ0gyXVtDSDJdL1tDSF09QyhcW0NIXT0xKU9bQ0hdPUMoQzEyKUMoPU8pW0NAQF0oW0NIM10pKEMoPU8pW0NIMl0yKU9DKD1PKVtDSF0zW0NIMl1bQ0gyXVtDSDJdW0NIMl0z

>  <s_epik_cmdline>  (83) 
J2VwaWtfcHl0aG9uJywgJy1waHQnLCAnMi4wJywgJy1waCcsICc3LjAnLCAnLXRuJywgJzgnLCAnLW1hJywgJzIwMCcsICctaW1hZScsICc8aW5maWxlLm1hZT4nLCAnLW9tYWUnLCAnPG91dGZpbGUubWFlPic=

>  <r_lp_tautomer_probability>  (83) 
1

>  <r_epik_Ionization_Penalty>  (83) 
1.14162e-05

>  <r_epik_Ionization_Penalty_Charging>  (83) 
0

>  <r_epik_Ionization_Penalty_Neutral>  (83) 
1.14162e-05

>  <r_epik_State_Penalty>  (83) 
-0

>  <r_epik_Charging_Adjusted_Penalty>  (83) 
0

>  <i_epik_Tot_Q>  (83) 
0

>  <i_epik_Tot_abs_Q>  (83) 
0

>  <s_epik_Chemistry_Notes>  (83) 
This compound has an ester and may undergo hydrolysis at high or low pH.

>  <s_lp_Force_Field>  (83) 
OPLS3e

>  <r_lp_Energy>  (83) 
31.2004

>  <b_lp_Chiralities_Consistent>  (83) 
1

>  <s_lp_Variant>  (83) 
24:0-2

>  <s_i_glide_gridfile>  (83) 
pfpi4k_grid

>  <i_i_glide_lignum>  (83) 
37

>  <i_i_glide_rotatable_bonds>  (83) 
5

>  <r_i_docking_score>  (83) 
-2.55927

>  <r_i_glide_ligand_efficiency>  (83) 
-0.102371

>  <r_i_glide_ligand_efficiency_sa>  (83) 
-0.299334

>  <r_i_glide_ligand_efficiency_ln>  (83) 
-0.606625

>  <r_i_glide_gscore>  (83) 
-2.55927

>  <r_i_glide_lipo>  (83) 
-0.197872

>  <r_i_glide_hbond>  (83) 
-0.16

>  <r_i_glide_metal>  (83) 
-0

>  <r_i_glide_rewards>  (83) 
-1.08518

>  <r_i_glide_evdw>  (83) 
-26.1056

>  <r_i_glide_ecoul>  (83) 
-2.74073

>  <r_i_glide_erotb>  (83) 
0.640303

>  <r_i_glide_esite>  (83) 
-0.0401349

>  <r_i_glide_emodel>  (83) 
-31.6323

>  <r_i_glide_energy>  (83) 
-28.8464

>  <r_i_glide_einternal>  (83) 
3.83613

>  <r_i_glide_intrahb_reward>  (83) 
-0

>  <i_i_glide_confnum>  (83) 
1

>  <i_i_glide_posenum>  (83) 
21

>  <r_i_glide_eff_state_penalty>  (83) 
0

>  <ligand_id>  (83) 
24

>  <original_smiles>  (83) 
CCCC=C1C=C2CC(=O)C(C)(OC(=O)C3CCCC3)C(=O)C2=CO1

>  <smiles>  (83) 
[H]C1=C2C(=O)C(OC(=O)C3([H])C([H])([H])C([H])([H])C([H])([H])C3([H])[H])(C([H])([H])[H])C(=O)C([H])([H])C2=C([H])C(=C([H])C([H])([H])C([H])([H])C([H])([H])[H])O1

$$$$
25:0:0
     RDKit          3D

 37 42  0  0  1  0  0  0  0  0999 V2000
    2.7697   -7.8625    2.0155 C   0  0  0  0  0  0  0  0  0  0  0  0
    3.1637   -6.3703    2.0172 C   0  0  2  0  0  0  0  0  0  0  0  0
    2.6875   -5.6837    0.7126 C   0  0  0  0  0  0  0  0  0  0  0  0
    1.5031   -5.8198    0.3893 O   0  0  0  0  0  0  0  0  0  0  0  0
    3.5342   -4.8414    0.0551 N   0  0  0  0  0  0  0  0  0  0  0  0
    3.1936   -3.4126    0.1124 C   0  0  2  0  0  0  0  0  0  0  0  0
    3.3260   -2.6843   -1.2200 C   0  0  0  0  0  0  0  0  0  0  0  0
    2.5332   -3.0720   -2.3144 C   0  0  0  0  0  0  0  0  0  0  0  0
    2.6386   -2.4115   -3.5503 C   0  0  0  0  0  0  0  0  0  0  0  0
    3.5464   -1.3432   -3.7019 C   0  0  0  0  0  0  0  0  0  0  0  0
    4.3348   -0.9423   -2.6071 C   0  0  0  0  0  0  0  0  0  0  0  0
    4.2261   -1.5955   -1.3592 C   0  0  0  0  0  0  0  0  0  0  0  0
    5.0014   -1.1530   -0.3143 O   0  0  0  0  0  0  0  0  0  0  0  0
    4.4824   -1.3854    0.9796 C   0  0  0  0  0  0  0  0  0  0  0  0
    4.1234   -2.8662    1.2067 C   0  0  2  0  0  0  0  0  0  0  0  0
    5.3026   -3.8097    1.1234 C   0  0  1  0  0  0  0  0  0  0  0  0
    5.4454   -4.8901    2.1896 C   0  0  2  0  0  0  0  0  0  0  0  0
    4.6393   -6.2061    2.3040 C   0  0  2  0  0  0  0  0  0  0  0  0
    5.4709   -5.9424    1.0987 C   0  0  1  0  0  0  0  0  0  0  0  0
    5.0080   -4.9099    0.1220 C   0  0  1  0  0  0  0  0  0  0  0  0
    1.6889   -7.9673    1.9108 H   0  0  0  0  0  0  0  0  0  0  0  0
    3.0545   -8.3561    2.9414 H   0  0  0  0  0  0  0  0  0  0  0  0
    3.2312   -8.4056    1.1900 H   0  0  0  0  0  0  0  0  0  0  0  0
    2.6368   -5.8853    2.8449 H   0  0  0  0  0  0  0  0  0  0  0  0
    2.1692   -3.2483    0.4416 H   0  0  0  0  0  0  0  0  0  0  0  0
    1.8244   -3.8832   -2.2193 H   0  0  0  0  0  0  0  0  0  0  0  0
    2.0092   -2.7200   -4.3697 H   0  0  0  0  0  0  0  0  0  0  0  0
    3.6194   -0.8217   -4.6408 H   0  0  0  0  0  0  0  0  0  0  0  0
    5.0062   -0.1070   -2.7066 H   0  0  0  0  0  0  0  0  0  0  0  0
    5.2154   -1.0565    1.7217 H   0  0  0  0  0  0  0  0  0  0  0  0
    3.5941   -0.7633    1.1223 H   0  0  0  0  0  0  0  0  0  0  0  0
    3.6560   -2.9765    2.1850 H   0  0  0  0  0  0  0  0  0  0  0  0
    6.2574   -3.3352    0.9021 H   0  0  0  0  0  0  0  0  0  0  0  0
    6.3126   -4.7976    2.8319 H   0  0  0  0  0  0  0  0  0  0  0  0
    5.0470   -6.9172    3.0148 H   0  0  0  0  0  0  0  0  0  0  0  0
    6.4278   -6.4267    0.9286 H   0  0  0  0  0  0  0  0  0  0  0  0
    5.5793   -4.8295   -0.8027 H   0  0  0  0  0  0  0  0  0  0  0  0
  1  2  1  0
  1 21  1  0
  1 22  1  0
  1 23  1  0
  2 18  1  0
  2  3  1  0
  2 24  1  1
  3  4  2  0
  3  5  1  0
  5 20  1  0
  5  6  1  0
  6 15  1  0
  6  7  1  0
  6 25  1  1
  7 12  2  0
  7  8  1  0
  8  9  2  0
  8 26  1  0
  9 10  1  0
  9 27  1  0
 10 11  2  0
 10 28  1  0
 11 12  1  0
 11 29  1  0
 12 13  1  0
 13 14  1  0
 14 15  1  0
 14 30  1  0
 14 31  1  0
 15 16  1  0
 15 32  1  1
 16 20  1  0
 16 17  1  0
 16 33  1  6
 17 19  1  0
 17 18  1  0
 17 34  1  1
 18 19  1  0
 18 35  1  1
 19 20  1  0
 19 36  1  6
 20 37  1  6
M  END
>  <i_m_ct_stereo_status>  (84) 
1

>  <s_m_source_file>  (84) 
/var/tmp/pbs.5076255.sched01/tmp14hj8t9c/0766azy0n.sdf

>  <i_m_source_file_index>  (84) 
38

>  <i_lp_mmshare_version>  (84) 
48012

>  <i_f3d_flags>  (84) 
2

>  <s_epik_input>  (84) 
Tz1DMVtDQEBIXShbQ0gzXSlbQ0hdKFtDQEBIXTJbQ0BASF0zNClbQ0BIXTJbQ0BASF00W0NASF01W0NIMl1PYyhjNltDQEhdNU4xMylbY0hdW2NIXVtjSF1bY0hdNg==

>  <s_epik_cmdline>  (84) 
J2VwaWtfcHl0aG9uJywgJy1waHQnLCAnMi4wJywgJy1waCcsICc3LjAnLCAnLXRuJywgJzgnLCAnLW1hJywgJzIwMCcsICctaW1hZScsICc8aW5maWxlLm1hZT4nLCAnLW9tYWUnLCAnPG91dGZpbGUubWFlPic=

>  <r_lp_tautomer_probability>  (84) 
1

>  <r_epik_Ionization_Penalty>  (84) 
1.67924e-08

>  <r_epik_Ionization_Penalty_Charging>  (84) 
0

>  <r_epik_Ionization_Penalty_Neutral>  (84) 
1.67924e-08

>  <r_epik_State_Penalty>  (84) 
-0

>  <r_epik_Charging_Adjusted_Penalty>  (84) 
0

>  <i_epik_Tot_Q>  (84) 
0

>  <i_epik_Tot_abs_Q>  (84) 
0

>  <s_lp_Force_Field>  (84) 
OPLS3e

>  <r_lp_Energy>  (84) 
65.8673

>  <b_lp_Chiralities_Consistent>  (84) 
0

>  <s_lp_Variant>  (84) 
25:0-1

>  <s_i_glide_gridfile>  (84) 
pfpi4k_grid

>  <i_i_glide_lignum>  (84) 
38

>  <i_i_glide_rotatable_bonds>  (84) 
0

>  <r_i_docking_score>  (84) 
-4.2593

>  <r_i_glide_ligand_efficiency>  (84) 
-0.212965

>  <r_i_glide_ligand_efficiency_sa>  (84) 
-0.578076

>  <r_i_glide_ligand_efficiency_ln>  (84) 
-1.06596

>  <r_i_glide_gscore>  (84) 
-4.2593

>  <r_i_glide_lipo>  (84) 
-0.712943

>  <r_i_glide_hbond>  (84) 
-0.147156

>  <r_i_glide_metal>  (84) 
-0

>  <r_i_glide_rewards>  (84) 
-1.58644

>  <r_i_glide_evdw>  (84) 
-26.4823

>  <r_i_glide_ecoul>  (84) 
-2.91215

>  <r_i_glide_erotb>  (84) 
0

>  <r_i_glide_esite>  (84) 
-0.0518318

>  <r_i_glide_emodel>  (84) 
-37.2575

>  <r_i_glide_energy>  (84) 
-29.3944

>  <r_i_glide_einternal>  (84) 
0

>  <r_i_glide_intrahb_reward>  (84) 
-0

>  <i_i_glide_confnum>  (84) 
1

>  <i_i_glide_posenum>  (84) 
1

>  <r_i_glide_eff_state_penalty>  (84) 
0

>  <ligand_id>  (84) 
25

>  <original_smiles>  (84) 
CC1C(=O)N2C3c4ccccc4OCC3C3C4C1C4C32

>  <smiles>  (84) 
[H]c1c([H])c([H])c2c(c1[H])OC([H])([H])C1([H])C2([H])N2C(=O)C([H])(C([H])([H])[H])C3([H])C4([H])C2([H])C1([H])C34[H]

$$$$
25:0:1
     RDKit          3D

 37 42  0  0  1  0  0  0  0  0999 V2000
    1.7989   -8.2893    2.3946 C   0  0  0  0  0  0  0  0  0  0  0  0
    2.5935   -6.9665    2.3933 C   0  0  2  0  0  0  0  0  0  0  0  0
    2.2174   -6.1069    1.1578 C   0  0  0  0  0  0  0  0  0  0  0  0
    1.0226   -5.8844    0.9415 O   0  0  0  0  0  0  0  0  0  0  0  0
    3.1945   -5.4972    0.4386 N   0  0  0  0  0  0  0  0  0  0  0  0
    3.2654   -4.0328    0.5775 C   0  0  2  0  0  0  0  0  0  0  0  0
    3.4571   -3.2934   -0.7404 C   0  0  0  0  0  0  0  0  0  0  0  0
    2.4921   -3.4000   -1.7650 C   0  0  0  0  0  0  0  0  0  0  0  0
    2.6679   -2.7218   -2.9912 C   0  0  0  0  0  0  0  0  0  0  0  0
    3.8239   -1.9389   -3.2017 C   0  0  0  0  0  0  0  0  0  0  0  0
    4.7899   -1.8349   -2.1811 C   0  0  0  0  0  0  0  0  0  0  0  0
    4.6125   -2.4924   -0.9466 C   0  0  0  0  0  0  0  0  0  0  0  0
    5.5775   -2.3391    0.0197 O   0  0  0  0  0  0  0  0  0  0  0  0
    5.1477   -2.4925    1.3586 C   0  0  0  0  0  0  0  0  0  0  0  0
    4.4121   -3.8264    1.5820 C   0  0  2  0  0  0  0  0  0  0  0  0
    5.2712   -5.0515    1.3508 C   0  0  1  0  0  0  0  0  0  0  0  0
    5.2058   -6.1860    2.3693 C   0  0  2  0  0  0  0  0  0  0  0  0
    4.0779   -7.2320    2.5327 C   0  0  2  0  0  0  0  0  0  0  0  0
    4.8331   -7.1445    1.2550 C   0  0  1  0  0  0  0  0  0  0  0  0
    4.5926   -5.9703    0.3574 C   0  0  1  0  0  0  0  0  0  0  0  0
    0.7290   -8.0852    2.4043 H   0  0  0  0  0  0  0  0  0  0  0  0
    2.0200   -8.8932    3.2729 H   0  0  0  0  0  0  0  0  0  0  0  0
    2.0073   -8.8945    1.5112 H   0  0  0  0  0  0  0  0  0  0  0  0
    2.3039   -6.4016    3.2845 H   0  0  0  0  0  0  0  0  0  0  0  0
    2.3600   -3.6195    1.0218 H   0  0  0  0  0  0  0  0  0  0  0  0
    1.6045   -3.9969   -1.6202 H   0  0  0  0  0  0  0  0  0  0  0  0
    1.9187   -2.7974   -3.7653 H   0  0  0  0  0  0  0  0  0  0  0  0
    3.9589   -1.4127   -4.1279 H   0  0  0  0  0  0  0  0  0  0  0  0
    5.6674   -1.2279   -2.3236 H   0  0  0  0  0  0  0  0  0  0  0  0
    6.0126   -2.4203    2.0231 H   0  0  0  0  0  0  0  0  0  0  0  0
    4.4884   -1.6590    1.6116 H   0  0  0  0  0  0  0  0  0  0  0  0
    4.0285   -3.8558    2.6027 H   0  0  0  0  0  0  0  0  0  0  0  0
    6.2947   -4.8458    1.0416 H   0  0  0  0  0  0  0  0  0  0  0  0
    6.1218   -6.3707    2.9189 H   0  0  0  0  0  0  0  0  0  0  0  0
    4.3342   -8.0678    3.1795 H   0  0  0  0  0  0  0  0  0  0  0  0
    5.5896   -7.8685    0.9734 H   0  0  0  0  0  0  0  0  0  0  0  0
    5.0722   -6.0044   -0.6215 H   0  0  0  0  0  0  0  0  0  0  0  0
  1  2  1  0
  1 21  1  0
  1 22  1  0
  1 23  1  0
  2 18  1  0
  2  3  1  0
  2 24  1  1
  3  4  2  0
  3  5  1  0
  5 20  1  0
  5  6  1  0
  6 15  1  0
  6  7  1  0
  6 25  1  1
  7 12  2  0
  7  8  1  0
  8  9  2  0
  8 26  1  0
  9 10  1  0
  9 27  1  0
 10 11  2  0
 10 28  1  0
 11 12  1  0
 11 29  1  0
 12 13  1  0
 13 14  1  0
 14 15  1  0
 14 30  1  0
 14 31  1  0
 15 16  1  0
 15 32  1  1
 16 20  1  0
 16 17  1  0
 16 33  1  6
 17 19  1  0
 17 18  1  0
 17 34  1  1
 18 19  1  0
 18 35  1  1
 19 20  1  0
 19 36  1  6
 20 37  1  6
M  END
>  <i_m_ct_stereo_status>  (85) 
1

>  <s_m_source_file>  (85) 
/var/tmp/pbs.5076255.sched01/tmp14hj8t9c/0766azy0n.sdf

>  <i_m_source_file_index>  (85) 
38

>  <i_lp_mmshare_version>  (85) 
48012

>  <i_f3d_flags>  (85) 
2

>  <s_epik_input>  (85) 
Tz1DMVtDQEBIXShbQ0gzXSlbQ0hdKFtDQEBIXTJbQ0BASF0zNClbQ0BIXTJbQ0BASF00W0NASF01W0NIMl1PYyhjNltDQEhdNU4xMylbY0hdW2NIXVtjSF1bY0hdNg==

>  <s_epik_cmdline>  (85) 
J2VwaWtfcHl0aG9uJywgJy1waHQnLCAnMi4wJywgJy1waCcsICc3LjAnLCAnLXRuJywgJzgnLCAnLW1hJywgJzIwMCcsICctaW1hZScsICc8aW5maWxlLm1hZT4nLCAnLW9tYWUnLCAnPG91dGZpbGUubWFlPic=

>  <r_lp_tautomer_probability>  (85) 
1

>  <r_epik_Ionization_Penalty>  (85) 
1.67924e-08

>  <r_epik_Ionization_Penalty_Charging>  (85) 
0

>  <r_epik_Ionization_Penalty_Neutral>  (85) 
1.67924e-08

>  <r_epik_State_Penalty>  (85) 
-0

>  <r_epik_Charging_Adjusted_Penalty>  (85) 
0

>  <i_epik_Tot_Q>  (85) 
0

>  <i_epik_Tot_abs_Q>  (85) 
0

>  <s_lp_Force_Field>  (85) 
OPLS3e

>  <r_lp_Energy>  (85) 
65.8673

>  <b_lp_Chiralities_Consistent>  (85) 
0

>  <s_lp_Variant>  (85) 
25:0-1

>  <s_i_glide_gridfile>  (85) 
pfpi4k_grid

>  <i_i_glide_lignum>  (85) 
38

>  <i_i_glide_rotatable_bonds>  (85) 
0

>  <r_i_docking_score>  (85) 
-4.18574

>  <r_i_glide_ligand_efficiency>  (85) 
-0.209287

>  <r_i_glide_ligand_efficiency_sa>  (85) 
-0.568092

>  <r_i_glide_ligand_efficiency_ln>  (85) 
-1.04755

>  <r_i_glide_gscore>  (85) 
-4.18574

>  <r_i_glide_lipo>  (85) 
-0.670789

>  <r_i_glide_hbond>  (85) 
-0.16

>  <r_i_glide_metal>  (85) 
-0

>  <r_i_glide_rewards>  (85) 
-1.58644

>  <r_i_glide_evdw>  (85) 
-23.2014

>  <r_i_glide_ecoul>  (85) 
-3.72999

>  <r_i_glide_erotb>  (85) 
0

>  <r_i_glide_esite>  (85) 
-0.0489404

>  <r_i_glide_emodel>  (85) 
-34.6706

>  <r_i_glide_energy>  (85) 
-26.9314

>  <r_i_glide_einternal>  (85) 
0

>  <r_i_glide_intrahb_reward>  (85) 
-0

>  <i_i_glide_confnum>  (85) 
1

>  <i_i_glide_posenum>  (85) 
12

>  <r_i_glide_eff_state_penalty>  (85) 
0

>  <ligand_id>  (85) 
25

>  <original_smiles>  (85) 
CC1C(=O)N2C3c4ccccc4OCC3C3C4C1C4C32

>  <smiles>  (85) 
[H]c1c([H])c([H])c2c(c1[H])OC([H])([H])C1([H])C2([H])N2C(=O)C([H])(C([H])([H])[H])C3([H])C4([H])C2([H])C1([H])C34[H]

$$$$
25:0:2
     RDKit          3D

 37 42  0  0  1  0  0  0  0  0999 V2000
    2.7223   -2.2395   -3.3981 C   0  0  0  0  0  0  0  0  0  0  0  0
    3.6380   -3.1044   -2.5211 C   0  0  2  0  0  0  0  0  0  0  0  0
    2.9755   -3.4044   -1.1384 C   0  0  0  0  0  0  0  0  0  0  0  0
    1.8509   -3.8621   -1.1180 O   0  0  0  0  0  0  0  0  0  0  0  0
    3.7183   -3.2956    0.0017 N   0  0  0  0  0  0  0  0  0  0  0  0
    4.0376   -4.5836    0.6408 C   0  0  2  0  0  0  0  0  0  0  0  0
    3.8588   -4.5777    2.1495 C   0  0  0  0  0  0  0  0  0  0  0  0
    2.5821   -4.3187    2.7103 C   0  0  0  0  0  0  0  0  0  0  0  0
    2.4136   -4.2959    4.1143 C   0  0  0  0  0  0  0  0  0  0  0  0
    3.5179   -4.5157    4.9626 C   0  0  0  0  0  0  0  0  0  0  0  0
    4.7919   -4.7650    4.4051 C   0  0  0  0  0  0  0  0  0  0  0  0
    4.9670   -4.8137    3.0035 C   0  0  0  0  0  0  0  0  0  0  0  0
    6.2205   -5.0804    2.5062 O   0  0  0  0  0  0  0  0  0  0  0  0
    6.2681   -5.6781    1.2220 C   0  0  0  0  0  0  0  0  0  0  0  0
    5.4764   -4.8671    0.1866 C   0  0  2  0  0  0  0  0  0  0  0  0
    6.0204   -3.4716   -0.0514 C   0  0  1  0  0  0  0  0  0  0  0  0
    6.1453   -2.9824   -1.4915 C   0  0  2  0  0  0  0  0  0  0  0  0
    5.0206   -2.5068   -2.4239 C   0  0  2  0  0  0  0  0  0  0  0  0
    5.2716   -1.7916   -1.1537 C   0  0  1  0  0  0  0  0  0  0  0  0
    4.9228   -2.4492    0.1461 C   0  0  1  0  0  0  0  0  0  0  0  0
    1.7706   -2.7397   -3.5454 H   0  0  0  0  0  0  0  0  0  0  0  0
    3.1499   -2.0544   -4.3822 H   0  0  0  0  0  0  0  0  0  0  0  0
    2.5256   -1.2769   -2.9279 H   0  0  0  0  0  0  0  0  0  0  0  0
    3.7846   -4.0518   -3.0337 H   0  0  0  0  0  0  0  0  0  0  0  0
    3.4163   -5.3949    0.2690 H   0  0  0  0  0  0  0  0  0  0  0  0
    1.7336   -4.1400    2.0692 H   0  0  0  0  0  0  0  0  0  0  0  0
    1.4373   -4.1062    4.5462 H   0  0  0  0  0  0  0  0  0  0  0  0
    3.3978   -4.5003    6.0338 H   0  0  0  0  0  0  0  0  0  0  0  0
    5.6391   -4.9440    5.0518 H   0  0  0  0  0  0  0  0  0  0  0  0
    7.3093   -5.7711    0.9230 H   0  0  0  0  0  0  0  0  0  0  0  0
    5.8685   -6.6857    1.2964 H   0  0  0  0  0  0  0  0  0  0  0  0
    5.4607   -5.4123   -0.7593 H   0  0  0  0  0  0  0  0  0  0  0  0
    6.8872   -3.2035    0.5516 H   0  0  0  0  0  0  0  0  0  0  0  0
    7.1662   -2.8065   -1.8249 H   0  0  0  0  0  0  0  0  0  0  0  0
    5.3726   -2.0194   -3.3322 H   0  0  0  0  0  0  0  0  0  0  0  0
    5.7730   -0.8313   -1.1125 H   0  0  0  0  0  0  0  0  0  0  0  0
    5.0236   -1.8360    1.0430 H   0  0  0  0  0  0  0  0  0  0  0  0
  1  2  1  0
  1 21  1  0
  1 22  1  0
  1 23  1  0
  2 18  1  0
  2  3  1  0
  2 24  1  6
  3  4  2  0
  3  5  1  0
  5 20  1  0
  5  6  1  0
  6 15  1  0
  6  7  1  0
  6 25  1  6
  7 12  2  0
  7  8  1  0
  8  9  2  0
  8 26  1  0
  9 10  1  0
  9 27  1  0
 10 11  2  0
 10 28  1  0
 11 12  1  0
 11 29  1  0
 12 13  1  0
 13 14  1  0
 14 15  1  0
 14 30  1  0
 14 31  1  0
 15 16  1  0
 15 32  1  6
 16 20  1  0
 16 17  1  0
 16 33  1  1
 17 19  1  0
 17 18  1  0
 17 34  1  6
 18 19  1  0
 18 35  1  6
 19 20  1  0
 19 36  1  6
 20 37  1  1
M  END
>  <i_m_ct_stereo_status>  (86) 
1

>  <s_m_source_file>  (86) 
/var/tmp/pbs.5076255.sched01/tmp14hj8t9c/0766azy0n.sdf

>  <i_m_source_file_index>  (86) 
38

>  <i_lp_mmshare_version>  (86) 
48012

>  <i_f3d_flags>  (86) 
2

>  <s_epik_input>  (86) 
Tz1DMVtDQEBIXShbQ0gzXSlbQ0hdKFtDQEBIXTJbQ0BASF0zNClbQ0BIXTJbQ0BASF00W0NASF01W0NIMl1PYyhjNltDQEhdNU4xMylbY0hdW2NIXVtjSF1bY0hdNg==

>  <s_epik_cmdline>  (86) 
J2VwaWtfcHl0aG9uJywgJy1waHQnLCAnMi4wJywgJy1waCcsICc3LjAnLCAnLXRuJywgJzgnLCAnLW1hJywgJzIwMCcsICctaW1hZScsICc8aW5maWxlLm1hZT4nLCAnLW9tYWUnLCAnPG91dGZpbGUubWFlPic=

>  <r_lp_tautomer_probability>  (86) 
1

>  <r_epik_Ionization_Penalty>  (86) 
1.67924e-08

>  <r_epik_Ionization_Penalty_Charging>  (86) 
0

>  <r_epik_Ionization_Penalty_Neutral>  (86) 
1.67924e-08

>  <r_epik_State_Penalty>  (86) 
-0

>  <r_epik_Charging_Adjusted_Penalty>  (86) 
0

>  <i_epik_Tot_Q>  (86) 
0

>  <i_epik_Tot_abs_Q>  (86) 
0

>  <s_lp_Force_Field>  (86) 
OPLS3e

>  <r_lp_Energy>  (86) 
65.8673

>  <b_lp_Chiralities_Consistent>  (86) 
0

>  <s_lp_Variant>  (86) 
25:0-1

>  <s_i_glide_gridfile>  (86) 
pfpi4k_grid

>  <i_i_glide_lignum>  (86) 
38

>  <i_i_glide_rotatable_bonds>  (86) 
0

>  <r_i_docking_score>  (86) 
-3.48471

>  <r_i_glide_ligand_efficiency>  (86) 
-0.174236

>  <r_i_glide_ligand_efficiency_sa>  (86) 
-0.472949

>  <r_i_glide_ligand_efficiency_ln>  (86) 
-0.872109

>  <r_i_glide_gscore>  (86) 
-3.48471

>  <r_i_glide_lipo>  (86) 
-0.619537

>  <r_i_glide_hbond>  (86) 
-0.00560673

>  <r_i_glide_metal>  (86) 
-0

>  <r_i_glide_rewards>  (86) 
-1.71392

>  <r_i_glide_evdw>  (86) 
-22.771

>  <r_i_glide_ecoul>  (86) 
-0.0473629

>  <r_i_glide_erotb>  (86) 
0

>  <r_i_glide_esite>  (86) 
0

>  <r_i_glide_emodel>  (86) 
-29.2387

>  <r_i_glide_energy>  (86) 
-22.8184

>  <r_i_glide_einternal>  (86) 
0

>  <r_i_glide_intrahb_reward>  (86) 
-0

>  <i_i_glide_confnum>  (86) 
1

>  <i_i_glide_posenum>  (86) 
13

>  <r_i_glide_eff_state_penalty>  (86) 
0

>  <ligand_id>  (86) 
25

>  <original_smiles>  (86) 
CC1C(=O)N2C3c4ccccc4OCC3C3C4C1C4C32

>  <smiles>  (86) 
[H]c1c([H])c([H])c2c(c1[H])OC([H])([H])C1([H])C2([H])N2C(=O)C([H])(C([H])([H])[H])C3([H])C4([H])C2([H])C1([H])C34[H]

$$$$
26:2:0
     RDKit          3D

 60 64  0  0  1  0  0  0  0  0999 V2000
    4.1178   -2.6240    4.3706 C   0  0  0  0  0  0  0  0  0  0  0  0
    2.6429   -2.3891    3.9334 C   0  0  1  0  0  0  0  0  0  0  0  0
    2.3789   -3.1091    2.5793 C   0  0  0  0  0  0  0  0  0  0  0  0
    2.2963   -4.6418    2.6875 C   0  0  0  0  0  0  0  0  0  0  0  0
    1.2277   -5.0802    3.7111 C   0  0  1  0  0  0  0  0  0  0  0  0
    1.0132   -6.5941    3.8176 C   0  0  0  0  0  0  0  0  0  0  0  0
    1.1021   -7.4136    2.6669 C   0  0  0  0  0  0  0  0  0  0  0  0
    0.8530   -8.7980    2.7538 C   0  0  0  0  0  0  0  0  0  0  0  0
    0.4921   -9.3789    3.9866 C   0  0  0  0  0  0  0  0  0  0  0  0
    0.2195  -10.7035    4.0500 O   0  0  0  0  0  0  0  0  0  0  0  0
    0.3979   -8.5722    5.1367 C   0  0  0  0  0  0  0  0  0  0  0  0
    0.6673   -7.1892    5.0611 C   0  0  0  0  0  0  0  0  0  0  0  0
    0.6105   -6.3824    6.3488 C   0  0  0  0  0  0  0  0  0  0  0  0
    0.4842   -4.8749    6.1255 C   0  0  0  0  0  0  0  0  0  0  0  0
    1.5058   -4.4220    5.0792 C   0  0  2  0  0  0  0  0  0  0  0  0
    1.6353   -2.8892    4.9994 C   0  0  2  0  0  0  0  0  0  0  0  0
    0.3318   -2.1013    4.7690 C   0  0  0  0  0  0  0  0  0  0  0  0
    0.7189   -0.8661    3.9455 C   0  0  0  0  0  0  0  0  0  0  0  0
    2.2560   -0.8750    3.8369 C   0  0  1  0  0  0  0  0  0  0  0  0
    2.7038   -0.2337    5.0204 O   0  0  0  0  0  0  0  0  0  0  0  0
    2.8054   -0.1111    2.6048 C   0  0  0  0  0  0  0  0  0  0  0  0
    3.9987   -0.2115    2.3268 O   0  0  0  0  0  0  0  0  0  0  0  0
    1.9190    0.7527    1.8089 C   0  0  0  0  0  0  0  0  0  0  0  0
    1.6919    2.0705    2.0023 C   0  0  0  0  0  0  0  0  0  0  0  0
    2.1974    3.0396    3.0096 C   0  0  0  0  0  0  0  0  0  0  0  0
    3.0536    2.7238    4.0909 C   0  0  0  0  0  0  0  0  0  0  0  0
    3.4207    3.7139    5.0250 C   0  0  0  0  0  0  0  0  0  0  0  0
    2.9861    5.0410    4.8362 C   0  0  0  0  0  0  0  0  0  0  0  0
    2.1662    5.3292    3.7191 C   0  0  0  0  0  0  0  0  0  0  0  0
    1.8077    4.3284    2.8755 N   0  0  0  0  0  0  0  0  0  0  0  0
    4.8312   -2.2408    3.6406 H   0  0  0  0  0  0  0  0  0  0  0  0
    4.3331   -3.6847    4.4965 H   0  0  0  0  0  0  0  0  0  0  0  0
    4.3569   -2.1543    5.3254 H   0  0  0  0  0  0  0  0  0  0  0  0
    1.4432   -2.7442    2.1484 H   0  0  0  0  0  0  0  0  0  0  0  0
    3.1547   -2.8422    1.8579 H   0  0  0  0  0  0  0  0  0  0  0  0
    2.0474   -5.0015    1.6904 H   0  0  0  0  0  0  0  0  0  0  0  0
    3.2748   -5.0626    2.9283 H   0  0  0  0  0  0  0  0  0  0  0  0
    0.2744   -4.6948    3.3580 H   0  0  0  0  0  0  0  0  0  0  0  0
    1.3580   -7.0090    1.7030 H   0  0  0  0  0  0  0  0  0  0  0  0
    0.9246   -9.4176    1.8756 H   0  0  0  0  0  0  0  0  0  0  0  0
   -0.4616  -10.9240    4.6912 H   0  0  0  0  0  0  0  0  0  0  0  0
    0.1291   -9.0255    6.0781 H   0  0  0  0  0  0  0  0  0  0  0  0
   -0.2026   -6.7345    6.9819 H   0  0  0  0  0  0  0  0  0  0  0  0
    1.5333   -6.5782    6.8968 H   0  0  0  0  0  0  0  0  0  0  0  0
   -0.5193   -4.6518    5.7626 H   0  0  0  0  0  0  0  0  0  0  0  0
    0.6163   -4.3344    7.0672 H   0  0  0  0  0  0  0  0  0  0  0  0
    2.4764   -4.7878    5.4155 H   0  0  0  0  0  0  0  0  0  0  0  0
    2.0118   -2.5606    5.9693 H   0  0  0  0  0  0  0  0  0  0  0  0
   -0.4059   -2.6793    4.2132 H   0  0  0  0  0  0  0  0  0  0  0  0
   -0.1136   -1.8097    5.7219 H   0  0  0  0  0  0  0  0  0  0  0  0
    0.2555   -0.9510    2.9615 H   0  0  0  0  0  0  0  0  0  0  0  0
    0.3430    0.0605    4.3900 H   0  0  0  0  0  0  0  0  0  0  0  0
    3.6506   -0.2636    5.0049 H   0  0  0  0  0  0  0  0  0  0  0  0
    1.4214    0.2714    0.9783 H   0  0  0  0  0  0  0  0  0  0  0  0
    1.0120    2.5022    1.2839 H   0  0  0  0  0  0  0  0  0  0  0  0
    3.4885    1.7559    4.2225 H   0  0  0  0  0  0  0  0  0  0  0  0
    4.0467    3.4355    5.8545 H   0  0  0  0  0  0  0  0  0  0  0  0
    3.2947    5.8129    5.5298 H   0  0  0  0  0  0  0  0  0  0  0  0
    1.7949    6.3255    3.4784 H   0  0  0  0  0  0  0  0  0  0  0  0
    1.1967    4.5417    2.0565 H   0  0  0  0  0  0  0  0  0  0  0  0
  2  1  1  1
  1 31  1  0
  1 32  1  0
  1 33  1  0
  2 16  1  0
  2 19  1  0
  2  3  1  0
  3  4  1  0
  3 34  1  0
  3 35  1  0
  4  5  1  0
  4 36  1  0
  4 37  1  0
  5 15  1  0
  5  6  1  0
  5 38  1  6
  6 12  2  0
  6  7  1  0
  7  8  2  0
  7 39  1  0
  8  9  1  0
  8 40  1  0
  9 10  1  0
  9 11  2  0
 10 41  1  0
 11 12  1  0
 11 42  1  0
 12 13  1  0
 13 14  1  0
 13 43  1  0
 13 44  1  0
 14 15  1  0
 14 45  1  0
 14 46  1  0
 15 16  1  0
 15 47  1  1
 16 17  1  0
 16 48  1  1
 17 18  1  0
 17 49  1  0
 17 50  1  0
 18 19  1  0
 18 51  1  0
 18 52  1  0
 19 20  1  1
 19 21  1  0
 20 53  1  0
 21 22  2  0
 21 23  1  0
 23 24  2  3
 23 54  1  0
 24 25  1  0
 24 55  1  0
 25 30  1  0
 25 26  2  0
 26 27  1  0
 26 56  1  0
 27 28  2  0
 27 57  1  0
 28 29  1  0
 28 58  1  0
 29 30  2  0
 29 59  1  0
 30 60  1  0
M  CHG  1  30   1
M  END
>  <i_m_ct_stereo_status>  (87) 
1

>  <s_m_source_file>  (87) 
/var/tmp/pbs.5076255.sched01/tmp14hj8t9c/0766azy0n.sdf

>  <i_m_source_file_index>  (87) 
41

>  <i_lp_mmshare_version>  (87) 
48012

>  <i_f3d_flags>  (87) 
0

>  <s_epik_input>  (87) 
W2NIXTFbY0hdYyhbT0hdKVtjSF1jKFtDSDJdW0NIMl0yKWMxW0NASF0oW0NIMl1bQ0gyXTMpW0NASF0yW0NAQEhdKFtDQEBdMzRbQ0gzXSlbQ0gyXVtDSDJdW0NAXTQoW09IXSlDKD1PKS9bQ0hdPVtDSF1cYzVbY0hdW2NIXVtjSF1bY0hdbjU=

>  <s_epik_cmdline>  (87) 
J2VwaWtfcHl0aG9uJywgJy1waHQnLCAnMi4wJywgJy1waCcsICc3LjAnLCAnLXRuJywgJzgnLCAnLW1hJywgJzIwMCcsICctaW1hZScsICc8aW5maWxlLm1hZT4nLCAnLW9tYWUnLCAnPG91dGZpbGUubWFlPic=

>  <r_lp_tautomer_probability>  (87) 
1

>  <r_epik_Ionization_Penalty>  (87) 
2.47756

>  <r_epik_Ionization_Penalty_Charging>  (87) 
2.47741

>  <r_epik_Ionization_Penalty_Neutral>  (87) 
0.000150937

>  <r_epik_State_Penalty>  (87) 
2.64078

>  <r_epik_Charging_Adjusted_Penalty>  (87) 
5.11819

>  <i_epik_Tot_Q>  (87) 
1

>  <i_epik_Tot_abs_Q>  (87) 
1

>  <s_lp_Force_Field>  (87) 
OPLS3e

>  <r_lp_Energy>  (87) 
65.3167

>  <b_lp_Chiralities_Consistent>  (87) 
1

>  <s_lp_Variant>  (87) 
26:0-3

>  <s_i_glide_gridfile>  (87) 
pfpi4k_grid

>  <i_i_glide_lignum>  (87) 
41

>  <i_i_glide_rotatable_bonds>  (87) 
5

>  <r_i_docking_score>  (87) 
-3.59746

>  <r_i_glide_ligand_efficiency>  (87) 
-0.119915

>  <r_i_glide_ligand_efficiency_sa>  (87) 
-0.372605

>  <r_i_glide_ligand_efficiency_ln>  (87) 
-0.817383

>  <r_i_glide_gscore>  (87) 
-3.59746

>  <r_i_glide_lipo>  (87) 
-0.0197408

>  <r_i_glide_hbond>  (87) 
-0.36

>  <r_i_glide_metal>  (87) 
-0

>  <r_i_glide_rewards>  (87) 
-0.650991

>  <r_i_glide_evdw>  (87) 
-25.1496

>  <r_i_glide_ecoul>  (87) 
-9.67587

>  <r_i_glide_erotb>  (87) 
0.240091

>  <r_i_glide_esite>  (87) 
-0.0979598

>  <r_i_glide_emodel>  (87) 
-38.0838

>  <r_i_glide_energy>  (87) 
-34.8255

>  <r_i_glide_einternal>  (87) 
11.9031

>  <r_i_glide_intrahb_reward>  (87) 
-0

>  <i_i_glide_confnum>  (87) 
2

>  <i_i_glide_posenum>  (87) 
1

>  <r_i_glide_eff_state_penalty>  (87) 
0

>  <ligand_id>  (87) 
26

>  <original_smiles>  (87) 
CC12CCC3c4ccc(O)cc4CCC3C1CCC2(O)C(=O)C=Cc1ccccn1

>  <smiles>  (87) 
[H]Oc1c([H])c([H])c2c(c1[H])C([H])([H])C([H])([H])C1([H])C2([H])C([H])([H])C([H])([H])C2(C([H])([H])[H])C(O[H])(C(=O)C([H])=C([H])c3c([H])c([H])c([H])c([H])[n+]3[H])C([H])([H])C([H])([H])C12[H]

$$$$
27:0:0
     RDKit          3D

 50 54  0  0  1  0  0  0  0  0999 V2000
    2.2266   -0.1186    1.6849 C   0  0  0  0  0  0  0  0  0  0  0  0
    3.3599   -1.0612    2.0475 C   0  0  0  0  0  0  0  0  0  0  0  0
    3.2392   -2.2119    2.7388 C   0  0  0  0  0  0  0  0  0  0  0  0
    1.9509   -2.7406    3.3599 C   0  0  0  0  0  0  0  0  0  0  0  0
    2.1828   -3.2644    4.7889 C   0  0  0  0  0  0  0  0  0  0  0  0
    3.3322   -4.2747    4.8505 C   0  0  0  0  0  0  0  0  0  0  0  0
    3.5510   -4.9277    5.8710 O   0  0  0  0  0  0  0  0  0  0  0  0
    4.1917   -4.4391    3.5945 C   0  0  0  0  0  0  0  0  0  0  0  0
    4.4809   -3.0807    2.9173 C   0  0  1  0  0  0  0  0  0  0  0  0
    5.2735   -3.1997    1.5837 C   0  0  1  0  0  0  0  0  0  0  0  0
    4.6385   -4.2388    0.6632 C   0  0  2  0  0  0  0  0  0  0  0  0
    5.0039   -5.5573    0.0576 C   0  0  0  0  0  0  0  0  0  0  0  0
    5.6096   -4.3129   -0.5164 C   0  0  1  0  0  0  0  0  0  0  0  0
    5.2420   -3.1738   -1.4503 C   0  0  1  0  0  0  0  0  0  0  0  0
    4.3445   -3.4720   -2.6250 C   0  0  0  0  0  0  0  0  0  0  0  0
    3.6246   -2.5084   -3.2264 C   0  0  0  0  0  0  0  0  0  0  0  0
    3.6588   -1.0533   -2.7884 C   0  0  0  0  0  0  0  0  0  0  0  0
    4.6424   -0.7676   -1.6206 C   0  0  0  0  0  0  0  0  0  0  0  0
    4.7091   -1.9580   -0.6490 C   0  0  2  0  0  0  0  0  0  0  0  0
    5.4044   -1.8231    0.7670 C   0  0  2  0  0  0  0  0  0  0  0  0
    6.8910   -1.4526    0.5787 C   0  0  0  0  0  0  0  0  0  0  0  0
    4.7414   -0.6682    1.5618 C   0  0  0  0  0  0  0  0  0  0  0  0
    2.3268    0.1468    0.6318 H   0  0  0  0  0  0  0  0  0  0  0  0
    2.2494    0.8006    2.2655 H   0  0  0  0  0  0  0  0  0  0  0  0
    1.2467   -0.5861    1.7692 H   0  0  0  0  0  0  0  0  0  0  0  0
    1.1729   -1.9784    3.3860 H   0  0  0  0  0  0  0  0  0  0  0  0
    1.5889   -3.5511    2.7266 H   0  0  0  0  0  0  0  0  0  0  0  0
    2.4277   -2.4307    5.4507 H   0  0  0  0  0  0  0  0  0  0  0  0
    1.2765   -3.7237    5.1820 H   0  0  0  0  0  0  0  0  0  0  0  0
    5.1208   -4.9418    3.8542 H   0  0  0  0  0  0  0  0  0  0  0  0
    3.6505   -5.1010    2.9165 H   0  0  0  0  0  0  0  0  0  0  0  0
    5.1149   -2.5264    3.6134 H   0  0  0  0  0  0  0  0  0  0  0  0
    6.2715   -3.5581    1.8541 H   0  0  0  0  0  0  0  0  0  0  0  0
    3.5708   -4.0624    0.5061 H   0  0  0  0  0  0  0  0  0  0  0  0
    5.6538   -6.2114    0.6385 H   0  0  0  0  0  0  0  0  0  0  0  0
    4.2758   -6.0666   -0.5753 H   0  0  0  0  0  0  0  0  0  0  0  0
    6.6798   -4.2966   -0.3045 H   0  0  0  0  0  0  0  0  0  0  0  0
    6.1870   -2.8938   -1.9177 H   0  0  0  0  0  0  0  0  0  0  0  0
    4.3045   -4.4917   -2.9603 H   0  0  0  0  0  0  0  0  0  0  0  0
    2.9615   -2.7501   -4.0443 H   0  0  0  0  0  0  0  0  0  0  0  0
    3.9085   -0.4309   -3.6518 H   0  0  0  0  0  0  0  0  0  0  0  0
    2.6443   -0.7923   -2.4768 H   0  0  0  0  0  0  0  0  0  0  0  0
    5.6336   -0.5711   -2.0295 H   0  0  0  0  0  0  0  0  0  0  0  0
    4.3222    0.1326   -1.1042 H   0  0  0  0  0  0  0  0  0  0  0  0
    3.6540   -2.1347   -0.4266 H   0  0  0  0  0  0  0  0  0  0  0  0
    6.9886   -0.4914    0.0778 H   0  0  0  0  0  0  0  0  0  0  0  0
    7.4429   -2.1904   -0.0010 H   0  0  0  0  0  0  0  0  0  0  0  0
    7.3920   -1.3567    1.5400 H   0  0  0  0  0  0  0  0  0  0  0  0
    4.7068    0.2634    1.0009 H   0  0  0  0  0  0  0  0  0  0  0  0
    5.3334   -0.4466    2.4519 H   0  0  0  0  0  0  0  0  0  0  0  0
  1  2  1  0
  1 23  1  0
  1 24  1  0
  1 25  1  0
  2 22  1  0
  2  3  2  0
  3  9  1  0
  3  4  1  0
  4  5  1  0
  4 26  1  0
  4 27  1  0
  5  6  1  0
  5 28  1  0
  5 29  1  0
  6  7  2  0
  6  8  1  0
  8  9  1  0
  8 30  1  0
  8 31  1  0
  9 10  1  0
  9 32  1  1
 10 20  1  0
 10 11  1  0
 10 33  1  1
 11 13  1  0
 11 12  1  0
 11 34  1  6
 12 13  1  0
 12 35  1  0
 12 36  1  0
 13 14  1  0
 13 37  1  1
 14 19  1  0
 14 15  1  0
 14 38  1  6
 15 16  2  0
 15 39  1  0
 16 17  1  0
 16 40  1  0
 17 18  1  0
 17 41  1  0
 17 42  1  0
 18 19  1  0
 18 43  1  0
 18 44  1  0
 19 20  1  0
 19 45  1  1
 20 21  1  6
 20 22  1  0
 21 46  1  0
 21 47  1  0
 21 48  1  0
 22 49  1  0
 22 50  1  0
M  END
>  <i_m_ct_stereo_status>  (88) 
1

>  <s_m_source_file>  (88) 
/var/tmp/pbs.5076255.sched01/tmp3npnc3rz/42_8qtnw6u.sdf

>  <i_m_source_file_index>  (88) 
1

>  <i_lp_mmshare_version>  (88) 
48012

>  <i_f3d_flags>  (88) 
0

>  <s_epik_input>  (88) 
Tz1DKFtDSDJdMSlbQ0gyXVtDSDJdQyg9QyhbQ0gzXSlbQ0gyXTIpW0NAQEhdMVtDQEhdKFtDQF0yM1tDSDNdKVtDQEhdNFtDQEBIXShbQ0gyXTQpW0NAQEhdNVtDQEBIXTNbQ0gyXVtDSDJdW0NIXT1bQ0hdNQ==

>  <s_epik_cmdline>  (88) 
J2VwaWtfcHl0aG9uJywgJy1waHQnLCAnMi4wJywgJy1waCcsICc3LjAnLCAnLXRuJywgJzgnLCAnLW1hJywgJzIwMCcsICctaW1hZScsICc8aW5maWxlLm1hZT4nLCAnLW9tYWUnLCAnPG91dGZpbGUubWFlPic=

>  <r_lp_tautomer_probability>  (88) 
1

>  <r_epik_Ionization_Penalty>  (88) 
1.95101e-13

>  <r_epik_Ionization_Penalty_Charging>  (88) 
0

>  <r_epik_Ionization_Penalty_Neutral>  (88) 
1.95101e-13

>  <r_epik_State_Penalty>  (88) 
-0

>  <r_epik_Charging_Adjusted_Penalty>  (88) 
0

>  <i_epik_Tot_Q>  (88) 
0

>  <i_epik_Tot_abs_Q>  (88) 
0

>  <s_lp_Force_Field>  (88) 
OPLS3e

>  <r_lp_Energy>  (88) 
60.404

>  <b_lp_Chiralities_Consistent>  (88) 
1

>  <s_lp_Variant>  (88) 
27:0-1

>  <s_i_glide_gridfile>  (88) 
pfpi4k_grid

>  <i_i_glide_lignum>  (88) 
1

>  <i_i_glide_rotatable_bonds>  (88) 
0

>  <r_i_docking_score>  (88) 
-3.31668

>  <r_i_glide_ligand_efficiency>  (88) 
-0.150758

>  <r_i_glide_ligand_efficiency_sa>  (88) 
-0.42243

>  <r_i_glide_ligand_efficiency_ln>  (88) 
-0.810718

>  <r_i_glide_gscore>  (88) 
-3.31668

>  <r_i_glide_lipo>  (88) 
-0.586697

>  <r_i_glide_hbond>  (88) 
0

>  <r_i_glide_metal>  (88) 
-0

>  <r_i_glide_rewards>  (88) 
-1.38787

>  <r_i_glide_evdw>  (88) 
-23.7542

>  <r_i_glide_ecoul>  (88) 
-1.0294

>  <r_i_glide_erotb>  (88) 
0

>  <r_i_glide_esite>  (88) 
0

>  <r_i_glide_emodel>  (88) 
-29.6514

>  <r_i_glide_energy>  (88) 
-24.7836

>  <r_i_glide_einternal>  (88) 
0

>  <r_i_glide_intrahb_reward>  (88) 
-0

>  <i_i_glide_confnum>  (88) 
1

>  <i_i_glide_posenum>  (88) 
9

>  <r_i_glide_eff_state_penalty>  (88) 
0

>  <ligand_id>  (88) 
27

>  <original_smiles>  (88) 
CC1=C2CCC(=O)CC2C2C3CC3C3C=CCCC3C2(C)C1

>  <smiles>  (88) 
[H]C1=C([H])C2([H])C3([H])C([H])([H])C3([H])C3([H])C4([H])C(=C(C([H])([H])[H])C([H])([H])C3(C([H])([H])[H])C2([H])C([H])([H])C1([H])[H])C([H])([H])C([H])([H])C(=O)C4([H])[H]

$$$$
27:0:1
     RDKit          3D

 50 54  0  0  1  0  0  0  0  0999 V2000
    2.2336   -5.6209    0.4826 C   0  0  0  0  0  0  0  0  0  0  0  0
    3.1651   -4.4296    0.3734 C   0  0  0  0  0  0  0  0  0  0  0  0
    3.1431   -3.4712   -0.5785 C   0  0  0  0  0  0  0  0  0  0  0  0
    2.2327   -3.4516   -1.8053 C   0  0  0  0  0  0  0  0  0  0  0  0
    2.9878   -3.0620   -3.0853 C   0  0  0  0  0  0  0  0  0  0  0  0
    3.7566   -1.7539   -2.9152 C   0  0  0  0  0  0  0  0  0  0  0  0
    4.2403   -1.1848   -3.8870 O   0  0  0  0  0  0  0  0  0  0  0  0
    3.8798   -1.1892   -1.4914 C   0  0  0  0  0  0  0  0  0  0  0  0
    4.1017   -2.2919   -0.4315 C   0  0  1  0  0  0  0  0  0  0  0  0
    4.1129   -1.7657    1.0373 C   0  0  1  0  0  0  0  0  0  0  0  0
    2.9033   -0.8728    1.3169 C   0  0  2  0  0  0  0  0  0  0  0  0
    2.6172    0.5515    1.6801 C   0  0  0  0  0  0  0  0  0  0  0  0
    3.1426   -0.3570    2.7433 C   0  0  1  0  0  0  0  0  0  0  0  0
    2.6283   -1.4396    3.6688 C   0  0  1  0  0  0  0  0  0  0  0  0
    1.2262   -1.2908    4.2007 C   0  0  0  0  0  0  0  0  0  0  0  0
    0.5611   -2.3596    4.6816 C   0  0  0  0  0  0  0  0  0  0  0  0
    1.1357   -3.7749    4.6954 C   0  0  0  0  0  0  0  0  0  0  0  0
    2.5941   -3.8908    4.1700 C   0  0  0  0  0  0  0  0  0  0  0  0
    2.8393   -2.8534    3.0551 C   0  0  2  0  0  0  0  0  0  0  0  0
    4.1362   -2.9248    2.1483 C   0  0  2  0  0  0  0  0  0  0  0  0
    5.3936   -2.7862    3.0230 C   0  0  0  0  0  0  0  0  0  0  0  0
    4.2085   -4.3128    1.4652 C   0  0  0  0  0  0  0  0  0  0  0  0
    1.8720   -5.7186    1.5037 H   0  0  0  0  0  0  0  0  0  0  0  0
    2.7648   -6.5364    0.2258 H   0  0  0  0  0  0  0  0  0  0  0  0
    1.3628   -5.5270   -0.1639 H   0  0  0  0  0  0  0  0  0  0  0  0
    1.7264   -4.4043   -1.9437 H   0  0  0  0  0  0  0  0  0  0  0  0
    1.4409   -2.7337   -1.6439 H   0  0  0  0  0  0  0  0  0  0  0  0
    3.6966   -3.8476   -3.3455 H   0  0  0  0  0  0  0  0  0  0  0  0
    2.2907   -2.9671   -3.9210 H   0  0  0  0  0  0  0  0  0  0  0  0
    4.6734   -0.4452   -1.4526 H   0  0  0  0  0  0  0  0  0  0  0  0
    2.9508   -0.6605   -1.2920 H   0  0  0  0  0  0  0  0  0  0  0  0
    5.0889   -2.7030   -0.6303 H   0  0  0  0  0  0  0  0  0  0  0  0
    5.0086   -1.1482    1.1336 H   0  0  0  0  0  0  0  0  0  0  0  0
    1.9653   -1.3630    1.0600 H   0  0  0  0  0  0  0  0  0  0  0  0
    3.2975    1.3142    1.3017 H   0  0  0  0  0  0  0  0  0  0  0  0
    1.5733    0.8586    1.7795 H   0  0  0  0  0  0  0  0  0  0  0  0
    4.1552   -0.0690    3.0141 H   0  0  0  0  0  0  0  0  0  0  0  0
    3.2601   -1.3585    4.5530 H   0  0  0  0  0  0  0  0  0  0  0  0
    0.7944   -0.3039    4.1958 H   0  0  0  0  0  0  0  0  0  0  0  0
   -0.4400   -2.2531    5.0667 H   0  0  0  0  0  0  0  0  0  0  0  0
    1.0742   -4.1718    5.7103 H   0  0  0  0  0  0  0  0  0  0  0  0
    0.4808   -4.3850    4.0701 H   0  0  0  0  0  0  0  0  0  0  0  0
    3.2860   -3.7139    4.9945 H   0  0  0  0  0  0  0  0  0  0  0  0
    2.7665   -4.9143    3.8283 H   0  0  0  0  0  0  0  0  0  0  0  0
    2.0144   -3.0490    2.3724 H   0  0  0  0  0  0  0  0  0  0  0  0
    5.4649   -3.5976    3.7499 H   0  0  0  0  0  0  0  0  0  0  0  0
    5.4110   -1.8510    3.5788 H   0  0  0  0  0  0  0  0  0  0  0  0
    6.2892   -2.8121    2.4034 H   0  0  0  0  0  0  0  0  0  0  0  0
    4.1331   -5.1406    2.1684 H   0  0  0  0  0  0  0  0  0  0  0  0
    5.1820   -4.4449    0.9875 H   0  0  0  0  0  0  0  0  0  0  0  0
  1  2  1  0
  1 23  1  0
  1 24  1  0
  1 25  1  0
  2 22  1  0
  2  3  2  0
  3  9  1  0
  3  4  1  0
  4  5  1  0
  4 26  1  0
  4 27  1  0
  5  6  1  0
  5 28  1  0
  5 29  1  0
  6  7  2  0
  6  8  1  0
  8  9  1  0
  8 30  1  0
  8 31  1  0
  9 10  1  0
  9 32  1  6
 10 20  1  0
 10 11  1  0
 10 33  1  6
 11 13  1  0
 11 12  1  0
 11 34  1  1
 12 13  1  0
 12 35  1  0
 12 36  1  0
 13 14  1  0
 13 37  1  1
 14 19  1  0
 14 15  1  0
 14 38  1  1
 15 16  2  0
 15 39  1  0
 16 17  1  0
 16 40  1  0
 17 18  1  0
 17 41  1  0
 17 42  1  0
 18 19  1  0
 18 43  1  0
 18 44  1  0
 19 20  1  0
 19 45  1  6
 20 21  1  1
 20 22  1  0
 21 46  1  0
 21 47  1  0
 21 48  1  0
 22 49  1  0
 22 50  1  0
M  END
>  <i_m_ct_stereo_status>  (89) 
1

>  <s_m_source_file>  (89) 
/var/tmp/pbs.5076255.sched01/tmp3npnc3rz/42_8qtnw6u.sdf

>  <i_m_source_file_index>  (89) 
1

>  <i_lp_mmshare_version>  (89) 
48012

>  <i_f3d_flags>  (89) 
0

>  <s_epik_input>  (89) 
Tz1DKFtDSDJdMSlbQ0gyXVtDSDJdQyg9QyhbQ0gzXSlbQ0gyXTIpW0NAQEhdMVtDQEhdKFtDQF0yM1tDSDNdKVtDQEhdNFtDQEBIXShbQ0gyXTQpW0NAQEhdNVtDQEBIXTNbQ0gyXVtDSDJdW0NIXT1bQ0hdNQ==

>  <s_epik_cmdline>  (89) 
J2VwaWtfcHl0aG9uJywgJy1waHQnLCAnMi4wJywgJy1waCcsICc3LjAnLCAnLXRuJywgJzgnLCAnLW1hJywgJzIwMCcsICctaW1hZScsICc8aW5maWxlLm1hZT4nLCAnLW9tYWUnLCAnPG91dGZpbGUubWFlPic=

>  <r_lp_tautomer_probability>  (89) 
1

>  <r_epik_Ionization_Penalty>  (89) 
1.95101e-13

>  <r_epik_Ionization_Penalty_Charging>  (89) 
0

>  <r_epik_Ionization_Penalty_Neutral>  (89) 
1.95101e-13

>  <r_epik_State_Penalty>  (89) 
-0

>  <r_epik_Charging_Adjusted_Penalty>  (89) 
0

>  <i_epik_Tot_Q>  (89) 
0

>  <i_epik_Tot_abs_Q>  (89) 
0

>  <s_lp_Force_Field>  (89) 
OPLS3e

>  <r_lp_Energy>  (89) 
60.404

>  <b_lp_Chiralities_Consistent>  (89) 
1

>  <s_lp_Variant>  (89) 
27:0-1

>  <s_i_glide_gridfile>  (89) 
pfpi4k_grid

>  <i_i_glide_lignum>  (89) 
1

>  <i_i_glide_rotatable_bonds>  (89) 
0

>  <r_i_docking_score>  (89) 
-3.20699

>  <r_i_glide_ligand_efficiency>  (89) 
-0.145772

>  <r_i_glide_ligand_efficiency_sa>  (89) 
-0.40846

>  <r_i_glide_ligand_efficiency_ln>  (89) 
-0.783906

>  <r_i_glide_gscore>  (89) 
-3.20699

>  <r_i_glide_lipo>  (89) 
-0.365367

>  <r_i_glide_hbond>  (89) 
0

>  <r_i_glide_metal>  (89) 
-0

>  <r_i_glide_rewards>  (89) 
-1.39105

>  <r_i_glide_evdw>  (89) 
-23.3763

>  <r_i_glide_ecoul>  (89) 
-1.87836

>  <r_i_glide_erotb>  (89) 
0

>  <r_i_glide_esite>  (89) 
0

>  <r_i_glide_emodel>  (89) 
-29.9219

>  <r_i_glide_energy>  (89) 
-25.2547

>  <r_i_glide_einternal>  (89) 
0

>  <r_i_glide_intrahb_reward>  (89) 
-0

>  <i_i_glide_confnum>  (89) 
1

>  <i_i_glide_posenum>  (89) 
2

>  <r_i_glide_eff_state_penalty>  (89) 
0

>  <ligand_id>  (89) 
27

>  <original_smiles>  (89) 
CC1=C2CCC(=O)CC2C2C3CC3C3C=CCCC3C2(C)C1

>  <smiles>  (89) 
[H]C1=C([H])C2([H])C3([H])C([H])([H])C3([H])C3([H])C4([H])C(=C(C([H])([H])[H])C([H])([H])C3(C([H])([H])[H])C2([H])C([H])([H])C1([H])[H])C([H])([H])C([H])([H])C(=O)C4([H])[H]

$$$$
27:0:2
     RDKit          3D

 50 54  0  0  1  0  0  0  0  0999 V2000
    3.0048    0.7681    1.8156 C   0  0  0  0  0  0  0  0  0  0  0  0
    3.3380   -0.6501    2.2298 C   0  0  0  0  0  0  0  0  0  0  0  0
    2.4944   -1.5038    2.8360 C   0  0  0  0  0  0  0  0  0  0  0  0
    1.0863   -1.1629    3.3010 C   0  0  0  0  0  0  0  0  0  0  0  0
    0.7957   -1.7214    4.7044 C   0  0  0  0  0  0  0  0  0  0  0  0
    1.1085   -3.2174    4.8021 C   0  0  0  0  0  0  0  0  0  0  0  0
    0.7606   -3.8745    5.7809 O   0  0  0  0  0  0  0  0  0  0  0  0
    1.8518   -3.8587    3.6256 C   0  0  0  0  0  0  0  0  0  0  0  0
    2.9614   -2.9374    3.0710 C   0  0  1  0  0  0  0  0  0  0  0  0
    3.6839   -3.5024    1.8120 C   0  0  1  0  0  0  0  0  0  0  0  0
    2.6679   -3.9623    0.7719 C   0  0  2  0  0  0  0  0  0  0  0  0
    2.2542   -5.2441    0.1088 C   0  0  0  0  0  0  0  0  0  0  0  0
    3.5394   -4.5945   -0.3138 C   0  0  1  0  0  0  0  0  0  0  0  0
    3.9960   -3.4601   -1.2056 C   0  0  1  0  0  0  0  0  0  0  0  0
    3.2034   -3.1566   -2.4607 C   0  0  0  0  0  0  0  0  0  0  0  0
    3.3146   -1.9736   -3.0829 C   0  0  0  0  0  0  0  0  0  0  0  0
    4.1803   -0.8437   -2.5582 C   0  0  0  0  0  0  0  0  0  0  0  0
    4.9924   -1.1788   -1.2711 C   0  0  0  0  0  0  0  0  0  0  0  0
    4.2149   -2.1662   -0.3802 C   0  0  2  0  0  0  0  0  0  0  0  0
    4.6895   -2.4681    1.1030 C   0  0  2  0  0  0  0  0  0  0  0  0
    6.1239   -3.0458    1.0818 C   0  0  0  0  0  0  0  0  0  0  0  0
    4.7358   -1.1419    1.9077 C   0  0  0  0  0  0  0  0  0  0  0  0
    3.4099    0.9285    0.8209 H   0  0  0  0  0  0  0  0  0  0  0  0
    3.4457    1.4984    2.4887 H   0  0  0  0  0  0  0  0  0  0  0  0
    1.9356    0.9609    1.7535 H   0  0  0  0  0  0  0  0  0  0  0  0
    0.9046   -0.0880    3.3035 H   0  0  0  0  0  0  0  0  0  0  0  0
    0.4051   -1.6055    2.5779 H   0  0  0  0  0  0  0  0  0  0  0  0
    1.4036   -1.1933    5.4415 H   0  0  0  0  0  0  0  0  0  0  0  0
   -0.2481   -1.5545    4.9733 H   0  0  0  0  0  0  0  0  0  0  0  0
    2.2724   -4.8141    3.9359 H   0  0  0  0  0  0  0  0  0  0  0  0
    1.1062   -4.0719    2.8592 H   0  0  0  0  0  0  0  0  0  0  0  0
    3.7121   -2.8595    3.8570 H   0  0  0  0  0  0  0  0  0  0  0  0
    4.2434   -4.3792    2.1475 H   0  0  0  0  0  0  0  0  0  0  0  0
    1.9539   -3.1803    0.5171 H   0  0  0  0  0  0  0  0  0  0  0  0
    2.3274   -6.1575    0.6962 H   0  0  0  0  0  0  0  0  0  0  0  0
    1.4543   -5.2226   -0.6347 H   0  0  0  0  0  0  0  0  0  0  0  0
    4.3827   -5.2193   -0.0171 H   0  0  0  0  0  0  0  0  0  0  0  0
    4.9691   -3.7863   -1.5780 H   0  0  0  0  0  0  0  0  0  0  0  0
    2.5525   -3.9136   -2.8561 H   0  0  0  0  0  0  0  0  0  0  0  0
    2.7333   -1.7683   -3.9682 H   0  0  0  0  0  0  0  0  0  0  0  0
    4.8280   -0.4923   -3.3582 H   0  0  0  0  0  0  0  0  0  0  0  0
    3.4733   -0.0491   -2.3468 H   0  0  0  0  0  0  0  0  0  0  0  0
    5.9479   -1.6187   -1.5633 H   0  0  0  0  0  0  0  0  0  0  0  0
    5.2039   -0.2592   -0.7255 H   0  0  0  0  0  0  0  0  0  0  0  0
    3.2462   -1.6759   -0.2687 H   0  0  0  0  0  0  0  0  0  0  0  0
    6.8340   -2.3349    0.6576 H   0  0  0  0  0  0  0  0  0  0  0  0
    6.1905   -3.9616    0.4971 H   0  0  0  0  0  0  0  0  0  0  0  0
    6.4651   -3.2869    2.0875 H   0  0  0  0  0  0  0  0  0  0  0  0
    5.3214   -0.3665    1.4176 H   0  0  0  0  0  0  0  0  0  0  0  0
    5.2372   -1.3089    2.8632 H   0  0  0  0  0  0  0  0  0  0  0  0
  1  2  1  0
  1 23  1  0
  1 24  1  0
  1 25  1  0
  2 22  1  0
  2  3  2  0
  3  9  1  0
  3  4  1  0
  4  5  1  0
  4 26  1  0
  4 27  1  0
  5  6  1  0
  5 28  1  0
  5 29  1  0
  6  7  2  0
  6  8  1  0
  8  9  1  0
  8 30  1  0
  8 31  1  0
  9 10  1  0
  9 32  1  1
 10 20  1  0
 10 11  1  0
 10 33  1  1
 11 13  1  0
 11 12  1  0
 11 34  1  6
 12 13  1  0
 12 35  1  0
 12 36  1  0
 13 14  1  0
 13 37  1  1
 14 19  1  0
 14 15  1  0
 14 38  1  6
 15 16  2  0
 15 39  1  0
 16 17  1  0
 16 40  1  0
 17 18  1  0
 17 41  1  0
 17 42  1  0
 18 19  1  0
 18 43  1  0
 18 44  1  0
 19 20  1  0
 19 45  1  1
 20 21  1  6
 20 22  1  0
 21 46  1  0
 21 47  1  0
 21 48  1  0
 22 49  1  0
 22 50  1  0
M  END
>  <i_m_ct_stereo_status>  (90) 
1

>  <s_m_source_file>  (90) 
/var/tmp/pbs.5076255.sched01/tmp3npnc3rz/42_8qtnw6u.sdf

>  <i_m_source_file_index>  (90) 
1

>  <i_lp_mmshare_version>  (90) 
48012

>  <i_f3d_flags>  (90) 
0

>  <s_epik_input>  (90) 
Tz1DKFtDSDJdMSlbQ0gyXVtDSDJdQyg9QyhbQ0gzXSlbQ0gyXTIpW0NAQEhdMVtDQEhdKFtDQF0yM1tDSDNdKVtDQEhdNFtDQEBIXShbQ0gyXTQpW0NAQEhdNVtDQEBIXTNbQ0gyXVtDSDJdW0NIXT1bQ0hdNQ==

>  <s_epik_cmdline>  (90) 
J2VwaWtfcHl0aG9uJywgJy1waHQnLCAnMi4wJywgJy1waCcsICc3LjAnLCAnLXRuJywgJzgnLCAnLW1hJywgJzIwMCcsICctaW1hZScsICc8aW5maWxlLm1hZT4nLCAnLW9tYWUnLCAnPG91dGZpbGUubWFlPic=

>  <r_lp_tautomer_probability>  (90) 
1

>  <r_epik_Ionization_Penalty>  (90) 
1.95101e-13

>  <r_epik_Ionization_Penalty_Charging>  (90) 
0

>  <r_epik_Ionization_Penalty_Neutral>  (90) 
1.95101e-13

>  <r_epik_State_Penalty>  (90) 
-0

>  <r_epik_Charging_Adjusted_Penalty>  (90) 
0

>  <i_epik_Tot_Q>  (90) 
0

>  <i_epik_Tot_abs_Q>  (90) 
0

>  <s_lp_Force_Field>  (90) 
OPLS3e

>  <r_lp_Energy>  (90) 
60.404

>  <b_lp_Chiralities_Consistent>  (90) 
1

>  <s_lp_Variant>  (90) 
27:0-1

>  <s_i_glide_gridfile>  (90) 
pfpi4k_grid

>  <i_i_glide_lignum>  (90) 
1

>  <i_i_glide_rotatable_bonds>  (90) 
0

>  <r_i_docking_score>  (90) 
-3.09059

>  <r_i_glide_ligand_efficiency>  (90) 
-0.140481

>  <r_i_glide_ligand_efficiency_sa>  (90) 
-0.393634

>  <r_i_glide_ligand_efficiency_ln>  (90) 
-0.755453

>  <r_i_glide_gscore>  (90) 
-3.09059

>  <r_i_glide_lipo>  (90) 
-0.366349

>  <r_i_glide_hbond>  (90) 
0

>  <r_i_glide_metal>  (90) 
-0

>  <r_i_glide_rewards>  (90) 
-1.40506

>  <r_i_glide_evdw>  (90) 
-22.2451

>  <r_i_glide_ecoul>  (90) 
-1.3795

>  <r_i_glide_erotb>  (90) 
0

>  <r_i_glide_esite>  (90) 
0

>  <r_i_glide_emodel>  (90) 
-28.1008

>  <r_i_glide_energy>  (90) 
-23.6246

>  <r_i_glide_einternal>  (90) 
0

>  <r_i_glide_intrahb_reward>  (90) 
-0

>  <i_i_glide_confnum>  (90) 
1

>  <i_i_glide_posenum>  (90) 
5

>  <r_i_glide_eff_state_penalty>  (90) 
0

>  <ligand_id>  (90) 
27

>  <original_smiles>  (90) 
CC1=C2CCC(=O)CC2C2C3CC3C3C=CCCC3C2(C)C1

>  <smiles>  (90) 
[H]C1=C([H])C2([H])C3([H])C([H])([H])C3([H])C3([H])C4([H])C(=C(C([H])([H])[H])C([H])([H])C3(C([H])([H])[H])C2([H])C([H])([H])C1([H])[H])C([H])([H])C([H])([H])C(=O)C4([H])[H]

$$$$
28:0:0
     RDKit          3D

 28 30  0  0  1  0  0  0  0  0999 V2000
   -0.3501    2.0048    2.4759 N   0  0  0  0  0  0  0  0  0  0  0  0
   -0.7735    1.4829    3.6383 C   0  0  0  0  0  0  0  0  0  0  0  0
   -0.9784    0.1456    3.7257 N   0  0  0  0  0  0  0  0  0  0  0  0
   -1.4018   -0.3792    4.8842 C   0  0  0  0  0  0  0  0  0  0  0  0
   -1.6724    0.2353    6.0430 N   0  0  0  0  0  0  0  0  0  0  0  0
   -1.4500    1.5819    5.9452 C   0  0  0  0  0  0  0  0  0  0  0  0
   -1.0074    2.2763    4.7828 C   0  0  0  0  0  0  0  0  0  0  0  0
   -0.8931    3.6342    5.0425 N   0  0  0  0  0  0  0  0  0  0  0  0
   -1.2150    3.7346    6.2974 C   0  0  0  0  0  0  0  0  0  0  0  0
   -1.5898    2.5584    6.9173 N   0  0  0  0  0  0  0  0  0  0  0  0
   -2.0056    2.4147    8.3023 C   0  0  0  0  0  0  0  0  0  0  0  0
   -3.1729    3.3527    8.6455 C   0  0  0  0  0  0  0  0  0  0  0  0
   -2.9887    3.7252   10.1126 C   0  0  0  0  0  0  0  0  0  0  0  0
   -1.6066    3.2086   10.5455 C   0  0  0  0  0  0  0  0  0  0  0  0
   -0.8812    2.7835    9.2758 C   0  0  0  0  0  0  0  0  0  0  0  0
   -0.2120    1.4075    1.6779 H   0  0  0  0  0  0  0  0  0  0  0  0
   -0.1944    3.0063    2.3831 H   0  0  0  0  0  0  0  0  0  0  0  0
   -1.5404   -1.4524    4.8688 H   0  0  0  0  0  0  0  0  0  0  0  0
   -1.1909    4.6819    6.8221 H   0  0  0  0  0  0  0  0  0  0  0  0
   -2.3080    1.3832    8.4980 H   0  0  0  0  0  0  0  0  0  0  0  0
   -3.1364    4.2779    8.0716 H   0  0  0  0  0  0  0  0  0  0  0  0
   -4.1447    2.9055    8.4358 H   0  0  0  0  0  0  0  0  0  0  0  0
   -3.0476    4.8083   10.2247 H   0  0  0  0  0  0  0  0  0  0  0  0
   -3.7676    3.2841   10.7299 H   0  0  0  0  0  0  0  0  0  0  0  0
   -1.0465    3.9605   11.1014 H   0  0  0  0  0  0  0  0  0  0  0  0
   -1.7411    2.3463   11.1986 H   0  0  0  0  0  0  0  0  0  0  0  0
   -0.1751    1.9668    9.4433 H   0  0  0  0  0  0  0  0  0  0  0  0
   -0.3098    3.6307    8.9000 H   0  0  0  0  0  0  0  0  0  0  0  0
  1  2  1  0
  1 17  1  0
  1 16  1  0
  2  3  2  0
  2  7  1  0
  3  4  1  0
  4 18  1  0
  4  5  2  0
  5  6  1  0
  6 10  1  0
  6  7  2  0
  7  8  1  0
  8  9  2  0
  9 19  1  0
  9 10  1  0
 10 11  1  0
 11 15  1  0
 11 12  1  0
 11 20  1  0
 12 13  1  0
 12 21  1  0
 12 22  1  0
 13 14  1  0
 13 23  1  0
 13 24  1  0
 14 15  1  0
 14 25  1  0
 14 26  1  0
 15 27  1  0
 15 28  1  0
M  END
>  <i_m_ct_stereo_status>  (91) 
1

>  <s_m_source_file>  (91) 
/var/tmp/pbs.5076255.sched01/tmp3npnc3rz/42_8qtnw6u.sdf

>  <i_m_source_file_index>  (91) 
2

>  <i_lp_mmshare_version>  (91) 
48012

>  <i_f3d_flags>  (91) 
0

>  <s_epik_input>  (91) 
bjFbY0hdW25IXVxjKD1OXFtIXSljKGMxMiluW2NIXW4yW0NIXTNbQ0gyXVtDSDJdW0NIMl1bQ0gyXTM=

>  <s_epik_cmdline>  (91) 
J2VwaWtfcHl0aG9uJywgJy1waHQnLCAnMi4wJywgJy1waCcsICc3LjAnLCAnLXRuJywgJzgnLCAnLW1hJywgJzIwMCcsICctaW1hZScsICc8aW5maWxlLm1hZT4nLCAnLW9tYWUnLCAnPG91dGZpbGUubWFlPic=

>  <r_lp_tautomer_probability>  (91) 
1

>  <r_epik_Ionization_Penalty>  (91) 
0.00120259

>  <r_epik_Ionization_Penalty_Charging>  (91) 
0

>  <r_epik_Ionization_Penalty_Neutral>  (91) 
0.00120259

>  <r_epik_State_Penalty>  (91) 
-0

>  <r_epik_Charging_Adjusted_Penalty>  (91) 
0

>  <i_epik_Tot_Q>  (91) 
0

>  <i_epik_Tot_abs_Q>  (91) 
0

>  <s_lp_Force_Field>  (91) 
OPLS3e

>  <r_lp_Energy>  (91) 
27.3086

>  <b_lp_Chiralities_Consistent>  (91) 
1

>  <s_lp_Variant>  (91) 
28:0-1

>  <s_i_glide_gridfile>  (91) 
pfpi4k_grid

>  <i_i_glide_lignum>  (91) 
2

>  <i_i_glide_rotatable_bonds>  (91) 
1

>  <r_i_docking_score>  (91) 
-3.42937

>  <r_i_glide_ligand_efficiency>  (91) 
-0.228625

>  <r_i_glide_ligand_efficiency_sa>  (91) 
-0.563837

>  <r_i_glide_ligand_efficiency_ln>  (91) 
-0.924845

>  <r_i_glide_gscore>  (91) 
-3.42937

>  <r_i_glide_lipo>  (91) 
-0.0414541

>  <r_i_glide_hbond>  (91) 
-0.191732

>  <r_i_glide_metal>  (91) 
-0

>  <r_i_glide_rewards>  (91) 
-2.07133

>  <r_i_glide_evdw>  (91) 
-19.5776

>  <r_i_glide_ecoul>  (91) 
-2.59863

>  <r_i_glide_erotb>  (91) 
0.397518

>  <r_i_glide_esite>  (91) 
-0.153693

>  <r_i_glide_emodel>  (91) 
-27.3537

>  <r_i_glide_energy>  (91) 
-22.1763

>  <r_i_glide_einternal>  (91) 
0.203575

>  <r_i_glide_intrahb_reward>  (91) 
-0

>  <i_i_glide_confnum>  (91) 
1

>  <i_i_glide_posenum>  (91) 
8

>  <r_i_glide_eff_state_penalty>  (91) 
0

>  <ligand_id>  (91) 
28

>  <original_smiles>  (91) 
N=c1[nH]cnc2c1ncn2C1CCCC1

>  <smiles>  (91) 
[H]c1nc(N([H])[H])c2nc([H])n(C3([H])C([H])([H])C([H])([H])C([H])([H])C3([H])[H])c2n1

$$$$
28:0:1
     RDKit          3D

 28 30  0  0  1  0  0  0  0  0999 V2000
   -0.4243    1.7354    2.0770 N   0  0  0  0  0  0  0  0  0  0  0  0
   -0.7424    1.5460    3.3501 C   0  0  0  0  0  0  0  0  0  0  0  0
   -1.0528    0.2890    3.7828 N   0  0  0  0  0  0  0  0  0  0  0  0
   -1.3914    0.1019    5.0586 C   0  0  0  0  0  0  0  0  0  0  0  0
   -1.4636    0.9891    6.0522 N   0  0  0  0  0  0  0  0  0  0  0  0
   -1.1168    2.2480    5.6099 C   0  0  0  0  0  0  0  0  0  0  0  0
   -0.7570    2.6098    4.2833 C   0  0  0  0  0  0  0  0  0  0  0  0
   -0.4839    3.9879    4.2139 N   0  0  0  0  0  0  0  0  0  0  0  0
   -0.6281    4.3916    5.4455 C   0  0  0  0  0  0  0  0  0  0  0  0
   -1.0246    3.4243    6.3541 N   0  0  0  0  0  0  0  0  0  0  0  0
   -1.2719    3.6009    7.7767 C   0  0  0  0  0  0  0  0  0  0  0  0
   -0.3596    2.7414    8.6604 C   0  0  0  0  0  0  0  0  0  0  0  0
   -1.1824    2.4234    9.9103 C   0  0  0  0  0  0  0  0  0  0  0  0
   -2.6212    2.9078    9.6534 C   0  0  0  0  0  0  0  0  0  0  0  0
   -2.7065    3.2540    8.1719 C   0  0  0  0  0  0  0  0  0  0  0  0
   -0.4666    0.9701    1.4222 H   0  0  0  0  0  0  0  0  0  0  0  0
   -0.1872    2.6712    1.7656 H   0  0  0  0  0  0  0  0  0  0  0  0
   -1.6428   -0.9141    5.3299 H   0  0  0  0  0  0  0  0  0  0  0  0
   -0.4534    5.4277    5.7201 H   0  0  0  0  0  0  0  0  0  0  0  0
   -1.1123    4.6447    8.0484 H   0  0  0  0  0  0  0  0  0  0  0  0
   -0.0882    1.7978    8.1861 H   0  0  0  0  0  0  0  0  0  0  0  0
    0.5791    3.2505    8.8837 H   0  0  0  0  0  0  0  0  0  0  0  0
   -1.1525    1.3476   10.0968 H   0  0  0  0  0  0  0  0  0  0  0  0
   -0.7699    2.9178   10.7903 H   0  0  0  0  0  0  0  0  0  0  0  0
   -3.3645    2.1547    9.9310 H   0  0  0  0  0  0  0  0  0  0  0  0
   -2.8197    3.7980   10.2510 H   0  0  0  0  0  0  0  0  0  0  0  0
   -3.3857    4.0830    7.9635 H   0  0  0  0  0  0  0  0  0  0  0  0
   -3.0754    2.3791    7.6388 H   0  0  0  0  0  0  0  0  0  0  0  0
  1  2  1  0
  1 17  1  0
  1 16  1  0
  2  3  2  0
  2  7  1  0
  3  4  1  0
  4 18  1  0
  4  5  2  0
  5  6  1  0
  6 10  1  0
  6  7  2  0
  7  8  1  0
  8  9  2  0
  9 19  1  0
  9 10  1  0
 10 11  1  0
 11 15  1  0
 11 12  1  0
 11 20  1  0
 12 13  1  0
 12 21  1  0
 12 22  1  0
 13 14  1  0
 13 23  1  0
 13 24  1  0
 14 15  1  0
 14 25  1  0
 14 26  1  0
 15 27  1  0
 15 28  1  0
M  END
>  <i_m_ct_stereo_status>  (92) 
1

>  <s_m_source_file>  (92) 
/var/tmp/pbs.5076255.sched01/tmp3npnc3rz/42_8qtnw6u.sdf

>  <i_m_source_file_index>  (92) 
2

>  <i_lp_mmshare_version>  (92) 
48012

>  <i_f3d_flags>  (92) 
0

>  <s_epik_input>  (92) 
bjFbY0hdW25IXVxjKD1OXFtIXSljKGMxMiluW2NIXW4yW0NIXTNbQ0gyXVtDSDJdW0NIMl1bQ0gyXTM=

>  <s_epik_cmdline>  (92) 
J2VwaWtfcHl0aG9uJywgJy1waHQnLCAnMi4wJywgJy1waCcsICc3LjAnLCAnLXRuJywgJzgnLCAnLW1hJywgJzIwMCcsICctaW1hZScsICc8aW5maWxlLm1hZT4nLCAnLW9tYWUnLCAnPG91dGZpbGUubWFlPic=

>  <r_lp_tautomer_probability>  (92) 
1

>  <r_epik_Ionization_Penalty>  (92) 
0.00120259

>  <r_epik_Ionization_Penalty_Charging>  (92) 
0

>  <r_epik_Ionization_Penalty_Neutral>  (92) 
0.00120259

>  <r_epik_State_Penalty>  (92) 
-0

>  <r_epik_Charging_Adjusted_Penalty>  (92) 
0

>  <i_epik_Tot_Q>  (92) 
0

>  <i_epik_Tot_abs_Q>  (92) 
0

>  <s_lp_Force_Field>  (92) 
OPLS3e

>  <r_lp_Energy>  (92) 
27.3086

>  <b_lp_Chiralities_Consistent>  (92) 
1

>  <s_lp_Variant>  (92) 
28:0-1

>  <s_i_glide_gridfile>  (92) 
pfpi4k_grid

>  <i_i_glide_lignum>  (92) 
2

>  <i_i_glide_rotatable_bonds>  (92) 
1

>  <r_i_docking_score>  (92) 
-3.22604

>  <r_i_glide_ligand_efficiency>  (92) 
-0.215069

>  <r_i_glide_ligand_efficiency_sa>  (92) 
-0.530407

>  <r_i_glide_ligand_efficiency_ln>  (92) 
-0.87001

>  <r_i_glide_gscore>  (92) 
-3.22604

>  <r_i_glide_lipo>  (92) 
-0.112054

>  <r_i_glide_hbond>  (92) 
-0.173245

>  <r_i_glide_metal>  (92) 
-0

>  <r_i_glide_rewards>  (92) 
-2.03485

>  <r_i_glide_evdw>  (92) 
-18.4558

>  <r_i_glide_ecoul>  (92) 
-1.5791

>  <r_i_glide_erotb>  (92) 
0.397518

>  <r_i_glide_esite>  (92) 
-0.143756

>  <r_i_glide_emodel>  (92) 
-24.8102

>  <r_i_glide_energy>  (92) 
-20.0349

>  <r_i_glide_einternal>  (92) 
0.479671

>  <r_i_glide_intrahb_reward>  (92) 
-0

>  <i_i_glide_confnum>  (92) 
2

>  <i_i_glide_posenum>  (92) 
16

>  <r_i_glide_eff_state_penalty>  (92) 
0

>  <ligand_id>  (92) 
28

>  <original_smiles>  (92) 
N=c1[nH]cnc2c1ncn2C1CCCC1

>  <smiles>  (92) 
[H]c1nc(N([H])[H])c2nc([H])n(C3([H])C([H])([H])C([H])([H])C([H])([H])C3([H])[H])c2n1

$$$$
28:0:2
     RDKit          3D

 28 30  0  0  1  0  0  0  0  0999 V2000
   -0.4233   -0.2411    4.0654 N   0  0  0  0  0  0  0  0  0  0  0  0
   -0.9680    0.9191    4.4512 C   0  0  0  0  0  0  0  0  0  0  0  0
   -1.4249    1.7752    3.5104 N   0  0  0  0  0  0  0  0  0  0  0  0
   -1.9936    2.9236    3.9003 C   0  0  0  0  0  0  0  0  0  0  0  0
   -2.1829    3.3905    5.1432 N   0  0  0  0  0  0  0  0  0  0  0  0
   -1.6945    2.5233    6.0793 C   0  0  0  0  0  0  0  0  0  0  0  0
   -1.0802    1.2702    5.8139 C   0  0  0  0  0  0  0  0  0  0  0  0
   -0.7182    0.6396    6.9947 N   0  0  0  0  0  0  0  0  0  0  0  0
   -1.0554    1.4962    7.9130 C   0  0  0  0  0  0  0  0  0  0  0  0
   -1.6924    2.6358    7.4612 N   0  0  0  0  0  0  0  0  0  0  0  0
   -2.1954    3.7161    8.2948 C   0  0  0  0  0  0  0  0  0  0  0  0
   -1.0427    4.4674    8.9769 C   0  0  0  0  0  0  0  0  0  0  0  0
   -1.6154    4.9219   10.3111 C   0  0  0  0  0  0  0  0  0  0  0  0
   -2.5766    3.8014   10.7171 C   0  0  0  0  0  0  0  0  0  0  0  0
   -3.1069    3.1902    9.4222 C   0  0  0  0  0  0  0  0  0  0  0  0
   -0.3225   -0.4285    3.0807 H   0  0  0  0  0  0  0  0  0  0  0  0
   -0.0303   -0.8478    4.7680 H   0  0  0  0  0  0  0  0  0  0  0  0
   -2.3579    3.5447    3.0923 H   0  0  0  0  0  0  0  0  0  0  0  0
   -0.8698    1.3247    8.9689 H   0  0  0  0  0  0  0  0  0  0  0  0
   -2.7728    4.4172    7.6867 H   0  0  0  0  0  0  0  0  0  0  0  0
   -0.2089    3.7932    9.1748 H   0  0  0  0  0  0  0  0  0  0  0  0
   -0.6547    5.2869    8.3711 H   0  0  0  0  0  0  0  0  0  0  0  0
   -0.8357    5.0882   11.0571 H   0  0  0  0  0  0  0  0  0  0  0  0
   -2.1658    5.8525   10.1829 H   0  0  0  0  0  0  0  0  0  0  0  0
   -2.0274    3.0398   11.2744 H   0  0  0  0  0  0  0  0  0  0  0  0
   -3.3823    4.1442   11.3618 H   0  0  0  0  0  0  0  0  0  0  0  0
   -4.1480    3.4505    9.2322 H   0  0  0  0  0  0  0  0  0  0  0  0
   -3.0851    2.1073    9.5224 H   0  0  0  0  0  0  0  0  0  0  0  0
  1  2  1  0
  1 17  1  0
  1 16  1  0
  2  3  2  0
  2  7  1  0
  3  4  1  0
  4 18  1  0
  4  5  2  0
  5  6  1  0
  6 10  1  0
  6  7  2  0
  7  8  1  0
  8  9  2  0
  9 19  1  0
  9 10  1  0
 10 11  1  0
 11 15  1  0
 11 12  1  0
 11 20  1  0
 12 13  1  0
 12 21  1  0
 12 22  1  0
 13 14  1  0
 13 23  1  0
 13 24  1  0
 14 15  1  0
 14 25  1  0
 14 26  1  0
 15 27  1  0
 15 28  1  0
M  END
>  <i_m_ct_stereo_status>  (93) 
1

>  <s_m_source_file>  (93) 
/var/tmp/pbs.5076255.sched01/tmp3npnc3rz/42_8qtnw6u.sdf

>  <i_m_source_file_index>  (93) 
2

>  <i_lp_mmshare_version>  (93) 
48012

>  <i_f3d_flags>  (93) 
0

>  <s_epik_input>  (93) 
bjFbY0hdW25IXVxjKD1OXFtIXSljKGMxMiluW2NIXW4yW0NIXTNbQ0gyXVtDSDJdW0NIMl1bQ0gyXTM=

>  <s_epik_cmdline>  (93) 
J2VwaWtfcHl0aG9uJywgJy1waHQnLCAnMi4wJywgJy1waCcsICc3LjAnLCAnLXRuJywgJzgnLCAnLW1hJywgJzIwMCcsICctaW1hZScsICc8aW5maWxlLm1hZT4nLCAnLW9tYWUnLCAnPG91dGZpbGUubWFlPic=

>  <r_lp_tautomer_probability>  (93) 
1

>  <r_epik_Ionization_Penalty>  (93) 
0.00120259

>  <r_epik_Ionization_Penalty_Charging>  (93) 
0

>  <r_epik_Ionization_Penalty_Neutral>  (93) 
0.00120259

>  <r_epik_State_Penalty>  (93) 
-0

>  <r_epik_Charging_Adjusted_Penalty>  (93) 
0

>  <i_epik_Tot_Q>  (93) 
0

>  <i_epik_Tot_abs_Q>  (93) 
0

>  <s_lp_Force_Field>  (93) 
OPLS3e

>  <r_lp_Energy>  (93) 
27.3086

>  <b_lp_Chiralities_Consistent>  (93) 
1

>  <s_lp_Variant>  (93) 
28:0-1

>  <s_i_glide_gridfile>  (93) 
pfpi4k_grid

>  <i_i_glide_lignum>  (93) 
2

>  <i_i_glide_rotatable_bonds>  (93) 
1

>  <r_i_docking_score>  (93) 
-3.01594

>  <r_i_glide_ligand_efficiency>  (93) 
-0.201063

>  <r_i_glide_ligand_efficiency_sa>  (93) 
-0.495864

>  <r_i_glide_ligand_efficiency_ln>  (93) 
-0.81335

>  <r_i_glide_gscore>  (93) 
-3.01594

>  <r_i_glide_lipo>  (93) 
-0.0302822

>  <r_i_glide_hbond>  (93) 
-0.012739

>  <r_i_glide_metal>  (93) 
-0

>  <r_i_glide_rewards>  (93) 
-2.1025

>  <r_i_glide_evdw>  (93) 
-19.1832

>  <r_i_glide_ecoul>  (93) 
-1.42058

>  <r_i_glide_erotb>  (93) 
0.397518

>  <r_i_glide_esite>  (93) 
-0.0956879

>  <r_i_glide_emodel>  (93) 
-25.0474

>  <r_i_glide_energy>  (93) 
-20.6038

>  <r_i_glide_einternal>  (93) 
0.249618

>  <r_i_glide_intrahb_reward>  (93) 
-0

>  <i_i_glide_confnum>  (93) 
5

>  <i_i_glide_posenum>  (93) 
34

>  <r_i_glide_eff_state_penalty>  (93) 
0

>  <ligand_id>  (93) 
28

>  <original_smiles>  (93) 
N=c1[nH]cnc2c1ncn2C1CCCC1

>  <smiles>  (93) 
[H]c1nc(N([H])[H])c2nc([H])n(C3([H])C([H])([H])C([H])([H])C([H])([H])C3([H])[H])c2n1

$$$$
29:0:0
     RDKit          3D

 29 34  0  0  1  0  0  0  0  0999 V2000
    2.6515   -0.4682    1.1511 N   0  0  0  0  0  0  0  0  0  0  0  0
    3.5957   -1.6038    1.1043 C   0  0  2  0  0  0  0  0  0  0  0  0
    4.9796   -1.3684    0.4556 C   0  0  1  0  0  0  0  0  0  0  0  0
    6.0314   -2.5277    0.7695 C   0  0  1  0  0  0  0  0  0  0  0  0
    5.2812   -3.8086    1.1775 C   0  0  0  0  0  0  0  0  0  0  0  0
    4.3988   -3.9086   -0.0770 C   0  0  1  0  0  0  0  0  0  0  0  0
    3.4785   -2.6107   -0.0883 C   0  0  2  0  0  0  0  0  0  0  0  0
    4.1858   -1.4979   -0.9104 C   0  0  2  0  0  0  0  0  0  0  0  0
    4.9070   -2.0422   -2.1740 C   0  0  2  0  0  0  0  0  0  0  0  0
    4.6027   -3.4953   -2.4568 C   0  0  0  0  0  0  0  0  0  0  0  0
    5.4492   -3.8496   -1.2463 C   0  0  2  0  0  0  0  0  0  0  0  0
    6.5847   -3.1063   -0.5060 C   0  0  1  0  0  0  0  0  0  0  0  0
    6.2317   -2.5486   -1.7454 C   0  0  2  0  0  0  0  0  0  0  0  0
    2.5380   -0.0256    0.2488 H   0  0  0  0  0  0  0  0  0  0  0  0
    2.9592    0.2056    1.8400 H   0  0  0  0  0  0  0  0  0  0  0  0
    3.6305   -2.0434    2.0962 H   0  0  0  0  0  0  0  0  0  0  0  0
    5.3773   -0.3593    0.5881 H   0  0  0  0  0  0  0  0  0  0  0  0
    6.8177   -2.2402    1.4649 H   0  0  0  0  0  0  0  0  0  0  0  0
    5.9487   -4.6701    1.2794 H   0  0  0  0  0  0  0  0  0  0  0  0
    4.7285   -3.7512    2.1134 H   0  0  0  0  0  0  0  0  0  0  0  0
    3.8282   -4.8416   -0.1184 H   0  0  0  0  0  0  0  0  0  0  0  0
    2.4570   -2.7850   -0.4223 H   0  0  0  0  0  0  0  0  0  0  0  0
    3.5384   -0.6538   -1.1691 H   0  0  0  0  0  0  0  0  0  0  0  0
    4.8975   -1.4045   -3.0564 H   0  0  0  0  0  0  0  0  0  0  0  0
    3.5555   -3.8089   -2.4567 H   0  0  0  0  0  0  0  0  0  0  0  0
    5.0548   -3.8123   -3.4010 H   0  0  0  0  0  0  0  0  0  0  0  0
    7.5211   -3.6526   -0.4255 H   0  0  0  0  0  0  0  0  0  0  0  0
    6.9478   -2.6888   -2.5518 H   0  0  0  0  0  0  0  0  0  0  0  0
    1.7369   -0.8101    1.4126 H   0  0  0  0  0  0  0  0  0  0  0  0
  1  2  1  0
  1 14  1  0
  1 15  1  0
  1 29  1  0
  2  7  1  0
  2  3  1  0
  2 16  1  1
  3  8  1  0
  3  4  1  0
  3 17  1  1
  4 12  1  0
  4  5  1  0
  4 18  1  1
  5  6  1  0
  5 19  1  0
  5 20  1  0
  6 11  1  0
  6  7  1  0
  6 21  1  1
  7  8  1  0
  7 22  1  6
  8  9  1  0
  8 23  1  6
  9 13  1  0
  9 10  1  0
  9 24  1  6
 11 10  1  6
 10 25  1  0
 10 26  1  0
 11 13  1  0
 11 12  1  0
 12 13  1  0
 12 27  1  1
 13 28  1  6
M  CHG  1   1   1
M  END
>  <i_m_ct_stereo_status>  (94) 
1

>  <s_m_source_file>  (94) 
/var/tmp/pbs.5076255.sched01/tmp3npnc3rz/42_8qtnw6u.sdf

>  <i_m_source_file_index>  (94) 
3

>  <i_lp_mmshare_version>  (94) 
48012

>  <i_f3d_flags>  (94) 
2

>  <s_epik_input>  (94) 
W0NAQF0xMjNbQ0BASF00W0NAQEhdNVtDQEhdNltDQEBIXShbQ0BIXTVbTkgyXSlbQ0BASF0oW0NIMl00KVtDSF0yW0NIXTNbQ0BASF02W0NIMl0x

>  <s_epik_cmdline>  (94) 
J2VwaWtfcHl0aG9uJywgJy1waHQnLCAnMi4wJywgJy1waCcsICc3LjAnLCAnLXRuJywgJzgnLCAnLW1hJywgJzIwMCcsICctaW1hZScsICc8aW5maWxlLm1hZT4nLCAnLW9tYWUnLCAnPG91dGZpbGUubWFlPic=

>  <r_lp_tautomer_probability>  (94) 
1

>  <r_epik_Ionization_Penalty>  (94) 
0.000143821

>  <r_epik_Ionization_Penalty_Charging>  (94) 
0.000143821

>  <r_epik_Ionization_Penalty_Neutral>  (94) 
0

>  <r_epik_State_Penalty>  (94) 
-0

>  <r_epik_Charging_Adjusted_Penalty>  (94) 
0.000143821

>  <i_epik_Tot_Q>  (94) 
1

>  <i_epik_Tot_abs_Q>  (94) 
1

>  <s_lp_Force_Field>  (94) 
OPLS3e

>  <r_lp_Energy>  (94) 
205.684

>  <b_lp_Chiralities_Consistent>  (94) 
0

>  <s_lp_Variant>  (94) 
29:0-1

>  <s_i_glide_gridfile>  (94) 
pfpi4k_grid

>  <i_i_glide_lignum>  (94) 
3

>  <i_i_glide_rotatable_bonds>  (94) 
0

>  <r_i_docking_score>  (94) 
-4.061

>  <r_i_glide_ligand_efficiency>  (94) 
-0.312384

>  <r_i_glide_ligand_efficiency_sa>  (94) 
-0.73452

>  <r_i_glide_ligand_efficiency_ln>  (94) 
-1.13915

>  <r_i_glide_gscore>  (94) 
-4.061

>  <r_i_glide_lipo>  (94) 
-0.289624

>  <r_i_glide_hbond>  (94) 
-0.0118481

>  <r_i_glide_metal>  (94) 
-0

>  <r_i_glide_rewards>  (94) 
-2.22094

>  <r_i_glide_evdw>  (94) 
-16.4568

>  <r_i_glide_ecoul>  (94) 
-4.3243

>  <r_i_glide_erotb>  (94) 
0

>  <r_i_glide_esite>  (94) 
-0.0671006

>  <r_i_glide_emodel>  (94) 
-27.36

>  <r_i_glide_energy>  (94) 
-20.7811

>  <r_i_glide_einternal>  (94) 
0

>  <r_i_glide_intrahb_reward>  (94) 
-0

>  <i_i_glide_confnum>  (94) 
1

>  <i_i_glide_posenum>  (94) 
13

>  <r_i_glide_eff_state_penalty>  (94) 
0

>  <ligand_id>  (94) 
29

>  <original_smiles>  (94) 
NC1C2C3CC4C1C2C1CC42C3C12

>  <smiles>  (94) 
[H]C1([H])C2([H])C3([H])C4([H])C5([H])C([H])([H])C43C1([H])C1([H])C5([H])C2([H])C1([H])[N+]([H])([H])[H]

$$$$
29:0:1
     RDKit          3D

 29 34  0  0  1  0  0  0  0  0999 V2000
    5.0177   -0.6828    1.3718 N   0  0  0  0  0  0  0  0  0  0  0  0
    5.0028   -1.9134    0.5366 C   0  0  2  0  0  0  0  0  0  0  0  0
    5.6713   -1.8345   -0.8480 C   0  0  1  0  0  0  0  0  0  0  0  0
    5.9141   -3.2609   -1.5155 C   0  0  1  0  0  0  0  0  0  0  0  0
    4.9846   -4.2954   -0.8629 C   0  0  0  0  0  0  0  0  0  0  0  0
    3.6663   -3.5517   -1.1438 C   0  0  1  0  0  0  0  0  0  0  0  0
    3.7459   -2.1787   -0.3407 C   0  0  2  0  0  0  0  0  0  0  0  0
    4.3338   -1.0899   -1.2751 C   0  0  2  0  0  0  0  0  0  0  0  0
    3.8114   -1.1977   -2.7274 C   0  0  2  0  0  0  0  0  0  0  0  0
    2.7043   -2.2167   -2.9282 C   0  0  0  0  0  0  0  0  0  0  0  0
    3.7374   -3.2991   -2.6927 C   0  0  2  0  0  0  0  0  0  0  0  0
    5.2717   -3.3382   -2.8704 C   0  0  1  0  0  0  0  0  0  0  0  0
    4.6403   -2.1973   -3.4252 C   0  0  2  0  0  0  0  0  0  0  0  0
    4.7200    0.1295    0.8473 H   0  0  0  0  0  0  0  0  0  0  0  0
    5.9539   -0.5481    1.7165 H   0  0  0  0  0  0  0  0  0  0  0  0
    5.3420   -2.7334    1.1631 H   0  0  0  0  0  0  0  0  0  0  0  0
    6.5336   -1.1759   -0.8807 H   0  0  0  0  0  0  0  0  0  0  0  0
    6.9637   -3.5642   -1.5429 H   0  0  0  0  0  0  0  0  0  0  0  0
    5.0145   -5.2643   -1.3726 H   0  0  0  0  0  0  0  0  0  0  0  0
    5.1691   -4.5076    0.1874 H   0  0  0  0  0  0  0  0  0  0  0  0
    2.7858   -4.1458   -0.8907 H   0  0  0  0  0  0  0  0  0  0  0  0
    2.8050   -1.8672    0.1131 H   0  0  0  0  0  0  0  0  0  0  0  0
    4.2257   -0.0749   -0.8891 H   0  0  0  0  0  0  0  0  0  0  0  0
    3.6624   -0.2551   -3.2674 H   0  0  0  0  0  0  0  0  0  0  0  0
    1.8462   -2.2005   -2.2580 H   0  0  0  0  0  0  0  0  0  0  0  0
    2.3267   -2.1802   -3.9504 H   0  0  0  0  0  0  0  0  0  0  0  0
    5.6276   -4.1104   -3.5412 H   0  0  0  0  0  0  0  0  0  0  0  0
    4.5931   -2.1608   -4.5020 H   0  0  0  0  0  0  0  0  0  0  0  0
    4.3977   -0.8246    2.1530 H   0  0  0  0  0  0  0  0  0  0  0  0
  1  2  1  0
  1 14  1  0
  1 15  1  0
  1 29  1  0
  2  7  1  0
  2  3  1  0
  2 16  1  1
  3  8  1  0
  3  4  1  0
  3 17  1  1
  4 12  1  0
  4  5  1  0
  4 18  1  6
  5  6  1  0
  5 19  1  0
  5 20  1  0
  6 11  1  0
  6  7  1  0
  6 21  1  6
  7  8  1  0
  7 22  1  1
  8  9  1  0
  8 23  1  1
  9 13  1  0
  9 10  1  0
  9 24  1  6
 11 10  1  6
 10 25  1  0
 10 26  1  0
 11 13  1  0
 11 12  1  0
 12 13  1  0
 12 27  1  6
 13 28  1  6
M  CHG  1   1   1
M  END
>  <i_m_ct_stereo_status>  (95) 
1

>  <s_m_source_file>  (95) 
/var/tmp/pbs.5076255.sched01/tmp3npnc3rz/42_8qtnw6u.sdf

>  <i_m_source_file_index>  (95) 
3

>  <i_lp_mmshare_version>  (95) 
48012

>  <i_f3d_flags>  (95) 
2

>  <s_epik_input>  (95) 
W0NAQF0xMjNbQ0BASF00W0NAQEhdNVtDQEhdNltDQEBIXShbQ0BIXTVbTkgyXSlbQ0BASF0oW0NIMl00KVtDSF0yW0NIXTNbQ0BASF02W0NIMl0x

>  <s_epik_cmdline>  (95) 
J2VwaWtfcHl0aG9uJywgJy1waHQnLCAnMi4wJywgJy1waCcsICc3LjAnLCAnLXRuJywgJzgnLCAnLW1hJywgJzIwMCcsICctaW1hZScsICc8aW5maWxlLm1hZT4nLCAnLW9tYWUnLCAnPG91dGZpbGUubWFlPic=

>  <r_lp_tautomer_probability>  (95) 
1

>  <r_epik_Ionization_Penalty>  (95) 
0.000143821

>  <r_epik_Ionization_Penalty_Charging>  (95) 
0.000143821

>  <r_epik_Ionization_Penalty_Neutral>  (95) 
0

>  <r_epik_State_Penalty>  (95) 
-0

>  <r_epik_Charging_Adjusted_Penalty>  (95) 
0.000143821

>  <i_epik_Tot_Q>  (95) 
1

>  <i_epik_Tot_abs_Q>  (95) 
1

>  <s_lp_Force_Field>  (95) 
OPLS3e

>  <r_lp_Energy>  (95) 
205.684

>  <b_lp_Chiralities_Consistent>  (95) 
0

>  <s_lp_Variant>  (95) 
29:0-1

>  <s_i_glide_gridfile>  (95) 
pfpi4k_grid

>  <i_i_glide_lignum>  (95) 
3

>  <i_i_glide_rotatable_bonds>  (95) 
0

>  <r_i_docking_score>  (95) 
-3.85608

>  <r_i_glide_ligand_efficiency>  (95) 
-0.296622

>  <r_i_glide_ligand_efficiency_sa>  (95) 
-0.697457

>  <r_i_glide_ligand_efficiency_ln>  (95) 
-1.08167

>  <r_i_glide_gscore>  (95) 
-3.85608

>  <r_i_glide_lipo>  (95) 
-0.471998

>  <r_i_glide_hbond>  (95) 
0

>  <r_i_glide_metal>  (95) 
-0

>  <r_i_glide_rewards>  (95) 
-2.22094

>  <r_i_glide_evdw>  (95) 
-17.5614

>  <r_i_glide_ecoul>  (95) 
-1.90049

>  <r_i_glide_erotb>  (95) 
0

>  <r_i_glide_esite>  (95) 
0

>  <r_i_glide_emodel>  (95) 
-25.6905

>  <r_i_glide_energy>  (95) 
-19.4619

>  <r_i_glide_einternal>  (95) 
0

>  <r_i_glide_intrahb_reward>  (95) 
-0

>  <i_i_glide_confnum>  (95) 
1

>  <i_i_glide_posenum>  (95) 
9

>  <r_i_glide_eff_state_penalty>  (95) 
0

>  <ligand_id>  (95) 
29

>  <original_smiles>  (95) 
NC1C2C3CC4C1C2C1CC42C3C12

>  <smiles>  (95) 
[H]C1([H])C2([H])C3([H])C4([H])C5([H])C([H])([H])C43C1([H])C1([H])C5([H])C2([H])C1([H])[N+]([H])([H])[H]

$$$$
29:0:2
     RDKit          3D

 29 34  0  0  1  0  0  0  0  0999 V2000
    3.8017   -5.2488    1.3268 N   0  0  0  0  0  0  0  0  0  0  0  0
    4.5949   -4.1649    0.6996 C   0  0  2  0  0  0  0  0  0  0  0  0
    3.8512   -2.8725    0.3085 C   0  0  1  0  0  0  0  0  0  0  0  0
    4.8269   -1.6592   -0.0360 C   0  0  1  0  0  0  0  0  0  0  0  0
    6.2170   -2.2136   -0.3923 C   0  0  0  0  0  0  0  0  0  0  0  0
    5.7638   -3.1478   -1.5256 C   0  0  1  0  0  0  0  0  0  0  0  0
    4.8052   -4.2270   -0.8461 C   0  0  2  0  0  0  0  0  0  0  0  0
    3.3392   -3.7208   -0.9254 C   0  0  2  0  0  0  0  0  0  0  0  0
    3.0148   -3.0188   -2.2696 C   0  0  2  0  0  0  0  0  0  0  0  0
    4.1192   -3.1625   -3.3037 C   0  0  0  0  0  0  0  0  0  0  0  0
    4.9298   -2.1909   -2.4553 C   0  0  2  0  0  0  0  0  0  0  0  0
    4.5494   -1.1293   -1.4138 C   0  0  1  0  0  0  0  0  0  0  0  0
    3.4598   -1.6250   -2.1494 C   0  0  2  0  0  0  0  0  0  0  0  0
    2.9512   -5.4404    0.8200 H   0  0  0  0  0  0  0  0  0  0  0  0
    3.5869   -4.9718    2.2722 H   0  0  0  0  0  0  0  0  0  0  0  0
    5.4821   -4.0156    1.3007 H   0  0  0  0  0  0  0  0  0  0  0  0
    3.0262   -2.6058    0.9662 H   0  0  0  0  0  0  0  0  0  0  0  0
    4.8448   -0.8664    0.7120 H   0  0  0  0  0  0  0  0  0  0  0  0
    6.8928   -1.4436   -0.7455 H   0  0  0  0  0  0  0  0  0  0  0  0
    6.7513   -2.7112    0.4193 H   0  0  0  0  0  0  0  0  0  0  0  0
    6.5984   -3.5909   -2.0710 H   0  0  0  0  0  0  0  0  0  0  0  0
    4.9156   -5.2331   -1.2315 H   0  0  0  0  0  0  0  0  0  0  0  0
    2.5915   -4.4886   -0.6963 H   0  0  0  0  0  0  0  0  0  0  0  0
    2.0089   -3.1651   -2.6773 H   0  0  0  0  0  0  0  0  0  0  0  0
    4.5251   -4.1660   -3.4798 H   0  0  0  0  0  0  0  0  0  0  0  0
    3.7949   -2.7323   -4.2465 H   0  0  0  0  0  0  0  0  0  0  0  0
    4.8891   -0.1380   -1.6411 H   0  0  0  0  0  0  0  0  0  0  0  0
    3.0517   -0.9552   -2.8860 H   0  0  0  0  0  0  0  0  0  0  0  0
    4.3699   -6.0824    1.3624 H   0  0  0  0  0  0  0  0  0  0  0  0
  1  2  1  0
  1 14  1  0
  1 15  1  0
  1 29  1  0
  2  7  1  0
  2  3  1  0
  2 16  1  1
  3  8  1  0
  3  4  1  0
  3 17  1  1
  4 12  1  0
  4  5  1  0
  4 18  1  1
  5  6  1  0
  5 19  1  0
  5 20  1  0
  6 11  1  0
  6  7  1  0
  6 21  1  6
  7  8  1  0
  7 22  1  6
  8  9  1  0
  8 23  1  1
  9 13  1  0
  9 10  1  0
  9 24  1  6
 11 10  1  6
 10 25  1  0
 10 26  1  0
 11 13  1  0
 11 12  1  0
 12 13  1  0
 12 27  1  6
 13 28  1  6
M  CHG  1   1   1
M  END
>  <i_m_ct_stereo_status>  (96) 
1

>  <s_m_source_file>  (96) 
/var/tmp/pbs.5076255.sched01/tmp3npnc3rz/42_8qtnw6u.sdf

>  <i_m_source_file_index>  (96) 
3

>  <i_lp_mmshare_version>  (96) 
48012

>  <i_f3d_flags>  (96) 
2

>  <s_epik_input>  (96) 
W0NAQF0xMjNbQ0BASF00W0NAQEhdNVtDQEhdNltDQEBIXShbQ0BIXTVbTkgyXSlbQ0BASF0oW0NIMl00KVtDSF0yW0NIXTNbQ0BASF02W0NIMl0x

>  <s_epik_cmdline>  (96) 
J2VwaWtfcHl0aG9uJywgJy1waHQnLCAnMi4wJywgJy1waCcsICc3LjAnLCAnLXRuJywgJzgnLCAnLW1hJywgJzIwMCcsICctaW1hZScsICc8aW5maWxlLm1hZT4nLCAnLW9tYWUnLCAnPG91dGZpbGUubWFlPic=

>  <r_lp_tautomer_probability>  (96) 
1

>  <r_epik_Ionization_Penalty>  (96) 
0.000143821

>  <r_epik_Ionization_Penalty_Charging>  (96) 
0.000143821

>  <r_epik_Ionization_Penalty_Neutral>  (96) 
0

>  <r_epik_State_Penalty>  (96) 
-0

>  <r_epik_Charging_Adjusted_Penalty>  (96) 
0.000143821

>  <i_epik_Tot_Q>  (96) 
1

>  <i_epik_Tot_abs_Q>  (96) 
1

>  <s_lp_Force_Field>  (96) 
OPLS3e

>  <r_lp_Energy>  (96) 
205.684

>  <b_lp_Chiralities_Consistent>  (96) 
0

>  <s_lp_Variant>  (96) 
29:0-1

>  <s_i_glide_gridfile>  (96) 
pfpi4k_grid

>  <i_i_glide_lignum>  (96) 
3

>  <i_i_glide_rotatable_bonds>  (96) 
0

>  <r_i_docking_score>  (96) 
-3.62238

>  <r_i_glide_ligand_efficiency>  (96) 
-0.278645

>  <r_i_glide_ligand_efficiency_sa>  (96) 
-0.655187

>  <r_i_glide_ligand_efficiency_ln>  (96) 
-1.01611

>  <r_i_glide_gscore>  (96) 
-3.62238

>  <r_i_glide_lipo>  (96) 
-0.327179

>  <r_i_glide_hbond>  (96) 
0

>  <r_i_glide_metal>  (96) 
-0

>  <r_i_glide_rewards>  (96) 
-2.22094

>  <r_i_glide_evdw>  (96) 
-18.2654

>  <r_i_glide_ecoul>  (96) 
-1.07328

>  <r_i_glide_erotb>  (96) 
0

>  <r_i_glide_esite>  (96) 
0

>  <r_i_glide_emodel>  (96) 
-25.1736

>  <r_i_glide_energy>  (96) 
-19.3387

>  <r_i_glide_einternal>  (96) 
0

>  <r_i_glide_intrahb_reward>  (96) 
-0

>  <i_i_glide_confnum>  (96) 
1

>  <i_i_glide_posenum>  (96) 
24

>  <r_i_glide_eff_state_penalty>  (96) 
0

>  <ligand_id>  (96) 
29

>  <original_smiles>  (96) 
NC1C2C3CC4C1C2C1CC42C3C12

>  <smiles>  (96) 
[H]C1([H])C2([H])C3([H])C4([H])C5([H])C([H])([H])C43C1([H])C1([H])C5([H])C2([H])C1([H])[N+]([H])([H])[H]

$$$$
30:0:0
     RDKit          3D

 42 45  0  0  1  0  0  0  0  0999 V2000
    2.9416   -2.7377    2.4185 C   0  0  0  0  0  0  0  0  0  0  0  0
    3.6567   -3.1663    1.1272 C   0  0  2  0  0  0  0  0  0  0  0  0
    4.4743   -4.4332    1.3891 C   0  0  0  0  0  0  0  0  0  0  0  0
    4.8124   -5.2130    0.1065 C   0  0  0  0  0  0  0  0  0  0  0  0
    5.1656   -4.3686   -1.1172 C   0  0  1  0  0  0  0  0  0  0  0  0
    4.0267   -3.7220   -1.6850 O   0  0  0  0  0  0  0  0  0  0  0  0
    4.1222   -2.5088   -2.4190 C   0  0  1  0  0  0  0  0  0  0  0  0
    3.6823   -2.8007   -3.8696 C   0  0  0  0  0  0  0  0  0  0  0  0
    3.1330   -1.6274   -1.6977 C   0  0  0  0  0  0  0  0  0  0  0  0
    3.7742   -1.0595   -0.4010 C   0  0  0  0  0  0  0  0  0  0  0  0
    4.5381   -2.0249    0.5425 C   0  0  2  0  0  0  0  0  0  0  0  0
    5.8855   -2.3952    0.1310 O   0  0  0  0  0  0  0  0  0  0  0  0
    6.2058   -3.3221   -0.9390 C   0  0  2  0  0  0  0  0  0  0  0  0
    6.4087   -2.7211   -2.3154 C   0  0  2  0  0  0  0  0  0  0  0  0
    7.7104   -2.2804   -1.9746 O   0  0  0  0  0  0  0  0  0  0  0  0
    7.7481   -3.4077   -1.0756 C   0  0  1  0  0  0  0  0  0  0  0  0
    8.5965   -3.0684    0.5104 S   0  0  0  0  0  0  0  0  0  0  0  0
    8.3595   -4.7063    1.3351 C   0  0  0  0  0  0  0  0  0  0  0  0
   10.0982   -3.0337    0.3633 O   0  0  0  0  0  0  0  0  0  0  0  0
    5.3458   -1.8223   -2.4213 O   0  0  0  0  0  0  0  0  0  0  0  0
    3.6487   -2.5184    3.2203 H   0  0  0  0  0  0  0  0  0  0  0  0
    2.2821   -3.5285    2.7734 H   0  0  0  0  0  0  0  0  0  0  0  0
    2.3289   -1.8540    2.2512 H   0  0  0  0  0  0  0  0  0  0  0  0
    2.8713   -3.4237    0.4151 H   0  0  0  0  0  0  0  0  0  0  0  0
    5.3584   -4.1422    1.9546 H   0  0  0  0  0  0  0  0  0  0  0  0
    3.9259   -5.1200    2.0343 H   0  0  0  0  0  0  0  0  0  0  0  0
    5.6300   -5.9027    0.3107 H   0  0  0  0  0  0  0  0  0  0  0  0
    3.9677   -5.8385   -0.1782 H   0  0  0  0  0  0  0  0  0  0  0  0
    5.3970   -5.0606   -1.9099 H   0  0  0  0  0  0  0  0  0  0  0  0
    4.3661   -3.5109   -4.3308 H   0  0  0  0  0  0  0  0  0  0  0  0
    3.6629   -1.8816   -4.4601 H   0  0  0  0  0  0  0  0  0  0  0  0
    2.6888   -3.2458   -3.8791 H   0  0  0  0  0  0  0  0  0  0  0  0
    2.8304   -0.7983   -2.3364 H   0  0  0  0  0  0  0  0  0  0  0  0
    2.2632   -2.2669   -1.5304 H   0  0  0  0  0  0  0  0  0  0  0  0
    4.4387   -0.2353   -0.6524 H   0  0  0  0  0  0  0  0  0  0  0  0
    2.9709   -0.5959    0.1725 H   0  0  0  0  0  0  0  0  0  0  0  0
    4.7687   -1.3836    1.3986 H   0  0  0  0  0  0  0  0  0  0  0  0
    6.4512   -3.4719   -3.1157 H   0  0  0  0  0  0  0  0  0  0  0  0
    8.2118   -4.2453   -1.5642 H   0  0  0  0  0  0  0  0  0  0  0  0
    7.3170   -4.8647    1.5518 H   0  0  0  0  0  0  0  0  0  0  0  0
    8.9020   -4.7236    2.2830 H   0  0  0  0  0  0  0  0  0  0  0  0
    8.7172   -5.5296    0.7149 H   0  0  0  0  0  0  0  0  0  0  0  0
  1  2  1  0
  1 21  1  0
  1 22  1  0
  1 23  1  0
  2 11  1  0
  2  3  1  0
  2 24  1  6
  3  4  1  0
  3 25  1  0
  3 26  1  0
  4  5  1  0
  4 27  1  0
  4 28  1  0
  5 13  1  0
  5  6  1  0
  5 29  1  6
  6  7  1  0
  7 20  1  0
  7  8  1  6
  7  9  1  0
  8 30  1  0
  8 31  1  0
  8 32  1  0
  9 10  1  0
  9 33  1  0
  9 34  1  0
 10 11  1  0
 10 35  1  0
 10 36  1  0
 11 12  1  0
 11 37  1  1
 13 12  1  1
 13 16  1  0
 13 14  1  0
 14 15  1  0
 14 20  1  0
 14 38  1  6
 15 16  1  0
 16 17  1  0
 16 39  1  6
 17 18  1  1
 17 19  2  0
 18 40  1  0
 18 41  1  0
 18 42  1  0
M  END
>  <i_m_ct_stereo_status>  (97) 
1

>  <s_m_source_file>  (97) 
/var/tmp/pbs.5076255.sched01/tmp3npnc3rz/42_8qtnw6u.sdf

>  <i_m_source_file_index>  (97) 
4

>  <i_lp_mmshare_version>  (97) 
48012

>  <i_f3d_flags>  (97) 
0

>  <s_epik_input>  (97) 
W0NAQF0xMjNbQ0BIXTRbQ0gyXVtDSDJdW0NAQEhdKFtDSDNdKVtDQEBIXShPMSlbQ0gyXVtDSDJdW0NAQF0oTzQpKFtDSDNdKU9bQ0BIXTJPW0NASF0zW1MrXShbTy1dKVtDSDNd

>  <s_epik_cmdline>  (97) 
J2VwaWtfcHl0aG9uJywgJy1waHQnLCAnMi4wJywgJy1waCcsICc3LjAnLCAnLXRuJywgJzgnLCAnLW1hJywgJzIwMCcsICctaW1hZScsICc8aW5maWxlLm1hZT4nLCAnLW9tYWUnLCAnPG91dGZpbGUubWFlPic=

>  <r_lp_tautomer_probability>  (97) 
1

>  <r_epik_Ionization_Penalty>  (97) 
3.43236e-13

>  <r_epik_Ionization_Penalty_Charging>  (97) 
0

>  <r_epik_Ionization_Penalty_Neutral>  (97) 
3.43236e-13

>  <r_epik_State_Penalty>  (97) 
-0

>  <r_epik_Charging_Adjusted_Penalty>  (97) 
0

>  <i_epik_Tot_Q>  (97) 
0

>  <i_epik_Tot_abs_Q>  (97) 
2

>  <s_epik_Chemistry_Notes>  (97) 
This compound contains an acetal/aminal-like group ( X-CH(R)-Y where X, Y are N, S, or O) that may be acid/base labile, releasing an aldehyde.

>  <s_lp_Force_Field>  (97) 
OPLS3e

>  <r_lp_Energy>  (97) 
51.2816

>  <b_lp_Chiralities_Consistent>  (97) 
1

>  <s_lp_Variant>  (97) 
30:0-1

>  <s_i_glide_gridfile>  (97) 
pfpi4k_grid

>  <i_i_glide_lignum>  (97) 
4

>  <i_i_glide_rotatable_bonds>  (97) 
1

>  <r_i_docking_score>  (97) 
-3.70317

>  <r_i_glide_ligand_efficiency>  (97) 
-0.185158

>  <r_i_glide_ligand_efficiency_sa>  (97) 
-0.502597

>  <r_i_glide_ligand_efficiency_ln>  (97) 
-0.926781

>  <r_i_glide_gscore>  (97) 
-3.70317

>  <r_i_glide_lipo>  (97) 
-0.380689

>  <r_i_glide_hbond>  (97) 
-0.276211

>  <r_i_glide_metal>  (97) 
-0

>  <r_i_glide_rewards>  (97) 
-1.61153

>  <r_i_glide_evdw>  (97) 
-14.9385

>  <r_i_glide_ecoul>  (97) 
-4.51678

>  <r_i_glide_erotb>  (97) 
0

>  <r_i_glide_esite>  (97) 
-0.0102975

>  <r_i_glide_emodel>  (97) 
-21.494

>  <r_i_glide_energy>  (97) 
-19.4553

>  <r_i_glide_einternal>  (97) 
0.0010171

>  <r_i_glide_intrahb_reward>  (97) 
-0

>  <i_i_glide_confnum>  (97) 
2

>  <i_i_glide_posenum>  (97) 
36

>  <r_i_glide_eff_state_penalty>  (97) 
0

>  <ligand_id>  (97) 
30

>  <original_smiles>  (97) 
CC1CCC2OC3(C)CCC1OC21C(OC1[S+](C)[O-])O3

>  <smiles>  (97) 
[H]C([H])([H])S(=O)C1([H])OC2([H])OC3(C([H])([H])[H])OC4([H])C([H])([H])C([H])([H])C([H])(C([H])([H])[H])C([H])(OC214)C([H])([H])C3([H])[H]

$$$$
30:0:1
     RDKit          3D

 42 45  0  0  1  0  0  0  0  0999 V2000
    3.7592    0.4541    1.2332 C   0  0  0  0  0  0  0  0  0  0  0  0
    3.8646   -0.8524    0.4532 C   0  0  2  0  0  0  0  0  0  0  0  0
    4.0985   -2.0001    1.4599 C   0  0  0  0  0  0  0  0  0  0  0  0
    3.6933   -3.3783    0.9056 C   0  0  0  0  0  0  0  0  0  0  0  0
    4.0628   -3.6192   -0.5581 C   0  0  1  0  0  0  0  0  0  0  0  0
    3.1562   -2.9811   -1.4930 O   0  0  0  0  0  0  0  0  0  0  0  0
    3.6159   -2.5111   -2.7735 C   0  0  1  0  0  0  0  0  0  0  0  0
    2.7770   -3.2062   -3.8403 C   0  0  0  0  0  0  0  0  0  0  0  0
    3.4131   -1.0122   -2.7733 C   0  0  0  0  0  0  0  0  0  0  0  0
    4.5766   -0.3139   -2.0588 C   0  0  0  0  0  0  0  0  0  0  0  0
    4.9667   -0.7602   -0.6241 C   0  0  2  0  0  0  0  0  0  0  0  0
    5.8543   -1.8535   -0.5791 O   0  0  0  0  0  0  0  0  0  0  0  0
    5.4403   -3.1730   -0.9155 C   0  0  2  0  0  0  0  0  0  0  0  0
    5.5992   -3.5872   -2.3625 C   0  0  2  0  0  0  0  0  0  0  0  0
    7.0018   -3.5061   -2.1765 O   0  0  0  0  0  0  0  0  0  0  0  0
    6.7232   -3.9732   -0.8007 C   0  0  1  0  0  0  0  0  0  0  0  0
    8.0549   -3.4912    0.3990 S   0  0  0  0  0  0  0  0  0  0  0  0
    7.8043   -4.8595    1.6201 C   0  0  0  0  0  0  0  0  0  0  0  0
    9.3972   -3.8288   -0.2730 O   0  0  0  0  0  0  0  0  0  0  0  0
    4.9500   -2.6792   -3.1633 O   0  0  0  0  0  0  0  0  0  0  0  0
    4.6585    0.5571    1.8462 H   0  0  0  0  0  0  0  0  0  0  0  0
    2.8943    0.4531    1.9026 H   0  0  0  0  0  0  0  0  0  0  0  0
    3.6764    1.2785    0.5677 H   0  0  0  0  0  0  0  0  0  0  0  0
    2.9114   -1.0220   -0.0291 H   0  0  0  0  0  0  0  0  0  0  0  0
    5.1405   -2.0059    1.8068 H   0  0  0  0  0  0  0  0  0  0  0  0
    3.5000   -1.8269    2.3511 H   0  0  0  0  0  0  0  0  0  0  0  0
    4.1628   -4.1440    1.5473 H   0  0  0  0  0  0  0  0  0  0  0  0
    2.6093   -3.4979    1.0036 H   0  0  0  0  0  0  0  0  0  0  0  0
    3.9467   -4.6905   -0.7224 H   0  0  0  0  0  0  0  0  0  0  0  0
    2.9935   -4.2770   -3.7733 H   0  0  0  0  0  0  0  0  0  0  0  0
    3.0584   -2.8372   -4.8312 H   0  0  0  0  0  0  0  0  0  0  0  0
    1.7145   -3.0084   -3.6416 H   0  0  0  0  0  0  0  0  0  0  0  0
    3.3800   -0.6772   -3.8035 H   0  0  0  0  0  0  0  0  0  0  0  0
    2.4462   -0.8026   -2.3145 H   0  0  0  0  0  0  0  0  0  0  0  0
    5.4479   -0.3460   -2.7176 H   0  0  0  0  0  0  0  0  0  0  0  0
    4.2334    0.6890   -2.0069 H   0  0  0  0  0  0  0  0  0  0  0  0
    5.6903   -0.0272   -0.2786 H   0  0  0  0  0  0  0  0  0  0  0  0
    5.2571   -4.5994   -2.6000 H   0  0  0  0  0  0  0  0  0  0  0  0
    6.3798   -4.9977   -0.6601 H   0  0  0  0  0  0  0  0  0  0  0  0
    6.8162   -4.8118    2.0864 H   0  0  0  0  0  0  0  0  0  0  0  0
    8.5736   -4.7822    2.3949 H   0  0  0  0  0  0  0  0  0  0  0  0
    7.9314   -5.8458    1.1526 H   0  0  0  0  0  0  0  0  0  0  0  0
  1  2  1  0
  1 21  1  0
  1 22  1  0
  1 23  1  0
  2 11  1  0
  2  3  1  0
  2 24  1  6
  3  4  1  0
  3 25  1  0
  3 26  1  0
  4  5  1  0
  4 27  1  0
  4 28  1  0
  5 13  1  0
  5  6  1  0
  5 29  1  6
  6  7  1  0
  7 20  1  0
  7  8  1  6
  7  9  1  0
  8 30  1  0
  8 31  1  0
  8 32  1  0
  9 10  1  0
  9 33  1  0
  9 34  1  0
 10 11  1  0
 10 35  1  0
 10 36  1  0
 11 12  1  0
 11 37  1  1
 13 12  1  6
 13 16  1  0
 13 14  1  0
 14 15  1  0
 14 20  1  0
 14 38  1  1
 15 16  1  0
 16 17  1  0
 16 39  1  6
 17 18  1  1
 17 19  2  0
 18 40  1  0
 18 41  1  0
 18 42  1  0
M  END
>  <i_m_ct_stereo_status>  (98) 
1

>  <s_m_source_file>  (98) 
/var/tmp/pbs.5076255.sched01/tmp3npnc3rz/42_8qtnw6u.sdf

>  <i_m_source_file_index>  (98) 
4

>  <i_lp_mmshare_version>  (98) 
48012

>  <i_f3d_flags>  (98) 
0

>  <s_epik_input>  (98) 
W0NAQF0xMjNbQ0BIXTRbQ0gyXVtDSDJdW0NAQEhdKFtDSDNdKVtDQEBIXShPMSlbQ0gyXVtDSDJdW0NAQF0oTzQpKFtDSDNdKU9bQ0BIXTJPW0NASF0zW1MrXShbTy1dKVtDSDNd

>  <s_epik_cmdline>  (98) 
J2VwaWtfcHl0aG9uJywgJy1waHQnLCAnMi4wJywgJy1waCcsICc3LjAnLCAnLXRuJywgJzgnLCAnLW1hJywgJzIwMCcsICctaW1hZScsICc8aW5maWxlLm1hZT4nLCAnLW9tYWUnLCAnPG91dGZpbGUubWFlPic=

>  <r_lp_tautomer_probability>  (98) 
1

>  <r_epik_Ionization_Penalty>  (98) 
3.43236e-13

>  <r_epik_Ionization_Penalty_Charging>  (98) 
0

>  <r_epik_Ionization_Penalty_Neutral>  (98) 
3.43236e-13

>  <r_epik_State_Penalty>  (98) 
-0

>  <r_epik_Charging_Adjusted_Penalty>  (98) 
0

>  <i_epik_Tot_Q>  (98) 
0

>  <i_epik_Tot_abs_Q>  (98) 
2

>  <s_epik_Chemistry_Notes>  (98) 
This compound contains an acetal/aminal-like group ( X-CH(R)-Y where X, Y are N, S, or O) that may be acid/base labile, releasing an aldehyde.

>  <s_lp_Force_Field>  (98) 
OPLS3e

>  <r_lp_Energy>  (98) 
51.2816

>  <b_lp_Chiralities_Consistent>  (98) 
1

>  <s_lp_Variant>  (98) 
30:0-1

>  <s_i_glide_gridfile>  (98) 
pfpi4k_grid

>  <i_i_glide_lignum>  (98) 
4

>  <i_i_glide_rotatable_bonds>  (98) 
1

>  <r_i_docking_score>  (98) 
-3.52965

>  <r_i_glide_ligand_efficiency>  (98) 
-0.176483

>  <r_i_glide_ligand_efficiency_sa>  (98) 
-0.479048

>  <r_i_glide_ligand_efficiency_ln>  (98) 
-0.883356

>  <r_i_glide_gscore>  (98) 
-3.52965

>  <r_i_glide_lipo>  (98) 
-0.394736

>  <r_i_glide_hbond>  (98) 
-0.14798

>  <r_i_glide_metal>  (98) 
-0

>  <r_i_glide_rewards>  (98) 
-1.90985

>  <r_i_glide_evdw>  (98) 
-8.71773

>  <r_i_glide_ecoul>  (98) 
-4.27466

>  <r_i_glide_erotb>  (98) 
0

>  <r_i_glide_esite>  (98) 
0

>  <r_i_glide_emodel>  (98) 
-13.0657

>  <r_i_glide_energy>  (98) 
-12.9924

>  <r_i_glide_einternal>  (98) 
0.74254

>  <r_i_glide_intrahb_reward>  (98) 
-0

>  <i_i_glide_confnum>  (98) 
2

>  <i_i_glide_posenum>  (98) 
16

>  <r_i_glide_eff_state_penalty>  (98) 
0

>  <ligand_id>  (98) 
30

>  <original_smiles>  (98) 
CC1CCC2OC3(C)CCC1OC21C(OC1[S+](C)[O-])O3

>  <smiles>  (98) 
[H]C([H])([H])S(=O)C1([H])OC2([H])OC3(C([H])([H])[H])OC4([H])C([H])([H])C([H])([H])C([H])(C([H])([H])[H])C([H])(OC214)C([H])([H])C3([H])[H]

$$$$
30:0:2
     RDKit          3D

 42 45  0  0  1  0  0  0  0  0999 V2000
    2.1310   -1.1760    1.4980 C   0  0  0  0  0  0  0  0  0  0  0  0
    2.9641   -2.0961    0.5716 C   0  0  2  0  0  0  0  0  0  0  0  0
    3.7437   -3.0837    1.4650 C   0  0  0  0  0  0  0  0  0  0  0  0
    4.3180   -4.2781    0.6882 C   0  0  0  0  0  0  0  0  0  0  0  0
    4.7872   -4.0550   -0.7744 C   0  0  1  0  0  0  0  0  0  0  0  0
    3.6717   -3.8457   -1.6353 O   0  0  0  0  0  0  0  0  0  0  0  0
    3.7414   -3.0700   -2.8457 C   0  0  1  0  0  0  0  0  0  0  0  0
    3.4915   -4.0032   -4.0177 C   0  0  0  0  0  0  0  0  0  0  0  0
    2.6522   -2.0253   -2.7125 C   0  0  0  0  0  0  0  0  0  0  0  0
    3.1232   -0.8821   -1.8272 C   0  0  0  0  0  0  0  0  0  0  0  0
    3.8107   -1.2451   -0.4685 C   0  0  2  0  0  0  0  0  0  0  0  0
    5.1956   -1.5712   -0.6859 O   0  0  0  0  0  0  0  0  0  0  0  0
    5.7252   -2.8779   -1.0374 C   0  0  2  0  0  0  0  0  0  0  0  0
    6.0340   -2.9748   -2.5277 C   0  0  2  0  0  0  0  0  0  0  0  0
    7.2754   -2.2637   -2.2971 O   0  0  0  0  0  0  0  0  0  0  0  0
    7.2694   -2.8754   -0.9791 C   0  0  1  0  0  0  0  0  0  0  0  0
    8.0997   -1.8456    0.3388 S   0  0  0  0  0  0  0  0  0  0  0  0
    6.8087   -1.9746    1.6651 C   0  0  0  0  0  0  0  0  0  0  0  0
    9.3491   -2.5816    0.7739 O   0  0  0  0  0  0  0  0  0  0  0  0
    4.9550   -2.3502   -3.1367 O   0  0  0  0  0  0  0  0  0  0  0  0
    2.7464   -0.5698    2.1593 H   0  0  0  0  0  0  0  0  0  0  0  0
    1.4468   -1.7724    2.1081 H   0  0  0  0  0  0  0  0  0  0  0  0
    1.5378   -0.4481    0.9493 H   0  0  0  0  0  0  0  0  0  0  0  0
    2.2330   -2.6818   -0.0159 H   0  0  0  0  0  0  0  0  0  0  0  0
    4.4627   -2.5657    2.0563 H   0  0  0  0  0  0  0  0  0  0  0  0
    3.0771   -3.4957    2.2403 H   0  0  0  0  0  0  0  0  0  0  0  0
    5.1418   -4.7172    1.2435 H   0  0  0  0  0  0  0  0  0  0  0  0
    3.5572   -5.0805    0.6319 H   0  0  0  0  0  0  0  0  0  0  0  0
    5.2719   -4.9789   -1.1176 H   0  0  0  0  0  0  0  0  0  0  0  0
    4.2466   -4.7878   -4.0688 H   0  0  0  0  0  0  0  0  0  0  0  0
    3.4990   -3.4198   -4.9340 H   0  0  0  0  0  0  0  0  0  0  0  0
    2.5085   -4.4668   -3.9245 H   0  0  0  0  0  0  0  0  0  0  0  0
    2.3962   -1.6241   -3.7038 H   0  0  0  0  0  0  0  0  0  0  0  0
    1.7576   -2.5272   -2.3312 H   0  0  0  0  0  0  0  0  0  0  0  0
    3.8148   -0.2477   -2.3716 H   0  0  0  0  0  0  0  0  0  0  0  0
    2.2573   -0.2567   -1.7583 H   0  0  0  0  0  0  0  0  0  0  0  0
    3.9579   -0.2917    0.0335 H   0  0  0  0  0  0  0  0  0  0  0  0
    6.2279   -3.9822   -2.9041 H   0  0  0  0  0  0  0  0  0  0  0  0
    7.7026   -3.8757   -0.9807 H   0  0  0  0  0  0  0  0  0  0  0  0
    5.9531   -1.4135    1.3587 H   0  0  0  0  0  0  0  0  0  0  0  0
    7.0208   -1.3992    2.5438 H   0  0  0  0  0  0  0  0  0  0  0  0
    6.6136   -3.0229    1.8970 H   0  0  0  0  0  0  0  0  0  0  0  0
  1  2  1  0
  1 21  1  0
  1 22  1  0
  1 23  1  0
  2 11  1  0
  2  3  1  0
  2 24  1  6
  3  4  1  0
  3 25  1  0
  3 26  1  0
  4  5  1  0
  4 27  1  0
  4 28  1  0
  5 13  1  0
  5  6  1  0
  5 29  1  6
  6  7  1  0
  7 20  1  0
  7  8  1  6
  7  9  1  0
  8 30  1  0
  8 31  1  0
  8 32  1  0
  9 10  1  0
  9 33  1  0
  9 34  1  0
 10 11  1  0
 10 35  1  0
 10 36  1  0
 11 12  1  0
 11 37  1  1
 13 12  1  6
 13 16  1  0
 13 14  1  0
 14 15  1  0
 14 20  1  0
 14 38  1  6
 15 16  1  0
 16 17  1  0
 16 39  1  6
 17 18  1  1
 17 19  2  0
 18 40  1  0
 18 41  1  0
 18 42  1  0
M  END
>  <i_m_ct_stereo_status>  (99) 
1

>  <s_m_source_file>  (99) 
/var/tmp/pbs.5076255.sched01/tmp3npnc3rz/42_8qtnw6u.sdf

>  <i_m_source_file_index>  (99) 
4

>  <i_lp_mmshare_version>  (99) 
48012

>  <i_f3d_flags>  (99) 
0

>  <s_epik_input>  (99) 
W0NAQF0xMjNbQ0BIXTRbQ0gyXVtDSDJdW0NAQEhdKFtDSDNdKVtDQEBIXShPMSlbQ0gyXVtDSDJdW0NAQF0oTzQpKFtDSDNdKU9bQ0BIXTJPW0NASF0zW1MrXShbTy1dKVtDSDNd

>  <s_epik_cmdline>  (99) 
J2VwaWtfcHl0aG9uJywgJy1waHQnLCAnMi4wJywgJy1waCcsICc3LjAnLCAnLXRuJywgJzgnLCAnLW1hJywgJzIwMCcsICctaW1hZScsICc8aW5maWxlLm1hZT4nLCAnLW9tYWUnLCAnPG91dGZpbGUubWFlPic=

>  <r_lp_tautomer_probability>  (99) 
1

>  <r_epik_Ionization_Penalty>  (99) 
3.43236e-13

>  <r_epik_Ionization_Penalty_Charging>  (99) 
0

>  <r_epik_Ionization_Penalty_Neutral>  (99) 
3.43236e-13

>  <r_epik_State_Penalty>  (99) 
-0

>  <r_epik_Charging_Adjusted_Penalty>  (99) 
0

>  <i_epik_Tot_Q>  (99) 
0

>  <i_epik_Tot_abs_Q>  (99) 
2

>  <s_epik_Chemistry_Notes>  (99) 
This compound contains an acetal/aminal-like group ( X-CH(R)-Y where X, Y are N, S, or O) that may be acid/base labile, releasing an aldehyde.

>  <s_lp_Force_Field>  (99) 
OPLS3e

>  <r_lp_Energy>  (99) 
51.2816

>  <b_lp_Chiralities_Consistent>  (99) 
1

>  <s_lp_Variant>  (99) 
30:0-1

>  <s_i_glide_gridfile>  (99) 
pfpi4k_grid

>  <i_i_glide_lignum>  (99) 
4

>  <i_i_glide_rotatable_bonds>  (99) 
1

>  <r_i_docking_score>  (99) 
-2.08428

>  <r_i_glide_ligand_efficiency>  (99) 
-0.104214

>  <r_i_glide_ligand_efficiency_sa>  (99) 
-0.28288

>  <r_i_glide_ligand_efficiency_ln>  (99) 
-0.521627

>  <r_i_glide_gscore>  (99) 
-2.08428

>  <r_i_glide_lipo>  (99) 
-0.079548

>  <r_i_glide_hbond>  (99) 
-0.15789

>  <r_i_glide_metal>  (99) 
-0

>  <r_i_glide_rewards>  (99) 
-1.60513

>  <r_i_glide_evdw>  (99) 
1.25982

>  <r_i_glide_ecoul>  (99) 
-1.99038

>  <r_i_glide_erotb>  (99) 
0

>  <r_i_glide_esite>  (99) 
-0.00614481

>  <r_i_glide_emodel>  (99) 
1.88188

>  <r_i_glide_energy>  (99) 
-0.730559

>  <r_i_glide_einternal>  (99) 
5.04002

>  <r_i_glide_intrahb_reward>  (99) 
-0

>  <i_i_glide_confnum>  (99) 
2

>  <i_i_glide_posenum>  (99) 
31

>  <r_i_glide_eff_state_penalty>  (99) 
0

>  <ligand_id>  (99) 
30

>  <original_smiles>  (99) 
CC1CCC2OC3(C)CCC1OC21C(OC1[S+](C)[O-])O3

>  <smiles>  (99) 
[H]C([H])([H])S(=O)C1([H])OC2([H])OC3(C([H])([H])[H])OC4([H])C([H])([H])C([H])([H])C([H])(C([H])([H])[H])C([H])(OC214)C([H])([H])C3([H])[H]

$$$$
31:0:0
     RDKit          3D

 21 22  0  0  1  0  0  0  0  0999 V2000
  -11.9926   -7.8582   -7.6010 C   0  0  0  0  0  0  0  0  0  0  0  0
  -11.3318   -6.8841   -7.9226 C   0  0  0  0  0  0  0  0  0  0  0  0
  -10.5451   -5.7027   -8.3143 C   0  0  0  0  0  0  0  0  0  0  0  0
   -9.6946   -5.1969   -7.2501 N   0  0  0  0  0  0  0  0  0  0  0  0
   -9.8982   -4.0978   -6.4940 C   0  0  0  0  0  0  0  0  0  0  0  0
   -8.9856   -3.8238   -5.5667 N   0  0  0  0  0  0  0  0  0  0  0  0
   -8.0911   -4.8676   -5.7315 C   0  0  0  0  0  0  0  0  0  0  0  0
   -6.8940   -5.1686   -5.0440 C   0  0  0  0  0  0  0  0  0  0  0  0
   -6.1442   -6.3160   -5.3802 C   0  0  0  0  0  0  0  0  0  0  0  0
   -4.9865   -6.5901   -4.7219 O   0  0  0  0  0  0  0  0  0  0  0  0
   -6.5784   -7.1805   -6.4060 C   0  0  0  0  0  0  0  0  0  0  0  0
   -7.7595   -6.8893   -7.1153 C   0  0  0  0  0  0  0  0  0  0  0  0
   -8.5053   -5.7454   -6.7769 C   0  0  0  0  0  0  0  0  0  0  0  0
  -12.5843   -8.6986   -7.3126 H   0  0  0  0  0  0  0  0  0  0  0  0
   -9.9270   -5.9618   -9.1727 H   0  0  0  0  0  0  0  0  0  0  0  0
  -11.2426   -4.9282   -8.6215 H   0  0  0  0  0  0  0  0  0  0  0  0
  -10.7629   -3.4636   -6.6315 H   0  0  0  0  0  0  0  0  0  0  0  0
   -6.5633   -4.5085   -4.2549 H   0  0  0  0  0  0  0  0  0  0  0  0
   -4.6438   -7.4461   -4.9325 H   0  0  0  0  0  0  0  0  0  0  0  0
   -5.9988   -8.0552   -6.6723 H   0  0  0  0  0  0  0  0  0  0  0  0
   -8.0990   -7.5434   -7.9022 H   0  0  0  0  0  0  0  0  0  0  0  0
  1  2  3  0
  1 14  1  0
  2  3  1  0
  3  4  1  0
  3 15  1  0
  3 16  1  0
  4 13  1  0
  4  5  1  0
  5  6  2  0
  5 17  1  0
  6  7  1  0
  7 13  2  0
  7  8  1  0
  8  9  2  0
  8 18  1  0
  9 10  1  0
  9 11  1  0
 10 19  1  0
 11 12  2  0
 11 20  1  0
 12 13  1  0
 12 21  1  0
M  END
>  <i_m_ct_stereo_status>  (100) 
1

>  <s_m_source_file>  (100) 
/var/tmp/pbs.5076255.sched01/tmp3npnc3rz/42_8qtnw6u.sdf

>  <i_m_source_file_index>  (100) 
5

>  <i_lp_mmshare_version>  (100) 
48012

>  <i_f3d_flags>  (100) 
0

>  <s_epik_input>  (100) 
W0NIXSNDW0NIMl1uKFtjSF1uMSljKGMxMilbY0hdW2NIXWMoW2NIXTIpW09IXQ==

>  <s_epik_cmdline>  (100) 
J2VwaWtfcHl0aG9uJywgJy1waHQnLCAnMi4wJywgJy1waCcsICc3LjAnLCAnLXRuJywgJzgnLCAnLW1hJywgJzIwMCcsICctaW1hZScsICc8aW5maWxlLm1hZT4nLCAnLW9tYWUnLCAnPG91dGZpbGUubWFlPic=

>  <r_epik_Ionization_Penalty>  (100) 
0.0255909

>  <r_epik_Ionization_Penalty_Charging>  (100) 
0

>  <r_epik_Ionization_Penalty_Neutral>  (100) 
0.0255909

>  <r_epik_State_Penalty>  (100) 
0.0391808

>  <r_epik_Charging_Adjusted_Penalty>  (100) 
0.0391808

>  <i_epik_Tot_Q>  (100) 
0

>  <i_epik_Tot_abs_Q>  (100) 
0

>  <s_lp_Force_Field>  (100) 
OPLS3e

>  <r_lp_Energy>  (100) 
8.08602

>  <b_lp_Chiralities_Consistent>  (100) 
1

>  <s_lp_Variant>  (100) 
31:0-1

>  <s_i_glide_gridfile>  (100) 
pfpi4k_grid

>  <i_i_glide_lignum>  (100) 
5

>  <i_i_glide_rotatable_bonds>  (100) 
3

>  <r_i_docking_score>  (100) 
-5.84486

>  <r_i_glide_ligand_efficiency>  (100) 
-0.449605

>  <r_i_glide_ligand_efficiency_sa>  (100) 
-1.05717

>  <r_i_glide_ligand_efficiency_ln>  (100) 
-1.63954

>  <r_i_glide_gscore>  (100) 
-5.84486

>  <r_i_glide_lipo>  (100) 
-1.58481

>  <r_i_glide_hbond>  (100) 
-0.31322

>  <r_i_glide_metal>  (100) 
-0

>  <r_i_glide_rewards>  (100) 
-3.419

>  <r_i_glide_evdw>  (100) 
-24.3103

>  <r_i_glide_ecoul>  (100) 
-2.38571

>  <r_i_glide_erotb>  (100) 
1.04555

>  <r_i_glide_esite>  (100) 
0

>  <r_i_glide_emodel>  (100) 
-35.8441

>  <r_i_glide_energy>  (100) 
-26.696

>  <r_i_glide_einternal>  (100) 
0.0676525

>  <r_i_glide_intrahb_reward>  (100) 
-0

>  <i_i_glide_confnum>  (100) 
3

>  <i_i_glide_posenum>  (100) 
31

>  <r_i_glide_eff_state_penalty>  (100) 
0

>  <ligand_id>  (100) 
31

>  <original_smiles>  (100) 
C#CCn1cnc2cc(O)ccc21

>  <smiles>  (100) 
[H]C#CC([H])([H])n1c([H])nc2c([H])c(O[H])c([H])c([H])c21

$$$$
31:0:1
     RDKit          3D

 21 22  0  0  1  0  0  0  0  0999 V2000
  -11.9840   -7.9825   -7.5223 C   0  0  0  0  0  0  0  0  0  0  0  0
  -11.3825   -6.9993   -7.9258 C   0  0  0  0  0  0  0  0  0  0  0  0
  -10.6461   -5.8241   -8.4209 C   0  0  0  0  0  0  0  0  0  0  0  0
   -9.8653   -5.1565   -7.3924 N   0  0  0  0  0  0  0  0  0  0  0  0
  -10.1884   -4.0299   -6.7246 C   0  0  0  0  0  0  0  0  0  0  0  0
   -9.3231   -3.5888   -5.8203 N   0  0  0  0  0  0  0  0  0  0  0  0
   -8.3328   -4.5504   -5.8887 C   0  0  0  0  0  0  0  0  0  0  0  0
   -7.1276   -4.6742   -5.1639 C   0  0  0  0  0  0  0  0  0  0  0  0
   -6.2615   -5.7624   -5.3990 C   0  0  0  0  0  0  0  0  0  0  0  0
   -5.0848   -5.8517   -4.7213 O   0  0  0  0  0  0  0  0  0  0  0  0
   -6.5878   -6.7489   -6.3509 C   0  0  0  0  0  0  0  0  0  0  0  0
   -7.7781   -6.6342   -7.0983 C   0  0  0  0  0  0  0  0  0  0  0  0
   -8.6371   -5.5457   -6.8630 C   0  0  0  0  0  0  0  0  0  0  0  0
  -12.5258   -8.8277   -7.1582 H   0  0  0  0  0  0  0  0  0  0  0  0
   -9.9811   -6.1433   -9.2232 H   0  0  0  0  0  0  0  0  0  0  0  0
  -11.3679   -5.1245   -8.8424 H   0  0  0  0  0  0  0  0  0  0  0  0
  -11.1119   -3.5021   -6.9173 H   0  0  0  0  0  0  0  0  0  0  0  0
   -6.8878   -3.9140   -4.4358 H   0  0  0  0  0  0  0  0  0  0  0  0
   -5.0045   -5.1566   -4.0844 H   0  0  0  0  0  0  0  0  0  0  0  0
   -5.9086   -7.5703   -6.5400 H   0  0  0  0  0  0  0  0  0  0  0  0
   -8.0325   -7.3747   -7.8393 H   0  0  0  0  0  0  0  0  0  0  0  0
  1  2  3  0
  1 14  1  0
  2  3  1  0
  3  4  1  0
  3 15  1  0
  3 16  1  0
  4 13  1  0
  4  5  1  0
  5  6  2  0
  5 17  1  0
  6  7  1  0
  7 13  2  0
  7  8  1  0
  8  9  2  0
  8 18  1  0
  9 10  1  0
  9 11  1  0
 10 19  1  0
 11 12  2  0
 11 20  1  0
 12 13  1  0
 12 21  1  0
M  END
>  <i_m_ct_stereo_status>  (101) 
1

>  <s_m_source_file>  (101) 
/var/tmp/pbs.5076255.sched01/tmp3npnc3rz/42_8qtnw6u.sdf

>  <i_m_source_file_index>  (101) 
5

>  <i_lp_mmshare_version>  (101) 
48012

>  <i_f3d_flags>  (101) 
0

>  <s_epik_input>  (101) 
W0NIXSNDW0NIMl1uKFtjSF1uMSljKGMxMilbY0hdW2NIXWMoW2NIXTIpW09IXQ==

>  <s_epik_cmdline>  (101) 
J2VwaWtfcHl0aG9uJywgJy1waHQnLCAnMi4wJywgJy1waCcsICc3LjAnLCAnLXRuJywgJzgnLCAnLW1hJywgJzIwMCcsICctaW1hZScsICc8aW5maWxlLm1hZT4nLCAnLW9tYWUnLCAnPG91dGZpbGUubWFlPic=

>  <r_epik_Ionization_Penalty>  (101) 
0.0255909

>  <r_epik_Ionization_Penalty_Charging>  (101) 
0

>  <r_epik_Ionization_Penalty_Neutral>  (101) 
0.0255909

>  <r_epik_State_Penalty>  (101) 
0.0391808

>  <r_epik_Charging_Adjusted_Penalty>  (101) 
0.0391808

>  <i_epik_Tot_Q>  (101) 
0

>  <i_epik_Tot_abs_Q>  (101) 
0

>  <s_lp_Force_Field>  (101) 
OPLS3e

>  <r_lp_Energy>  (101) 
8.08602

>  <b_lp_Chiralities_Consistent>  (101) 
1

>  <s_lp_Variant>  (101) 
31:0-1

>  <s_i_glide_gridfile>  (101) 
pfpi4k_grid

>  <i_i_glide_lignum>  (101) 
5

>  <i_i_glide_rotatable_bonds>  (101) 
3

>  <r_i_docking_score>  (101) 
-5.42885

>  <r_i_glide_ligand_efficiency>  (101) 
-0.417604

>  <r_i_glide_ligand_efficiency_sa>  (101) 
-0.981926

>  <r_i_glide_ligand_efficiency_ln>  (101) 
-1.52284

>  <r_i_glide_gscore>  (101) 
-5.42885

>  <r_i_glide_lipo>  (101) 
-1.56526

>  <r_i_glide_hbond>  (101) 
-0.32

>  <r_i_glide_metal>  (101) 
-0

>  <r_i_glide_rewards>  (101) 
-3.12643

>  <r_i_glide_evdw>  (101) 
-23.9821

>  <r_i_glide_ecoul>  (101) 
-1.75733

>  <r_i_glide_erotb>  (101) 
1.04555

>  <r_i_glide_esite>  (101) 
0

>  <r_i_glide_emodel>  (101) 
-34.3068

>  <r_i_glide_energy>  (101) 
-25.7394

>  <r_i_glide_einternal>  (101) 
-0.0479531

>  <r_i_glide_intrahb_reward>  (101) 
-0

>  <i_i_glide_confnum>  (101) 
3

>  <i_i_glide_posenum>  (101) 
1

>  <r_i_glide_eff_state_penalty>  (101) 
0

>  <ligand_id>  (101) 
31

>  <original_smiles>  (101) 
C#CCn1cnc2cc(O)ccc21

>  <smiles>  (101) 
[H]C#CC([H])([H])n1c([H])nc2c([H])c(O[H])c([H])c([H])c21

$$$$
31:0:2
     RDKit          3D

 21 22  0  0  1  0  0  0  0  0999 V2000
  -11.5121   -9.4494   -7.8223 C   0  0  0  0  0  0  0  0  0  0  0  0
  -10.6892   -8.6733   -8.2834 C   0  0  0  0  0  0  0  0  0  0  0  0
   -9.7041   -7.7204   -8.8238 C   0  0  0  0  0  0  0  0  0  0  0  0
   -9.5906   -6.5087   -8.0324 N   0  0  0  0  0  0  0  0  0  0  0  0
  -10.4660   -5.4829   -7.9962 C   0  0  0  0  0  0  0  0  0  0  0  0
  -10.1717   -4.4576   -7.2033 N   0  0  0  0  0  0  0  0  0  0  0  0
   -8.9833   -4.8822   -6.6322 C   0  0  0  0  0  0  0  0  0  0  0  0
   -8.1602   -4.2602   -5.6720 C   0  0  0  0  0  0  0  0  0  0  0  0
   -6.9769   -4.8898   -5.2320 C   0  0  0  0  0  0  0  0  0  0  0  0
   -6.1834   -4.2705   -4.3193 O   0  0  0  0  0  0  0  0  0  0  0  0
   -6.5994   -6.1517   -5.7349 C   0  0  0  0  0  0  0  0  0  0  0  0
   -7.4061   -6.7897   -6.6965 C   0  0  0  0  0  0  0  0  0  0  0  0
   -8.5857   -6.1579   -7.1361 C   0  0  0  0  0  0  0  0  0  0  0  0
  -12.2342  -10.1171   -7.4037 H   0  0  0  0  0  0  0  0  0  0  0  0
   -8.7347   -8.2134   -8.8750 H   0  0  0  0  0  0  0  0  0  0  0  0
   -9.9955   -7.4519   -9.8392 H   0  0  0  0  0  0  0  0  0  0  0  0
  -11.3683   -5.4888   -8.5917 H   0  0  0  0  0  0  0  0  0  0  0  0
   -8.4529   -3.2965   -5.2849 H   0  0  0  0  0  0  0  0  0  0  0  0
   -6.5235   -3.4454   -4.0072 H   0  0  0  0  0  0  0  0  0  0  0  0
   -5.6880   -6.6260   -5.3933 H   0  0  0  0  0  0  0  0  0  0  0  0
   -7.1322   -7.7598   -7.0818 H   0  0  0  0  0  0  0  0  0  0  0  0
  1  2  3  0
  1 14  1  0
  2  3  1  0
  3  4  1  0
  3 15  1  0
  3 16  1  0
  4 13  1  0
  4  5  1  0
  5  6  2  0
  5 17  1  0
  6  7  1  0
  7 13  2  0
  7  8  1  0
  8  9  2  0
  8 18  1  0
  9 10  1  0
  9 11  1  0
 10 19  1  0
 11 12  2  0
 11 20  1  0
 12 13  1  0
 12 21  1  0
M  END
>  <i_m_ct_stereo_status>  (102) 
1

>  <s_m_source_file>  (102) 
/var/tmp/pbs.5076255.sched01/tmp3npnc3rz/42_8qtnw6u.sdf

>  <i_m_source_file_index>  (102) 
5

>  <i_lp_mmshare_version>  (102) 
48012

>  <i_f3d_flags>  (102) 
0

>  <s_epik_input>  (102) 
W0NIXSNDW0NIMl1uKFtjSF1uMSljKGMxMilbY0hdW2NIXWMoW2NIXTIpW09IXQ==

>  <s_epik_cmdline>  (102) 
J2VwaWtfcHl0aG9uJywgJy1waHQnLCAnMi4wJywgJy1waCcsICc3LjAnLCAnLXRuJywgJzgnLCAnLW1hJywgJzIwMCcsICctaW1hZScsICc8aW5maWxlLm1hZT4nLCAnLW9tYWUnLCAnPG91dGZpbGUubWFlPic=

>  <r_epik_Ionization_Penalty>  (102) 
0.0255909

>  <r_epik_Ionization_Penalty_Charging>  (102) 
0

>  <r_epik_Ionization_Penalty_Neutral>  (102) 
0.0255909

>  <r_epik_State_Penalty>  (102) 
0.0391808

>  <r_epik_Charging_Adjusted_Penalty>  (102) 
0.0391808

>  <i_epik_Tot_Q>  (102) 
0

>  <i_epik_Tot_abs_Q>  (102) 
0

>  <s_lp_Force_Field>  (102) 
OPLS3e

>  <r_lp_Energy>  (102) 
8.08602

>  <b_lp_Chiralities_Consistent>  (102) 
1

>  <s_lp_Variant>  (102) 
31:0-1

>  <s_i_glide_gridfile>  (102) 
pfpi4k_grid

>  <i_i_glide_lignum>  (102) 
5

>  <i_i_glide_rotatable_bonds>  (102) 
3

>  <r_i_docking_score>  (102) 
-4.30879

>  <r_i_glide_ligand_efficiency>  (102) 
-0.331445

>  <r_i_glide_ligand_efficiency_sa>  (102) 
-0.779338

>  <r_i_glide_ligand_efficiency_ln>  (102) 
-1.20865

>  <r_i_glide_gscore>  (102) 
-4.30879

>  <r_i_glide_lipo>  (102) 
-1.59293

>  <r_i_glide_hbond>  (102) 
0

>  <r_i_glide_metal>  (102) 
-0

>  <r_i_glide_rewards>  (102) 
-2.29243

>  <r_i_glide_evdw>  (102) 
-21.4653

>  <r_i_glide_ecoul>  (102) 
-2.38662

>  <r_i_glide_erotb>  (102) 
1.04555

>  <r_i_glide_esite>  (102) 
-0.0377156

>  <r_i_glide_emodel>  (102) 
-30.616

>  <r_i_glide_energy>  (102) 
-23.8519

>  <r_i_glide_einternal>  (102) 
0.0110692

>  <r_i_glide_intrahb_reward>  (102) 
-0

>  <i_i_glide_confnum>  (102) 
2

>  <i_i_glide_posenum>  (102) 
9

>  <r_i_glide_eff_state_penalty>  (102) 
0

>  <ligand_id>  (102) 
31

>  <original_smiles>  (102) 
C#CCn1cnc2cc(O)ccc21

>  <smiles>  (102) 
[H]C#CC([H])([H])n1c([H])nc2c([H])c(O[H])c([H])c([H])c21

$$$$
31:1:0
     RDKit          3D

 21 22  0  0  1  0  0  0  0  0999 V2000
   -5.6494   -4.6623   -5.4524 C   0  0  0  0  0  0  0  0  0  0  0  0
   -6.4017   -5.6153   -5.3464 C   0  0  0  0  0  0  0  0  0  0  0  0
   -7.3248   -6.7452   -5.2349 C   0  0  0  0  0  0  0  0  0  0  0  0
   -7.3471   -7.6107   -6.4235 N   0  0  0  0  0  0  0  0  0  0  0  0
   -8.1793   -7.5503   -7.5005 C   0  0  0  0  0  0  0  0  0  0  0  0
   -7.8310   -8.5624   -8.3384 N   0  0  0  0  0  0  0  0  0  0  0  0
   -6.7639   -9.2813   -7.7888 C   0  0  0  0  0  0  0  0  0  0  0  0
   -6.0814  -10.3922   -8.2703 C   0  0  0  0  0  0  0  0  0  0  0  0
   -5.0107  -10.8807   -7.4967 C   0  0  0  0  0  0  0  0  0  0  0  0
   -4.2791  -11.9322   -7.9743 O   0  0  0  0  0  0  0  0  0  0  0  0
   -4.6845  -10.2861   -6.2619 C   0  0  0  0  0  0  0  0  0  0  0  0
   -5.3933   -9.1619   -5.7678 C   0  0  0  0  0  0  0  0  0  0  0  0
   -6.4324   -8.6746   -6.5575 C   0  0  0  0  0  0  0  0  0  0  0  0
   -4.9845   -3.8529   -5.5719 H   0  0  0  0  0  0  0  0  0  0  0  0
   -7.0919   -7.3321   -4.3435 H   0  0  0  0  0  0  0  0  0  0  0  0
   -8.3206   -6.3078   -5.1142 H   0  0  0  0  0  0  0  0  0  0  0  0
   -8.9870   -6.8323   -7.6432 H   0  0  0  0  0  0  0  0  0  0  0  0
   -6.3326  -10.8533   -9.2100 H   0  0  0  0  0  0  0  0  0  0  0  0
   -3.8664  -10.6986   -5.6886 H   0  0  0  0  0  0  0  0  0  0  0  0
   -5.1200   -8.7179   -4.8190 H   0  0  0  0  0  0  0  0  0  0  0  0
   -8.2904   -8.7555   -9.2181 H   0  0  0  0  0  0  0  0  0  0  0  0
  1  2  3  0
  1 14  1  0
  2  3  1  0
  3  4  1  0
  3 15  1  0
  3 16  1  0
  4 13  1  0
  4  5  1  0
  5  6  2  0
  5 17  1  0
  6  7  1  0
  6 21  1  0
  7 13  2  0
  7  8  1  0
  8  9  2  0
  8 18  1  0
  9 10  1  0
  9 11  1  0
 11 12  2  0
 11 19  1  0
 12 13  1  0
 12 20  1  0
M  CHG  2   6   1  10  -1
M  END
>  <i_m_ct_stereo_status>  (103) 
1

>  <s_m_source_file>  (103) 
/var/tmp/pbs.5076255.sched01/tmp3npnc3rz/42_8qtnw6u.sdf

>  <i_m_source_file_index>  (103) 
6

>  <i_lp_mmshare_version>  (103) 
48012

>  <i_f3d_flags>  (103) 
0

>  <s_epik_input>  (103) 
W0NIXSNDW0NIMl1uKFtjSF1uMSljKGMxMilbY0hdW2NIXWMoW2NIXTIpW09IXQ==

>  <s_epik_cmdline>  (103) 
J2VwaWtfcHl0aG9uJywgJy1waHQnLCAnMi4wJywgJy1waCcsICc3LjAnLCAnLXRuJywgJzgnLCAnLW1hJywgJzIwMCcsICctaW1hZScsICc8aW5maWxlLm1hZT4nLCAnLW9tYWUnLCAnPG91dGZpbGUubWFlPic=

>  <r_epik_Ionization_Penalty>  (103) 
0.923453

>  <r_epik_Ionization_Penalty_Charging>  (103) 
0.923453

>  <r_epik_Ionization_Penalty_Neutral>  (103) 
0

>  <r_epik_State_Penalty>  (103) 
1.76422

>  <r_epik_Charging_Adjusted_Penalty>  (103) 
2.68768

>  <i_epik_Tot_Q>  (103) 
0

>  <i_epik_Tot_abs_Q>  (103) 
2

>  <s_lp_Force_Field>  (103) 
OPLS3e

>  <r_lp_Energy>  (103) 
10.4179

>  <b_lp_Chiralities_Consistent>  (103) 
1

>  <s_lp_Variant>  (103) 
31:0-2

>  <s_i_glide_gridfile>  (103) 
pfpi4k_grid

>  <i_i_glide_lignum>  (103) 
6

>  <i_i_glide_rotatable_bonds>  (103) 
2

>  <r_i_docking_score>  (103) 
-4.96777

>  <r_i_glide_ligand_efficiency>  (103) 
-0.382136

>  <r_i_glide_ligand_efficiency_sa>  (103) 
-0.898529

>  <r_i_glide_ligand_efficiency_ln>  (103) 
-1.3935

>  <r_i_glide_gscore>  (103) 
-4.96777

>  <r_i_glide_lipo>  (103) 
-1.55995

>  <r_i_glide_hbond>  (103) 
0

>  <r_i_glide_metal>  (103) 
-0

>  <r_i_glide_rewards>  (103) 
-2.7561

>  <r_i_glide_evdw>  (103) 
-16.0112

>  <r_i_glide_ecoul>  (103) 
-2.49284

>  <r_i_glide_erotb>  (103) 
0.522773

>  <r_i_glide_esite>  (103) 
0

>  <r_i_glide_emodel>  (103) 
-28.6855

>  <r_i_glide_energy>  (103) 
-18.504

>  <r_i_glide_einternal>  (103) 
-0.0899346

>  <r_i_glide_intrahb_reward>  (103) 
-0

>  <i_i_glide_confnum>  (103) 
1

>  <i_i_glide_posenum>  (103) 
18

>  <r_i_glide_eff_state_penalty>  (103) 
0

>  <ligand_id>  (103) 
31

>  <original_smiles>  (103) 
C#CCn1cnc2cc(O)ccc21

>  <smiles>  (103) 
[H]C#CC([H])([H])n1c([H])[n+]([H])c2c([H])c([O-])c([H])c([H])c21

$$$$
31:1:1
     RDKit          3D

 21 22  0  0  1  0  0  0  0  0999 V2000
   -5.3091   -4.8553   -5.1612 C   0  0  0  0  0  0  0  0  0  0  0  0
   -5.6156   -6.0180   -4.9604 C   0  0  0  0  0  0  0  0  0  0  0  0
   -6.0313   -7.4095   -4.7444 C   0  0  0  0  0  0  0  0  0  0  0  0
   -6.3372   -8.1372   -5.9841 N   0  0  0  0  0  0  0  0  0  0  0  0
   -7.2962   -7.8447   -6.9108 C   0  0  0  0  0  0  0  0  0  0  0  0
   -7.2259   -8.8001   -7.8779 N   0  0  0  0  0  0  0  0  0  0  0  0
   -6.2329   -9.7269   -7.5487 C   0  0  0  0  0  0  0  0  0  0  0  0
   -5.8070  -10.8655   -8.2251 C   0  0  0  0  0  0  0  0  0  0  0  0
   -4.7462  -11.5932   -7.6498 C   0  0  0  0  0  0  0  0  0  0  0  0
   -4.2481  -12.6714   -8.3269 O   0  0  0  0  0  0  0  0  0  0  0  0
   -4.1851  -11.2023   -6.4171 C   0  0  0  0  0  0  0  0  0  0  0  0
   -4.6292  -10.0506   -5.7348 C   0  0  0  0  0  0  0  0  0  0  0  0
   -5.6566   -9.3170   -6.3291 C   0  0  0  0  0  0  0  0  0  0  0  0
   -5.0253   -3.8607   -5.4098 H   0  0  0  0  0  0  0  0  0  0  0  0
   -5.2732   -7.9206   -4.1565 H   0  0  0  0  0  0  0  0  0  0  0  0
   -6.9608   -7.3578   -4.1806 H   0  0  0  0  0  0  0  0  0  0  0  0
   -7.9816   -6.9978   -6.8792 H   0  0  0  0  0  0  0  0  0  0  0  0
   -6.2369  -11.1708   -9.1615 H   0  0  0  0  0  0  0  0  0  0  0  0
   -3.3847  -11.7983   -6.0007 H   0  0  0  0  0  0  0  0  0  0  0  0
   -4.1779   -9.7579   -4.7983 H   0  0  0  0  0  0  0  0  0  0  0  0
   -7.8123   -8.8171   -8.7011 H   0  0  0  0  0  0  0  0  0  0  0  0
  1  2  3  0
  1 14  1  0
  2  3  1  0
  3  4  1  0
  3 15  1  0
  3 16  1  0
  4 13  1  0
  4  5  1  0
  5  6  2  0
  5 17  1  0
  6  7  1  0
  6 21  1  0
  7 13  2  0
  7  8  1  0
  8  9  2  0
  8 18  1  0
  9 10  1  0
  9 11  1  0
 11 12  2  0
 11 19  1  0
 12 13  1  0
 12 20  1  0
M  CHG  2   6   1  10  -1
M  END
>  <i_m_ct_stereo_status>  (104) 
1

>  <s_m_source_file>  (104) 
/var/tmp/pbs.5076255.sched01/tmp3npnc3rz/42_8qtnw6u.sdf

>  <i_m_source_file_index>  (104) 
6

>  <i_lp_mmshare_version>  (104) 
48012

>  <i_f3d_flags>  (104) 
0

>  <s_epik_input>  (104) 
W0NIXSNDW0NIMl1uKFtjSF1uMSljKGMxMilbY0hdW2NIXWMoW2NIXTIpW09IXQ==

>  <s_epik_cmdline>  (104) 
J2VwaWtfcHl0aG9uJywgJy1waHQnLCAnMi4wJywgJy1waCcsICc3LjAnLCAnLXRuJywgJzgnLCAnLW1hJywgJzIwMCcsICctaW1hZScsICc8aW5maWxlLm1hZT4nLCAnLW9tYWUnLCAnPG91dGZpbGUubWFlPic=

>  <r_epik_Ionization_Penalty>  (104) 
0.923453

>  <r_epik_Ionization_Penalty_Charging>  (104) 
0.923453

>  <r_epik_Ionization_Penalty_Neutral>  (104) 
0

>  <r_epik_State_Penalty>  (104) 
1.76422

>  <r_epik_Charging_Adjusted_Penalty>  (104) 
2.68768

>  <i_epik_Tot_Q>  (104) 
0

>  <i_epik_Tot_abs_Q>  (104) 
2

>  <s_lp_Force_Field>  (104) 
OPLS3e

>  <r_lp_Energy>  (104) 
10.4179

>  <b_lp_Chiralities_Consistent>  (104) 
1

>  <s_lp_Variant>  (104) 
31:0-2

>  <s_i_glide_gridfile>  (104) 
pfpi4k_grid

>  <i_i_glide_lignum>  (104) 
6

>  <i_i_glide_rotatable_bonds>  (104) 
2

>  <r_i_docking_score>  (104) 
-4.9224

>  <r_i_glide_ligand_efficiency>  (104) 
-0.378646

>  <r_i_glide_ligand_efficiency_sa>  (104) 
-0.890324

>  <r_i_glide_ligand_efficiency_ln>  (104) 
-1.38078

>  <r_i_glide_gscore>  (104) 
-4.9224

>  <r_i_glide_lipo>  (104) 
-1.11275

>  <r_i_glide_hbond>  (104) 
0

>  <r_i_glide_metal>  (104) 
-0

>  <r_i_glide_rewards>  (104) 
-2.82904

>  <r_i_glide_evdw>  (104) 
-17.453

>  <r_i_glide_ecoul>  (104) 
-4.20494

>  <r_i_glide_erotb>  (104) 
0.522773

>  <r_i_glide_esite>  (104) 
0

>  <r_i_glide_emodel>  (104) 
-31.5439

>  <r_i_glide_energy>  (104) 
-21.6579

>  <r_i_glide_einternal>  (104) 
0.335193

>  <r_i_glide_intrahb_reward>  (104) 
-0

>  <i_i_glide_confnum>  (104) 
2

>  <i_i_glide_posenum>  (104) 
26

>  <r_i_glide_eff_state_penalty>  (104) 
0

>  <ligand_id>  (104) 
31

>  <original_smiles>  (104) 
C#CCn1cnc2cc(O)ccc21

>  <smiles>  (104) 
[H]C#CC([H])([H])n1c([H])[n+]([H])c2c([H])c([O-])c([H])c([H])c21

$$$$
31:1:2
     RDKit          3D

 21 22  0  0  1  0  0  0  0  0999 V2000
   -5.7762   -4.5004   -4.6539 C   0  0  0  0  0  0  0  0  0  0  0  0
   -5.9489   -5.6981   -4.7852 C   0  0  0  0  0  0  0  0  0  0  0  0
   -6.2283   -7.1302   -4.9798 C   0  0  0  0  0  0  0  0  0  0  0  0
   -6.4620   -7.5412   -6.3735 N   0  0  0  0  0  0  0  0  0  0  0  0
   -5.8405   -8.5365   -7.0646 C   0  0  0  0  0  0  0  0  0  0  0  0
   -6.3874   -8.5732   -8.3091 N   0  0  0  0  0  0  0  0  0  0  0  0
   -7.3826   -7.5982   -8.4137 C   0  0  0  0  0  0  0  0  0  0  0  0
   -8.2047   -7.2573   -9.4850 C   0  0  0  0  0  0  0  0  0  0  0  0
   -9.1255   -6.2134   -9.2761 C   0  0  0  0  0  0  0  0  0  0  0  0
   -9.9594   -5.8620  -10.2955 O   0  0  0  0  0  0  0  0  0  0  0  0
   -9.1987   -5.5462   -8.0369 C   0  0  0  0  0  0  0  0  0  0  0  0
   -8.3572   -5.8944   -6.9556 C   0  0  0  0  0  0  0  0  0  0  0  0
   -7.4502   -6.9325   -7.1694 C   0  0  0  0  0  0  0  0  0  0  0  0
   -5.6444   -3.4542   -4.5220 H   0  0  0  0  0  0  0  0  0  0  0  0
   -5.3558   -7.6762   -4.6187 H   0  0  0  0  0  0  0  0  0  0  0  0
   -7.0804   -7.4370   -4.3732 H   0  0  0  0  0  0  0  0  0  0  0  0
   -5.0478   -9.1737   -6.6833 H   0  0  0  0  0  0  0  0  0  0  0  0
   -8.1511   -7.7569  -10.4424 H   0  0  0  0  0  0  0  0  0  0  0  0
   -9.9225   -4.7545   -7.9136 H   0  0  0  0  0  0  0  0  0  0  0  0
   -8.4323   -5.3727   -6.0125 H   0  0  0  0  0  0  0  0  0  0  0  0
   -6.1009   -9.1996   -9.0482 H   0  0  0  0  0  0  0  0  0  0  0  0
  1  2  3  0
  1 14  1  0
  2  3  1  0
  3  4  1  0
  3 15  1  0
  3 16  1  0
  4 13  1  0
  4  5  1  0
  5  6  2  0
  5 17  1  0
  6  7  1  0
  6 21  1  0
  7 13  2  0
  7  8  1  0
  8  9  2  0
  8 18  1  0
  9 10  1  0
  9 11  1  0
 11 12  2  0
 11 19  1  0
 12 13  1  0
 12 20  1  0
M  CHG  2   6   1  10  -1
M  END
>  <i_m_ct_stereo_status>  (105) 
1

>  <s_m_source_file>  (105) 
/var/tmp/pbs.5076255.sched01/tmp3npnc3rz/42_8qtnw6u.sdf

>  <i_m_source_file_index>  (105) 
6

>  <i_lp_mmshare_version>  (105) 
48012

>  <i_f3d_flags>  (105) 
0

>  <s_epik_input>  (105) 
W0NIXSNDW0NIMl1uKFtjSF1uMSljKGMxMilbY0hdW2NIXWMoW2NIXTIpW09IXQ==

>  <s_epik_cmdline>  (105) 
J2VwaWtfcHl0aG9uJywgJy1waHQnLCAnMi4wJywgJy1waCcsICc3LjAnLCAnLXRuJywgJzgnLCAnLW1hJywgJzIwMCcsICctaW1hZScsICc8aW5maWxlLm1hZT4nLCAnLW9tYWUnLCAnPG91dGZpbGUubWFlPic=

>  <r_epik_Ionization_Penalty>  (105) 
0.923453

>  <r_epik_Ionization_Penalty_Charging>  (105) 
0.923453

>  <r_epik_Ionization_Penalty_Neutral>  (105) 
0

>  <r_epik_State_Penalty>  (105) 
1.76422

>  <r_epik_Charging_Adjusted_Penalty>  (105) 
2.68768

>  <i_epik_Tot_Q>  (105) 
0

>  <i_epik_Tot_abs_Q>  (105) 
2

>  <s_lp_Force_Field>  (105) 
OPLS3e

>  <r_lp_Energy>  (105) 
10.4179

>  <b_lp_Chiralities_Consistent>  (105) 
1

>  <s_lp_Variant>  (105) 
31:0-2

>  <s_i_glide_gridfile>  (105) 
pfpi4k_grid

>  <i_i_glide_lignum>  (105) 
6

>  <i_i_glide_rotatable_bonds>  (105) 
2

>  <r_i_docking_score>  (105) 
-4.69972

>  <r_i_glide_ligand_efficiency>  (105) 
-0.361517

>  <r_i_glide_ligand_efficiency_sa>  (105) 
-0.850047

>  <r_i_glide_ligand_efficiency_ln>  (105) 
-1.31831

>  <r_i_glide_gscore>  (105) 
-4.69972

>  <r_i_glide_lipo>  (105) 
-1.79096

>  <r_i_glide_hbond>  (105) 
0

>  <r_i_glide_metal>  (105) 
-0

>  <r_i_glide_rewards>  (105) 
-2.29531

>  <r_i_glide_evdw>  (105) 
-18.9659

>  <r_i_glide_ecoul>  (105) 
-1.25278

>  <r_i_glide_erotb>  (105) 
0.522773

>  <r_i_glide_esite>  (105) 
0

>  <r_i_glide_emodel>  (105) 
-29.3093

>  <r_i_glide_energy>  (105) 
-20.2187

>  <r_i_glide_einternal>  (105) 
0.797733

>  <r_i_glide_intrahb_reward>  (105) 
-0

>  <i_i_glide_confnum>  (105) 
1

>  <i_i_glide_posenum>  (105) 
2

>  <r_i_glide_eff_state_penalty>  (105) 
0

>  <ligand_id>  (105) 
31

>  <original_smiles>  (105) 
C#CCn1cnc2cc(O)ccc21

>  <smiles>  (105) 
[H]C#CC([H])([H])n1c([H])[n+]([H])c2c([H])c([O-])c([H])c([H])c21

$$$$
31:2:0
     RDKit          3D

 20 21  0  0  1  0  0  0  0  0999 V2000
   -6.1692   -6.3849   -3.9179 C   0  0  0  0  0  0  0  0  0  0  0  0
   -6.5313   -5.4040   -4.5465 C   0  0  0  0  0  0  0  0  0  0  0  0
   -6.9763   -4.2578   -5.3531 C   0  0  0  0  0  0  0  0  0  0  0  0
   -8.1340   -4.5413   -6.1855 N   0  0  0  0  0  0  0  0  0  0  0  0
   -9.2508   -3.7894   -6.2977 C   0  0  0  0  0  0  0  0  0  0  0  0
  -10.1802   -4.2083   -7.1528 N   0  0  0  0  0  0  0  0  0  0  0  0
   -9.6089   -5.3740   -7.6411 C   0  0  0  0  0  0  0  0  0  0  0  0
  -10.0927   -6.3101   -8.5836 C   0  0  0  0  0  0  0  0  0  0  0  0
   -9.3141   -7.4310   -8.9502 C   0  0  0  0  0  0  0  0  0  0  0  0
   -9.7864   -8.3208   -9.8678 O   0  0  0  0  0  0  0  0  0  0  0  0
   -8.0461   -7.6347   -8.3734 C   0  0  0  0  0  0  0  0  0  0  0  0
   -7.5471   -6.7194   -7.4302 C   0  0  0  0  0  0  0  0  0  0  0  0
   -8.3239   -5.6030   -7.0697 C   0  0  0  0  0  0  0  0  0  0  0  0
   -5.8338   -7.2345   -3.3687 H   0  0  0  0  0  0  0  0  0  0  0  0
   -7.2174   -3.4482   -4.6677 H   0  0  0  0  0  0  0  0  0  0  0  0
   -6.1541   -3.9331   -5.9916 H   0  0  0  0  0  0  0  0  0  0  0  0
   -9.3880   -2.8762   -5.7303 H   0  0  0  0  0  0  0  0  0  0  0  0
  -11.0709   -6.1708   -9.0169 H   0  0  0  0  0  0  0  0  0  0  0  0
   -7.4557   -8.4970   -8.6532 H   0  0  0  0  0  0  0  0  0  0  0  0
   -6.5761   -6.8733   -6.9913 H   0  0  0  0  0  0  0  0  0  0  0  0
  1  2  3  0
  1 14  1  0
  2  3  1  0
  3  4  1  0
  3 15  1  0
  3 16  1  0
  4 13  1  0
  4  5  1  0
  5  6  2  0
  5 17  1  0
  6  7  1  0
  7 13  2  0
  7  8  1  0
  8  9  2  0
  8 18  1  0
  9 10  1  0
  9 11  1  0
 11 12  2  0
 11 19  1  0
 12 13  1  0
 12 20  1  0
M  CHG  1  10  -1
M  END
>  <i_m_ct_stereo_status>  (106) 
1

>  <s_m_source_file>  (106) 
/var/tmp/pbs.5076255.sched01/tmp3npnc3rz/42_8qtnw6u.sdf

>  <i_m_source_file_index>  (106) 
7

>  <i_lp_mmshare_version>  (106) 
48012

>  <i_f3d_flags>  (106) 
0

>  <s_epik_input>  (106) 
W0NIXSNDW0NIMl1uKFtjSF1uMSljKGMxMilbY0hdW2NIXWMoW2NIXTIpW09IXQ==

>  <s_epik_cmdline>  (106) 
J2VwaWtfcHl0aG9uJywgJy1waHQnLCAnMi4wJywgJy1waCcsICc3LjAnLCAnLXRuJywgJzgnLCAnLW1hJywgJzIwMCcsICctaW1hZScsICc8aW5maWxlLm1hZT4nLCAnLW9tYWUnLCAnPG91dGZpbGUubWFlPic=

>  <r_epik_Ionization_Penalty>  (106) 
4.21014

>  <r_epik_Ionization_Penalty_Charging>  (106) 
4.06971

>  <r_epik_Ionization_Penalty_Neutral>  (106) 
0.140428

>  <r_epik_State_Penalty>  (106) 
2.65584

>  <r_epik_Charging_Adjusted_Penalty>  (106) 
6.72555

>  <i_epik_Tot_Q>  (106) 
-1

>  <i_epik_Tot_abs_Q>  (106) 
1

>  <s_lp_Force_Field>  (106) 
OPLS3e

>  <r_lp_Energy>  (106) 
8.72795

>  <b_lp_Chiralities_Consistent>  (106) 
1

>  <s_lp_Variant>  (106) 
31:0-3

>  <s_i_glide_gridfile>  (106) 
pfpi4k_grid

>  <i_i_glide_lignum>  (106) 
7

>  <i_i_glide_rotatable_bonds>  (106) 
2

>  <r_i_docking_score>  (106) 
-5.45774

>  <r_i_glide_ligand_efficiency>  (106) 
-0.419826

>  <r_i_glide_ligand_efficiency_sa>  (106) 
-0.987151

>  <r_i_glide_ligand_efficiency_ln>  (106) 
-1.53094

>  <r_i_glide_gscore>  (106) 
-5.45774

>  <r_i_glide_lipo>  (106) 
-1.63179

>  <r_i_glide_hbond>  (106) 
0

>  <r_i_glide_metal>  (106) 
-0

>  <r_i_glide_rewards>  (106) 
-3.19923

>  <r_i_glide_evdw>  (106) 
-21.389

>  <r_i_glide_ecoul>  (106) 
-0.567105

>  <r_i_glide_erotb>  (106) 
0.527806

>  <r_i_glide_esite>  (106) 
0

>  <r_i_glide_emodel>  (106) 
-32.1956

>  <r_i_glide_energy>  (106) 
-21.9561

>  <r_i_glide_einternal>  (106) 
0.872806

>  <r_i_glide_intrahb_reward>  (106) 
-0

>  <i_i_glide_confnum>  (106) 
2

>  <i_i_glide_posenum>  (106) 
37

>  <r_i_glide_eff_state_penalty>  (106) 
0

>  <ligand_id>  (106) 
31

>  <original_smiles>  (106) 
C#CCn1cnc2cc(O)ccc21

>  <smiles>  (106) 
[H]C#CC([H])([H])n1c([H])nc2c([H])c([O-])c([H])c([H])c21

$$$$
31:2:1
     RDKit          3D

 20 21  0  0  1  0  0  0  0  0999 V2000
   -6.9706   -4.6633   -3.2678 C   0  0  0  0  0  0  0  0  0  0  0  0
   -6.8637   -4.7637   -4.4760 C   0  0  0  0  0  0  0  0  0  0  0  0
   -6.7824   -4.8682   -5.9374 C   0  0  0  0  0  0  0  0  0  0  0  0
   -8.0825   -4.8647   -6.5875 N   0  0  0  0  0  0  0  0  0  0  0  0
   -9.1048   -4.0093   -6.3740 C   0  0  0  0  0  0  0  0  0  0  0  0
  -10.1943   -4.1696   -7.1193 N   0  0  0  0  0  0  0  0  0  0  0  0
   -9.8442   -5.2638   -7.8935 C   0  0  0  0  0  0  0  0  0  0  0  0
  -10.5709   -5.9456   -8.8968 C   0  0  0  0  0  0  0  0  0  0  0  0
   -9.9908   -7.0250   -9.5959 C   0  0  0  0  0  0  0  0  0  0  0  0
  -10.6996   -7.6631  -10.5723 O   0  0  0  0  0  0  0  0  0  0  0  0
   -8.6832   -7.4491   -9.2915 C   0  0  0  0  0  0  0  0  0  0  0  0
   -7.9436   -6.7937   -8.2873 C   0  0  0  0  0  0  0  0  0  0  0  0
   -8.5238   -5.7117   -7.6008 C   0  0  0  0  0  0  0  0  0  0  0  0
   -7.0249   -4.6177   -2.2062 H   0  0  0  0  0  0  0  0  0  0  0  0
   -6.1942   -4.0320   -6.3158 H   0  0  0  0  0  0  0  0  0  0  0  0
   -6.2588   -5.7925   -6.1763 H   0  0  0  0  0  0  0  0  0  0  0  0
   -9.0497   -3.2229   -5.6312 H   0  0  0  0  0  0  0  0  0  0  0  0
  -11.5834   -5.6460   -9.1191 H   0  0  0  0  0  0  0  0  0  0  0  0
   -8.2524   -8.2842   -9.8276 H   0  0  0  0  0  0  0  0  0  0  0  0
   -6.9431   -7.1192   -8.0576 H   0  0  0  0  0  0  0  0  0  0  0  0
  1  2  3  0
  1 14  1  0
  2  3  1  0
  3  4  1  0
  3 15  1  0
  3 16  1  0
  4 13  1  0
  4  5  1  0
  5  6  2  0
  5 17  1  0
  6  7  1  0
  7 13  2  0
  7  8  1  0
  8  9  2  0
  8 18  1  0
  9 10  1  0
  9 11  1  0
 11 12  2  0
 11 19  1  0
 12 13  1  0
 12 20  1  0
M  CHG  1  10  -1
M  END
>  <i_m_ct_stereo_status>  (107) 
1

>  <s_m_source_file>  (107) 
/var/tmp/pbs.5076255.sched01/tmp3npnc3rz/42_8qtnw6u.sdf

>  <i_m_source_file_index>  (107) 
7

>  <i_lp_mmshare_version>  (107) 
48012

>  <i_f3d_flags>  (107) 
0

>  <s_epik_input>  (107) 
W0NIXSNDW0NIMl1uKFtjSF1uMSljKGMxMilbY0hdW2NIXWMoW2NIXTIpW09IXQ==

>  <s_epik_cmdline>  (107) 
J2VwaWtfcHl0aG9uJywgJy1waHQnLCAnMi4wJywgJy1waCcsICc3LjAnLCAnLXRuJywgJzgnLCAnLW1hJywgJzIwMCcsICctaW1hZScsICc8aW5maWxlLm1hZT4nLCAnLW9tYWUnLCAnPG91dGZpbGUubWFlPic=

>  <r_epik_Ionization_Penalty>  (107) 
4.21014

>  <r_epik_Ionization_Penalty_Charging>  (107) 
4.06971

>  <r_epik_Ionization_Penalty_Neutral>  (107) 
0.140428

>  <r_epik_State_Penalty>  (107) 
2.65584

>  <r_epik_Charging_Adjusted_Penalty>  (107) 
6.72555

>  <i_epik_Tot_Q>  (107) 
-1

>  <i_epik_Tot_abs_Q>  (107) 
1

>  <s_lp_Force_Field>  (107) 
OPLS3e

>  <r_lp_Energy>  (107) 
8.72795

>  <b_lp_Chiralities_Consistent>  (107) 
1

>  <s_lp_Variant>  (107) 
31:0-3

>  <s_i_glide_gridfile>  (107) 
pfpi4k_grid

>  <i_i_glide_lignum>  (107) 
7

>  <i_i_glide_rotatable_bonds>  (107) 
2

>  <r_i_docking_score>  (107) 
-5.28919

>  <r_i_glide_ligand_efficiency>  (107) 
-0.406861

>  <r_i_glide_ligand_efficiency_sa>  (107) 
-0.956667

>  <r_i_glide_ligand_efficiency_ln>  (107) 
-1.48367

>  <r_i_glide_gscore>  (107) 
-5.28919

>  <r_i_glide_lipo>  (107) 
-1.29799

>  <r_i_glide_hbond>  (107) 
0

>  <r_i_glide_metal>  (107) 
-0

>  <r_i_glide_rewards>  (107) 
-3.36302

>  <r_i_glide_evdw>  (107) 
-20.661

>  <r_i_glide_ecoul>  (107) 
-0.819612

>  <r_i_glide_erotb>  (107) 
0.527806

>  <r_i_glide_esite>  (107) 
0

>  <r_i_glide_emodel>  (107) 
-31.5395

>  <r_i_glide_energy>  (107) 
-21.4806

>  <r_i_glide_einternal>  (107) 
0.653377

>  <r_i_glide_intrahb_reward>  (107) 
-0

>  <i_i_glide_confnum>  (107) 
2

>  <i_i_glide_posenum>  (107) 
33

>  <r_i_glide_eff_state_penalty>  (107) 
0

>  <ligand_id>  (107) 
31

>  <original_smiles>  (107) 
C#CCn1cnc2cc(O)ccc21

>  <smiles>  (107) 
[H]C#CC([H])([H])n1c([H])nc2c([H])c([O-])c([H])c([H])c21

$$$$
31:2:2
     RDKit          3D

 20 21  0  0  1  0  0  0  0  0999 V2000
   -5.3927   -4.6387   -4.7879 C   0  0  0  0  0  0  0  0  0  0  0  0
   -6.5426   -5.0365   -4.8651 C   0  0  0  0  0  0  0  0  0  0  0  0
   -7.9295   -5.5026   -4.9612 C   0  0  0  0  0  0  0  0  0  0  0  0
   -8.5066   -5.2874   -6.2665 N   0  0  0  0  0  0  0  0  0  0  0  0
   -9.2951   -4.2629   -6.6423 C   0  0  0  0  0  0  0  0  0  0  0  0
   -9.7188   -4.2568   -7.9007 N   0  0  0  0  0  0  0  0  0  0  0  0
   -9.1413   -5.4161   -8.3945 C   0  0  0  0  0  0  0  0  0  0  0  0
   -9.1985   -5.9837   -9.6830 C   0  0  0  0  0  0  0  0  0  0  0  0
   -8.5196   -7.1818   -9.9638 C   0  0  0  0  0  0  0  0  0  0  0  0
   -8.6006   -7.7112  -11.2109 O   0  0  0  0  0  0  0  0  0  0  0  0
   -7.7703   -7.8362   -8.9666 C   0  0  0  0  0  0  0  0  0  0  0  0
   -7.6960   -7.2886   -7.6703 C   0  0  0  0  0  0  0  0  0  0  0  0
   -8.3756   -6.0861   -7.3974 C   0  0  0  0  0  0  0  0  0  0  0  0
   -4.4047   -4.2562   -4.7122 H   0  0  0  0  0  0  0  0  0  0  0  0
   -7.9461   -6.5683   -4.7349 H   0  0  0  0  0  0  0  0  0  0  0  0
   -8.5294   -4.9797   -4.2173 H   0  0  0  0  0  0  0  0  0  0  0  0
   -9.5719   -3.4754   -5.9560 H   0  0  0  0  0  0  0  0  0  0  0  0
   -9.7681   -5.5021  -10.4599 H   0  0  0  0  0  0  0  0  0  0  0  0
   -7.2541   -8.7560   -9.1999 H   0  0  0  0  0  0  0  0  0  0  0  0
   -7.1210   -7.7828   -6.9014 H   0  0  0  0  0  0  0  0  0  0  0  0
  1  2  3  0
  1 14  1  0
  2  3  1  0
  3  4  1  0
  3 15  1  0
  3 16  1  0
  4 13  1  0
  4  5  1  0
  5  6  2  0
  5 17  1  0
  6  7  1  0
  7 13  2  0
  7  8  1  0
  8  9  2  0
  8 18  1  0
  9 10  1  0
  9 11  1  0
 11 12  2  0
 11 19  1  0
 12 13  1  0
 12 20  1  0
M  CHG  1  10  -1
M  END
>  <i_m_ct_stereo_status>  (108) 
1

>  <s_m_source_file>  (108) 
/var/tmp/pbs.5076255.sched01/tmp3npnc3rz/42_8qtnw6u.sdf

>  <i_m_source_file_index>  (108) 
7

>  <i_lp_mmshare_version>  (108) 
48012

>  <i_f3d_flags>  (108) 
0

>  <s_epik_input>  (108) 
W0NIXSNDW0NIMl1uKFtjSF1uMSljKGMxMilbY0hdW2NIXWMoW2NIXTIpW09IXQ==

>  <s_epik_cmdline>  (108) 
J2VwaWtfcHl0aG9uJywgJy1waHQnLCAnMi4wJywgJy1waCcsICc3LjAnLCAnLXRuJywgJzgnLCAnLW1hJywgJzIwMCcsICctaW1hZScsICc8aW5maWxlLm1hZT4nLCAnLW9tYWUnLCAnPG91dGZpbGUubWFlPic=

>  <r_epik_Ionization_Penalty>  (108) 
4.21014

>  <r_epik_Ionization_Penalty_Charging>  (108) 
4.06971

>  <r_epik_Ionization_Penalty_Neutral>  (108) 
0.140428

>  <r_epik_State_Penalty>  (108) 
2.65584

>  <r_epik_Charging_Adjusted_Penalty>  (108) 
6.72555

>  <i_epik_Tot_Q>  (108) 
-1

>  <i_epik_Tot_abs_Q>  (108) 
1

>  <s_lp_Force_Field>  (108) 
OPLS3e

>  <r_lp_Energy>  (108) 
8.72795

>  <b_lp_Chiralities_Consistent>  (108) 
1

>  <s_lp_Variant>  (108) 
31:0-3

>  <s_i_glide_gridfile>  (108) 
pfpi4k_grid

>  <i_i_glide_lignum>  (108) 
7

>  <i_i_glide_rotatable_bonds>  (108) 
2

>  <r_i_docking_score>  (108) 
-5.21288

>  <r_i_glide_ligand_efficiency>  (108) 
-0.40099

>  <r_i_glide_ligand_efficiency_sa>  (108) 
-0.942863

>  <r_i_glide_ligand_efficiency_ln>  (108) 
-1.46226

>  <r_i_glide_gscore>  (108) 
-5.21288

>  <r_i_glide_lipo>  (108) 
-1.51439

>  <r_i_glide_hbond>  (108) 
0

>  <r_i_glide_metal>  (108) 
-0

>  <r_i_glide_rewards>  (108) 
-3.09818

>  <r_i_glide_evdw>  (108) 
-18.5095

>  <r_i_glide_ecoul>  (108) 
-1.35093

>  <r_i_glide_erotb>  (108) 
0.527806

>  <r_i_glide_esite>  (108) 
0

>  <r_i_glide_emodel>  (108) 
-30.1601

>  <r_i_glide_energy>  (108) 
-19.8604

>  <r_i_glide_einternal>  (108) 
-0.0826422

>  <r_i_glide_intrahb_reward>  (108) 
-0

>  <i_i_glide_confnum>  (108) 
1

>  <i_i_glide_posenum>  (108) 
15

>  <r_i_glide_eff_state_penalty>  (108) 
0

>  <ligand_id>  (108) 
31

>  <original_smiles>  (108) 
C#CCn1cnc2cc(O)ccc21

>  <smiles>  (108) 
[H]C#CC([H])([H])n1c([H])nc2c([H])c([O-])c([H])c([H])c21

$$$$
32:0:0
     RDKit          3D

 50 54  0  0  1  0  0  0  0  0999 V2000
    2.0988   -1.7250    6.6007 O   0  0  0  0  0  0  0  0  0  0  0  0
    1.8244   -1.1100    5.5729 C   0  0  0  0  0  0  0  0  0  0  0  0
    0.4715   -0.3589    5.4873 C   0  0  0  0  0  0  0  0  0  0  0  0
    0.1993    0.5124    6.7294 C   0  0  0  0  0  0  0  0  0  0  0  0
   -1.1927    1.1593    6.6176 C   0  0  0  0  0  0  0  0  0  0  0  0
   -2.1805    0.1439    6.4802 O   0  0  0  0  0  0  0  0  0  0  0  0
   -2.0274   -0.6137    5.2806 C   0  0  0  0  0  0  0  0  0  0  0  0
   -0.6859   -1.3573    5.2970 C   0  0  0  0  0  0  0  0  0  0  0  0
    2.6665   -1.0920    4.5099 N   0  0  0  0  0  0  0  0  0  0  0  0
    2.4823   -0.4822    3.1974 C   0  0  1  0  0  0  0  0  0  0  0  0
    3.8518    0.1417    2.9099 C   0  0  0  0  0  0  0  0  0  0  0  0
    4.8529   -0.6898    3.7220 C   0  0  0  0  0  0  0  0  0  0  0  0
    3.9794   -1.7384    4.4311 C   0  0  2  0  0  0  0  0  0  0  0  0
    3.8027   -3.0232    3.5893 C   0  0  0  0  0  0  0  0  0  0  0  0
    3.2025   -2.7185    2.1826 C   0  0  1  0  0  0  0  0  0  0  0  0
    2.7392   -3.9252    1.4864 N   0  0  0  0  0  0  0  0  0  0  0  0
    2.1859   -4.9479    2.1930 N   0  0  0  0  0  0  0  0  0  0  0  0
    1.8187   -5.8557    1.3537 N   0  0  0  0  0  0  0  0  0  0  0  0
    2.0566   -5.4389    0.0705 N   0  0  0  0  0  0  0  0  0  0  0  0
    2.6308   -4.2401    0.1774 C   0  0  0  0  0  0  0  0  0  0  0  0
    3.0430   -3.4310   -0.9806 C   0  0  0  0  0  0  0  0  0  0  0  0
    4.2413   -2.6773   -0.9979 C   0  0  0  0  0  0  0  0  0  0  0  0
    4.5110   -1.9440   -2.1645 C   0  0  0  0  0  0  0  0  0  0  0  0
    3.7027   -1.9838   -3.2382 N   0  0  0  0  0  0  0  0  0  0  0  0
    2.6031   -2.7295   -3.1211 C   0  0  0  0  0  0  0  0  0  0  0  0
    2.2249   -3.4398   -2.0590 N   0  0  0  0  0  0  0  0  0  0  0  0
    2.1042   -1.6261    2.2299 C   0  0  0  0  0  0  0  0  0  0  0  0
    0.4410    0.3353    4.6552 H   0  0  0  0  0  0  0  0  0  0  0  0
    0.2638   -0.0717    7.6504 H   0  0  0  0  0  0  0  0  0  0  0  0
    0.9574    1.2954    6.7940 H   0  0  0  0  0  0  0  0  0  0  0  0
   -1.4064    1.7369    7.5155 H   0  0  0  0  0  0  0  0  0  0  0  0
   -1.2467    1.8554    5.7754 H   0  0  0  0  0  0  0  0  0  0  0  0
   -2.8418   -1.3329    5.2114 H   0  0  0  0  0  0  0  0  0  0  0  0
   -2.1051    0.0407    4.4091 H   0  0  0  0  0  0  0  0  0  0  0  0
   -0.5541   -1.8904    4.3530 H   0  0  0  0  0  0  0  0  0  0  0  0
   -0.6835   -2.1104    6.0894 H   0  0  0  0  0  0  0  0  0  0  0  0
    1.7428    0.3097    3.1207 H   0  0  0  0  0  0  0  0  0  0  0  0
    4.0764    0.1691    1.8432 H   0  0  0  0  0  0  0  0  0  0  0  0
    3.8559    1.1695    3.2766 H   0  0  0  0  0  0  0  0  0  0  0  0
    5.6208   -1.1396    3.0900 H   0  0  0  0  0  0  0  0  0  0  0  0
    5.3584   -0.0579    4.4560 H   0  0  0  0  0  0  0  0  0  0  0  0
    4.3961   -1.9927    5.4071 H   0  0  0  0  0  0  0  0  0  0  0  0
    4.7581   -3.5368    3.4643 H   0  0  0  0  0  0  0  0  0  0  0  0
    3.1667   -3.6944    4.1690 H   0  0  0  0  0  0  0  0  0  0  0  0
    4.0231   -2.2876    1.6172 H   0  0  0  0  0  0  0  0  0  0  0  0
    4.9529   -2.6663   -0.1864 H   0  0  0  0  0  0  0  0  0  0  0  0
    5.4022   -1.3368   -2.2455 H   0  0  0  0  0  0  0  0  0  0  0  0
    1.9539   -2.7541   -3.9824 H   0  0  0  0  0  0  0  0  0  0  0  0
    1.1519   -2.0616    2.5390 H   0  0  0  0  0  0  0  0  0  0  0  0
    1.9449   -1.2100    1.2372 H   0  0  0  0  0  0  0  0  0  0  0  0
  1  2  2  0
  2  3  1  0
  2  9  1  0
  3  8  1  0
  3  4  1  0
  3 28  1  0
  4  5  1  0
  4 29  1  0
  4 30  1  0
  5  6  1  0
  5 31  1  0
  5 32  1  0
  6  7  1  0
  7  8  1  0
  7 33  1  0
  7 34  1  0
  8 35  1  0
  8 36  1  0
  9 13  1  0
  9 10  1  0
 10 27  1  0
 10 11  1  0
 10 37  1  1
 11 12  1  0
 11 38  1  0
 11 39  1  0
 12 13  1  0
 12 40  1  0
 12 41  1  0
 13 14  1  0
 13 42  1  1
 14 15  1  0
 14 43  1  0
 14 44  1  0
 15 16  1  0
 15 27  1  0
 15 45  1  6
 16 20  1  0
 16 17  1  0
 17 18  2  0
 18 19  1  0
 19 20  2  0
 20 21  1  0
 21 26  1  0
 21 22  2  0
 22 23  1  0
 22 46  1  0
 23 24  2  0
 23 47  1  0
 24 25  1  0
 25 26  2  0
 25 48  1  0
 27 49  1  0
 27 50  1  0
M  END
>  <i_m_ct_stereo_status>  (109) 
1

>  <s_m_source_file>  (109) 
/var/tmp/pbs.5076255.sched01/tmp3npnc3rz/42_8qtnw6u.sdf

>  <i_m_source_file_index>  (109) 
8

>  <i_lp_mmshare_version>  (109) 
48012

>  <i_f3d_flags>  (109) 
0

>  <s_epik_input>  (109) 
W0NIMl0xW0NIMl1PW0NIMl1bQ0gyXVtDSF0xQyg9TylOKFtDQEBIXTIzKVtDQEhdKFtDSDJdW0NIMl0yKVtDSDJdW0NASF0oW0NIMl0zKW40bm5uYzQtYzVbY0hdW2NIXW5bY0hdbjU=

>  <s_epik_cmdline>  (109) 
J2VwaWtfcHl0aG9uJywgJy1waHQnLCAnMi4wJywgJy1waCcsICc3LjAnLCAnLXRuJywgJzgnLCAnLW1hJywgJzIwMCcsICctaW1hZScsICc8aW5maWxlLm1hZT4nLCAnLW9tYWUnLCAnPG91dGZpbGUubWFlPic=

>  <r_lp_tautomer_probability>  (109) 
1

>  <r_epik_Ionization_Penalty>  (109) 
1.1477e-07

>  <r_epik_Ionization_Penalty_Charging>  (109) 
0

>  <r_epik_Ionization_Penalty_Neutral>  (109) 
1.1477e-07

>  <r_epik_State_Penalty>  (109) 
-0

>  <r_epik_Charging_Adjusted_Penalty>  (109) 
0

>  <i_epik_Tot_Q>  (109) 
0

>  <i_epik_Tot_abs_Q>  (109) 
0

>  <s_lp_Force_Field>  (109) 
OPLS3e

>  <r_lp_Energy>  (109) 
33.9025

>  <b_lp_Chiralities_Consistent>  (109) 
1

>  <s_lp_Variant>  (109) 
32:0-1

>  <s_i_glide_gridfile>  (109) 
pfpi4k_grid

>  <i_i_glide_lignum>  (109) 
8

>  <i_i_glide_rotatable_bonds>  (109) 
4

>  <r_i_docking_score>  (109) 
-3.37689

>  <r_i_glide_ligand_efficiency>  (109) 
-0.12507

>  <r_i_glide_ligand_efficiency_sa>  (109) 
-0.375209

>  <r_i_glide_ligand_efficiency_ln>  (109) 
-0.786083

>  <r_i_glide_gscore>  (109) 
-3.37689

>  <r_i_glide_lipo>  (109) 
-0.16007

>  <r_i_glide_hbond>  (109) 
-0.16

>  <r_i_glide_metal>  (109) 
-0

>  <r_i_glide_rewards>  (109) 
-1.01375

>  <r_i_glide_evdw>  (109) 
-28.3128

>  <r_i_glide_ecoul>  (109) 
-6.59091

>  <r_i_glide_erotb>  (109) 
0.565122

>  <r_i_glide_esite>  (109) 
-0.203912

>  <r_i_glide_emodel>  (109) 
-40.0677

>  <r_i_glide_energy>  (109) 
-34.9037

>  <r_i_glide_einternal>  (109) 
5.22646

>  <r_i_glide_intrahb_reward>  (109) 
-0

>  <i_i_glide_confnum>  (109) 
4

>  <i_i_glide_posenum>  (109) 
1

>  <r_i_glide_eff_state_penalty>  (109) 
0

>  <ligand_id>  (109) 
32

>  <original_smiles>  (109) 
O=C(C1CCOCC1)N1C2CCC1CC(n1nnnc1-c1ccncn1)C2

>  <smiles>  (109) 
[H]c1nc([H])c([H])c(-c2nnnn2C2([H])C([H])([H])C3([H])N(C(=O)C4([H])C([H])([H])C([H])([H])OC([H])([H])C4([H])[H])C([H])(C([H])([H])C3([H])[H])C2([H])[H])n1

$$$$
32:0:1
     RDKit          3D

 50 54  0  0  1  0  0  0  0  0999 V2000
    4.8914   -3.4847    3.9566 O   0  0  0  0  0  0  0  0  0  0  0  0
    4.1677   -3.0984    3.0340 C   0  0  0  0  0  0  0  0  0  0  0  0
    3.9346   -4.0485    1.8361 C   0  0  0  0  0  0  0  0  0  0  0  0
    3.1088   -5.2849    2.2282 C   0  0  0  0  0  0  0  0  0  0  0  0
    2.9729   -6.2283    1.0180 C   0  0  0  0  0  0  0  0  0  0  0  0
    4.2639   -6.5971    0.5476 O   0  0  0  0  0  0  0  0  0  0  0  0
    5.0154   -5.4873    0.0718 C   0  0  0  0  0  0  0  0  0  0  0  0
    5.2689   -4.4963    1.2177 C   0  0  0  0  0  0  0  0  0  0  0  0
    3.6007   -1.8780    3.0539 N   0  0  0  0  0  0  0  0  0  0  0  0
    3.7415   -0.8844    4.1198 C   0  0  1  0  0  0  0  0  0  0  0  0
    3.9578    0.4262    3.3553 C   0  0  0  0  0  0  0  0  0  0  0  0
    3.2963    0.1964    1.9923 C   0  0  0  0  0  0  0  0  0  0  0  0
    2.7394   -1.2247    2.0707 C   0  0  2  0  0  0  0  0  0  0  0  0
    1.3056   -1.2843    2.6369 C   0  0  0  0  0  0  0  0  0  0  0  0
    1.1953   -0.5816    4.0177 C   0  0  1  0  0  0  0  0  0  0  0  0
   -0.0752   -0.8934    4.6810 N   0  0  0  0  0  0  0  0  0  0  0  0
   -0.2963   -2.1594    5.1140 N   0  0  0  0  0  0  0  0  0  0  0  0
   -1.4492   -2.1557    5.7020 N   0  0  0  0  0  0  0  0  0  0  0  0
   -2.0227   -0.9132    5.6490 N   0  0  0  0  0  0  0  0  0  0  0  0
   -1.1327   -0.1508    5.0119 C   0  0  0  0  0  0  0  0  0  0  0  0
   -1.3433    1.2766    4.7585 C   0  0  0  0  0  0  0  0  0  0  0  0
   -0.9940    1.8802    3.5299 C   0  0  0  0  0  0  0  0  0  0  0  0
   -1.2391    3.2587    3.4171 C   0  0  0  0  0  0  0  0  0  0  0  0
   -1.7858    3.9713    4.4250 N   0  0  0  0  0  0  0  0  0  0  0  0
   -2.0723    3.2989    5.5375 C   0  0  0  0  0  0  0  0  0  0  0  0
   -1.8794    2.0011    5.7584 N   0  0  0  0  0  0  0  0  0  0  0  0
    2.4216   -0.8784    4.9282 C   0  0  0  0  0  0  0  0  0  0  0  0
    3.3874   -3.5769    1.0251 H   0  0  0  0  0  0  0  0  0  0  0  0
    3.5713   -5.8211    3.0594 H   0  0  0  0  0  0  0  0  0  0  0  0
    2.1167   -4.9762    2.5591 H   0  0  0  0  0  0  0  0  0  0  0  0
    2.4344   -7.1317    1.3032 H   0  0  0  0  0  0  0  0  0  0  0  0
    2.4016   -5.7638    0.2091 H   0  0  0  0  0  0  0  0  0  0  0  0
    5.9649   -5.8512   -0.3159 H   0  0  0  0  0  0  0  0  0  0  0  0
    4.4951   -5.0060   -0.7603 H   0  0  0  0  0  0  0  0  0  0  0  0
    5.8013   -3.6261    0.8308 H   0  0  0  0  0  0  0  0  0  0  0  0
    5.9169   -4.9628    1.9637 H   0  0  0  0  0  0  0  0  0  0  0  0
    4.5842   -1.0773    4.7850 H   0  0  0  0  0  0  0  0  0  0  0  0
    3.5458    1.2973    3.8682 H   0  0  0  0  0  0  0  0  0  0  0  0
    5.0279    0.5888    3.2275 H   0  0  0  0  0  0  0  0  0  0  0  0
    2.5205    0.9263    1.7586 H   0  0  0  0  0  0  0  0  0  0  0  0
    4.0445    0.2514    1.2015 H   0  0  0  0  0  0  0  0  0  0  0  0
    2.7452   -1.6242    1.0595 H   0  0  0  0  0  0  0  0  0  0  0  0
    0.6145   -0.8306    1.9259 H   0  0  0  0  0  0  0  0  0  0  0  0
    1.0134   -2.3336    2.7196 H   0  0  0  0  0  0  0  0  0  0  0  0
    1.2231    0.4930    3.8307 H   0  0  0  0  0  0  0  0  0  0  0  0
   -0.5769    1.3346    2.6973 H   0  0  0  0  0  0  0  0  0  0  0  0
   -1.0101    3.7992    2.5097 H   0  0  0  0  0  0  0  0  0  0  0  0
   -2.5125    3.8696    6.3372 H   0  0  0  0  0  0  0  0  0  0  0  0
    2.3238   -1.8493    5.4183 H   0  0  0  0  0  0  0  0  0  0  0  0
    2.4675   -0.1360    5.7295 H   0  0  0  0  0  0  0  0  0  0  0  0
  1  2  2  0
  2  3  1  0
  2  9  1  0
  3  8  1  0
  3  4  1  0
  3 28  1  0
  4  5  1  0
  4 29  1  0
  4 30  1  0
  5  6  1  0
  5 31  1  0
  5 32  1  0
  6  7  1  0
  7  8  1  0
  7 33  1  0
  7 34  1  0
  8 35  1  0
  8 36  1  0
  9 13  1  0
  9 10  1  0
 10 27  1  0
 10 11  1  0
 10 37  1  1
 11 12  1  0
 11 38  1  0
 11 39  1  0
 12 13  1  0
 12 40  1  0
 12 41  1  0
 13 14  1  0
 13 42  1  6
 14 15  1  0
 14 43  1  0
 14 44  1  0
 15 16  1  0
 15 27  1  0
 15 45  1  6
 16 20  1  0
 16 17  1  0
 17 18  2  0
 18 19  1  0
 19 20  2  0
 20 21  1  0
 21 26  1  0
 21 22  2  0
 22 23  1  0
 22 46  1  0
 23 24  2  0
 23 47  1  0
 24 25  1  0
 25 26  2  0
 25 48  1  0
 27 49  1  0
 27 50  1  0
M  END
>  <i_m_ct_stereo_status>  (110) 
1

>  <s_m_source_file>  (110) 
/var/tmp/pbs.5076255.sched01/tmp3npnc3rz/42_8qtnw6u.sdf

>  <i_m_source_file_index>  (110) 
8

>  <i_lp_mmshare_version>  (110) 
48012

>  <i_f3d_flags>  (110) 
0

>  <s_epik_input>  (110) 
W0NIMl0xW0NIMl1PW0NIMl1bQ0gyXVtDSF0xQyg9TylOKFtDQEBIXTIzKVtDQEhdKFtDSDJdW0NIMl0yKVtDSDJdW0NASF0oW0NIMl0zKW40bm5uYzQtYzVbY0hdW2NIXW5bY0hdbjU=

>  <s_epik_cmdline>  (110) 
J2VwaWtfcHl0aG9uJywgJy1waHQnLCAnMi4wJywgJy1waCcsICc3LjAnLCAnLXRuJywgJzgnLCAnLW1hJywgJzIwMCcsICctaW1hZScsICc8aW5maWxlLm1hZT4nLCAnLW9tYWUnLCAnPG91dGZpbGUubWFlPic=

>  <r_lp_tautomer_probability>  (110) 
1

>  <r_epik_Ionization_Penalty>  (110) 
1.1477e-07

>  <r_epik_Ionization_Penalty_Charging>  (110) 
0

>  <r_epik_Ionization_Penalty_Neutral>  (110) 
1.1477e-07

>  <r_epik_State_Penalty>  (110) 
-0

>  <r_epik_Charging_Adjusted_Penalty>  (110) 
0

>  <i_epik_Tot_Q>  (110) 
0

>  <i_epik_Tot_abs_Q>  (110) 
0

>  <s_lp_Force_Field>  (110) 
OPLS3e

>  <r_lp_Energy>  (110) 
33.9025

>  <b_lp_Chiralities_Consistent>  (110) 
1

>  <s_lp_Variant>  (110) 
32:0-1

>  <s_i_glide_gridfile>  (110) 
pfpi4k_grid

>  <i_i_glide_lignum>  (110) 
8

>  <i_i_glide_rotatable_bonds>  (110) 
4

>  <r_i_docking_score>  (110) 
-3.07399

>  <r_i_glide_ligand_efficiency>  (110) 
-0.113851

>  <r_i_glide_ligand_efficiency_sa>  (110) 
-0.341554

>  <r_i_glide_ligand_efficiency_ln>  (110) 
-0.715574

>  <r_i_glide_gscore>  (110) 
-3.07399

>  <r_i_glide_lipo>  (110) 
-0.139598

>  <r_i_glide_hbond>  (110) 
0

>  <r_i_glide_metal>  (110) 
-0

>  <r_i_glide_rewards>  (110) 
-0.89506

>  <r_i_glide_evdw>  (110) 
-27.8686

>  <r_i_glide_ecoul>  (110) 
-6.8396

>  <r_i_glide_erotb>  (110) 
0.565122

>  <r_i_glide_esite>  (110) 
-0.185084

>  <r_i_glide_emodel>  (110) 
-39.9003

>  <r_i_glide_energy>  (110) 
-34.7082

>  <r_i_glide_einternal>  (110) 
3.90653

>  <r_i_glide_intrahb_reward>  (110) 
-0

>  <i_i_glide_confnum>  (110) 
5

>  <i_i_glide_posenum>  (110) 
6

>  <r_i_glide_eff_state_penalty>  (110) 
0

>  <ligand_id>  (110) 
32

>  <original_smiles>  (110) 
O=C(C1CCOCC1)N1C2CCC1CC(n1nnnc1-c1ccncn1)C2

>  <smiles>  (110) 
[H]c1nc([H])c([H])c(-c2nnnn2C2([H])C([H])([H])C3([H])N(C(=O)C4([H])C([H])([H])C([H])([H])OC([H])([H])C4([H])[H])C([H])(C([H])([H])C3([H])[H])C2([H])[H])n1

$$$$
32:0:2
     RDKit          3D

 50 54  0  0  1  0  0  0  0  0999 V2000
    4.8708   -0.5342    3.6354 O   0  0  0  0  0  0  0  0  0  0  0  0
    4.0268   -0.0599    2.8719 C   0  0  0  0  0  0  0  0  0  0  0  0
    3.8911   -0.6551    1.4511 C   0  0  0  0  0  0  0  0  0  0  0  0
    3.4142   -2.1187    1.4857 C   0  0  0  0  0  0  0  0  0  0  0  0
    3.3817   -2.6920    0.0581 C   0  0  0  0  0  0  0  0  0  0  0  0
    4.6707   -2.5897   -0.5361 O   0  0  0  0  0  0  0  0  0  0  0  0
    5.0991   -1.2419   -0.6880 C   0  0  0  0  0  0  0  0  0  0  0  0
    5.2335   -0.5842    0.6928 C   0  0  0  0  0  0  0  0  0  0  0  0
    3.2542    0.9871    3.2444 N   0  0  0  0  0  0  0  0  0  0  0  0
    3.2625    1.6414    4.5527 C   0  0  1  0  0  0  0  0  0  0  0  0
    3.2022    3.1419    4.2189 C   0  0  0  0  0  0  0  0  0  0  0  0
    2.5367    3.1985    2.8404 C   0  0  0  0  0  0  0  0  0  0  0  0
    2.2637    1.7341    2.4703 C   0  0  2  0  0  0  0  0  0  0  0  0
    0.8860    1.2386    2.9458 C   0  0  0  0  0  0  0  0  0  0  0  0
    0.7130    1.4717    4.4714 C   0  0  1  0  0  0  0  0  0  0  0  0
   -0.4336    0.7598    5.0151 N   0  0  0  0  0  0  0  0  0  0  0  0
   -0.6843   -0.5189    4.6270 N   0  0  0  0  0  0  0  0  0  0  0  0
   -1.7360   -0.9095    5.2548 N   0  0  0  0  0  0  0  0  0  0  0  0
   -2.1927    0.0884    6.0866 N   0  0  0  0  0  0  0  0  0  0  0  0
   -1.3448    1.0998    5.9457 C   0  0  0  0  0  0  0  0  0  0  0  0
   -1.4564    2.3359    6.7408 C   0  0  0  0  0  0  0  0  0  0  0  0
   -2.5726    2.5677    7.5780 C   0  0  0  0  0  0  0  0  0  0  0  0
   -2.5856    3.7744    8.3056 C   0  0  0  0  0  0  0  0  0  0  0  0
   -1.5893    4.6741    8.1908 N   0  0  0  0  0  0  0  0  0  0  0  0
   -0.5852    4.3597    7.3770 C   0  0  0  0  0  0  0  0  0  0  0  0
   -0.4748    3.2511    6.6542 N   0  0  0  0  0  0  0  0  0  0  0  0
    1.9928    1.1626    5.2964 C   0  0  0  0  0  0  0  0  0  0  0  0
    3.1626   -0.1173    0.8496 H   0  0  0  0  0  0  0  0  0  0  0  0
    4.0651   -2.7302    2.1151 H   0  0  0  0  0  0  0  0  0  0  0  0
    2.4133   -2.1596    1.9190 H   0  0  0  0  0  0  0  0  0  0  0  0
    3.0890   -3.7396    0.0852 H   0  0  0  0  0  0  0  0  0  0  0  0
    2.6414   -2.1799   -0.5606 H   0  0  0  0  0  0  0  0  0  0  0  0
    6.0642   -1.2406   -1.1930 H   0  0  0  0  0  0  0  0  0  0  0  0
    4.4043   -0.6862   -1.3246 H   0  0  0  0  0  0  0  0  0  0  0  0
    5.5187    0.4628    0.5655 H   0  0  0  0  0  0  0  0  0  0  0  0
    6.0395   -1.0639    1.2567 H   0  0  0  0  0  0  0  0  0  0  0  0
    4.1528    1.4167    5.1429 H   0  0  0  0  0  0  0  0  0  0  0  0
    2.6553    3.7261    4.9597 H   0  0  0  0  0  0  0  0  0  0  0  0
    4.2100    3.5525    4.1530 H   0  0  0  0  0  0  0  0  0  0  0  0
    1.6335    3.8085    2.8122 H   0  0  0  0  0  0  0  0  0  0  0  0
    3.2276    3.6316    2.1186 H   0  0  0  0  0  0  0  0  0  0  0  0
    2.3257    1.6347    1.3894 H   0  0  0  0  0  0  0  0  0  0  0  0
    0.0916    1.7573    2.4057 H   0  0  0  0  0  0  0  0  0  0  0  0
    0.8073    0.1826    2.6849 H   0  0  0  0  0  0  0  0  0  0  0  0
    0.5143    2.5388    4.5400 H   0  0  0  0  0  0  0  0  0  0  0  0
   -3.3852    1.8655    7.6633 H   0  0  0  0  0  0  0  0  0  0  0  0
   -3.4013    4.0249    8.9722 H   0  0  0  0  0  0  0  0  0  0  0  0
    0.2098    5.0847    7.2843 H   0  0  0  0  0  0  0  0  0  0  0  0
    2.0734    0.0893    5.4825 H   0  0  0  0  0  0  0  0  0  0  0  0
    1.9318    1.6383    6.2790 H   0  0  0  0  0  0  0  0  0  0  0  0
  1  2  2  0
  2  3  1  0
  2  9  1  0
  3  8  1  0
  3  4  1  0
  3 28  1  0
  4  5  1  0
  4 29  1  0
  4 30  1  0
  5  6  1  0
  5 31  1  0
  5 32  1  0
  6  7  1  0
  7  8  1  0
  7 33  1  0
  7 34  1  0
  8 35  1  0
  8 36  1  0
  9 13  1  0
  9 10  1  0
 10 27  1  0
 10 11  1  0
 10 37  1  1
 11 12  1  0
 11 38  1  0
 11 39  1  0
 12 13  1  0
 12 40  1  0
 12 41  1  0
 13 14  1  0
 13 42  1  6
 14 15  1  0
 14 43  1  0
 14 44  1  0
 15 16  1  0
 15 27  1  0
 15 45  1  6
 16 20  1  0
 16 17  1  0
 17 18  2  0
 18 19  1  0
 19 20  2  0
 20 21  1  0
 21 26  1  0
 21 22  2  0
 22 23  1  0
 22 46  1  0
 23 24  2  0
 23 47  1  0
 24 25  1  0
 25 26  2  0
 25 48  1  0
 27 49  1  0
 27 50  1  0
M  END
>  <i_m_ct_stereo_status>  (111) 
1

>  <s_m_source_file>  (111) 
/var/tmp/pbs.5076255.sched01/tmp3npnc3rz/42_8qtnw6u.sdf

>  <i_m_source_file_index>  (111) 
8

>  <i_lp_mmshare_version>  (111) 
48012

>  <i_f3d_flags>  (111) 
0

>  <s_epik_input>  (111) 
W0NIMl0xW0NIMl1PW0NIMl1bQ0gyXVtDSF0xQyg9TylOKFtDQEBIXTIzKVtDQEhdKFtDSDJdW0NIMl0yKVtDSDJdW0NASF0oW0NIMl0zKW40bm5uYzQtYzVbY0hdW2NIXW5bY0hdbjU=

>  <s_epik_cmdline>  (111) 
J2VwaWtfcHl0aG9uJywgJy1waHQnLCAnMi4wJywgJy1waCcsICc3LjAnLCAnLXRuJywgJzgnLCAnLW1hJywgJzIwMCcsICctaW1hZScsICc8aW5maWxlLm1hZT4nLCAnLW9tYWUnLCAnPG91dGZpbGUubWFlPic=

>  <r_lp_tautomer_probability>  (111) 
1

>  <r_epik_Ionization_Penalty>  (111) 
1.1477e-07

>  <r_epik_Ionization_Penalty_Charging>  (111) 
0

>  <r_epik_Ionization_Penalty_Neutral>  (111) 
1.1477e-07

>  <r_epik_State_Penalty>  (111) 
-0

>  <r_epik_Charging_Adjusted_Penalty>  (111) 
0

>  <i_epik_Tot_Q>  (111) 
0

>  <i_epik_Tot_abs_Q>  (111) 
0

>  <s_lp_Force_Field>  (111) 
OPLS3e

>  <r_lp_Energy>  (111) 
33.9025

>  <b_lp_Chiralities_Consistent>  (111) 
1

>  <s_lp_Variant>  (111) 
32:0-1

>  <s_i_glide_gridfile>  (111) 
pfpi4k_grid

>  <i_i_glide_lignum>  (111) 
8

>  <i_i_glide_rotatable_bonds>  (111) 
4

>  <r_i_docking_score>  (111) 
-2.83716

>  <r_i_glide_ligand_efficiency>  (111) 
-0.10508

>  <r_i_glide_ligand_efficiency_sa>  (111) 
-0.315239

>  <r_i_glide_ligand_efficiency_ln>  (111) 
-0.660443

>  <r_i_glide_gscore>  (111) 
-2.83716

>  <r_i_glide_lipo>  (111) 
-0.414628

>  <r_i_glide_hbond>  (111) 
0

>  <r_i_glide_metal>  (111) 
-0

>  <r_i_glide_rewards>  (111) 
-0.913775

>  <r_i_glide_evdw>  (111) 
-28.3658

>  <r_i_glide_ecoul>  (111) 
-2.80451

>  <r_i_glide_erotb>  (111) 
0.565122

>  <r_i_glide_esite>  (111) 
-0.234906

>  <r_i_glide_emodel>  (111) 
-37.3275

>  <r_i_glide_energy>  (111) 
-31.1703

>  <r_i_glide_einternal>  (111) 
0.888163

>  <r_i_glide_intrahb_reward>  (111) 
-0

>  <i_i_glide_confnum>  (111) 
1

>  <i_i_glide_posenum>  (111) 
33

>  <r_i_glide_eff_state_penalty>  (111) 
0

>  <ligand_id>  (111) 
32

>  <original_smiles>  (111) 
O=C(C1CCOCC1)N1C2CCC1CC(n1nnnc1-c1ccncn1)C2

>  <smiles>  (111) 
[H]c1nc([H])c([H])c(-c2nnnn2C2([H])C([H])([H])C3([H])N(C(=O)C4([H])C([H])([H])C([H])([H])OC([H])([H])C4([H])[H])C([H])(C([H])([H])C3([H])[H])C2([H])[H])n1

$$$$
32:1:0
     RDKit          3D

 50 54  0  0  1  0  0  0  0  0999 V2000
    5.3920   -0.2215    1.7992 O   0  0  0  0  0  0  0  0  0  0  0  0
    4.6469   -1.2238    1.9328 C   0  0  0  0  0  0  0  0  0  0  0  0
    4.7993   -2.4691    1.0029 C   0  0  0  0  0  0  0  0  0  0  0  0
    6.2386   -2.9867    0.9754 C   0  0  0  0  0  0  0  0  0  0  0  0
    7.1558   -2.0480    0.1706 C   0  0  0  0  0  0  0  0  0  0  0  0
    6.6217   -1.8223   -1.1278 O   0  0  0  0  0  0  0  0  0  0  0  0
    5.3225   -1.2457   -1.1445 C   0  0  0  0  0  0  0  0  0  0  0  0
    4.3130   -2.1427   -0.4170 C   0  0  0  0  0  0  0  0  0  0  0  0
    3.6750   -1.2206    2.8514 N   0  0  0  0  0  0  0  0  0  0  0  0
    2.6694   -2.2387    3.2298 C   0  0  1  0  0  0  0  0  0  0  0  0
    2.7120   -2.1776    4.7637 C   0  0  0  0  0  0  0  0  0  0  0  0
    3.1119   -0.7202    5.0795 C   0  0  0  0  0  0  0  0  0  0  0  0
    3.3528   -0.0726    3.6950 C   0  0  2  0  0  0  0  0  0  0  0  0
    2.1190    0.5839    3.0888 C   0  0  0  0  0  0  0  0  0  0  0  0
    0.8705   -0.3563    3.0321 C   0  0  2  0  0  0  0  0  0  0  0  0
    0.1391   -0.4188    4.3212 N   0  0  0  0  0  0  0  0  0  0  0  0
   -0.2922   -1.6026    4.8346 N   0  0  0  0  0  0  0  0  0  0  0  0
   -0.6816   -1.3752    6.0535 N   0  0  0  0  0  0  0  0  0  0  0  0
   -0.6638   -0.0306    6.3234 N   0  0  0  0  0  0  0  0  0  0  0  0
   -0.2745    0.5372    5.1862 C   0  0  0  0  0  0  0  0  0  0  0  0
   -0.2451    2.0098    4.9985 C   0  0  0  0  0  0  0  0  0  0  0  0
   -0.7029    2.8589    6.0214 C   0  0  0  0  0  0  0  0  0  0  0  0
   -0.5751    4.2444    5.8111 C   0  0  0  0  0  0  0  0  0  0  0  0
    0.0049    4.7106    4.6739 N   0  0  0  0  0  0  0  0  0  0  0  0
    0.3483    3.8520    3.7503 C   0  0  0  0  0  0  0  0  0  0  0  0
    0.2094    2.5553    3.8644 N   0  0  0  0  0  0  0  0  0  0  0  0
    1.3419   -1.7781    2.5610 C   0  0  0  0  0  0  0  0  0  0  0  0
    4.1901   -3.2923    1.3842 H   0  0  0  0  0  0  0  0  0  0  0  0
    6.6170   -3.1226    1.9916 H   0  0  0  0  0  0  0  0  0  0  0  0
    6.2382   -3.9729    0.5232 H   0  0  0  0  0  0  0  0  0  0  0  0
    7.2818   -1.0907    0.6648 H   0  0  0  0  0  0  0  0  0  0  0  0
    8.1602   -2.4760    0.1092 H   0  0  0  0  0  0  0  0  0  0  0  0
    5.3772   -0.2692   -0.6855 H   0  0  0  0  0  0  0  0  0  0  0  0
    5.0076   -1.0892   -2.1691 H   0  0  0  0  0  0  0  0  0  0  0  0
    4.1651   -3.0728   -0.9589 H   0  0  0  0  0  0  0  0  0  0  0  0
    3.3285   -1.6557   -0.3836 H   0  0  0  0  0  0  0  0  0  0  0  0
    2.9321   -3.2421    2.9054 H   0  0  0  0  0  0  0  0  0  0  0  0
    1.7855   -2.4957    5.2135 H   0  0  0  0  0  0  0  0  0  0  0  0
    3.5043   -2.8288    5.1265 H   0  0  0  0  0  0  0  0  0  0  0  0
    2.3627   -0.1729    5.6472 H   0  0  0  0  0  0  0  0  0  0  0  0
    4.0256   -0.6883    5.6844 H   0  0  0  0  0  0  0  0  0  0  0  0
    4.1603    0.6782    3.7535 H   0  0  0  0  0  0  0  0  0  0  0  0
    2.0588    1.3997    3.7684 H   0  0  0  0  0  0  0  0  0  0  0  0
    2.3101    0.9760    2.0937 H   0  0  0  0  0  0  0  0  0  0  0  0
    0.1301    0.0147    2.3190 H   0  0  0  0  0  0  0  0  0  0  0  0
   -1.1206    2.4764    6.9389 H   0  0  0  0  0  0  0  0  0  0  0  0
   -0.9894    4.9703    6.5201 H   0  0  0  0  0  0  0  0  0  0  0  0
    0.9123    4.2256    2.9324 H   0  0  0  0  0  0  0  0  0  0  0  0
    1.4591   -1.7642    1.4707 H   0  0  0  0  0  0  0  0  0  0  0  0
    0.5996   -2.5624    2.7274 H   0  0  0  0  0  0  0  0  0  0  0  0
  1  2  2  0
  2  3  1  0
  2  9  1  0
  3  8  1  0
  3  4  1  0
  3 28  1  0
  4  5  1  0
  4 29  1  0
  4 30  1  0
  5  6  1  0
  5 31  1  0
  5 32  1  0
  6  7  1  0
  7  8  1  0
  7 33  1  0
  7 34  1  0
  8 35  1  0
  8 36  1  0
  9 13  1  0
  9 10  1  0
 10 27  1  0
 10 11  1  0
 10 37  1  1
 11 12  1  0
 11 38  1  0
 11 39  1  0
 12 13  1  0
 12 40  1  0
 12 41  1  0
 13 14  1  0
 13 42  1  1
 14 15  1  0
 14 43  1  0
 14 44  1  0
 15 16  1  0
 15 27  1  0
 15 45  1  6
 16 20  1  0
 16 17  1  0
 17 18  2  0
 18 19  1  0
 19 20  2  0
 20 21  1  0
 21 26  1  0
 21 22  2  0
 22 23  1  0
 22 46  1  0
 23 24  2  0
 23 47  1  0
 24 25  1  0
 25 26  2  0
 25 48  1  0
 27 49  1  0
 27 50  1  0
M  END
>  <i_m_ct_stereo_status>  (112) 
1

>  <s_m_source_file>  (112) 
/var/tmp/pbs.5076255.sched01/tmp3npnc3rz/42_8qtnw6u.sdf

>  <i_m_source_file_index>  (112) 
9

>  <i_lp_mmshare_version>  (112) 
48012

>  <i_f3d_flags>  (112) 
0

>  <s_epik_input>  (112) 
W0NIMl0xW0NIMl1PW0NIMl1bQ0gyXVtDSF0xQyg9TylOKFtDQEBIXTIzKVtDQEhdKFtDSDJdW0NIMl0yKVtDSDJdW0NASF0oW0NIMl0zKW40bm5uYzQtYzVbY0hdW2NIXW5bY0hdbjU=

>  <s_epik_cmdline>  (112) 
J2VwaWtfcHl0aG9uJywgJy1waHQnLCAnMi4wJywgJy1waCcsICc3LjAnLCAnLXRuJywgJzgnLCAnLW1hJywgJzIwMCcsICctaW1hZScsICc8aW5maWxlLm1hZT4nLCAnLW9tYWUnLCAnPG91dGZpbGUubWFlPic=

>  <r_lp_tautomer_probability>  (112) 
1

>  <r_epik_Ionization_Penalty>  (112) 
1.1477e-07

>  <r_epik_Ionization_Penalty_Charging>  (112) 
0

>  <r_epik_Ionization_Penalty_Neutral>  (112) 
1.1477e-07

>  <r_epik_State_Penalty>  (112) 
-0

>  <r_epik_Charging_Adjusted_Penalty>  (112) 
0

>  <i_epik_Tot_Q>  (112) 
0

>  <i_epik_Tot_abs_Q>  (112) 
0

>  <s_lp_Force_Field>  (112) 
OPLS3e

>  <r_lp_Energy>  (112) 
40.8233

>  <b_lp_Chiralities_Consistent>  (112) 
1

>  <s_lp_Variant>  (112) 
32:0-2

>  <s_i_glide_gridfile>  (112) 
pfpi4k_grid

>  <i_i_glide_lignum>  (112) 
9

>  <i_i_glide_rotatable_bonds>  (112) 
4

>  <r_i_docking_score>  (112) 
-3.39427

>  <r_i_glide_ligand_efficiency>  (112) 
-0.125714

>  <r_i_glide_ligand_efficiency_sa>  (112) 
-0.377141

>  <r_i_glide_ligand_efficiency_ln>  (112) 
-0.79013

>  <r_i_glide_gscore>  (112) 
-3.39427

>  <r_i_glide_lipo>  (112) 
-0.107808

>  <r_i_glide_hbond>  (112) 
-0.390032

>  <r_i_glide_metal>  (112) 
-0

>  <r_i_glide_rewards>  (112) 
-0.969887

>  <r_i_glide_evdw>  (112) 
-25.5991

>  <r_i_glide_ecoul>  (112) 
-6.5056

>  <r_i_glide_erotb>  (112) 
0.565122

>  <r_i_glide_esite>  (112) 
-0.235867

>  <r_i_glide_emodel>  (112) 
-35.7045

>  <r_i_glide_energy>  (112) 
-32.1047

>  <r_i_glide_einternal>  (112) 
0.159446

>  <r_i_glide_intrahb_reward>  (112) 
-0

>  <i_i_glide_confnum>  (112) 
1

>  <i_i_glide_posenum>  (112) 
1

>  <r_i_glide_eff_state_penalty>  (112) 
0

>  <ligand_id>  (112) 
32

>  <original_smiles>  (112) 
O=C(C1CCOCC1)N1C2CCC1CC(n1nnnc1-c1ccncn1)C2

>  <smiles>  (112) 
[H]c1nc([H])c([H])c(-c2nnnn2C2([H])C([H])([H])C3([H])N(C(=O)C4([H])C([H])([H])C([H])([H])OC([H])([H])C4([H])[H])C([H])(C([H])([H])C3([H])[H])C2([H])[H])n1

$$$$
32:1:1
     RDKit          3D

 50 54  0  0  1  0  0  0  0  0999 V2000
    2.5305   -3.1354   -1.0994 O   0  0  0  0  0  0  0  0  0  0  0  0
    3.6755   -3.3684   -0.7113 C   0  0  0  0  0  0  0  0  0  0  0  0
    4.9189   -2.8818   -1.4659 C   0  0  0  0  0  0  0  0  0  0  0  0
    4.8644   -1.3852   -1.7892 C   0  0  0  0  0  0  0  0  0  0  0  0
    3.8406   -1.0815   -2.8937 C   0  0  0  0  0  0  0  0  0  0  0  0
    4.1495   -1.8633   -4.0436 O   0  0  0  0  0  0  0  0  0  0  0  0
    4.0566   -3.2725   -3.8043 C   0  0  0  0  0  0  0  0  0  0  0  0
    5.0941   -3.6886   -2.7610 C   0  0  0  0  0  0  0  0  0  0  0  0
    3.8462   -4.0749    0.4337 N   0  0  0  0  0  0  0  0  0  0  0  0
    5.0465   -4.6940    1.0120 C   0  0  1  0  0  0  0  0  0  0  0  0
    4.8765   -4.3216    2.4879 C   0  0  0  0  0  0  0  0  0  0  0  0
    3.3610   -4.2476    2.7201 C   0  0  0  0  0  0  0  0  0  0  0  0
    2.7697   -4.4749    1.3039 C   0  0  2  0  0  0  0  0  0  0  0  0
    2.5093   -5.9175    0.9530 C   0  0  0  0  0  0  0  0  0  0  0  0
    3.6833   -6.8939    1.2340 C   0  0  2  0  0  0  0  0  0  0  0  0
    3.8314   -7.2753    2.6714 N   0  0  0  0  0  0  0  0  0  0  0  0
    5.0631   -7.3274    3.2406 N   0  0  0  0  0  0  0  0  0  0  0  0
    4.8619   -7.4223    4.5311 N   0  0  0  0  0  0  0  0  0  0  0  0
    3.5401   -7.6466    4.7874 N   0  0  0  0  0  0  0  0  0  0  0  0
    2.9323   -7.6607    3.6081 C   0  0  0  0  0  0  0  0  0  0  0  0
    1.5110   -7.9933    3.4424 C   0  0  0  0  0  0  0  0  0  0  0  0
    0.7235   -8.4157    4.5250 C   0  0  0  0  0  0  0  0  0  0  0  0
   -0.6401   -8.6339    4.2777 C   0  0  0  0  0  0  0  0  0  0  0  0
   -1.2053   -8.3540    3.0975 N   0  0  0  0  0  0  0  0  0  0  0  0
   -0.4049   -8.0348    2.1083 C   0  0  0  0  0  0  0  0  0  0  0  0
    0.8858   -7.9290    2.2206 N   0  0  0  0  0  0  0  0  0  0  0  0
    4.9728   -6.2131    0.6664 C   0  0  0  0  0  0  0  0  0  0  0  0
    5.8052   -2.9968   -0.8568 H   0  0  0  0  0  0  0  0  0  0  0  0
    4.6462   -0.8048   -0.8838 H   0  0  0  0  0  0  0  0  0  0  0  0
    5.8469   -1.0584   -2.1088 H   0  0  0  0  0  0  0  0  0  0  0  0
    2.8299   -1.2748   -2.5538 H   0  0  0  0  0  0  0  0  0  0  0  0
    3.8583   -0.0201   -3.1394 H   0  0  0  0  0  0  0  0  0  0  0  0
    3.0471   -3.5439   -3.4912 H   0  0  0  0  0  0  0  0  0  0  0  0
    4.2313   -3.8110   -4.7264 H   0  0  0  0  0  0  0  0  0  0  0  0
    6.1049   -3.5482   -3.1470 H   0  0  0  0  0  0  0  0  0  0  0  0
    5.0215   -4.7631   -2.5559 H   0  0  0  0  0  0  0  0  0  0  0  0
    5.9702   -4.2910    0.6454 H   0  0  0  0  0  0  0  0  0  0  0  0
    5.3960   -5.0103    3.1486 H   0  0  0  0  0  0  0  0  0  0  0  0
    5.3292   -3.3715    2.7063 H   0  0  0  0  0  0  0  0  0  0  0  0
    2.9794   -4.9596    3.4510 H   0  0  0  0  0  0  0  0  0  0  0  0
    3.0882   -3.2643    3.1000 H   0  0  0  0  0  0  0  0  0  0  0  0
    1.8422   -3.8950    1.1945 H   0  0  0  0  0  0  0  0  0  0  0  0
    1.6869   -5.9612    1.6661 H   0  0  0  0  0  0  0  0  0  0  0  0
    2.0825   -6.0834   -0.0177 H   0  0  0  0  0  0  0  0  0  0  0  0
    3.5434   -7.8544    0.7328 H   0  0  0  0  0  0  0  0  0  0  0  0
    1.1726   -8.5897    5.4894 H   0  0  0  0  0  0  0  0  0  0  0  0
   -1.2834   -9.0496    5.0745 H   0  0  0  0  0  0  0  0  0  0  0  0
   -0.8299   -7.7212    1.1955 H   0  0  0  0  0  0  0  0  0  0  0  0
    4.9942   -6.3391   -0.4240 H   0  0  0  0  0  0  0  0  0  0  0  0
    5.9011   -6.6977    1.0007 H   0  0  0  0  0  0  0  0  0  0  0  0
  1  2  2  0
  2  3  1  0
  2  9  1  0
  3  8  1  0
  3  4  1  0
  3 28  1  0
  4  5  1  0
  4 29  1  0
  4 30  1  0
  5  6  1  0
  5 31  1  0
  5 32  1  0
  6  7  1  0
  7  8  1  0
  7 33  1  0
  7 34  1  0
  8 35  1  0
  8 36  1  0
  9 13  1  0
  9 10  1  0
 10 27  1  0
 10 11  1  0
 10 37  1  6
 11 12  1  0
 11 38  1  0
 11 39  1  0
 12 13  1  0
 12 40  1  0
 12 41  1  0
 13 14  1  0
 13 42  1  6
 14 15  1  0
 14 43  1  0
 14 44  1  0
 15 16  1  0
 15 27  1  0
 15 45  1  6
 16 20  1  0
 16 17  1  0
 17 18  2  0
 18 19  1  0
 19 20  2  0
 20 21  1  0
 21 26  1  0
 21 22  2  0
 22 23  1  0
 22 46  1  0
 23 24  2  0
 23 47  1  0
 24 25  1  0
 25 26  2  0
 25 48  1  0
 27 49  1  0
 27 50  1  0
M  END
>  <i_m_ct_stereo_status>  (113) 
1

>  <s_m_source_file>  (113) 
/var/tmp/pbs.5076255.sched01/tmp3npnc3rz/42_8qtnw6u.sdf

>  <i_m_source_file_index>  (113) 
9

>  <i_lp_mmshare_version>  (113) 
48012

>  <i_f3d_flags>  (113) 
0

>  <s_epik_input>  (113) 
W0NIMl0xW0NIMl1PW0NIMl1bQ0gyXVtDSF0xQyg9TylOKFtDQEBIXTIzKVtDQEhdKFtDSDJdW0NIMl0yKVtDSDJdW0NASF0oW0NIMl0zKW40bm5uYzQtYzVbY0hdW2NIXW5bY0hdbjU=

>  <s_epik_cmdline>  (113) 
J2VwaWtfcHl0aG9uJywgJy1waHQnLCAnMi4wJywgJy1waCcsICc3LjAnLCAnLXRuJywgJzgnLCAnLW1hJywgJzIwMCcsICctaW1hZScsICc8aW5maWxlLm1hZT4nLCAnLW9tYWUnLCAnPG91dGZpbGUubWFlPic=

>  <r_lp_tautomer_probability>  (113) 
1

>  <r_epik_Ionization_Penalty>  (113) 
1.1477e-07

>  <r_epik_Ionization_Penalty_Charging>  (113) 
0

>  <r_epik_Ionization_Penalty_Neutral>  (113) 
1.1477e-07

>  <r_epik_State_Penalty>  (113) 
-0

>  <r_epik_Charging_Adjusted_Penalty>  (113) 
0

>  <i_epik_Tot_Q>  (113) 
0

>  <i_epik_Tot_abs_Q>  (113) 
0

>  <s_lp_Force_Field>  (113) 
OPLS3e

>  <r_lp_Energy>  (113) 
40.8233

>  <b_lp_Chiralities_Consistent>  (113) 
1

>  <s_lp_Variant>  (113) 
32:0-2

>  <s_i_glide_gridfile>  (113) 
pfpi4k_grid

>  <i_i_glide_lignum>  (113) 
9

>  <i_i_glide_rotatable_bonds>  (113) 
4

>  <r_i_docking_score>  (113) 
-3.06154

>  <r_i_glide_ligand_efficiency>  (113) 
-0.11339

>  <r_i_glide_ligand_efficiency_sa>  (113) 
-0.340171

>  <r_i_glide_ligand_efficiency_ln>  (113) 
-0.712676

>  <r_i_glide_gscore>  (113) 
-3.06154

>  <r_i_glide_lipo>  (113) 
-0.492271

>  <r_i_glide_hbond>  (113) 
-0.211233

>  <r_i_glide_metal>  (113) 
-0

>  <r_i_glide_rewards>  (113) 
-0.980918

>  <r_i_glide_evdw>  (113) 
-35.1196

>  <r_i_glide_ecoul>  (113) 
-1.64107

>  <r_i_glide_erotb>  (113) 
0.565122

>  <r_i_glide_esite>  (113) 
-0.0676928

>  <r_i_glide_emodel>  (113) 
-39.056

>  <r_i_glide_energy>  (113) 
-36.7606

>  <r_i_glide_einternal>  (113) 
0.591749

>  <r_i_glide_intrahb_reward>  (113) 
-0

>  <i_i_glide_confnum>  (113) 
5

>  <i_i_glide_posenum>  (113) 
4

>  <r_i_glide_eff_state_penalty>  (113) 
0

>  <ligand_id>  (113) 
32

>  <original_smiles>  (113) 
O=C(C1CCOCC1)N1C2CCC1CC(n1nnnc1-c1ccncn1)C2

>  <smiles>  (113) 
[H]c1nc([H])c([H])c(-c2nnnn2C2([H])C([H])([H])C3([H])N(C(=O)C4([H])C([H])([H])C([H])([H])OC([H])([H])C4([H])[H])C([H])(C([H])([H])C3([H])[H])C2([H])[H])n1

$$$$
32:1:2
     RDKit          3D

 50 54  0  0  1  0  0  0  0  0999 V2000
    0.8803   -1.6700    5.4598 O   0  0  0  0  0  0  0  0  0  0  0  0
    1.2646   -0.7294    4.7828 C   0  0  0  0  0  0  0  0  0  0  0  0
    0.4849    0.6116    4.7380 C   0  0  0  0  0  0  0  0  0  0  0  0
    0.4412    1.2768    6.1227 C   0  0  0  0  0  0  0  0  0  0  0  0
   -0.5123    0.5349    7.0755 C   0  0  0  0  0  0  0  0  0  0  0  0
   -1.8110    0.4384    6.4812 O   0  0  0  0  0  0  0  0  0  0  0  0
   -1.8324   -0.3033    5.2647 C   0  0  0  0  0  0  0  0  0  0  0  0
   -0.9460    0.3925    4.2177 C   0  0  0  0  0  0  0  0  0  0  0  0
    2.3888   -0.8537    3.9930 N   0  0  0  0  0  0  0  0  0  0  0  0
    3.0653    0.0992    3.1287 C   0  0  1  0  0  0  0  0  0  0  0  0
    4.5432   -0.1421    3.4947 C   0  0  0  0  0  0  0  0  0  0  0  0
    4.5898   -1.6201    3.9378 C   0  0  0  0  0  0  0  0  0  0  0  0
    3.1203   -2.0958    3.8671 C   0  0  2  0  0  0  0  0  0  0  0  0
    2.7184   -2.7039    2.5168 C   0  0  0  0  0  0  0  0  0  0  0  0
    3.0325   -1.7756    1.2897 C   0  0  2  0  0  0  0  0  0  0  0  0
    4.4280   -1.8689    0.8295 N   0  0  0  0  0  0  0  0  0  0  0  0
    5.1574   -0.7870    0.4978 N   0  0  0  0  0  0  0  0  0  0  0  0
    6.3952   -1.1517    0.3770 N   0  0  0  0  0  0  0  0  0  0  0  0
    6.5090   -2.4995    0.5121 N   0  0  0  0  0  0  0  0  0  0  0  0
    5.2615   -2.9584    0.6308 C   0  0  0  0  0  0  0  0  0  0  0  0
    4.9155   -4.3566    0.6725 C   0  0  0  0  0  0  0  0  0  0  0  0
    5.9434   -5.3511    0.7850 C   0  0  0  0  0  0  0  0  0  0  0  0
    5.5360   -6.6730    0.9176 C   0  0  0  0  0  0  0  0  0  0  0  0
    4.2205   -7.0040    0.9441 N   0  0  0  0  0  0  0  0  0  0  0  0
    3.3480   -6.0322    0.7898 C   0  0  0  0  0  0  0  0  0  0  0  0
    3.6319   -4.7557    0.6269 N   0  0  0  0  0  0  0  0  0  0  0  0
    2.6454   -0.2874    1.6703 C   0  0  0  0  0  0  0  0  0  0  0  0
    0.9481    1.3176    4.0517 H   0  0  0  0  0  0  0  0  0  0  0  0
    1.4460    1.3445    6.5458 H   0  0  0  0  0  0  0  0  0  0  0  0
    0.1043    2.3028    5.9924 H   0  0  0  0  0  0  0  0  0  0  0  0
   -0.1244   -0.4544    7.3267 H   0  0  0  0  0  0  0  0  0  0  0  0
   -0.5742    1.0788    8.0203 H   0  0  0  0  0  0  0  0  0  0  0  0
   -1.5132   -1.3294    5.4388 H   0  0  0  0  0  0  0  0  0  0  0  0
   -2.8500   -0.3639    4.8833 H   0  0  0  0  0  0  0  0  0  0  0  0
   -1.3627    1.3640    3.9455 H   0  0  0  0  0  0  0  0  0  0  0  0
   -0.9107   -0.1878    3.2916 H   0  0  0  0  0  0  0  0  0  0  0  0
    2.8269    1.1480    3.3338 H   0  0  0  0  0  0  0  0  0  0  0  0
    5.2200    0.1043    2.6830 H   0  0  0  0  0  0  0  0  0  0  0  0
    4.7857    0.4646    4.3710 H   0  0  0  0  0  0  0  0  0  0  0  0
    5.2296   -2.2444    3.3200 H   0  0  0  0  0  0  0  0  0  0  0  0
    4.9730   -1.7180    4.9617 H   0  0  0  0  0  0  0  0  0  0  0  0
    2.9139   -2.8317    4.6580 H   0  0  0  0  0  0  0  0  0  0  0  0
    3.2583   -3.6335    2.5548 H   0  0  0  0  0  0  0  0  0  0  0  0
    1.6519   -2.9412    2.5087 H   0  0  0  0  0  0  0  0  0  0  0  0
    2.4287   -2.0689    0.4266 H   0  0  0  0  0  0  0  0  0  0  0  0
    6.9794   -5.0732    0.8356 H   0  0  0  0  0  0  0  0  0  0  0  0
    6.2628   -7.4955    0.9300 H   0  0  0  0  0  0  0  0  0  0  0  0
    2.3214   -6.3042    0.9148 H   0  0  0  0  0  0  0  0  0  0  0  0
    1.5567   -0.1864    1.5730 H   0  0  0  0  0  0  0  0  0  0  0  0
    3.0228    0.4643    0.9752 H   0  0  0  0  0  0  0  0  0  0  0  0
  1  2  2  0
  2  3  1  0
  2  9  1  0
  3  8  1  0
  3  4  1  0
  3 28  1  0
  4  5  1  0
  4 29  1  0
  4 30  1  0
  5  6  1  0
  5 31  1  0
  5 32  1  0
  6  7  1  0
  7  8  1  0
  7 33  1  0
  7 34  1  0
  8 35  1  0
  8 36  1  0
  9 13  1  0
  9 10  1  0
 10 27  1  0
 10 11  1  0
 10 37  1  1
 11 12  1  0
 11 38  1  0
 11 39  1  0
 12 13  1  0
 12 40  1  0
 12 41  1  0
 13 14  1  0
 13 42  1  1
 14 15  1  0
 14 43  1  0
 14 44  1  0
 15 16  1  0
 15 27  1  0
 15 45  1  6
 16 20  1  0
 16 17  1  0
 17 18  2  0
 18 19  1  0
 19 20  2  0
 20 21  1  0
 21 26  1  0
 21 22  2  0
 22 23  1  0
 22 46  1  0
 23 24  2  0
 23 47  1  0
 24 25  1  0
 25 26  2  0
 25 48  1  0
 27 49  1  0
 27 50  1  0
M  END
>  <i_m_ct_stereo_status>  (114) 
1

>  <s_m_source_file>  (114) 
/var/tmp/pbs.5076255.sched01/tmp3npnc3rz/42_8qtnw6u.sdf

>  <i_m_source_file_index>  (114) 
9

>  <i_lp_mmshare_version>  (114) 
48012

>  <i_f3d_flags>  (114) 
0

>  <s_epik_input>  (114) 
W0NIMl0xW0NIMl1PW0NIMl1bQ0gyXVtDSF0xQyg9TylOKFtDQEBIXTIzKVtDQEhdKFtDSDJdW0NIMl0yKVtDSDJdW0NASF0oW0NIMl0zKW40bm5uYzQtYzVbY0hdW2NIXW5bY0hdbjU=

>  <s_epik_cmdline>  (114) 
J2VwaWtfcHl0aG9uJywgJy1waHQnLCAnMi4wJywgJy1waCcsICc3LjAnLCAnLXRuJywgJzgnLCAnLW1hJywgJzIwMCcsICctaW1hZScsICc8aW5maWxlLm1hZT4nLCAnLW9tYWUnLCAnPG91dGZpbGUubWFlPic=

>  <r_lp_tautomer_probability>  (114) 
1

>  <r_epik_Ionization_Penalty>  (114) 
1.1477e-07

>  <r_epik_Ionization_Penalty_Charging>  (114) 
0

>  <r_epik_Ionization_Penalty_Neutral>  (114) 
1.1477e-07

>  <r_epik_State_Penalty>  (114) 
-0

>  <r_epik_Charging_Adjusted_Penalty>  (114) 
0

>  <i_epik_Tot_Q>  (114) 
0

>  <i_epik_Tot_abs_Q>  (114) 
0

>  <s_lp_Force_Field>  (114) 
OPLS3e

>  <r_lp_Energy>  (114) 
40.8233

>  <b_lp_Chiralities_Consistent>  (114) 
1

>  <s_lp_Variant>  (114) 
32:0-2

>  <s_i_glide_gridfile>  (114) 
pfpi4k_grid

>  <i_i_glide_lignum>  (114) 
9

>  <i_i_glide_rotatable_bonds>  (114) 
4

>  <r_i_docking_score>  (114) 
-2.81106

>  <r_i_glide_ligand_efficiency>  (114) 
-0.104113

>  <r_i_glide_ligand_efficiency_sa>  (114) 
-0.31234

>  <r_i_glide_ligand_efficiency_ln>  (114) 
-0.654368

>  <r_i_glide_gscore>  (114) 
-2.81106

>  <r_i_glide_lipo>  (114) 
-0.324729

>  <r_i_glide_hbond>  (114) 
-0.16

>  <r_i_glide_metal>  (114) 
-0

>  <r_i_glide_rewards>  (114) 
-0.944729

>  <r_i_glide_evdw>  (114) 
-28.051

>  <r_i_glide_ecoul>  (114) 
-3.60782

>  <r_i_glide_erotb>  (114) 
0.565122

>  <r_i_glide_esite>  (114) 
-0.00299853

>  <r_i_glide_emodel>  (114) 
-35.4875

>  <r_i_glide_energy>  (114) 
-31.6588

>  <r_i_glide_einternal>  (114) 
0.482931

>  <r_i_glide_intrahb_reward>  (114) 
-0

>  <i_i_glide_confnum>  (114) 
1

>  <i_i_glide_posenum>  (114) 
2

>  <r_i_glide_eff_state_penalty>  (114) 
0

>  <ligand_id>  (114) 
32

>  <original_smiles>  (114) 
O=C(C1CCOCC1)N1C2CCC1CC(n1nnnc1-c1ccncn1)C2

>  <smiles>  (114) 
[H]c1nc([H])c([H])c(-c2nnnn2C2([H])C([H])([H])C3([H])N(C(=O)C4([H])C([H])([H])C([H])([H])OC([H])([H])C4([H])[H])C([H])(C([H])([H])C3([H])[H])C2([H])[H])n1

$$$$
33:0:0
     RDKit          3D

 27 28  0  0  1  0  0  0  0  0999 V2000
    3.6651   -0.9825    1.1425 C   0  0  0  0  0  0  0  0  0  0  0  0
    4.5389   -1.8509    0.6067 C   0  0  0  0  0  0  0  0  0  0  0  0
    4.7964   -3.1859    1.1479 C   0  0  0  0  0  0  0  0  0  0  0  0
    4.4387   -3.6254    2.2406 O   0  0  0  0  0  0  0  0  0  0  0  0
    5.5339   -3.8517    0.2330 O   0  0  0  0  0  0  0  0  0  0  0  0
    5.5969   -3.1823   -1.0236 C   0  0  1  0  0  0  0  0  0  0  0  0
    4.4626   -3.7513   -1.9016 C   0  0  0  0  0  0  0  0  0  0  0  0
    3.8074   -2.7715   -2.8680 C   0  0  0  0  0  0  0  0  0  0  0  0
    2.8934   -3.4300   -3.8896 C   0  0  0  0  0  0  0  0  0  0  0  0
    4.0237   -1.4418   -2.8078 C   0  0  0  0  0  0  0  0  0  0  0  0
    3.4242   -0.4408   -3.7845 C   0  0  0  0  0  0  0  0  0  0  0  0
    4.9160   -0.8028   -1.7601 C   0  0  0  0  0  0  0  0  0  0  0  0
    5.3970   -1.7220   -0.6211 C   0  0  1  0  0  0  0  0  0  0  0  0
    3.4897   -0.0079    0.7118 H   0  0  0  0  0  0  0  0  0  0  0  0
    3.1084   -1.2310    2.0362 H   0  0  0  0  0  0  0  0  0  0  0  0
    6.5621   -3.3230   -1.5062 H   0  0  0  0  0  0  0  0  0  0  0  0
    4.8320   -4.6190   -2.4503 H   0  0  0  0  0  0  0  0  0  0  0  0
    3.6534   -4.1153   -1.2652 H   0  0  0  0  0  0  0  0  0  0  0  0
    2.3139   -4.2383   -3.4419 H   0  0  0  0  0  0  0  0  0  0  0  0
    3.4953   -3.8382   -4.7001 H   0  0  0  0  0  0  0  0  0  0  0  0
    2.1554   -2.7497   -4.3078 H   0  0  0  0  0  0  0  0  0  0  0  0
    4.1323    0.3542   -4.0088 H   0  0  0  0  0  0  0  0  0  0  0  0
    2.5491    0.0176   -3.3274 H   0  0  0  0  0  0  0  0  0  0  0  0
    3.1338   -0.8832   -4.7338 H   0  0  0  0  0  0  0  0  0  0  0  0
    5.8000   -0.4709   -2.2997 H   0  0  0  0  0  0  0  0  0  0  0  0
    4.4441    0.0993   -1.3694 H   0  0  0  0  0  0  0  0  0  0  0  0
    6.3451   -1.3302   -0.2521 H   0  0  0  0  0  0  0  0  0  0  0  0
  1  2  2  0
  1 14  1  0
  1 15  1  0
  2 13  1  0
  2  3  1  0
  3  4  2  0
  3  5  1  0
  5  6  1  0
  6 13  1  0
  6  7  1  0
  6 16  1  6
  7  8  1  0
  7 17  1  0
  7 18  1  0
  8  9  1  0
  8 10  2  0
  9 19  1  0
  9 20  1  0
  9 21  1  0
 10 11  1  0
 10 12  1  0
 11 22  1  0
 11 23  1  0
 11 24  1  0
 12 13  1  0
 12 25  1  0
 12 26  1  0
 13 27  1  1
M  END
>  <i_m_ct_stereo_status>  (115) 
1

>  <s_m_source_file>  (115) 
/var/tmp/pbs.5076255.sched01/tmp3npnc3rz/42_8qtnw6u.sdf

>  <i_m_source_file_index>  (115) 
10

>  <i_lp_mmshare_version>  (115) 
48012

>  <i_f3d_flags>  (115) 
0

>  <s_epik_input>  (115) 
Tz1DKE8xKUMoPVtDSDJdKVtDQEBIXShbQ0BASF0xMilbQ0gyXUMoW0NIM10pPUMoW0NIMl0yKVtDSDNd

>  <s_epik_cmdline>  (115) 
J2VwaWtfcHl0aG9uJywgJy1waHQnLCAnMi4wJywgJy1waCcsICc3LjAnLCAnLXRuJywgJzgnLCAnLW1hJywgJzIwMCcsICctaW1hZScsICc8aW5maWxlLm1hZT4nLCAnLW9tYWUnLCAnPG91dGZpbGUubWFlPic=

>  <r_lp_tautomer_probability>  (115) 
1

>  <r_epik_Ionization_Penalty>  (115) 
0

>  <r_epik_Ionization_Penalty_Charging>  (115) 
0

>  <r_epik_Ionization_Penalty_Neutral>  (115) 
0

>  <r_epik_State_Penalty>  (115) 
-0

>  <r_epik_Charging_Adjusted_Penalty>  (115) 
0

>  <i_epik_Tot_Q>  (115) 
0

>  <i_epik_Tot_abs_Q>  (115) 
0

>  <s_epik_Chemistry_Notes>  (115) 
This compound has an ester and may undergo hydrolysis at high or low pH.

>  <s_lp_Force_Field>  (115) 
OPLS3e

>  <r_lp_Energy>  (115) 
14.7055

>  <b_lp_Chiralities_Consistent>  (115) 
1

>  <s_lp_Variant>  (115) 
33:0-1

>  <s_i_glide_gridfile>  (115) 
pfpi4k_grid

>  <i_i_glide_lignum>  (115) 
10

>  <i_i_glide_rotatable_bonds>  (115) 
0

>  <r_i_docking_score>  (115) 
-3.69633

>  <r_i_glide_ligand_efficiency>  (115) 
-0.284333

>  <r_i_glide_ligand_efficiency_sa>  (115) 
-0.668562

>  <r_i_glide_ligand_efficiency_ln>  (115) 
-1.03685

>  <r_i_glide_gscore>  (115) 
-3.69633

>  <r_i_glide_lipo>  (115) 
-0.46387

>  <r_i_glide_hbond>  (115) 
0

>  <r_i_glide_metal>  (115) 
-0

>  <r_i_glide_rewards>  (115) 
-2.23061

>  <r_i_glide_evdw>  (115) 
-18.6218

>  <r_i_glide_ecoul>  (115) 
-0.471736

>  <r_i_glide_erotb>  (115) 
0

>  <r_i_glide_esite>  (115) 
0

>  <r_i_glide_emodel>  (115) 
-23.1406

>  <r_i_glide_energy>  (115) 
-19.0935

>  <r_i_glide_einternal>  (115) 
0

>  <r_i_glide_intrahb_reward>  (115) 
-0

>  <i_i_glide_confnum>  (115) 
2

>  <i_i_glide_posenum>  (115) 
35

>  <r_i_glide_eff_state_penalty>  (115) 
0

>  <ligand_id>  (115) 
33

>  <original_smiles>  (115) 
C=C1C(=O)OC2CC(C)=C(C)CC12

>  <smiles>  (115) 
[H]C([H])=C1C(=O)OC2([H])C([H])([H])C(C([H])([H])[H])=C(C([H])([H])[H])C([H])([H])C12[H]

$$$$
34:0:0
     RDKit          3D

 86 90  0  0  1  0  0  0  0  0999 V2000
    0.1759  -10.4189    2.4304 C   0  0  0  0  0  0  0  0  0  0  0  0
   -0.9257   -9.3830    2.6773 C   0  0  0  0  0  0  0  0  0  0  0  0
   -0.4165   -8.4148    3.5748 O   0  0  0  0  0  0  0  0  0  0  0  0
    0.0378   -7.2059    3.1757 C   0  0  0  0  0  0  0  0  0  0  0  0
   -0.2058   -6.7049    2.0716 O   0  0  0  0  0  0  0  0  0  0  0  0
    0.8139   -6.6271    4.1930 N   0  0  0  0  0  0  0  0  0  0  0  0
    1.5516   -5.3762    3.9257 C   0  0  0  0  0  0  0  0  0  0  0  0
    1.7464   -4.4344    5.1304 C   0  0  0  0  0  0  0  0  0  0  0  0
    2.5450   -3.3220    5.0830 C   0  0  0  0  0  0  0  0  0  0  0  0
    3.0906   -2.8818    3.7925 C   0  0  0  0  0  0  0  0  0  0  0  0
    3.9501   -3.4928    3.1596 O   0  0  0  0  0  0  0  0  0  0  0  0
    2.5624   -1.5479    3.2791 C   0  0  0  0  0  0  0  0  0  0  0  0
    2.0075   -0.6342    4.4195 C   0  0  2  0  0  0  0  0  0  0  0  0
    1.5420    0.8062    3.9163 C   0  0  2  0  0  0  0  0  0  0  0  0
    0.2991    0.5191    3.0203 C   0  0  0  0  0  0  0  0  0  0  0  0
    2.6145    1.5338    3.0494 C   0  0  0  0  0  0  0  0  0  0  0  0
    2.2239    2.9581    2.6222 C   0  0  0  0  0  0  0  0  0  0  0  0
    1.8698    3.8477    3.8174 C   0  0  1  0  0  0  0  0  0  0  0  0
    1.5192    5.1267    3.3261 O   0  0  0  0  0  0  0  0  0  0  0  0
    0.7605    3.2482    4.7280 C   0  0  0  0  0  0  0  0  0  0  0  0
    0.6503    4.1440    5.9934 C   0  0  0  0  0  0  0  0  0  0  0  0
   -0.6340    3.3319    4.0412 C   0  0  0  0  0  0  0  0  0  0  0  0
    1.1346    1.7520    5.1187 C   0  0  2  0  0  0  0  0  0  0  0  0
    2.1989    1.6662    6.2450 C   0  0  0  0  0  0  0  0  0  0  0  0
    2.3596    0.2360    6.7730 C   0  0  0  0  0  0  0  0  0  0  0  0
    2.8869   -0.7784    5.7214 C   0  0  2  0  0  0  0  0  0  0  0  0
    4.3779   -0.3759    5.4587 C   0  0  0  0  0  0  0  0  0  0  0  0
    2.7854   -2.3184    6.2399 C   0  0  2  0  0  0  0  0  0  0  0  0
    4.0974   -2.7719    6.9491 C   0  0  0  0  0  0  0  0  0  0  0  0
    1.6304   -2.5218    7.2661 C   0  0  0  0  0  0  0  0  0  0  0  0
    1.3539   -3.9938    7.6139 C   0  0  0  0  0  0  0  0  0  0  0  0
    0.9589   -4.8410    6.3830 C   0  0  1  0  0  0  0  0  0  0  0  0
   -0.5556   -4.6135    6.1282 C   0  0  0  0  0  0  0  0  0  0  0  0
    1.2712   -6.3302    6.6781 C   0  0  1  0  0  0  0  0  0  0  0  0
    0.5345   -6.7474    7.8287 O   0  0  0  0  0  0  0  0  0  0  0  0
    0.9412   -7.9978    8.3748 C   0  0  0  0  0  0  0  0  0  0  0  0
    0.9649   -7.2785    5.5050 C   0  0  0  0  0  0  0  0  0  0  0  0
   -0.1713  -11.1696    1.7192 H   0  0  0  0  0  0  0  0  0  0  0  0
    0.4769  -10.9309    3.3467 H   0  0  0  0  0  0  0  0  0  0  0  0
    1.0634   -9.9467    2.0067 H   0  0  0  0  0  0  0  0  0  0  0  0
   -1.2762   -8.9507    1.7397 H   0  0  0  0  0  0  0  0  0  0  0  0
   -1.7836   -9.8650    3.1453 H   0  0  0  0  0  0  0  0  0  0  0  0
    2.5337   -5.6652    3.5442 H   0  0  0  0  0  0  0  0  0  0  0  0
    1.0465   -4.8124    3.1380 H   0  0  0  0  0  0  0  0  0  0  0  0
    3.3772   -1.0638    2.7451 H   0  0  0  0  0  0  0  0  0  0  0  0
    1.7925   -1.7901    2.5478 H   0  0  0  0  0  0  0  0  0  0  0  0
    1.0669   -1.1023    4.7162 H   0  0  0  0  0  0  0  0  0  0  0  0
    0.0011    1.3554    2.4000 H   0  0  0  0  0  0  0  0  0  0  0  0
   -0.5674    0.2299    3.6185 H   0  0  0  0  0  0  0  0  0  0  0  0
    0.4690   -0.2787    2.3011 H   0  0  0  0  0  0  0  0  0  0  0  0
    3.5473    1.6267    3.5905 H   0  0  0  0  0  0  0  0  0  0  0  0
    2.8426    0.9569    2.1532 H   0  0  0  0  0  0  0  0  0  0  0  0
    3.0553    3.4178    2.0926 H   0  0  0  0  0  0  0  0  0  0  0  0
    1.4150    2.9307    1.8963 H   0  0  0  0  0  0  0  0  0  0  0  0
    2.7750    3.9763    4.4114 H   0  0  0  0  0  0  0  0  0  0  0  0
    0.9636    5.0159    2.5578 H   0  0  0  0  0  0  0  0  0  0  0  0
    0.0015    3.6959    6.7481 H   0  0  0  0  0  0  0  0  0  0  0  0
    0.2491    5.1311    5.7590 H   0  0  0  0  0  0  0  0  0  0  0  0
    1.6254    4.3291    6.4461 H   0  0  0  0  0  0  0  0  0  0  0  0
   -1.3028    2.5397    4.3787 H   0  0  0  0  0  0  0  0  0  0  0  0
   -0.5717    3.2847    2.9555 H   0  0  0  0  0  0  0  0  0  0  0  0
   -1.1354    4.2766    4.2461 H   0  0  0  0  0  0  0  0  0  0  0  0
    0.2322    1.3283    5.5655 H   0  0  0  0  0  0  0  0  0  0  0  0
    3.1453    2.0937    5.9232 H   0  0  0  0  0  0  0  0  0  0  0  0
    1.8961    2.2526    7.1099 H   0  0  0  0  0  0  0  0  0  0  0  0
    3.0121    0.2408    7.6493 H   0  0  0  0  0  0  0  0  0  0  0  0
    1.3689   -0.0348    7.1378 H   0  0  0  0  0  0  0  0  0  0  0  0
    4.9714   -0.4063    6.3740 H   0  0  0  0  0  0  0  0  0  0  0  0
    4.5011    0.6391    5.1064 H   0  0  0  0  0  0  0  0  0  0  0  0
    4.8784   -1.0120    4.7297 H   0  0  0  0  0  0  0  0  0  0  0  0
    4.3197   -2.1650    7.8270 H   0  0  0  0  0  0  0  0  0  0  0  0
    4.9620   -2.7346    6.2852 H   0  0  0  0  0  0  0  0  0  0  0  0
    4.0626   -3.8108    7.2740 H   0  0  0  0  0  0  0  0  0  0  0  0
    1.8560   -1.9951    8.1950 H   0  0  0  0  0  0  0  0  0  0  0  0
    0.7094   -2.0883    6.8731 H   0  0  0  0  0  0  0  0  0  0  0  0
    2.2174   -4.4287    8.1113 H   0  0  0  0  0  0  0  0  0  0  0  0
    0.5615   -4.0425    8.3607 H   0  0  0  0  0  0  0  0  0  0  0  0
   -1.1560   -4.8532    7.0043 H   0  0  0  0  0  0  0  0  0  0  0  0
   -0.9467   -5.2267    5.3195 H   0  0  0  0  0  0  0  0  0  0  0  0
   -0.7551   -3.5744    5.8660 H   0  0  0  0  0  0  0  0  0  0  0  0
    2.3368   -6.3991    6.9082 H   0  0  0  0  0  0  0  0  0  0  0  0
    0.3300   -8.2265    9.2469 H   0  0  0  0  0  0  0  0  0  0  0  0
    1.9825   -7.9551    8.6904 H   0  0  0  0  0  0  0  0  0  0  0  0
    0.8270   -8.8303    7.6778 H   0  0  0  0  0  0  0  0  0  0  0  0
    0.0374   -7.7913    5.7709 H   0  0  0  0  0  0  0  0  0  0  0  0
    1.7446   -8.0371    5.4434 H   0  0  0  0  0  0  0  0  0  0  0  0
  1  2  1  0
  1 38  1  0
  1 39  1  0
  1 40  1  0
  2  3  1  0
  2 41  1  0
  2 42  1  0
  3  4  1  0
  4  5  2  0
  4  6  1  0
  6 37  1  0
  6  7  1  0
  7  8  1  0
  7 43  1  0
  7 44  1  0
  8 32  1  0
  8  9  2  0
  9 28  1  0
  9 10  1  0
 10 11  2  0
 10 12  1  0
 12 13  1  0
 12 45  1  0
 12 46  1  0
 13 26  1  0
 13 14  1  0
 13 47  1  1
 14 23  1  0
 14 15  1  6
 14 16  1  0
 15 48  1  0
 15 49  1  0
 15 50  1  0
 16 17  1  0
 16 51  1  0
 16 52  1  0
 17 18  1  0
 17 53  1  0
 17 54  1  0
 18 19  1  0
 18 20  1  0
 18 55  1  1
 19 56  1  0
 20 21  1  0
 20 22  1  0
 20 23  1  0
 21 57  1  0
 21 58  1  0
 21 59  1  0
 22 60  1  0
 22 61  1  0
 22 62  1  0
 23 24  1  0
 23 63  1  1
 24 25  1  0
 24 64  1  0
 24 65  1  0
 25 26  1  0
 25 66  1  0
 25 67  1  0
 26 27  1  6
 26 28  1  0
 27 68  1  0
 27 69  1  0
 27 70  1  0
 28 29  1  1
 28 30  1  0
 29 71  1  0
 29 72  1  0
 29 73  1  0
 30 31  1  0
 30 74  1  0
 30 75  1  0
 31 32  1  0
 31 76  1  0
 31 77  1  0
 32 33  1  6
 32 34  1  0
 33 78  1  0
 33 79  1  0
 33 80  1  0
 34 35  1  0
 34 37  1  0
 34 81  1  1
 35 36  1  0
 36 82  1  0
 36 83  1  0
 36 84  1  0
 37 85  1  0
 37 86  1  0
M  END
>  <i_m_ct_stereo_status>  (116) 
1

>  <s_m_source_file>  (116) 
/var/tmp/pbs.5076255.sched01/tmp3npnc3rz/42_8qtnw6u.sdf

>  <i_m_source_file_index>  (116) 
11

>  <i_lp_mmshare_version>  (116) 
48012

>  <i_f3d_flags>  (116) 
0

>  <s_epik_input>  (116) 
W0NIM11bQ0gyXU9DKD1PKU4oW0NIMl0xKVtDSDJdW0NASF0oT1tDSDNdKVtDQEBdKFtDSDNdKShbQ0gyXVtDSDJdMilDMT1DKEMoPU8pW0NIMl0zKVtDQEBdMihbQ0gzXSlbQ0BAXShbQ0gzXSkoW0NASF0zW0NAXTQ1W0NIM10pW0NIMl1bQ0gyXVtDQEhdNUMoW0NIM10pKFtDSDNdKVtDQEhdKFtPSF0pW0NIMl1bQ0gyXTQ=

>  <s_epik_cmdline>  (116) 
J2VwaWtfcHl0aG9uJywgJy1waHQnLCAnMi4wJywgJy1waCcsICc3LjAnLCAnLXRuJywgJzgnLCAnLW1hJywgJzIwMCcsICctaW1hZScsICc8aW5maWxlLm1hZT4nLCAnLW9tYWUnLCAnPG91dGZpbGUubWFlPic=

>  <r_lp_tautomer_probability>  (116) 
1

>  <r_epik_Ionization_Penalty>  (116) 
3.62827e-06

>  <r_epik_Ionization_Penalty_Charging>  (116) 
0

>  <r_epik_Ionization_Penalty_Neutral>  (116) 
3.62827e-06

>  <r_epik_State_Penalty>  (116) 
-0

>  <r_epik_Charging_Adjusted_Penalty>  (116) 
0

>  <i_epik_Tot_Q>  (116) 
0

>  <i_epik_Tot_abs_Q>  (116) 
0

>  <s_epik_Chemistry_Notes>  (116) 
This compound has an ester and may undergo hydrolysis at high or low pH.

>  <s_lp_Force_Field>  (116) 
OPLS3e

>  <r_lp_Energy>  (116) 
104.626

>  <b_lp_Chiralities_Consistent>  (116) 
1

>  <s_lp_Variant>  (116) 
34:0-1

>  <s_i_glide_gridfile>  (116) 
pfpi4k_grid

>  <i_i_glide_lignum>  (116) 
11

>  <i_i_glide_rotatable_bonds>  (116) 
5

>  <r_i_docking_score>  (116) 
-2.73706

>  <r_i_glide_ligand_efficiency>  (116) 
-0.0739745

>  <r_i_glide_ligand_efficiency_sa>  (116) 
-0.246499

>  <r_i_glide_ligand_efficiency_ln>  (116) 
-0.593603

>  <r_i_glide_gscore>  (116) 
-2.73706

>  <r_i_glide_lipo>  (116) 
-0.347449

>  <r_i_glide_hbond>  (116) 
-0.294605

>  <r_i_glide_metal>  (116) 
-0

>  <r_i_glide_rewards>  (116) 
-4.22574e-05

>  <r_i_glide_evdw>  (116) 
-25.3113

>  <r_i_glide_ecoul>  (116) 
-6.0937

>  <r_i_glide_erotb>  (116) 
0.154309

>  <r_i_glide_esite>  (116) 
-0.0696474

>  <r_i_glide_emodel>  (116) 
-35.3983

>  <r_i_glide_energy>  (116) 
-31.405

>  <r_i_glide_einternal>  (116) 
2.51875

>  <r_i_glide_intrahb_reward>  (116) 
-0

>  <i_i_glide_confnum>  (116) 
2

>  <i_i_glide_posenum>  (116) 
1

>  <r_i_glide_eff_state_penalty>  (116) 
0

>  <ligand_id>  (116) 
34

>  <original_smiles>  (116) 
CCOC(=O)N1CC2=C3C(=O)CC4C5(C)CCC(O)C(C)(C)C5CCC4(C)C3(C)CCC2(C)C(OC)C1

>  <smiles>  (116) 
[H]OC1([H])C([H])([H])C([H])([H])C2(C([H])([H])[H])C([H])(C([H])([H])C([H])([H])C3(C([H])([H])[H])C2([H])C([H])([H])C(=O)C2=C4C([H])([H])N(C(=O)OC([H])([H])C([H])([H])[H])C([H])([H])C([H])(OC([H])([H])[H])C4(C([H])([H])[H])C([H])([H])C([H])([H])C23C([H])([H])[H])C1(C([H])([H])[H])C([H])([H])[H]

$$$$
34:0:1
     RDKit          3D

 86 90  0  0  1  0  0  0  0  0999 V2000
    0.1712  -10.4745    2.4769 C   0  0  0  0  0  0  0  0  0  0  0  0
   -0.8879   -9.3959    2.7111 C   0  0  0  0  0  0  0  0  0  0  0  0
   -0.3642   -8.4742    3.6545 O   0  0  0  0  0  0  0  0  0  0  0  0
   -0.1381   -7.1870    3.3483 C   0  0  0  0  0  0  0  0  0  0  0  0
   -0.5310   -6.6536    2.3019 O   0  0  0  0  0  0  0  0  0  0  0  0
    0.6057   -6.5565    4.3702 N   0  0  0  0  0  0  0  0  0  0  0  0
    1.1543   -5.1981    4.1717 C   0  0  0  0  0  0  0  0  0  0  0  0
    1.2988   -4.3273    5.4396 C   0  0  0  0  0  0  0  0  0  0  0  0
    1.9393   -3.1191    5.4453 C   0  0  0  0  0  0  0  0  0  0  0  0
    2.3449   -2.5087    4.1719 C   0  0  0  0  0  0  0  0  0  0  0  0
    3.2347   -2.9481    3.4455 O   0  0  0  0  0  0  0  0  0  0  0  0
    1.6182   -1.2221    3.8001 C   0  0  0  0  0  0  0  0  0  0  0  0
    1.0202   -0.4813    5.0412 C   0  0  2  0  0  0  0  0  0  0  0  0
    0.3414    0.9183    4.6867 C   0  0  2  0  0  0  0  0  0  0  0  0
   -0.9060    0.5340    3.8347 C   0  0  0  0  0  0  0  0  0  0  0  0
    1.2535    1.8434    3.8276 C   0  0  0  0  0  0  0  0  0  0  0  0
    0.6596    3.2331    3.5415 C   0  0  0  0  0  0  0  0  0  0  0  0
    0.2709    3.9747    4.8261 C   0  0  1  0  0  0  0  0  0  0  0  0
   -0.2988    5.2216    4.4646 O   0  0  0  0  0  0  0  0  0  0  0  0
   -0.6919    3.1650    5.7386 C   0  0  0  0  0  0  0  0  0  0  0  0
   -0.8469    3.9356    7.0772 C   0  0  0  0  0  0  0  0  0  0  0  0
   -2.1235    3.1110    5.1324 C   0  0  0  0  0  0  0  0  0  0  0  0
   -0.1089    1.7058    5.9805 C   0  0  2  0  0  0  0  0  0  0  0  0
    1.0225    1.6777    7.0408 C   0  0  0  0  0  0  0  0  0  0  0  0
    1.3999    0.2452    7.4371 C   0  0  0  0  0  0  0  0  0  0  0  0
    1.9891   -0.6053    6.2775 C   0  0  2  0  0  0  0  0  0  0  0  0
    3.3956    0.0145    5.9755 C   0  0  0  0  0  0  0  0  0  0  0  0
    2.1206   -2.1801    6.6688 C   0  0  2  0  0  0  0  0  0  0  0  0
    3.5229   -2.5026    7.2712 C   0  0  0  0  0  0  0  0  0  0  0  0
    1.0697   -2.6133    7.7314 C   0  0  0  0  0  0  0  0  0  0  0  0
    1.0081   -4.1328    7.9682 C   0  0  0  0  0  0  0  0  0  0  0  0
    0.6503   -4.9300    6.6931 C   0  0  1  0  0  0  0  0  0  0  0  0
   -0.8946   -4.8890    6.5417 C   0  0  0  0  0  0  0  0  0  0  0  0
    1.1743   -6.3802    6.8461 C   0  0  1  0  0  0  0  0  0  0  0  0
    0.5710   -6.9787    7.9936 O   0  0  0  0  0  0  0  0  0  0  0  0
    1.1669   -8.2034    8.4099 C   0  0  0  0  0  0  0  0  0  0  0  0
    0.9234   -7.2703    5.6183 C   0  0  0  0  0  0  0  0  0  0  0  0
   -0.1825  -11.1849    1.7283 H   0  0  0  0  0  0  0  0  0  0  0  0
    0.3971  -11.0240    3.3905 H   0  0  0  0  0  0  0  0  0  0  0  0
    1.0998  -10.0410    2.1013 H   0  0  0  0  0  0  0  0  0  0  0  0
   -1.1560   -8.9317    1.7631 H   0  0  0  0  0  0  0  0  0  0  0  0
   -1.7962   -9.8418    3.1201 H   0  0  0  0  0  0  0  0  0  0  0  0
    2.1452   -5.3178    3.7262 H   0  0  0  0  0  0  0  0  0  0  0  0
    0.5410   -4.6495    3.4539 H   0  0  0  0  0  0  0  0  0  0  0  0
    2.3293   -0.5940    3.2688 H   0  0  0  0  0  0  0  0  0  0  0  0
    0.8449   -1.5099    3.0889 H   0  0  0  0  0  0  0  0  0  0  0  0
    0.1704   -1.0943    5.3421 H   0  0  0  0  0  0  0  0  0  0  0  0
   -1.3490    1.3655    3.3006 H   0  0  0  0  0  0  0  0  0  0  0  0
   -1.6901    0.0848    4.4478 H   0  0  0  0  0  0  0  0  0  0  0  0
   -0.6694   -0.1754    3.0474 H   0  0  0  0  0  0  0  0  0  0  0  0
    2.1993    2.0197    4.3245 H   0  0  0  0  0  0  0  0  0  0  0  0
    1.4955    1.3748    2.8744 H   0  0  0  0  0  0  0  0  0  0  0  0
    1.3980    3.8225    2.9961 H   0  0  0  0  0  0  0  0  0  0  0  0
   -0.1943    3.1582    2.8717 H   0  0  0  0  0  0  0  0  0  0  0  0
    1.1891    4.1863    5.3755 H   0  0  0  0  0  0  0  0  0  0  0  0
    0.2568    5.6242    3.8109 H   0  0  0  0  0  0  0  0  0  0  0  0
   -1.3859    3.3458    7.8207 H   0  0  0  0  0  0  0  0  0  0  0  0
   -1.3839    4.8751    6.9496 H   0  0  0  0  0  0  0  0  0  0  0  0
    0.1205    4.2164    7.4953 H   0  0  0  0  0  0  0  0  0  0  0  0
   -2.6422    2.2063    5.4415 H   0  0  0  0  0  0  0  0  0  0  0  0
   -2.1281    3.1538    4.0441 H   0  0  0  0  0  0  0  0  0  0  0  0
   -2.7388    3.9535    5.4462 H   0  0  0  0  0  0  0  0  0  0  0  0
   -0.9205    1.1355    6.4347 H   0  0  0  0  0  0  0  0  0  0  0  0
    1.8837    2.2515    6.7068 H   0  0  0  0  0  0  0  0  0  0  0  0
    0.6984    2.1511    7.9661 H   0  0  0  0  0  0  0  0  0  0  0  0
    2.1003    0.2742    8.2743 H   0  0  0  0  0  0  0  0  0  0  0  0
    0.4784   -0.1824    7.8284 H   0  0  0  0  0  0  0  0  0  0  0  0
    4.0441   -0.0046    6.8533 H   0  0  0  0  0  0  0  0  0  0  0  0
    3.3634    1.0614    5.7030 H   0  0  0  0  0  0  0  0  0  0  0  0
    3.9297   -0.4901    5.1699 H   0  0  0  0  0  0  0  0  0  0  0  0
    3.7192   -1.9387    8.1859 H   0  0  0  0  0  0  0  0  0  0  0  0
    4.3336   -2.2978    6.5694 H   0  0  0  0  0  0  0  0  0  0  0  0
    3.6454   -3.5591    7.5099 H   0  0  0  0  0  0  0  0  0  0  0  0
    1.2827   -2.1350    8.6899 H   0  0  0  0  0  0  0  0  0  0  0  0
    0.0787   -2.2802    7.4240 H   0  0  0  0  0  0  0  0  0  0  0  0
    1.9509   -4.4838    8.3816 H   0  0  0  0  0  0  0  0  0  0  0  0
    0.2773   -4.3446    8.7488 H   0  0  0  0  0  0  0  0  0  0  0  0
   -1.4013   -5.2718    7.4272 H   0  0  0  0  0  0  0  0  0  0  0  0
   -1.2545   -5.4773    5.7000 H   0  0  0  0  0  0  0  0  0  0  0  0
   -1.2449   -3.8690    6.3816 H   0  0  0  0  0  0  0  0  0  0  0  0
    2.2518   -6.3191    7.0171 H   0  0  0  0  0  0  0  0  0  0  0  0
    0.6473   -8.5784    9.2911 H   0  0  0  0  0  0  0  0  0  0  0  0
    2.2125   -8.0493    8.6715 H   0  0  0  0  0  0  0  0  0  0  0  0
    1.1154   -8.9880    7.6531 H   0  0  0  0  0  0  0  0  0  0  0  0
    0.0899   -7.9235    5.8882 H   0  0  0  0  0  0  0  0  0  0  0  0
    1.7943   -7.9057    5.4560 H   0  0  0  0  0  0  0  0  0  0  0  0
  1  2  1  0
  1 38  1  0
  1 39  1  0
  1 40  1  0
  2  3  1  0
  2 41  1  0
  2 42  1  0
  3  4  1  0
  4  5  2  0
  4  6  1  0
  6 37  1  0
  6  7  1  0
  7  8  1  0
  7 43  1  0
  7 44  1  0
  8 32  1  0
  8  9  2  0
  9 28  1  0
  9 10  1  0
 10 11  2  0
 10 12  1  0
 12 13  1  0
 12 45  1  0
 12 46  1  0
 13 26  1  0
 13 14  1  0
 13 47  1  1
 14 23  1  0
 14 15  1  6
 14 16  1  0
 15 48  1  0
 15 49  1  0
 15 50  1  0
 16 17  1  0
 16 51  1  0
 16 52  1  0
 17 18  1  0
 17 53  1  0
 17 54  1  0
 18 19  1  0
 18 20  1  0
 18 55  1  1
 19 56  1  0
 20 21  1  0
 20 22  1  0
 20 23  1  0
 21 57  1  0
 21 58  1  0
 21 59  1  0
 22 60  1  0
 22 61  1  0
 22 62  1  0
 23 24  1  0
 23 63  1  1
 24 25  1  0
 24 64  1  0
 24 65  1  0
 25 26  1  0
 25 66  1  0
 25 67  1  0
 26 27  1  6
 26 28  1  0
 27 68  1  0
 27 69  1  0
 27 70  1  0
 28 29  1  1
 28 30  1  0
 29 71  1  0
 29 72  1  0
 29 73  1  0
 30 31  1  0
 30 74  1  0
 30 75  1  0
 31 32  1  0
 31 76  1  0
 31 77  1  0
 32 33  1  6
 32 34  1  0
 33 78  1  0
 33 79  1  0
 33 80  1  0
 34 35  1  0
 34 37  1  0
 34 81  1  1
 35 36  1  0
 36 82  1  0
 36 83  1  0
 36 84  1  0
 37 85  1  0
 37 86  1  0
M  END
>  <i_m_ct_stereo_status>  (117) 
1

>  <s_m_source_file>  (117) 
/var/tmp/pbs.5076255.sched01/tmp3npnc3rz/42_8qtnw6u.sdf

>  <i_m_source_file_index>  (117) 
11

>  <i_lp_mmshare_version>  (117) 
48012

>  <i_f3d_flags>  (117) 
0

>  <s_epik_input>  (117) 
W0NIM11bQ0gyXU9DKD1PKU4oW0NIMl0xKVtDSDJdW0NASF0oT1tDSDNdKVtDQEBdKFtDSDNdKShbQ0gyXVtDSDJdMilDMT1DKEMoPU8pW0NIMl0zKVtDQEBdMihbQ0gzXSlbQ0BAXShbQ0gzXSkoW0NASF0zW0NAXTQ1W0NIM10pW0NIMl1bQ0gyXVtDQEhdNUMoW0NIM10pKFtDSDNdKVtDQEhdKFtPSF0pW0NIMl1bQ0gyXTQ=

>  <s_epik_cmdline>  (117) 
J2VwaWtfcHl0aG9uJywgJy1waHQnLCAnMi4wJywgJy1waCcsICc3LjAnLCAnLXRuJywgJzgnLCAnLW1hJywgJzIwMCcsICctaW1hZScsICc8aW5maWxlLm1hZT4nLCAnLW9tYWUnLCAnPG91dGZpbGUubWFlPic=

>  <r_lp_tautomer_probability>  (117) 
1

>  <r_epik_Ionization_Penalty>  (117) 
3.62827e-06

>  <r_epik_Ionization_Penalty_Charging>  (117) 
0

>  <r_epik_Ionization_Penalty_Neutral>  (117) 
3.62827e-06

>  <r_epik_State_Penalty>  (117) 
-0

>  <r_epik_Charging_Adjusted_Penalty>  (117) 
0

>  <i_epik_Tot_Q>  (117) 
0

>  <i_epik_Tot_abs_Q>  (117) 
0

>  <s_epik_Chemistry_Notes>  (117) 
This compound has an ester and may undergo hydrolysis at high or low pH.

>  <s_lp_Force_Field>  (117) 
OPLS3e

>  <r_lp_Energy>  (117) 
104.626

>  <b_lp_Chiralities_Consistent>  (117) 
1

>  <s_lp_Variant>  (117) 
34:0-1

>  <s_i_glide_gridfile>  (117) 
pfpi4k_grid

>  <i_i_glide_lignum>  (117) 
11

>  <i_i_glide_rotatable_bonds>  (117) 
5

>  <r_i_docking_score>  (117) 
-2.70221

>  <r_i_glide_ligand_efficiency>  (117) 
-0.0730326

>  <r_i_glide_ligand_efficiency_sa>  (117) 
-0.243361

>  <r_i_glide_ligand_efficiency_ln>  (117) 
-0.586045

>  <r_i_glide_gscore>  (117) 
-2.70221

>  <r_i_glide_lipo>  (117) 
-0.32358

>  <r_i_glide_hbond>  (117) 
-0.16

>  <r_i_glide_metal>  (117) 
-0

>  <r_i_glide_rewards>  (117) 
-0.000139647

>  <r_i_glide_evdw>  (117) 
-24.7037

>  <r_i_glide_ecoul>  (117) 
-7.0997

>  <r_i_glide_erotb>  (117) 
0.154309

>  <r_i_glide_esite>  (117) 
-0.0726543

>  <r_i_glide_emodel>  (117) 
-35.8612

>  <r_i_glide_energy>  (117) 
-31.8034

>  <r_i_glide_einternal>  (117) 
2.64597

>  <r_i_glide_intrahb_reward>  (117) 
-0

>  <i_i_glide_confnum>  (117) 
2

>  <i_i_glide_posenum>  (117) 
10

>  <r_i_glide_eff_state_penalty>  (117) 
0

>  <ligand_id>  (117) 
34

>  <original_smiles>  (117) 
CCOC(=O)N1CC2=C3C(=O)CC4C5(C)CCC(O)C(C)(C)C5CCC4(C)C3(C)CCC2(C)C(OC)C1

>  <smiles>  (117) 
[H]OC1([H])C([H])([H])C([H])([H])C2(C([H])([H])[H])C([H])(C([H])([H])C([H])([H])C3(C([H])([H])[H])C2([H])C([H])([H])C(=O)C2=C4C([H])([H])N(C(=O)OC([H])([H])C([H])([H])[H])C([H])([H])C([H])(OC([H])([H])[H])C4(C([H])([H])[H])C([H])([H])C([H])([H])C23C([H])([H])[H])C1(C([H])([H])[H])C([H])([H])[H]

$$$$
34:0:2
     RDKit          3D

 86 90  0  0  1  0  0  0  0  0999 V2000
    4.0744   -9.2259    0.9471 C   0  0  0  0  0  0  0  0  0  0  0  0
    2.7059   -9.2479    1.6340 C   0  0  0  0  0  0  0  0  0  0  0  0
    2.7162   -8.4223    2.7867 O   0  0  0  0  0  0  0  0  0  0  0  0
    2.7782   -7.0673    2.7122 C   0  0  0  0  0  0  0  0  0  0  0  0
    2.8940   -6.4432    1.6549 O   0  0  0  0  0  0  0  0  0  0  0  0
    2.7180   -6.5097    3.9967 N   0  0  0  0  0  0  0  0  0  0  0  0
    3.0197   -5.0750    4.1812 C   0  0  0  0  0  0  0  0  0  0  0  0
    2.2222   -4.3585    5.2841 C   0  0  0  0  0  0  0  0  0  0  0  0
    2.5004   -3.0800    5.6866 C   0  0  0  0  0  0  0  0  0  0  0  0
    3.4622   -2.2749    4.9215 C   0  0  0  0  0  0  0  0  0  0  0  0
    4.6732   -2.4979    4.8757 O   0  0  0  0  0  0  0  0  0  0  0  0
    2.8776   -1.0686    4.1986 C   0  0  0  0  0  0  0  0  0  0  0  0
    1.5385   -0.5685    4.8330 C   0  0  2  0  0  0  0  0  0  0  0  0
    0.9650    0.7579    4.1565 C   0  0  2  0  0  0  0  0  0  0  0  0
    0.5628    0.3165    2.7186 C   0  0  0  0  0  0  0  0  0  0  0  0
    2.0202    1.8984    4.0388 C   0  0  0  0  0  0  0  0  0  0  0  0
    1.4696    3.2176    3.4671 C   0  0  0  0  0  0  0  0  0  0  0  0
    0.2564    3.7332    4.2615 C   0  0  1  0  0  0  0  0  0  0  0  0
   -0.2227    4.9321    3.6793 O   0  0  0  0  0  0  0  0  0  0  0  0
   -0.8880    2.6911    4.3927 C   0  0  0  0  0  0  0  0  0  0  0  0
   -1.9396    3.2731    5.3784 C   0  0  0  0  0  0  0  0  0  0  0  0
   -1.6421    2.5153    3.0423 C   0  0  0  0  0  0  0  0  0  0  0  0
   -0.3035    1.3118    4.9245 C   0  0  2  0  0  0  0  0  0  0  0  0
   -0.0392    1.3144    6.4531 C   0  0  0  0  0  0  0  0  0  0  0  0
    0.2834   -0.0884    6.9809 C   0  0  0  0  0  0  0  0  0  0  0  0
    1.5871   -0.7050    6.4042 C   0  0  2  0  0  0  0  0  0  0  0  0
    2.7582    0.1333    7.0197 C   0  0  0  0  0  0  0  0  0  0  0  0
    1.7448   -2.2811    6.7781 C   0  0  2  0  0  0  0  0  0  0  0  0
    2.5477   -2.4795    8.1002 C   0  0  0  0  0  0  0  0  0  0  0  0
    0.3675   -2.9818    6.9824 C   0  0  0  0  0  0  0  0  0  0  0  0
    0.4557   -4.5114    7.1168 C   0  0  0  0  0  0  0  0  0  0  0  0
    1.0806   -5.1933    5.8790 C   0  0  1  0  0  0  0  0  0  0  0  0
   -0.0434   -5.3453    4.8189 C   0  0  0  0  0  0  0  0  0  0  0  0
    1.6638   -6.5661    6.3039 C   0  0  1  0  0  0  0  0  0  0  0  0
    0.6186   -7.3706    6.8491 O   0  0  0  0  0  0  0  0  0  0  0  0
    1.0561   -8.5567    7.5038 C   0  0  0  0  0  0  0  0  0  0  0  0
    2.3634   -7.3279    5.1649 C   0  0  0  0  0  0  0  0  0  0  0  0
    4.0717   -9.8552    0.0693 H   0  0  0  0  0  0  0  0  0  0  0  0
    4.8577   -9.5798    1.6177 H   0  0  0  0  0  0  0  0  0  0  0  0
    4.3449   -8.2365    0.5890 H   0  0  0  0  0  0  0  0  0  0  0  0
    1.8967   -8.9667    0.9591 H   0  0  0  0  0  0  0  0  0  0  0  0
    2.4893  -10.2667    1.9588 H   0  0  0  0  0  0  0  0  0  0  0  0
    4.0853   -4.9993    4.4095 H   0  0  0  0  0  0  0  0  0  0  0  0
    2.8491   -4.5398    3.2451 H   0  0  0  0  0  0  0  0  0  0  0  0
    3.6359   -0.2891    4.2107 H   0  0  0  0  0  0  0  0  0  0  0  0
    2.7404   -1.3748    3.1627 H   0  0  0  0  0  0  0  0  0  0  0  0
    0.8019   -1.3237    4.5520 H   0  0  0  0  0  0  0  0  0  0  0  0
    0.3820    1.1353    2.0328 H   0  0  0  0  0  0  0  0  0  0  0  0
   -0.3439   -0.2848    2.7446 H   0  0  0  0  0  0  0  0  0  0  0  0
    1.3279   -0.2722    2.2169 H   0  0  0  0  0  0  0  0  0  0  0  0
    2.4357    2.1386    5.0088 H   0  0  0  0  0  0  0  0  0  0  0  0
    2.8597    1.5802    3.4203 H   0  0  0  0  0  0  0  0  0  0  0  0
    2.2613    3.9670    3.4930 H   0  0  0  0  0  0  0  0  0  0  0  0
    1.2298    3.0971    2.4134 H   0  0  0  0  0  0  0  0  0  0  0  0
    0.6104    3.9938    5.2589 H   0  0  0  0  0  0  0  0  0  0  0  0
   -0.1882    4.8364    2.7279 H   0  0  0  0  0  0  0  0  0  0  0  0
   -2.6962    2.5338    5.6404 H   0  0  0  0  0  0  0  0  0  0  0  0
   -2.4584    4.1338    4.9560 H   0  0  0  0  0  0  0  0  0  0  0  0
   -1.4774    3.6337    6.2983 H   0  0  0  0  0  0  0  0  0  0  0  0
   -2.0800    1.5225    2.9511 H   0  0  0  0  0  0  0  0  0  0  0  0
   -1.0030    2.6824    2.1772 H   0  0  0  0  0  0  0  0  0  0  0  0
   -2.4575    3.2295    2.9254 H   0  0  0  0  0  0  0  0  0  0  0  0
   -1.1046    0.5822    4.7874 H   0  0  0  0  0  0  0  0  0  0  0  0
    0.7303    2.0374    6.7145 H   0  0  0  0  0  0  0  0  0  0  0  0
   -0.9256    1.6270    7.0008 H   0  0  0  0  0  0  0  0  0  0  0  0
    0.3312   -0.0651    8.0718 H   0  0  0  0  0  0  0  0  0  0  0  0
   -0.5902   -0.6853    6.7250 H   0  0  0  0  0  0  0  0  0  0  0  0
    2.7502    0.0991    8.1107 H   0  0  0  0  0  0  0  0  0  0  0  0
    2.7038    1.1900    6.7960 H   0  0  0  0  0  0  0  0  0  0  0  0
    3.7452   -0.1945    6.6946 H   0  0  0  0  0  0  0  0  0  0  0  0
    2.0584   -2.0071    8.9531 H   0  0  0  0  0  0  0  0  0  0  0  0
    3.5620   -2.0835    8.0319 H   0  0  0  0  0  0  0  0  0  0  0  0
    2.6938   -3.5295    8.3504 H   0  0  0  0  0  0  0  0  0  0  0  0
   -0.1181   -2.5967    7.8792 H   0  0  0  0  0  0  0  0  0  0  0  0
   -0.2892   -2.7547    6.1419 H   0  0  0  0  0  0  0  0  0  0  0  0
    1.0136   -4.7760    8.0121 H   0  0  0  0  0  0  0  0  0  0  0  0
   -0.5422   -4.9146    7.2923 H   0  0  0  0  0  0  0  0  0  0  0  0
   -0.8997   -5.8959    5.2097 H   0  0  0  0  0  0  0  0  0  0  0  0
    0.2734   -5.8601    3.9134 H   0  0  0  0  0  0  0  0  0  0  0  0
   -0.3899   -4.3644    4.5013 H   0  0  0  0  0  0  0  0  0  0  0  0
    2.3987   -6.3767    7.0895 H   0  0  0  0  0  0  0  0  0  0  0  0
    0.1923   -9.0998    7.8856 H   0  0  0  0  0  0  0  0  0  0  0  0
    1.7039   -8.3084    8.3433 H   0  0  0  0  0  0  0  0  0  0  0  0
    1.5950   -9.2411    6.8460 H   0  0  0  0  0  0  0  0  0  0  0  0
    1.6631   -8.1082    4.8556 H   0  0  0  0  0  0  0  0  0  0  0  0
    3.2543   -7.8258    5.5525 H   0  0  0  0  0  0  0  0  0  0  0  0
  1  2  1  0
  1 38  1  0
  1 39  1  0
  1 40  1  0
  2  3  1  0
  2 41  1  0
  2 42  1  0
  3  4  1  0
  4  5  2  0
  4  6  1  0
  6 37  1  0
  6  7  1  0
  7  8  1  0
  7 43  1  0
  7 44  1  0
  8 32  1  0
  8  9  2  0
  9 28  1  0
  9 10  1  0
 10 11  2  0
 10 12  1  0
 12 13  1  0
 12 45  1  0
 12 46  1  0
 13 26  1  0
 13 14  1  0
 13 47  1  6
 14 23  1  0
 14 15  1  6
 14 16  1  0
 15 48  1  0
 15 49  1  0
 15 50  1  0
 16 17  1  0
 16 51  1  0
 16 52  1  0
 17 18  1  0
 17 53  1  0
 17 54  1  0
 18 19  1  0
 18 20  1  0
 18 55  1  1
 19 56  1  0
 20 21  1  0
 20 22  1  0
 20 23  1  0
 21 57  1  0
 21 58  1  0
 21 59  1  0
 22 60  1  0
 22 61  1  0
 22 62  1  0
 23 24  1  0
 23 63  1  1
 24 25  1  0
 24 64  1  0
 24 65  1  0
 25 26  1  0
 25 66  1  0
 25 67  1  0
 26 27  1  1
 26 28  1  0
 27 68  1  0
 27 69  1  0
 27 70  1  0
 28 29  1  1
 28 30  1  0
 29 71  1  0
 29 72  1  0
 29 73  1  0
 30 31  1  0
 30 74  1  0
 30 75  1  0
 31 32  1  0
 31 76  1  0
 31 77  1  0
 32 33  1  6
 32 34  1  0
 33 78  1  0
 33 79  1  0
 33 80  1  0
 34 35  1  0
 34 37  1  0
 34 81  1  1
 35 36  1  0
 36 82  1  0
 36 83  1  0
 36 84  1  0
 37 85  1  0
 37 86  1  0
M  END
>  <i_m_ct_stereo_status>  (118) 
1

>  <s_m_source_file>  (118) 
/var/tmp/pbs.5076255.sched01/tmp3npnc3rz/42_8qtnw6u.sdf

>  <i_m_source_file_index>  (118) 
11

>  <i_lp_mmshare_version>  (118) 
48012

>  <i_f3d_flags>  (118) 
0

>  <s_epik_input>  (118) 
W0NIM11bQ0gyXU9DKD1PKU4oW0NIMl0xKVtDSDJdW0NASF0oT1tDSDNdKVtDQEBdKFtDSDNdKShbQ0gyXVtDSDJdMilDMT1DKEMoPU8pW0NIMl0zKVtDQEBdMihbQ0gzXSlbQ0BAXShbQ0gzXSkoW0NASF0zW0NAXTQ1W0NIM10pW0NIMl1bQ0gyXVtDQEhdNUMoW0NIM10pKFtDSDNdKVtDQEhdKFtPSF0pW0NIMl1bQ0gyXTQ=

>  <s_epik_cmdline>  (118) 
J2VwaWtfcHl0aG9uJywgJy1waHQnLCAnMi4wJywgJy1waCcsICc3LjAnLCAnLXRuJywgJzgnLCAnLW1hJywgJzIwMCcsICctaW1hZScsICc8aW5maWxlLm1hZT4nLCAnLW9tYWUnLCAnPG91dGZpbGUubWFlPic=

>  <r_lp_tautomer_probability>  (118) 
1

>  <r_epik_Ionization_Penalty>  (118) 
3.62827e-06

>  <r_epik_Ionization_Penalty_Charging>  (118) 
0

>  <r_epik_Ionization_Penalty_Neutral>  (118) 
3.62827e-06

>  <r_epik_State_Penalty>  (118) 
-0

>  <r_epik_Charging_Adjusted_Penalty>  (118) 
0

>  <i_epik_Tot_Q>  (118) 
0

>  <i_epik_Tot_abs_Q>  (118) 
0

>  <s_epik_Chemistry_Notes>  (118) 
This compound has an ester and may undergo hydrolysis at high or low pH.

>  <s_lp_Force_Field>  (118) 
OPLS3e

>  <r_lp_Energy>  (118) 
104.626

>  <b_lp_Chiralities_Consistent>  (118) 
1

>  <s_lp_Variant>  (118) 
34:0-1

>  <s_i_glide_gridfile>  (118) 
pfpi4k_grid

>  <i_i_glide_lignum>  (118) 
11

>  <i_i_glide_rotatable_bonds>  (118) 
5

>  <r_i_docking_score>  (118) 
-1.87353

>  <r_i_glide_ligand_efficiency>  (118) 
-0.050636

>  <r_i_glide_ligand_efficiency_sa>  (118) 
-0.16873

>  <r_i_glide_ligand_efficiency_ln>  (118) 
-0.406325

>  <r_i_glide_gscore>  (118) 
-1.87353

>  <r_i_glide_lipo>  (118) 
0

>  <r_i_glide_hbond>  (118) 
-0.157611

>  <r_i_glide_metal>  (118) 
-0

>  <r_i_glide_rewards>  (118) 
0

>  <r_i_glide_evdw>  (118) 
-23.0375

>  <r_i_glide_ecoul>  (118) 
-4.76843

>  <r_i_glide_erotb>  (118) 
0.154309

>  <r_i_glide_esite>  (118) 
-0.00308821

>  <r_i_glide_emodel>  (118) 
-30.2582

>  <r_i_glide_energy>  (118) 
-27.8059

>  <r_i_glide_einternal>  (118) 
2.01467

>  <r_i_glide_intrahb_reward>  (118) 
-0

>  <i_i_glide_confnum>  (118) 
2

>  <i_i_glide_posenum>  (118) 
21

>  <r_i_glide_eff_state_penalty>  (118) 
0

>  <ligand_id>  (118) 
34

>  <original_smiles>  (118) 
CCOC(=O)N1CC2=C3C(=O)CC4C5(C)CCC(O)C(C)(C)C5CCC4(C)C3(C)CCC2(C)C(OC)C1

>  <smiles>  (118) 
[H]OC1([H])C([H])([H])C([H])([H])C2(C([H])([H])[H])C([H])(C([H])([H])C([H])([H])C3(C([H])([H])[H])C2([H])C([H])([H])C(=O)C2=C4C([H])([H])N(C(=O)OC([H])([H])C([H])([H])[H])C([H])([H])C([H])(OC([H])([H])[H])C4(C([H])([H])[H])C([H])([H])C([H])([H])C23C([H])([H])[H])C1(C([H])([H])[H])C([H])([H])[H]

$$$$
35:0:0
     RDKit          3D

 59 64  0  0  1  0  0  0  0  0999 V2000
    4.3486   -1.4355   -2.1314 C   0  0  0  0  0  0  0  0  0  0  0  0
    3.8391   -1.8782   -0.7432 C   0  0  2  0  0  0  0  0  0  0  0  0
    4.3049   -0.9272    0.3791 C   0  0  0  0  0  0  0  0  0  0  0  0
    5.8206   -1.0148    0.6090 C   0  0  0  0  0  0  0  0  0  0  0  0
    6.2549   -2.4603    0.9009 C   0  0  0  0  0  0  0  0  0  0  0  0
    5.7643   -3.4409   -0.1731 C   0  0  0  0  0  0  0  0  0  0  0  0
    4.2354   -3.3320   -0.4147 C   0  0  1  0  0  0  0  0  0  0  0  0
    3.5035   -3.7234    0.7466 O   0  0  0  0  0  0  0  0  0  0  0  0
    3.3475   -5.1212    0.8735 C   0  0  2  0  0  0  0  0  0  0  0  0
    2.1930   -5.6979    0.2569 O   0  0  0  0  0  0  0  0  0  0  0  0
    2.1941   -5.6217    1.7022 C   0  0  1  0  0  0  0  0  0  0  0  0
    2.2286   -6.9577    2.4147 C   0  0  1  0  0  0  0  0  0  0  0  0
    1.0702   -7.8536    1.9498 C   0  0  0  0  0  0  0  0  0  0  0  0
    0.9131   -9.0995    2.8194 C   0  0  0  0  0  0  0  0  0  0  0  0
    2.2530   -9.6183    3.3833 C   0  0  1  0  0  0  0  0  0  0  0  0
    2.0941  -11.1092    3.7478 C   0  0  0  0  0  0  0  0  0  0  0  0
    3.4650   -9.2592    2.4634 C   0  0  2  0  0  0  0  0  0  0  0  0
    4.7379   -9.9390    3.0460 C   0  0  0  0  0  0  0  0  0  0  0  0
    6.0823   -9.5814    2.4038 C   0  0  0  0  0  0  0  0  0  0  0  0
    6.2596   -8.0859    2.1206 C   0  0  2  0  0  0  0  0  0  0  0  0
    7.7357   -7.7295    1.8598 C   0  0  0  0  0  0  0  0  0  0  0  0
    5.8543   -7.1938    3.1615 O   0  0  0  0  0  0  0  0  0  0  0  0
    4.3634   -7.2945    3.4714 O   0  0  0  0  0  0  0  0  0  0  0  0
    3.6141   -7.6929    2.3297 C   0  0  2  0  0  0  0  0  0  0  0  0
    4.3502   -7.2805    1.0162 C   0  0  2  0  0  0  0  0  0  0  0  0
    5.5788   -7.9028    0.9121 O   0  0  0  0  0  0  0  0  0  0  0  0
    4.5281   -5.9038    0.9304 O   0  0  0  0  0  0  0  0  0  0  0  0
    5.4334   -1.4777   -2.2164 H   0  0  0  0  0  0  0  0  0  0  0  0
    4.0557   -0.4073   -2.3408 H   0  0  0  0  0  0  0  0  0  0  0  0
    3.9439   -2.0690   -2.9204 H   0  0  0  0  0  0  0  0  0  0  0  0
    2.7479   -1.8463   -0.7752 H   0  0  0  0  0  0  0  0  0  0  0  0
    4.0215    0.0990    0.1440 H   0  0  0  0  0  0  0  0  0  0  0  0
    3.7846   -1.1733    1.3074 H   0  0  0  0  0  0  0  0  0  0  0  0
    6.3406   -0.6376   -0.2696 H   0  0  0  0  0  0  0  0  0  0  0  0
    6.1138   -0.3622    1.4302 H   0  0  0  0  0  0  0  0  0  0  0  0
    7.3411   -2.5100    0.9669 H   0  0  0  0  0  0  0  0  0  0  0  0
    5.8654   -2.7697    1.8703 H   0  0  0  0  0  0  0  0  0  0  0  0
    6.2774   -3.2416   -1.1061 H   0  0  0  0  0  0  0  0  0  0  0  0
    6.0876   -4.4497    0.0748 H   0  0  0  0  0  0  0  0  0  0  0  0
    3.9312   -3.9666   -1.2514 H   0  0  0  0  0  0  0  0  0  0  0  0
    1.5020   -4.8861    2.1131 H   0  0  0  0  0  0  0  0  0  0  0  0
    2.0522   -6.7370    3.4700 H   0  0  0  0  0  0  0  0  0  0  0  0
    0.1299   -7.2915    1.9313 H   0  0  0  0  0  0  0  0  0  0  0  0
    1.2583   -8.1618    0.9227 H   0  0  0  0  0  0  0  0  0  0  0  0
    0.2561   -8.8693    3.6550 H   0  0  0  0  0  0  0  0  0  0  0  0
    0.4086   -9.8830    2.2460 H   0  0  0  0  0  0  0  0  0  0  0  0
    2.4131   -9.0991    4.3295 H   0  0  0  0  0  0  0  0  0  0  0  0
    2.0371  -11.7366    2.8604 H   0  0  0  0  0  0  0  0  0  0  0  0
    1.1780  -11.2757    4.3213 H   0  0  0  0  0  0  0  0  0  0  0  0
    2.9146  -11.4770    4.3672 H   0  0  0  0  0  0  0  0  0  0  0  0
    3.2707   -9.6915    1.4829 H   0  0  0  0  0  0  0  0  0  0  0  0
    4.8115   -9.7193    4.1101 H   0  0  0  0  0  0  0  0  0  0  0  0
    4.6384  -11.0223    2.9594 H   0  0  0  0  0  0  0  0  0  0  0  0
    6.8899   -9.9495    3.0341 H   0  0  0  0  0  0  0  0  0  0  0  0
    6.1800  -10.1200    1.4590 H   0  0  0  0  0  0  0  0  0  0  0  0
    7.8383   -6.6637    1.6521 H   0  0  0  0  0  0  0  0  0  0  0  0
    8.1455   -8.2574    1.0028 H   0  0  0  0  0  0  0  0  0  0  0  0
    8.3562   -7.9539    2.7288 H   0  0  0  0  0  0  0  0  0  0  0  0
    3.8594   -7.6364    0.1336 H   0  0  0  0  0  0  0  0  0  0  0  0
  1  2  1  0
  1 28  1  0
  1 29  1  0
  1 30  1  0
  2  7  1  0
  2  3  1  0
  2 31  1  6
  3  4  1  0
  3 32  1  0
  3 33  1  0
  4  5  1  0
  4 34  1  0
  4 35  1  0
  5  6  1  0
  5 36  1  0
  5 37  1  0
  6  7  1  0
  6 38  1  0
  6 39  1  0
  7  8  1  0
  7 40  1  6
  9  8  1  6
  9 11  1  0
  9 27  1  0
  9 10  1  0
 10 11  1  0
 11 12  1  0
 11 41  1  1
 12 24  1  0
 12 13  1  0
 12 42  1  1
 13 14  1  0
 13 43  1  0
 13 44  1  0
 14 15  1  0
 14 45  1  0
 14 46  1  0
 15 16  1  0
 15 17  1  0
 15 47  1  1
 16 48  1  0
 16 49  1  0
 16 50  1  0
 17 24  1  0
 17 18  1  0
 17 51  1  6
 18 19  1  0
 18 52  1  0
 18 53  1  0
 19 20  1  0
 19 54  1  0
 19 55  1  0
 20 26  1  0
 20 21  1  6
 20 22  1  0
 21 56  1  0
 21 57  1  0
 21 58  1  0
 22 23  1  0
 24 23  1  1
 24 25  1  0
 25 26  1  0
 25 27  1  0
 25 59  1  6
M  END
>  <i_m_ct_stereo_status>  (119) 
1

>  <s_m_source_file>  (119) 
/var/tmp/pbs.5076255.sched01/tmp3npnc3rz/42_8qtnw6u.sdf

>  <i_m_source_file_index>  (119) 
12

>  <i_lp_mmshare_version>  (119) 
48012

>  <i_f3d_flags>  (119) 
0

>  <s_epik_input>  (119) 
W0NIM11bQ0BASF0xW0NIMl1bQ0gyXVtDSDJdW0NIMl1bQ0BIXTFPQyhPMikoW0NAQEhdMltDQEBIXTNbQ0BdNDU2KU9bQ0BIXTZPW0NAQF0oW0NIM10pKE9PNSlbQ0gyXVtDSDJdW0NASF00W0NASF0oW0NIM10pW0NIMl1bQ0gyXTM=

>  <s_epik_cmdline>  (119) 
J2VwaWtfcHl0aG9uJywgJy1waHQnLCAnMi4wJywgJy1waCcsICc3LjAnLCAnLXRuJywgJzgnLCAnLW1hJywgJzIwMCcsICctaW1hZScsICc8aW5maWxlLm1hZT4nLCAnLW9tYWUnLCAnPG91dGZpbGUubWFlPic=

>  <r_lp_tautomer_probability>  (119) 
1

>  <r_epik_Ionization_Penalty>  (119) 
3.93359e-14

>  <r_epik_Ionization_Penalty_Charging>  (119) 
0

>  <r_epik_Ionization_Penalty_Neutral>  (119) 
3.93359e-14

>  <r_epik_State_Penalty>  (119) 
-0

>  <r_epik_Charging_Adjusted_Penalty>  (119) 
0

>  <i_epik_Tot_Q>  (119) 
0

>  <i_epik_Tot_abs_Q>  (119) 
0

>  <s_epik_Chemistry_Notes>  (119) 
This compound contains an acetal/aminal-like group ( X-CH(R)-Y where X, Y are N, S, or O) that may be acid/base labile, releasing an aldehyde.

>  <s_lp_Force_Field>  (119) 
OPLS3e

>  <r_lp_Energy>  (119) 
44.0328

>  <b_lp_Chiralities_Consistent>  (119) 
1

>  <s_lp_Variant>  (119) 
35:0-1

>  <s_i_glide_gridfile>  (119) 
pfpi4k_grid

>  <i_i_glide_lignum>  (119) 
12

>  <i_i_glide_rotatable_bonds>  (119) 
2

>  <r_i_docking_score>  (119) 
-2.84919

>  <r_i_glide_ligand_efficiency>  (119) 
-0.105525

>  <r_i_glide_ligand_efficiency_sa>  (119) 
-0.316576

>  <r_i_glide_ligand_efficiency_ln>  (119) 
-0.663243

>  <r_i_glide_gscore>  (119) 
-2.84919

>  <r_i_glide_lipo>  (119) 
-0.381479

>  <r_i_glide_hbond>  (119) 
0

>  <r_i_glide_metal>  (119) 
-0

>  <r_i_glide_rewards>  (119) 
-1.04984

>  <r_i_glide_evdw>  (119) 
-31.1954

>  <r_i_glide_ecoul>  (119) 
-0.7946

>  <r_i_glide_erotb>  (119) 
0.268039

>  <r_i_glide_esite>  (119) 
-0.00694626

>  <r_i_glide_emodel>  (119) 
-36.8727

>  <r_i_glide_energy>  (119) 
-31.99

>  <r_i_glide_einternal>  (119) 
0.130363

>  <r_i_glide_intrahb_reward>  (119) 
-0

>  <i_i_glide_confnum>  (119) 
1

>  <i_i_glide_posenum>  (119) 
39

>  <r_i_glide_eff_state_penalty>  (119) 
0

>  <ligand_id>  (119) 
35

>  <original_smiles>  (119) 
CC1CCCCC1OC12OC1C1CCC(C)C3CCC4(C)OOC31C(O4)O2

>  <smiles>  (119) 
[H]C([H])([H])C12OOC34C([H])(OC5(OC6([H])C([H])([H])C([H])([H])C([H])([H])C([H])([H])C6([H])C([H])([H])[H])OC5([H])C3([H])C([H])([H])C([H])([H])C([H])(C([H])([H])[H])C4([H])C([H])([H])C1([H])[H])O2

$$$$
35:0:1
     RDKit          3D

 59 64  0  0  1  0  0  0  0  0999 V2000
    3.7884   -2.3541   -1.7894 C   0  0  0  0  0  0  0  0  0  0  0  0
    3.3604   -2.7051   -0.3495 C   0  0  2  0  0  0  0  0  0  0  0  0
    3.9180   -1.6939    0.6749 C   0  0  0  0  0  0  0  0  0  0  0  0
    5.4472   -1.8066    0.8081 C   0  0  0  0  0  0  0  0  0  0  0  0
    5.8690   -3.2451    1.1622 C   0  0  0  0  0  0  0  0  0  0  0  0
    5.2825   -4.2800    0.1870 C   0  0  0  0  0  0  0  0  0  0  0  0
    3.7471   -4.1443    0.0432 C   0  0  1  0  0  0  0  0  0  0  0  0
    3.0854   -4.4421    1.2785 O   0  0  0  0  0  0  0  0  0  0  0  0
    2.8230   -5.8122    1.4372 C   0  0  2  0  0  0  0  0  0  0  0  0
    1.5652   -6.2881    0.8756 O   0  0  0  0  0  0  0  0  0  0  0  0
    1.6420   -6.1728    2.3413 C   0  0  1  0  0  0  0  0  0  0  0  0
    1.5932   -7.4868    3.0776 C   0  0  1  0  0  0  0  0  0  0  0  0
    0.3351   -8.2857    2.6929 C   0  0  0  0  0  0  0  0  0  0  0  0
    0.0990   -9.4768    3.6135 C   0  0  0  0  0  0  0  0  0  0  0  0
    1.4052  -10.1040    4.1396 C   0  0  1  0  0  0  0  0  0  0  0  0
    1.1238  -11.5635    4.5500 C   0  0  0  0  0  0  0  0  0  0  0  0
    2.6152   -9.8865    3.1730 C   0  0  2  0  0  0  0  0  0  0  0  0
    3.8336  -10.6740    3.7318 C   0  0  0  0  0  0  0  0  0  0  0  0
    5.1795  -10.4654    3.0307 C   0  0  0  0  0  0  0  0  0  0  0  0
    5.4881   -9.0010    2.6810 C   0  0  2  0  0  0  0  0  0  0  0  0
    6.9776   -8.8011    2.3592 C   0  0  0  0  0  0  0  0  0  0  0  0
    5.2190   -8.0444    3.7116 O   0  0  0  0  0  0  0  0  0  0  0  0
    3.7373   -7.9757    4.0730 O   0  0  0  0  0  0  0  0  0  0  0  0
    2.9024   -8.3480    2.9872 C   0  0  2  0  0  0  0  0  0  0  0  0
    3.6097   -8.0627    1.6251 C   0  0  2  0  0  0  0  0  0  0  0  0
    4.7837   -8.7708    1.4845 O   0  0  0  0  0  0  0  0  0  0  0  0
    3.8917   -6.7185    1.4415 O   0  0  0  0  0  0  0  0  0  0  0  0
    4.8648   -2.4272   -1.9369 H   0  0  0  0  0  0  0  0  0  0  0  0
    3.4987   -1.3337   -2.0387 H   0  0  0  0  0  0  0  0  0  0  0  0
    3.3196   -3.0200   -2.5114 H   0  0  0  0  0  0  0  0  0  0  0  0
    2.2691   -2.6495   -0.3171 H   0  0  0  0  0  0  0  0  0  0  0  0
    3.6276   -0.6786    0.3956 H   0  0  0  0  0  0  0  0  0  0  0  0
    3.4593   -1.8769    1.6493 H   0  0  0  0  0  0  0  0  0  0  0  0
    5.9195   -1.4968   -0.1241 H   0  0  0  0  0  0  0  0  0  0  0  0
    5.8058   -1.1153    1.5693 H   0  0  0  0  0  0  0  0  0  0  0  0
    6.9563   -3.3197    1.1644 H   0  0  0  0  0  0  0  0  0  0  0  0
    5.5350   -3.4878    2.1709 H   0  0  0  0  0  0  0  0  0  0  0  0
    5.7369   -4.1477   -0.7911 H   0  0  0  0  0  0  0  0  0  0  0  0
    5.5737   -5.2875    0.4815 H   0  0  0  0  0  0  0  0  0  0  0  0
    3.3751   -4.8215   -0.7254 H   0  0  0  0  0  0  0  0  0  0  0  0
    1.0356   -5.3700    2.7300 H   0  0  0  0  0  0  0  0  0  0  0  0
    1.4722   -7.2155    4.1359 H   0  0  0  0  0  0  0  0  0  0  0  0
   -0.5450   -7.6437    2.6905 H   0  0  0  0  0  0  0  0  0  0  0  0
    0.4486   -8.6484    1.6724 H   0  0  0  0  0  0  0  0  0  0  0  0
   -0.5057   -9.1658    4.4694 H   0  0  0  0  0  0  0  0  0  0  0  0
   -0.4991  -10.2249    3.0893 H   0  0  0  0  0  0  0  0  0  0  0  0
    1.6481   -9.5837    5.0655 H   0  0  0  0  0  0  0  0  0  0  0  0
    0.9672  -12.2119    3.6850 H   0  0  0  0  0  0  0  0  0  0  0  0
    0.2286  -11.6227    5.1758 H   0  0  0  0  0  0  0  0  0  0  0  0
    1.9317  -11.9845    5.1562 H   0  0  0  0  0  0  0  0  0  0  0  0
    2.3419  -10.3253    2.2168 H   0  0  0  0  0  0  0  0  0  0  0  0
    3.9689  -10.4340    4.7847 H   0  0  0  0  0  0  0  0  0  0  0  0
    3.6299  -11.7455    3.6853 H   0  0  0  0  0  0  0  0  0  0  0  0
    5.9721  -10.8875    3.6468 H   0  0  0  0  0  0  0  0  0  0  0  0
    5.1925  -11.0441    2.1068 H   0  0  0  0  0  0  0  0  0  0  0  0
    7.1736   -7.7601    2.1014 H   0  0  0  0  0  0  0  0  0  0  0  0
    7.2841   -9.4139    1.5159 H   0  0  0  0  0  0  0  0  0  0  0  0
    7.6075   -9.0498    3.2130 H   0  0  0  0  0  0  0  0  0  0  0  0
    2.9749   -8.4156    0.8326 H   0  0  0  0  0  0  0  0  0  0  0  0
  1  2  1  0
  1 28  1  0
  1 29  1  0
  1 30  1  0
  2  7  1  0
  2  3  1  0
  2 31  1  6
  3  4  1  0
  3 32  1  0
  3 33  1  0
  4  5  1  0
  4 34  1  0
  4 35  1  0
  5  6  1  0
  5 36  1  0
  5 37  1  0
  6  7  1  0
  6 38  1  0
  6 39  1  0
  7  8  1  0
  7 40  1  6
  9  8  1  6
  9 11  1  0
  9 27  1  0
  9 10  1  0
 10 11  1  0
 11 12  1  0
 11 41  1  1
 12 24  1  0
 12 13  1  0
 12 42  1  1
 13 14  1  0
 13 43  1  0
 13 44  1  0
 14 15  1  0
 14 45  1  0
 14 46  1  0
 15 16  1  0
 15 17  1  0
 15 47  1  1
 16 48  1  0
 16 49  1  0
 16 50  1  0
 17 24  1  0
 17 18  1  0
 17 51  1  6
 18 19  1  0
 18 52  1  0
 18 53  1  0
 19 20  1  0
 19 54  1  0
 19 55  1  0
 20 26  1  0
 20 21  1  6
 20 22  1  0
 21 56  1  0
 21 57  1  0
 21 58  1  0
 22 23  1  0
 24 23  1  1
 24 25  1  0
 25 26  1  0
 25 27  1  0
 25 59  1  6
M  END
>  <i_m_ct_stereo_status>  (120) 
1

>  <s_m_source_file>  (120) 
/var/tmp/pbs.5076255.sched01/tmp3npnc3rz/42_8qtnw6u.sdf

>  <i_m_source_file_index>  (120) 
12

>  <i_lp_mmshare_version>  (120) 
48012

>  <i_f3d_flags>  (120) 
0

>  <s_epik_input>  (120) 
W0NIM11bQ0BASF0xW0NIMl1bQ0gyXVtDSDJdW0NIMl1bQ0BIXTFPQyhPMikoW0NAQEhdMltDQEBIXTNbQ0BdNDU2KU9bQ0BIXTZPW0NAQF0oW0NIM10pKE9PNSlbQ0gyXVtDSDJdW0NASF00W0NASF0oW0NIM10pW0NIMl1bQ0gyXTM=

>  <s_epik_cmdline>  (120) 
J2VwaWtfcHl0aG9uJywgJy1waHQnLCAnMi4wJywgJy1waCcsICc3LjAnLCAnLXRuJywgJzgnLCAnLW1hJywgJzIwMCcsICctaW1hZScsICc8aW5maWxlLm1hZT4nLCAnLW9tYWUnLCAnPG91dGZpbGUubWFlPic=

>  <r_lp_tautomer_probability>  (120) 
1

>  <r_epik_Ionization_Penalty>  (120) 
3.93359e-14

>  <r_epik_Ionization_Penalty_Charging>  (120) 
0

>  <r_epik_Ionization_Penalty_Neutral>  (120) 
3.93359e-14

>  <r_epik_State_Penalty>  (120) 
-0

>  <r_epik_Charging_Adjusted_Penalty>  (120) 
0

>  <i_epik_Tot_Q>  (120) 
0

>  <i_epik_Tot_abs_Q>  (120) 
0

>  <s_epik_Chemistry_Notes>  (120) 
This compound contains an acetal/aminal-like group ( X-CH(R)-Y where X, Y are N, S, or O) that may be acid/base labile, releasing an aldehyde.

>  <s_lp_Force_Field>  (120) 
OPLS3e

>  <r_lp_Energy>  (120) 
44.0328

>  <b_lp_Chiralities_Consistent>  (120) 
1

>  <s_lp_Variant>  (120) 
35:0-1

>  <s_i_glide_gridfile>  (120) 
pfpi4k_grid

>  <i_i_glide_lignum>  (120) 
12

>  <i_i_glide_rotatable_bonds>  (120) 
2

>  <r_i_docking_score>  (120) 
-2.69001

>  <r_i_glide_ligand_efficiency>  (120) 
-0.0996298

>  <r_i_glide_ligand_efficiency_sa>  (120) 
-0.29889

>  <r_i_glide_ligand_efficiency_ln>  (120) 
-0.626189

>  <r_i_glide_gscore>  (120) 
-2.69001

>  <r_i_glide_lipo>  (120) 
-0.317915

>  <r_i_glide_hbond>  (120) 
-0.0438673

>  <r_i_glide_metal>  (120) 
-0

>  <r_i_glide_rewards>  (120) 
-0.814942

>  <r_i_glide_evdw>  (120) 
-30.0569

>  <r_i_glide_ecoul>  (120) 
-1.74335

>  <r_i_glide_erotb>  (120) 
0.268039

>  <r_i_glide_esite>  (120) 
-0.0169728

>  <r_i_glide_emodel>  (120) 
-36.497

>  <r_i_glide_energy>  (120) 
-31.8003

>  <r_i_glide_einternal>  (120) 
0.0486341

>  <r_i_glide_intrahb_reward>  (120) 
-0

>  <i_i_glide_confnum>  (120) 
1

>  <i_i_glide_posenum>  (120) 
14

>  <r_i_glide_eff_state_penalty>  (120) 
0

>  <ligand_id>  (120) 
35

>  <original_smiles>  (120) 
CC1CCCCC1OC12OC1C1CCC(C)C3CCC4(C)OOC31C(O4)O2

>  <smiles>  (120) 
[H]C([H])([H])C12OOC34C([H])(OC5(OC6([H])C([H])([H])C([H])([H])C([H])([H])C([H])([H])C6([H])C([H])([H])[H])OC5([H])C3([H])C([H])([H])C([H])([H])C([H])(C([H])([H])[H])C4([H])C([H])([H])C1([H])[H])O2

$$$$
35:0:2
     RDKit          3D

 59 64  0  0  1  0  0  0  0  0999 V2000
    1.9486   -9.9752    2.4785 C   0  0  0  0  0  0  0  0  0  0  0  0
    1.8685   -8.7068    3.3680 C   0  0  2  0  0  0  0  0  0  0  0  0
    0.6570   -8.7466    4.3189 C   0  0  0  0  0  0  0  0  0  0  0  0
   -0.6678   -8.5986    3.5479 C   0  0  0  0  0  0  0  0  0  0  0  0
   -0.6717   -7.3307    2.6773 C   0  0  0  0  0  0  0  0  0  0  0  0
    0.5302   -7.2734    1.7177 C   0  0  0  0  0  0  0  0  0  0  0  0
    1.8411   -7.4329    2.4945 C   0  0  1  0  0  0  0  0  0  0  0  0
    1.9702   -6.2584    3.2933 O   0  0  0  0  0  0  0  0  0  0  0  0
    3.0788   -5.4732    2.9362 C   0  0  2  0  0  0  0  0  0  0  0  0
    2.8572   -4.0478    2.8846 O   0  0  0  0  0  0  0  0  0  0  0  0
    2.9812   -4.7376    1.6024 C   0  0  1  0  0  0  0  0  0  0  0  0
    4.1994   -4.4029    0.7980 C   0  0  1  0  0  0  0  0  0  0  0  0
    4.2525   -2.8826    0.5413 C   0  0  0  0  0  0  0  0  0  0  0  0
    5.3143   -2.4979   -0.4805 C   0  0  0  0  0  0  0  0  0  0  0  0
    6.5332   -3.4403   -0.4539 C   0  0  1  0  0  0  0  0  0  0  0  0
    7.7456   -2.7261   -1.0815 C   0  0  0  0  0  0  0  0  0  0  0  0
    6.7710   -4.0957    0.9492 C   0  0  2  0  0  0  0  0  0  0  0  0
    8.0939   -4.9097    0.8997 C   0  0  0  0  0  0  0  0  0  0  0  0
    8.4325   -5.7658    2.1192 C   0  0  0  0  0  0  0  0  0  0  0  0
    7.2521   -6.5462    2.6981 C   0  0  2  0  0  0  0  0  0  0  0  0
    7.7274   -7.6628    3.6307 C   0  0  0  0  0  0  0  0  0  0  0  0
    6.4040   -7.2076    1.7471 O   0  0  0  0  0  0  0  0  0  0  0  0
    5.7473   -6.2387    0.7780 O   0  0  0  0  0  0  0  0  0  0  0  0
    5.5268   -4.9647    1.3847 C   0  0  2  0  0  0  0  0  0  0  0  0
    5.4228   -5.0889    2.9427 C   0  0  2  0  0  0  0  0  0  0  0  0
    6.5850   -5.5901    3.4905 O   0  0  0  0  0  0  0  0  0  0  0  0
    4.3556   -5.8807    3.3667 O   0  0  0  0  0  0  0  0  0  0  0  0
    1.1117  -10.0524    1.7962 H   0  0  0  0  0  0  0  0  0  0  0  0
    1.9306  -10.8839    3.0857 H   0  0  0  0  0  0  0  0  0  0  0  0
    2.8512   -9.9966    1.8781 H   0  0  0  0  0  0  0  0  0  0  0  0
    2.7694   -8.6787    3.9847 H   0  0  0  0  0  0  0  0  0  0  0  0
    0.6588   -9.6751    4.8918 H   0  0  0  0  0  0  0  0  0  0  0  0
    0.7503   -7.9423    5.0529 H   0  0  0  0  0  0  0  0  0  0  0  0
   -0.8313   -9.4738    2.9191 H   0  0  0  0  0  0  0  0  0  0  0  0
   -1.4995   -8.5757    4.2527 H   0  0  0  0  0  0  0  0  0  0  0  0
   -1.5894   -7.2816    2.0960 H   0  0  0  0  0  0  0  0  0  0  0  0
   -0.6507   -6.4619    3.3367 H   0  0  0  0  0  0  0  0  0  0  0  0
    0.4792   -8.0556    0.9623 H   0  0  0  0  0  0  0  0  0  0  0  0
    0.5170   -6.3328    1.1648 H   0  0  0  0  0  0  0  0  0  0  0  0
    2.6793   -7.4973    1.8008 H   0  0  0  0  0  0  0  0  0  0  0  0
    2.0609   -4.7354    1.0556 H   0  0  0  0  0  0  0  0  0  0  0  0
    4.0441   -4.8808   -0.1759 H   0  0  0  0  0  0  0  0  0  0  0  0
    3.2748   -2.5155    0.2144 H   0  0  0  0  0  0  0  0  0  0  0  0
    4.4703   -2.3841    1.4827 H   0  0  0  0  0  0  0  0  0  0  0  0
    4.8750   -2.5582   -1.4727 H   0  0  0  0  0  0  0  0  0  0  0  0
    5.6194   -1.4555   -0.3374 H   0  0  0  0  0  0  0  0  0  0  0  0
    6.2641   -4.2232   -1.1464 H   0  0  0  0  0  0  0  0  0  0  0  0
    8.1277   -1.9456   -0.4200 H   0  0  0  0  0  0  0  0  0  0  0  0
    7.4660   -2.2622   -2.0307 H   0  0  0  0  0  0  0  0  0  0  0  0
    8.5670   -3.4118   -1.3103 H   0  0  0  0  0  0  0  0  0  0  0  0
    6.8978   -3.2852    1.6645 H   0  0  0  0  0  0  0  0  0  0  0  0
    8.0835   -5.5822    0.0421 H   0  0  0  0  0  0  0  0  0  0  0  0
    8.9329   -4.2328    0.7586 H   0  0  0  0  0  0  0  0  0  0  0  0
    9.2562   -6.4358    1.8754 H   0  0  0  0  0  0  0  0  0  0  0  0
    8.8276   -5.1190    2.9077 H   0  0  0  0  0  0  0  0  0  0  0  0
    6.8726   -8.2046    4.0360 H   0  0  0  0  0  0  0  0  0  0  0  0
    8.3049   -7.2710    4.4700 H   0  0  0  0  0  0  0  0  0  0  0  0
    8.3523   -8.3881    3.1020 H   0  0  0  0  0  0  0  0  0  0  0  0
    5.2961   -4.1022    3.3673 H   0  0  0  0  0  0  0  0  0  0  0  0
  1  2  1  0
  1 28  1  0
  1 29  1  0
  1 30  1  0
  2  7  1  0
  2  3  1  0
  2 31  1  1
  3  4  1  0
  3 32  1  0
  3 33  1  0
  4  5  1  0
  4 34  1  0
  4 35  1  0
  5  6  1  0
  5 36  1  0
  5 37  1  0
  6  7  1  0
  6 38  1  0
  6 39  1  0
  7  8  1  0
  7 40  1  6
  9  8  1  6
  9 11  1  0
  9 27  1  0
  9 10  1  0
 10 11  1  0
 11 12  1  0
 11 41  1  6
 12 24  1  0
 12 13  1  0
 12 42  1  6
 13 14  1  0
 13 43  1  0
 13 44  1  0
 14 15  1  0
 14 45  1  0
 14 46  1  0
 15 16  1  0
 15 17  1  0
 15 47  1  6
 16 48  1  0
 16 49  1  0
 16 50  1  0
 17 24  1  0
 17 18  1  0
 17 51  1  1
 18 19  1  0
 18 52  1  0
 18 53  1  0
 19 20  1  0
 19 54  1  0
 19 55  1  0
 20 26  1  0
 20 21  1  1
 20 22  1  0
 21 56  1  0
 21 57  1  0
 21 58  1  0
 22 23  1  0
 24 23  1  6
 24 25  1  0
 25 26  1  0
 25 27  1  0
 25 59  1  1
M  END
>  <i_m_ct_stereo_status>  (121) 
1

>  <s_m_source_file>  (121) 
/var/tmp/pbs.5076255.sched01/tmp3npnc3rz/42_8qtnw6u.sdf

>  <i_m_source_file_index>  (121) 
12

>  <i_lp_mmshare_version>  (121) 
48012

>  <i_f3d_flags>  (121) 
0

>  <s_epik_input>  (121) 
W0NIM11bQ0BASF0xW0NIMl1bQ0gyXVtDSDJdW0NIMl1bQ0BIXTFPQyhPMikoW0NAQEhdMltDQEBIXTNbQ0BdNDU2KU9bQ0BIXTZPW0NAQF0oW0NIM10pKE9PNSlbQ0gyXVtDSDJdW0NASF00W0NASF0oW0NIM10pW0NIMl1bQ0gyXTM=

>  <s_epik_cmdline>  (121) 
J2VwaWtfcHl0aG9uJywgJy1waHQnLCAnMi4wJywgJy1waCcsICc3LjAnLCAnLXRuJywgJzgnLCAnLW1hJywgJzIwMCcsICctaW1hZScsICc8aW5maWxlLm1hZT4nLCAnLW9tYWUnLCAnPG91dGZpbGUubWFlPic=

>  <r_lp_tautomer_probability>  (121) 
1

>  <r_epik_Ionization_Penalty>  (121) 
3.93359e-14

>  <r_epik_Ionization_Penalty_Charging>  (121) 
0

>  <r_epik_Ionization_Penalty_Neutral>  (121) 
3.93359e-14

>  <r_epik_State_Penalty>  (121) 
-0

>  <r_epik_Charging_Adjusted_Penalty>  (121) 
0

>  <i_epik_Tot_Q>  (121) 
0

>  <i_epik_Tot_abs_Q>  (121) 
0

>  <s_epik_Chemistry_Notes>  (121) 
This compound contains an acetal/aminal-like group ( X-CH(R)-Y where X, Y are N, S, or O) that may be acid/base labile, releasing an aldehyde.

>  <s_lp_Force_Field>  (121) 
OPLS3e

>  <r_lp_Energy>  (121) 
44.0328

>  <b_lp_Chiralities_Consistent>  (121) 
1

>  <s_lp_Variant>  (121) 
35:0-1

>  <s_i_glide_gridfile>  (121) 
pfpi4k_grid

>  <i_i_glide_lignum>  (121) 
12

>  <i_i_glide_rotatable_bonds>  (121) 
2

>  <r_i_docking_score>  (121) 
-2.62024

>  <r_i_glide_ligand_efficiency>  (121) 
-0.097046

>  <r_i_glide_ligand_efficiency_sa>  (121) 
-0.291138

>  <r_i_glide_ligand_efficiency_ln>  (121) 
-0.609949

>  <r_i_glide_gscore>  (121) 
-2.62024

>  <r_i_glide_lipo>  (121) 
-0.532744

>  <r_i_glide_hbond>  (121) 
0

>  <r_i_glide_metal>  (121) 
-0

>  <r_i_glide_rewards>  (121) 
-0.834495

>  <r_i_glide_evdw>  (121) 
-28.7785

>  <r_i_glide_ecoul>  (121) 
-0.545775

>  <r_i_glide_erotb>  (121) 
0.268039

>  <r_i_glide_esite>  (121) 
-0.000250667

>  <r_i_glide_emodel>  (121) 
-32.8037

>  <r_i_glide_energy>  (121) 
-29.3243

>  <r_i_glide_einternal>  (121) 
2.26098

>  <r_i_glide_intrahb_reward>  (121) 
-0

>  <i_i_glide_confnum>  (121) 
3

>  <i_i_glide_posenum>  (121) 
3

>  <r_i_glide_eff_state_penalty>  (121) 
0

>  <ligand_id>  (121) 
35

>  <original_smiles>  (121) 
CC1CCCCC1OC12OC1C1CCC(C)C3CCC4(C)OOC31C(O4)O2

>  <smiles>  (121) 
[H]C([H])([H])C12OOC34C([H])(OC5(OC6([H])C([H])([H])C([H])([H])C([H])([H])C([H])([H])C6([H])C([H])([H])[H])OC5([H])C3([H])C([H])([H])C([H])([H])C([H])(C([H])([H])[H])C4([H])C([H])([H])C1([H])[H])O2

$$$$
35:1:0
     RDKit          3D

 59 64  0  0  1  0  0  0  0  0999 V2000
    1.2101   -2.2822    3.6774 C   0  0  0  0  0  0  0  0  0  0  0  0
    2.4912   -1.9488    2.8873 C   0  0  2  0  0  0  0  0  0  0  0  0
    2.4413   -0.5036    2.3537 C   0  0  0  0  0  0  0  0  0  0  0  0
    3.6918   -0.1459    1.5320 C   0  0  0  0  0  0  0  0  0  0  0  0
    3.8946   -1.1275    0.3753 C   0  0  0  0  0  0  0  0  0  0  0  0
    3.9745   -2.5599    0.8933 C   0  0  0  0  0  0  0  0  0  0  0  0
    2.7272   -2.9298    1.7230 C   0  0  1  0  0  0  0  0  0  0  0  0
    2.9138   -4.2286    2.2631 O   0  0  0  0  0  0  0  0  0  0  0  0
    2.7988   -5.2276    1.2639 C   0  0  2  0  0  0  0  0  0  0  0  0
    4.0816   -5.6025    0.6804 O   0  0  0  0  0  0  0  0  0  0  0  0
    3.4763   -6.5938    1.4504 C   0  0  1  0  0  0  0  0  0  0  0  0
    3.5995   -6.9941    2.8825 C   0  0  1  0  0  0  0  0  0  0  0  0
    4.4176   -6.1167    3.8477 C   0  0  0  0  0  0  0  0  0  0  0  0
    4.5366   -6.7920    5.2106 C   0  0  0  0  0  0  0  0  0  0  0  0
    3.2938   -7.6402    5.5858 C   0  0  1  0  0  0  0  0  0  0  0  0
    3.2033   -7.7470    7.1177 C   0  0  0  0  0  0  0  0  0  0  0  0
    1.9826   -7.1655    4.8654 C   0  0  2  0  0  0  0  0  0  0  0  0
    0.7626   -7.9391    5.3969 C   0  0  0  0  0  0  0  0  0  0  0  0
   -0.5473   -7.7646    4.6159 C   0  0  0  0  0  0  0  0  0  0  0  0
   -0.4284   -8.0496    3.1147 C   0  0  2  0  0  0  0  0  0  0  0  0
   -1.7616   -8.5278    2.5257 C   0  0  0  0  0  0  0  0  0  0  0  0
    0.4950   -9.1093    2.8847 O   0  0  0  0  0  0  0  0  0  0  0  0
    1.9415   -8.6371    2.8484 O   0  0  0  0  0  0  0  0  0  0  0  0
    2.1305   -7.2881    3.3029 C   0  0  2  0  0  0  0  0  0  0  0  0
    1.1214   -6.3189    2.5234 C   0  0  2  0  0  0  0  0  0  0  0  0
   -0.1478   -6.8665    2.3954 O   0  0  0  0  0  0  0  0  0  0  0  0
    1.5742   -5.9566    1.2065 O   0  0  0  0  0  0  0  0  0  0  0  0
    0.3328   -2.2585    3.0318 H   0  0  0  0  0  0  0  0  0  0  0  0
    1.0395   -1.5679    4.4827 H   0  0  0  0  0  0  0  0  0  0  0  0
    1.2590   -3.2727    4.1267 H   0  0  0  0  0  0  0  0  0  0  0  0
    3.3409   -2.0240    3.5673 H   0  0  0  0  0  0  0  0  0  0  0  0
    1.5541   -0.3679    1.7311 H   0  0  0  0  0  0  0  0  0  0  0  0
    2.3501    0.1975    3.1832 H   0  0  0  0  0  0  0  0  0  0  0  0
    3.5997    0.8658    1.1362 H   0  0  0  0  0  0  0  0  0  0  0  0
    4.5719   -0.1587    2.1760 H   0  0  0  0  0  0  0  0  0  0  0  0
    3.0661   -1.0474   -0.3305 H   0  0  0  0  0  0  0  0  0  0  0  0
    4.8045   -0.8910   -0.1767 H   0  0  0  0  0  0  0  0  0  0  0  0
    4.0679   -3.1988    0.0182 H   0  0  0  0  0  0  0  0  0  0  0  0
    4.8704   -2.7014    1.4980 H   0  0  0  0  0  0  0  0  0  0  0  0
    1.8597   -2.9189    1.0690 H   0  0  0  0  0  0  0  0  0  0  0  0
    3.2141   -7.4350    0.8283 H   0  0  0  0  0  0  0  0  0  0  0  0
    4.1363   -7.9469    2.8516 H   0  0  0  0  0  0  0  0  0  0  0  0
    5.4133   -5.9116    3.4353 H   0  0  0  0  0  0  0  0  0  0  0  0
    3.9515   -5.1595    4.0420 H   0  0  0  0  0  0  0  0  0  0  0  0
    5.4061   -7.4402    5.2097 H   0  0  0  0  0  0  0  0  0  0  0  0
    4.7389   -6.0320    5.9804 H   0  0  0  0  0  0  0  0  0  0  0  0
    3.4899   -8.6558    5.2217 H   0  0  0  0  0  0  0  0  0  0  0  0
    2.9386   -6.7905    7.5770 H   0  0  0  0  0  0  0  0  0  0  0  0
    4.1640   -8.0528    7.5375 H   0  0  0  0  0  0  0  0  0  0  0  0
    2.4775   -8.4955    7.4377 H   0  0  0  0  0  0  0  0  0  0  0  0
    1.8484   -6.1106    5.1186 H   0  0  0  0  0  0  0  0  0  0  0  0
    1.0069   -9.0010    5.4355 H   0  0  0  0  0  0  0  0  0  0  0  0
    0.5687   -7.6365    6.4217 H   0  0  0  0  0  0  0  0  0  0  0  0
   -1.2611   -8.4740    5.0363 H   0  0  0  0  0  0  0  0  0  0  0  0
   -0.9723   -6.7726    4.7752 H   0  0  0  0  0  0  0  0  0  0  0  0
   -1.6590   -8.6947    1.4512 H   0  0  0  0  0  0  0  0  0  0  0  0
   -2.5598   -7.8014    2.6760 H   0  0  0  0  0  0  0  0  0  0  0  0
   -2.0719   -9.4742    2.9724 H   0  0  0  0  0  0  0  0  0  0  0  0
    0.9935   -5.4016    3.1023 H   0  0  0  0  0  0  0  0  0  0  0  0
  1  2  1  0
  1 28  1  0
  1 29  1  0
  1 30  1  0
  2  7  1  0
  2  3  1  0
  2 31  1  1
  3  4  1  0
  3 32  1  0
  3 33  1  0
  4  5  1  0
  4 34  1  0
  4 35  1  0
  5  6  1  0
  5 36  1  0
  5 37  1  0
  6  7  1  0
  6 38  1  0
  6 39  1  0
  7  8  1  0
  7 40  1  6
  9  8  1  1
  9 11  1  0
  9 27  1  0
  9 10  1  0
 10 11  1  0
 11 12  1  0
 11 41  1  6
 12 24  1  0
 12 13  1  0
 12 42  1  6
 13 14  1  0
 13 43  1  0
 13 44  1  0
 14 15  1  0
 14 45  1  0
 14 46  1  0
 15 16  1  0
 15 17  1  0
 15 47  1  6
 16 48  1  0
 16 49  1  0
 16 50  1  0
 17 24  1  0
 17 18  1  0
 17 51  1  6
 18 19  1  0
 18 52  1  0
 18 53  1  0
 19 20  1  0
 19 54  1  0
 19 55  1  0
 20 26  1  0
 20 21  1  6
 20 22  1  0
 21 56  1  0
 21 57  1  0
 21 58  1  0
 22 23  1  0
 24 23  1  6
 24 25  1  0
 25 26  1  0
 25 27  1  0
 25 59  1  1
M  END
>  <i_m_ct_stereo_status>  (122) 
1

>  <s_m_source_file>  (122) 
/var/tmp/pbs.5076255.sched01/tmp3npnc3rz/42_8qtnw6u.sdf

>  <i_m_source_file_index>  (122) 
13

>  <i_lp_mmshare_version>  (122) 
48012

>  <i_f3d_flags>  (122) 
0

>  <s_epik_input>  (122) 
W0NIM11bQ0BASF0xW0NIMl1bQ0gyXVtDSDJdW0NIMl1bQ0BIXTFPQyhPMikoW0NAQEhdMltDQEBIXTNbQ0BdNDU2KU9bQ0BIXTZPW0NAQF0oW0NIM10pKE9PNSlbQ0gyXVtDSDJdW0NASF00W0NASF0oW0NIM10pW0NIMl1bQ0gyXTM=

>  <s_epik_cmdline>  (122) 
J2VwaWtfcHl0aG9uJywgJy1waHQnLCAnMi4wJywgJy1waCcsICc3LjAnLCAnLXRuJywgJzgnLCAnLW1hJywgJzIwMCcsICctaW1hZScsICc8aW5maWxlLm1hZT4nLCAnLW9tYWUnLCAnPG91dGZpbGUubWFlPic=

>  <r_lp_tautomer_probability>  (122) 
1

>  <r_epik_Ionization_Penalty>  (122) 
3.93359e-14

>  <r_epik_Ionization_Penalty_Charging>  (122) 
0

>  <r_epik_Ionization_Penalty_Neutral>  (122) 
3.93359e-14

>  <r_epik_State_Penalty>  (122) 
-0

>  <r_epik_Charging_Adjusted_Penalty>  (122) 
0

>  <i_epik_Tot_Q>  (122) 
0

>  <i_epik_Tot_abs_Q>  (122) 
0

>  <s_epik_Chemistry_Notes>  (122) 
This compound contains an acetal/aminal-like group ( X-CH(R)-Y where X, Y are N, S, or O) that may be acid/base labile, releasing an aldehyde.

>  <s_lp_Force_Field>  (122) 
OPLS3e

>  <r_lp_Energy>  (122) 
66.0019

>  <b_lp_Chiralities_Consistent>  (122) 
1

>  <s_lp_Variant>  (122) 
35:0-2

>  <s_i_glide_gridfile>  (122) 
pfpi4k_grid

>  <i_i_glide_lignum>  (122) 
13

>  <i_i_glide_rotatable_bonds>  (122) 
2

>  <r_i_docking_score>  (122) 
-2.85377

>  <r_i_glide_ligand_efficiency>  (122) 
-0.105695

>  <r_i_glide_ligand_efficiency_sa>  (122) 
-0.317086

>  <r_i_glide_ligand_efficiency_ln>  (122) 
-0.664311

>  <r_i_glide_gscore>  (122) 
-2.85377

>  <r_i_glide_lipo>  (122) 
-0.259727

>  <r_i_glide_hbond>  (122) 
-0.218845

>  <r_i_glide_metal>  (122) 
-0

>  <r_i_glide_rewards>  (122) 
-0.814942

>  <r_i_glide_evdw>  (122) 
-26.9067

>  <r_i_glide_ecoul>  (122) 
-2.48241

>  <r_i_glide_erotb>  (122) 
0.268039

>  <r_i_glide_esite>  (122) 
-0.1106

>  <r_i_glide_emodel>  (122) 
-34.3407

>  <r_i_glide_energy>  (122) 
-29.3891

>  <r_i_glide_einternal>  (122) 
0.39553

>  <r_i_glide_intrahb_reward>  (122) 
-0

>  <i_i_glide_confnum>  (122) 
3

>  <i_i_glide_posenum>  (122) 
17

>  <r_i_glide_eff_state_penalty>  (122) 
0

>  <ligand_id>  (122) 
35

>  <original_smiles>  (122) 
CC1CCCCC1OC12OC1C1CCC(C)C3CCC4(C)OOC31C(O4)O2

>  <smiles>  (122) 
[H]C([H])([H])C12OOC34C([H])(OC5(OC6([H])C([H])([H])C([H])([H])C([H])([H])C([H])([H])C6([H])C([H])([H])[H])OC5([H])C3([H])C([H])([H])C([H])([H])C([H])(C([H])([H])[H])C4([H])C([H])([H])C1([H])[H])O2

$$$$
35:1:1
     RDKit          3D

 59 64  0  0  1  0  0  0  0  0999 V2000
    6.6932   -5.8261    0.9193 C   0  0  0  0  0  0  0  0  0  0  0  0
    5.3358   -5.2451    0.4713 C   0  0  2  0  0  0  0  0  0  0  0  0
    5.4958   -3.8627   -0.1708 C   0  0  0  0  0  0  0  0  0  0  0  0
    4.1362   -3.2709   -0.5797 C   0  0  0  0  0  0  0  0  0  0  0  0
    3.1796   -3.1808    0.6167 C   0  0  0  0  0  0  0  0  0  0  0  0
    2.9802   -4.5565    1.2593 C   0  0  0  0  0  0  0  0  0  0  0  0
    4.3338   -5.1918    1.6521 C   0  0  1  0  0  0  0  0  0  0  0  0
    4.1517   -6.4898    2.2095 O   0  0  0  0  0  0  0  0  0  0  0  0
    3.6427   -7.4317    1.2806 C   0  0  2  0  0  0  0  0  0  0  0  0
    4.6522   -8.2226    0.6022 O   0  0  0  0  0  0  0  0  0  0  0  0
    3.7975   -8.9574    1.4223 C   0  0  1  0  0  0  0  0  0  0  0  0
    3.7939   -9.3404    2.8613 C   0  0  1  0  0  0  0  0  0  0  0  0
    4.9095   -8.8165    3.7888 C   0  0  0  0  0  0  0  0  0  0  0  0
    4.8022   -9.4699    5.1663 C   0  0  0  0  0  0  0  0  0  0  0  0
    3.3424   -9.7800    5.5861 C   0  0  1  0  0  0  0  0  0  0  0  0
    3.2594   -9.8250    7.1206 C   0  0  0  0  0  0  0  0  0  0  0  0
    2.2879   -8.8539    4.8856 C   0  0  2  0  0  0  0  0  0  0  0  0
    0.8776   -9.0976    5.4589 C   0  0  0  0  0  0  0  0  0  0  0  0
   -0.2852   -8.4421    4.7020 C   0  0  0  0  0  0  0  0  0  0  0  0
   -0.3290   -8.7784    3.2054 C   0  0  2  0  0  0  0  0  0  0  0  0
   -1.7554   -8.7041    2.6397 C   0  0  0  0  0  0  0  0  0  0  0  0
    0.1109  -10.1091    2.9668 O   0  0  0  0  0  0  0  0  0  0  0  0
    1.6313  -10.2230    2.9076 O   0  0  0  0  0  0  0  0  0  0  0  0
    2.3296   -9.0427    3.3273 C   0  0  2  0  0  0  0  0  0  0  0  0
    1.7386   -7.7680    2.5807 C   0  0  2  0  0  0  0  0  0  0  0  0
    0.3613   -7.7969    2.4735 O   0  0  0  0  0  0  0  0  0  0  0  0
    2.2420   -7.6237    1.2778 O   0  0  0  0  0  0  0  0  0  0  0  0
    7.1469   -5.2161    1.6992 H   0  0  0  0  0  0  0  0  0  0  0  0
    7.3939   -5.8951    0.0886 H   0  0  0  0  0  0  0  0  0  0  0  0
    6.5987   -6.8298    1.3337 H   0  0  0  0  0  0  0  0  0  0  0  0
    4.9302   -5.8639   -0.3297 H   0  0  0  0  0  0  0  0  0  0  0  0
    6.0047   -3.1911    0.5211 H   0  0  0  0  0  0  0  0  0  0  0  0
    6.1250   -3.9554   -1.0563 H   0  0  0  0  0  0  0  0  0  0  0  0
    4.2836   -2.2797   -1.0033 H   0  0  0  0  0  0  0  0  0  0  0  0
    3.6829   -3.8776   -1.3669 H   0  0  0  0  0  0  0  0  0  0  0  0
    3.5736   -2.4860    1.3571 H   0  0  0  0  0  0  0  0  0  0  0  0
    2.2170   -2.7848    0.2945 H   0  0  0  0  0  0  0  0  0  0  0  0
    2.3412   -4.4767    2.1400 H   0  0  0  0  0  0  0  0  0  0  0  0
    2.4472   -5.1833    0.5466 H   0  0  0  0  0  0  0  0  0  0  0  0
    4.7702   -4.5731    2.4368 H   0  0  0  0  0  0  0  0  0  0  0  0
    3.1895   -9.6367    0.8250 H   0  0  0  0  0  0  0  0  0  0  0  0
    3.9249  -10.4253    2.8540 H   0  0  0  0  0  0  0  0  0  0  0  0
    5.8923   -9.0052    3.3492 H   0  0  0  0  0  0  0  0  0  0  0  0
    4.8457   -7.7483    3.9688 H   0  0  0  0  0  0  0  0  0  0  0  0
    5.3619  -10.4031    5.1547 H   0  0  0  0  0  0  0  0  0  0  0  0
    5.2948   -8.8330    5.9095 H   0  0  0  0  0  0  0  0  0  0  0  0
    3.1260  -10.7919    5.2365 H   0  0  0  0  0  0  0  0  0  0  0  0
    3.3890   -8.8332    7.5580 H   0  0  0  0  0  0  0  0  0  0  0  0
    4.0408  -10.4740    7.5200 H   0  0  0  0  0  0  0  0  0  0  0  0
    2.3089  -10.2398    7.4600 H   0  0  0  0  0  0  0  0  0  0  0  0
    2.5690   -7.8266    5.1207 H   0  0  0  0  0  0  0  0  0  0  0  0
    0.6993  -10.1722    5.5040 H   0  0  0  0  0  0  0  0  0  0  0  0
    0.8386   -8.7323    6.4833 H   0  0  0  0  0  0  0  0  0  0  0  0
   -1.2049   -8.8111    5.1503 H   0  0  0  0  0  0  0  0  0  0  0  0
   -0.2918   -7.3599    4.8379 H   0  0  0  0  0  0  0  0  0  0  0  0
   -1.7482   -8.8990    1.5635 H   0  0  0  0  0  0  0  0  0  0  0  0
   -2.2091   -7.7229    2.7967 H   0  0  0  0  0  0  0  0  0  0  0  0
   -2.3885   -9.4588    3.1053 H   0  0  0  0  0  0  0  0  0  0  0  0
    1.9806   -6.8672    3.1373 H   0  0  0  0  0  0  0  0  0  0  0  0
  1  2  1  0
  1 28  1  0
  1 29  1  0
  1 30  1  0
  2  7  1  0
  2  3  1  0
  2 31  1  6
  3  4  1  0
  3 32  1  0
  3 33  1  0
  4  5  1  0
  4 34  1  0
  4 35  1  0
  5  6  1  0
  5 36  1  0
  5 37  1  0
  6  7  1  0
  6 38  1  0
  6 39  1  0
  7  8  1  0
  7 40  1  1
  9  8  1  1
  9 11  1  0
  9 27  1  0
  9 10  1  0
 10 11  1  0
 11 12  1  0
 11 41  1  6
 12 24  1  0
 12 13  1  0
 12 42  1  6
 13 14  1  0
 13 43  1  0
 13 44  1  0
 14 15  1  0
 14 45  1  0
 14 46  1  0
 15 16  1  0
 15 17  1  0
 15 47  1  6
 16 48  1  0
 16 49  1  0
 16 50  1  0
 17 24  1  0
 17 18  1  0
 17 51  1  6
 18 19  1  0
 18 52  1  0
 18 53  1  0
 19 20  1  0
 19 54  1  0
 19 55  1  0
 20 26  1  0
 20 21  1  6
 20 22  1  0
 21 56  1  0
 21 57  1  0
 21 58  1  0
 22 23  1  0
 24 23  1  1
 24 25  1  0
 25 26  1  0
 25 27  1  0
 25 59  1  1
M  END
>  <i_m_ct_stereo_status>  (123) 
1

>  <s_m_source_file>  (123) 
/var/tmp/pbs.5076255.sched01/tmp3npnc3rz/42_8qtnw6u.sdf

>  <i_m_source_file_index>  (123) 
13

>  <i_lp_mmshare_version>  (123) 
48012

>  <i_f3d_flags>  (123) 
0

>  <s_epik_input>  (123) 
W0NIM11bQ0BASF0xW0NIMl1bQ0gyXVtDSDJdW0NIMl1bQ0BIXTFPQyhPMikoW0NAQEhdMltDQEBIXTNbQ0BdNDU2KU9bQ0BIXTZPW0NAQF0oW0NIM10pKE9PNSlbQ0gyXVtDSDJdW0NASF00W0NASF0oW0NIM10pW0NIMl1bQ0gyXTM=

>  <s_epik_cmdline>  (123) 
J2VwaWtfcHl0aG9uJywgJy1waHQnLCAnMi4wJywgJy1waCcsICc3LjAnLCAnLXRuJywgJzgnLCAnLW1hJywgJzIwMCcsICctaW1hZScsICc8aW5maWxlLm1hZT4nLCAnLW9tYWUnLCAnPG91dGZpbGUubWFlPic=

>  <r_lp_tautomer_probability>  (123) 
1

>  <r_epik_Ionization_Penalty>  (123) 
3.93359e-14

>  <r_epik_Ionization_Penalty_Charging>  (123) 
0

>  <r_epik_Ionization_Penalty_Neutral>  (123) 
3.93359e-14

>  <r_epik_State_Penalty>  (123) 
-0

>  <r_epik_Charging_Adjusted_Penalty>  (123) 
0

>  <i_epik_Tot_Q>  (123) 
0

>  <i_epik_Tot_abs_Q>  (123) 
0

>  <s_epik_Chemistry_Notes>  (123) 
This compound contains an acetal/aminal-like group ( X-CH(R)-Y where X, Y are N, S, or O) that may be acid/base labile, releasing an aldehyde.

>  <s_lp_Force_Field>  (123) 
OPLS3e

>  <r_lp_Energy>  (123) 
66.0019

>  <b_lp_Chiralities_Consistent>  (123) 
1

>  <s_lp_Variant>  (123) 
35:0-2

>  <s_i_glide_gridfile>  (123) 
pfpi4k_grid

>  <i_i_glide_lignum>  (123) 
13

>  <i_i_glide_rotatable_bonds>  (123) 
2

>  <r_i_docking_score>  (123) 
-2.71929

>  <r_i_glide_ligand_efficiency>  (123) 
-0.100714

>  <r_i_glide_ligand_efficiency_sa>  (123) 
-0.302143

>  <r_i_glide_ligand_efficiency_ln>  (123) 
-0.633006

>  <r_i_glide_gscore>  (123) 
-2.71929

>  <r_i_glide_lipo>  (123) 
-0.388437

>  <r_i_glide_hbond>  (123) 
0

>  <r_i_glide_metal>  (123) 
-0

>  <r_i_glide_rewards>  (123) 
-0.913432

>  <r_i_glide_evdw>  (123) 
-30.0704

>  <r_i_glide_ecoul>  (123) 
-0.818933

>  <r_i_glide_erotb>  (123) 
0.268039

>  <r_i_glide_esite>  (123) 
-0.0591016

>  <r_i_glide_emodel>  (123) 
-33.363

>  <r_i_glide_energy>  (123) 
-30.8893

>  <r_i_glide_einternal>  (123) 
4.42281

>  <r_i_glide_intrahb_reward>  (123) 
-0

>  <i_i_glide_confnum>  (123) 
3

>  <i_i_glide_posenum>  (123) 
29

>  <r_i_glide_eff_state_penalty>  (123) 
0

>  <ligand_id>  (123) 
35

>  <original_smiles>  (123) 
CC1CCCCC1OC12OC1C1CCC(C)C3CCC4(C)OOC31C(O4)O2

>  <smiles>  (123) 
[H]C([H])([H])C12OOC34C([H])(OC5(OC6([H])C([H])([H])C([H])([H])C([H])([H])C([H])([H])C6([H])C([H])([H])[H])OC5([H])C3([H])C([H])([H])C([H])([H])C([H])(C([H])([H])[H])C4([H])C([H])([H])C1([H])[H])O2

$$$$
35:1:2
     RDKit          3D

 59 64  0  0  1  0  0  0  0  0999 V2000
    1.3834   -2.6856    4.0663 C   0  0  0  0  0  0  0  0  0  0  0  0
    2.4558   -1.8162    3.3866 C   0  0  2  0  0  0  0  0  0  0  0  0
    1.9675   -0.3627    3.3311 C   0  0  0  0  0  0  0  0  0  0  0  0
    3.0118    0.5606    2.6830 C   0  0  0  0  0  0  0  0  0  0  0  0
    3.3929    0.0722    1.2835 C   0  0  0  0  0  0  0  0  0  0  0  0
    3.8862   -1.3775    1.3145 C   0  0  0  0  0  0  0  0  0  0  0  0
    2.8317   -2.3044    1.9691 C   0  0  1  0  0  0  0  0  0  0  0  0
    3.3545   -3.6184    2.0561 O   0  0  0  0  0  0  0  0  0  0  0  0
    3.1720   -4.3361    0.8330 C   0  0  2  0  0  0  0  0  0  0  0  0
    4.3747   -4.3929    0.0100 O   0  0  0  0  0  0  0  0  0  0  0  0
    3.9765   -5.6109    0.5584 C   0  0  1  0  0  0  0  0  0  0  0  0
    4.3887   -6.3581    1.7814 C   0  0  1  0  0  0  0  0  0  0  0  0
    5.3378   -5.6587    2.7843 C   0  0  0  0  0  0  0  0  0  0  0  0
    5.7604   -6.6176    3.8920 C   0  0  0  0  0  0  0  0  0  0  0  0
    4.6643   -7.6399    4.2686 C   0  0  1  0  0  0  0  0  0  0  0  0
    4.8950   -8.1029    5.7154 C   0  0  0  0  0  0  0  0  0  0  0  0
    3.2163   -7.1397    3.9369 C   0  0  2  0  0  0  0  0  0  0  0  0
    2.1700   -8.1150    4.5006 C   0  0  0  0  0  0  0  0  0  0  0  0
    0.7223   -7.8791    4.0557 C   0  0  0  0  0  0  0  0  0  0  0  0
    0.5472   -7.8376    2.5309 C   0  0  2  0  0  0  0  0  0  0  0  0
   -0.8699   -8.2603    2.1324 C   0  0  0  0  0  0  0  0  0  0  0  0
    1.4493   -8.7520    1.9230 O   0  0  0  0  0  0  0  0  0  0  0  0
    2.8346   -8.1504    1.6951 O   0  0  0  0  0  0  0  0  0  0  0  0
    3.0590   -6.9156    2.3864 C   0  0  2  0  0  0  0  0  0  0  0  0
    1.8625   -5.9024    2.0438 C   0  0  2  0  0  0  0  0  0  0  0  0
    0.6337   -6.5464    2.0020 O   0  0  0  0  0  0  0  0  0  0  0  0
    2.0326   -5.1984    0.8085 O   0  0  0  0  0  0  0  0  0  0  0  0
    0.5208   -2.8376    3.4146 H   0  0  0  0  0  0  0  0  0  0  0  0
    1.0048   -2.2289    4.9856 H   0  0  0  0  0  0  0  0  0  0  0  0
    1.7836   -3.6635    4.3369 H   0  0  0  0  0  0  0  0  0  0  0  0
    3.3526   -1.8498    4.0023 H   0  0  0  0  0  0  0  0  0  0  0  0
    1.0366   -0.3035    2.7645 H   0  0  0  0  0  0  0  0  0  0  0  0
    1.7551   -0.0107    4.3390 H   0  0  0  0  0  0  0  0  0  0  0  0
    2.6113    1.5782    2.6274 H   0  0  0  0  0  0  0  0  0  0  0  0
    3.9071    0.6074    3.3164 H   0  0  0  0  0  0  0  0  0  0  0  0
    2.5172    0.1402    0.6343 H   0  0  0  0  0  0  0  0  0  0  0  0
    4.1556    0.7278    0.8534 H   0  0  0  0  0  0  0  0  0  0  0  0
    4.1036   -1.6902    0.2950 H   0  0  0  0  0  0  0  0  0  0  0  0
    4.8327   -1.4261    1.8621 H   0  0  0  0  0  0  0  0  0  0  0  0
    1.9278   -2.2955    1.3536 H   0  0  0  0  0  0  0  0  0  0  0  0
    3.6222   -6.2941   -0.2186 H   0  0  0  0  0  0  0  0  0  0  0  0
    4.9373   -7.2227    1.4190 H   0  0  0  0  0  0  0  0  0  0  0  0
    6.2141   -5.2828    2.2543 H   0  0  0  0  0  0  0  0  0  0  0  0
    4.8697   -4.8162    3.2864 H   0  0  0  0  0  0  0  0  0  0  0  0
    6.6388   -7.1686    3.5585 H   0  0  0  0  0  0  0  0  0  0  0  0
    6.0870   -6.0528    4.7751 H   0  0  0  0  0  0  0  0  0  0  0  0
    4.8237   -8.5137    3.6353 H   0  0  0  0  0  0  0  0  0  0  0  0
    4.6939   -7.3002    6.4290 H   0  0  0  0  0  0  0  0  0  0  0  0
    5.9382   -8.4034    5.8504 H   0  0  0  0  0  0  0  0  0  0  0  0
    4.2852   -8.9687    5.9794 H   0  0  0  0  0  0  0  0  0  0  0  0
    3.0878   -6.1897    4.4536 H   0  0  0  0  0  0  0  0  0  0  0  0
    2.4593   -9.1267    4.2254 H   0  0  0  0  0  0  0  0  0  0  0  0
    2.1833   -8.0811    5.5887 H   0  0  0  0  0  0  0  0  0  0  0  0
    0.1426   -8.7187    4.4309 H   0  0  0  0  0  0  0  0  0  0  0  0
    0.2979   -6.9901    4.5258 H   0  0  0  0  0  0  0  0  0  0  0  0
   -0.9699   -8.1431    1.0545 H   0  0  0  0  0  0  0  0  0  0  0  0
   -1.6355   -7.6474    2.6146 H   0  0  0  0  0  0  0  0  0  0  0  0
   -1.0414   -9.3032    2.3827 H   0  0  0  0  0  0  0  0  0  0  0  0
    1.7989   -5.1700    2.8484 H   0  0  0  0  0  0  0  0  0  0  0  0
  1  2  1  0
  1 28  1  0
  1 29  1  0
  1 30  1  0
  2  7  1  0
  2  3  1  0
  2 31  1  1
  3  4  1  0
  3 32  1  0
  3 33  1  0
  4  5  1  0
  4 34  1  0
  4 35  1  0
  5  6  1  0
  5 36  1  0
  5 37  1  0
  6  7  1  0
  6 38  1  0
  6 39  1  0
  7  8  1  0
  7 40  1  6
  9  8  1  1
  9 11  1  0
  9 27  1  0
  9 10  1  0
 10 11  1  0
 11 12  1  0
 11 41  1  6
 12 24  1  0
 12 13  1  0
 12 42  1  6
 13 14  1  0
 13 43  1  0
 13 44  1  0
 14 15  1  0
 14 45  1  0
 14 46  1  0
 15 16  1  0
 15 17  1  0
 15 47  1  6
 16 48  1  0
 16 49  1  0
 16 50  1  0
 17 24  1  0
 17 18  1  0
 17 51  1  1
 18 19  1  0
 18 52  1  0
 18 53  1  0
 19 20  1  0
 19 54  1  0
 19 55  1  0
 20 26  1  0
 20 21  1  1
 20 22  1  0
 21 56  1  0
 21 57  1  0
 21 58  1  0
 22 23  1  0
 24 23  1  6
 24 25  1  0
 25 26  1  0
 25 27  1  0
 25 59  1  1
M  END
>  <i_m_ct_stereo_status>  (124) 
1

>  <s_m_source_file>  (124) 
/var/tmp/pbs.5076255.sched01/tmp3npnc3rz/42_8qtnw6u.sdf

>  <i_m_source_file_index>  (124) 
13

>  <i_lp_mmshare_version>  (124) 
48012

>  <i_f3d_flags>  (124) 
0

>  <s_epik_input>  (124) 
W0NIM11bQ0BASF0xW0NIMl1bQ0gyXVtDSDJdW0NIMl1bQ0BIXTFPQyhPMikoW0NAQEhdMltDQEBIXTNbQ0BdNDU2KU9bQ0BIXTZPW0NAQF0oW0NIM10pKE9PNSlbQ0gyXVtDSDJdW0NASF00W0NASF0oW0NIM10pW0NIMl1bQ0gyXTM=

>  <s_epik_cmdline>  (124) 
J2VwaWtfcHl0aG9uJywgJy1waHQnLCAnMi4wJywgJy1waCcsICc3LjAnLCAnLXRuJywgJzgnLCAnLW1hJywgJzIwMCcsICctaW1hZScsICc8aW5maWxlLm1hZT4nLCAnLW9tYWUnLCAnPG91dGZpbGUubWFlPic=

>  <r_lp_tautomer_probability>  (124) 
1

>  <r_epik_Ionization_Penalty>  (124) 
3.93359e-14

>  <r_epik_Ionization_Penalty_Charging>  (124) 
0

>  <r_epik_Ionization_Penalty_Neutral>  (124) 
3.93359e-14

>  <r_epik_State_Penalty>  (124) 
-0

>  <r_epik_Charging_Adjusted_Penalty>  (124) 
0

>  <i_epik_Tot_Q>  (124) 
0

>  <i_epik_Tot_abs_Q>  (124) 
0

>  <s_epik_Chemistry_Notes>  (124) 
This compound contains an acetal/aminal-like group ( X-CH(R)-Y where X, Y are N, S, or O) that may be acid/base labile, releasing an aldehyde.

>  <s_lp_Force_Field>  (124) 
OPLS3e

>  <r_lp_Energy>  (124) 
66.0019

>  <b_lp_Chiralities_Consistent>  (124) 
1

>  <s_lp_Variant>  (124) 
35:0-2

>  <s_i_glide_gridfile>  (124) 
pfpi4k_grid

>  <i_i_glide_lignum>  (124) 
13

>  <i_i_glide_rotatable_bonds>  (124) 
2

>  <r_i_docking_score>  (124) 
-2.48665

>  <r_i_glide_ligand_efficiency>  (124) 
-0.092098

>  <r_i_glide_ligand_efficiency_sa>  (124) 
-0.276294

>  <r_i_glide_ligand_efficiency_ln>  (124) 
-0.57885

>  <r_i_glide_gscore>  (124) 
-2.48665

>  <r_i_glide_lipo>  (124) 
-0.175845

>  <r_i_glide_hbond>  (124) 
-0.0702701

>  <r_i_glide_metal>  (124) 
-0

>  <r_i_glide_rewards>  (124) 
-0.814942

>  <r_i_glide_evdw>  (124) 
-24.6646

>  <r_i_glide_ecoul>  (124) 
-2.53605

>  <r_i_glide_erotb>  (124) 
0.268039

>  <r_i_glide_esite>  (124) 
-0.0799897

>  <r_i_glide_emodel>  (124) 
-31.2908

>  <r_i_glide_energy>  (124) 
-27.2007

>  <r_i_glide_einternal>  (124) 
0.394506

>  <r_i_glide_intrahb_reward>  (124) 
-0

>  <i_i_glide_confnum>  (124) 
3

>  <i_i_glide_posenum>  (124) 
22

>  <r_i_glide_eff_state_penalty>  (124) 
0

>  <ligand_id>  (124) 
35

>  <original_smiles>  (124) 
CC1CCCCC1OC12OC1C1CCC(C)C3CCC4(C)OOC31C(O4)O2

>  <smiles>  (124) 
[H]C([H])([H])C12OOC34C([H])(OC5(OC6([H])C([H])([H])C([H])([H])C([H])([H])C([H])([H])C6([H])C([H])([H])[H])OC5([H])C3([H])C([H])([H])C([H])([H])C([H])(C([H])([H])[H])C4([H])C([H])([H])C1([H])[H])O2

$$$$
36:0:0
     RDKit          3D

 24 26  0  0  1  0  0  0  0  0999 V2000
  -10.8390   -3.8213   -6.8319 C   0  0  0  0  0  0  0  0  0  0  0  0
   -9.4036   -3.6112   -7.3065 C   0  0  0  0  0  0  0  0  0  0  0  0
   -8.6746   -4.8675   -7.3155 N   0  0  0  0  0  0  0  0  0  0  0  0
   -7.7947   -5.3257   -6.3263 C   0  0  0  0  0  0  0  0  0  0  0  0
   -7.3861   -4.7258   -5.1158 C   0  0  0  0  0  0  0  0  0  0  0  0
   -6.4867   -5.3884   -4.2650 C   0  0  0  0  0  0  0  0  0  0  0  0
   -5.9855   -6.6547   -4.6216 C   0  0  0  0  0  0  0  0  0  0  0  0
   -6.3916   -7.2545   -5.8260 C   0  0  0  0  0  0  0  0  0  0  0  0
   -7.2998   -6.6136   -6.6948 C   0  0  0  0  0  0  0  0  0  0  0  0
   -7.8987   -6.9469   -7.9543 C   0  0  0  0  0  0  0  0  0  0  0  0
   -7.7997   -8.0037   -8.7649 N   0  0  0  0  0  0  0  0  0  0  0  0
   -8.5257   -7.9729   -9.8928 N   0  0  0  0  0  0  0  0  0  0  0  0
   -9.3294   -6.9456  -10.2192 N   0  0  0  0  0  0  0  0  0  0  0  0
   -9.4686   -5.8626   -9.4437 N   0  0  0  0  0  0  0  0  0  0  0  0
   -8.7336   -5.8632   -8.2954 C   0  0  0  0  0  0  0  0  0  0  0  0
  -11.3929   -2.8821   -6.7981 H   0  0  0  0  0  0  0  0  0  0  0  0
  -10.8529   -4.2466   -5.8276 H   0  0  0  0  0  0  0  0  0  0  0  0
  -11.3655   -4.5124   -7.4930 H   0  0  0  0  0  0  0  0  0  0  0  0
   -9.3831   -3.1899   -8.3090 H   0  0  0  0  0  0  0  0  0  0  0  0
   -8.9023   -2.9003   -6.6540 H   0  0  0  0  0  0  0  0  0  0  0  0
   -7.7709   -3.7600   -4.8274 H   0  0  0  0  0  0  0  0  0  0  0  0
   -6.1933   -4.9290   -3.3319 H   0  0  0  0  0  0  0  0  0  0  0  0
   -5.3088   -7.1846   -3.9681 H   0  0  0  0  0  0  0  0  0  0  0  0
   -6.0208   -8.2295   -6.1005 H   0  0  0  0  0  0  0  0  0  0  0  0
  1  2  1  0
  1 16  1  0
  1 17  1  0
  1 18  1  0
  2  3  1  0
  2 19  1  0
  2 20  1  0
  3 15  1  0
  3  4  1  0
  4  9  2  0
  4  5  1  0
  5  6  2  0
  5 21  1  0
  6  7  1  0
  6 22  1  0
  7  8  2  0
  7 23  1  0
  8  9  1  0
  8 24  1  0
  9 10  1  0
 10 15  2  0
 10 11  1  0
 11 12  2  0
 12 13  1  0
 13 14  2  0
 14 15  1  0
M  END
>  <i_m_ct_stereo_status>  (125) 
1

>  <s_m_source_file>  (125) 
/var/tmp/pbs.5076255.sched01/tmp3npnc3rz/42_8qtnw6u.sdf

>  <i_m_source_file_index>  (125) 
14

>  <i_lp_mmshare_version>  (125) 
48012

>  <i_f3d_flags>  (125) 
0

>  <s_epik_input>  (125) 
bjFubm5jKG4yW0NIMl1bQ0gzXSljMWMoYzIzKVtjSF1bY0hdW2NIXVtjSF0z

>  <s_epik_cmdline>  (125) 
J2VwaWtfcHl0aG9uJywgJy1waHQnLCAnMi4wJywgJy1waCcsICc3LjAnLCAnLXRuJywgJzgnLCAnLW1hJywgJzIwMCcsICctaW1hZScsICc8aW5maWxlLm1hZT4nLCAnLW9tYWUnLCAnPG91dGZpbGUubWFlPic=

>  <r_lp_tautomer_probability>  (125) 
1

>  <r_epik_Ionization_Penalty>  (125) 
5.00978e-11

>  <r_epik_Ionization_Penalty_Charging>  (125) 
0

>  <r_epik_Ionization_Penalty_Neutral>  (125) 
5.00978e-11

>  <r_epik_State_Penalty>  (125) 
-0

>  <r_epik_Charging_Adjusted_Penalty>  (125) 
0

>  <i_epik_Tot_Q>  (125) 
0

>  <i_epik_Tot_abs_Q>  (125) 
0

>  <s_lp_Force_Field>  (125) 
OPLS3e

>  <r_lp_Energy>  (125) 
28.9448

>  <b_lp_Chiralities_Consistent>  (125) 
1

>  <s_lp_Variant>  (125) 
36:0-1

>  <s_i_glide_gridfile>  (125) 
pfpi4k_grid

>  <i_i_glide_lignum>  (125) 
14

>  <i_i_glide_rotatable_bonds>  (125) 
1

>  <r_i_docking_score>  (125) 
-6.02604

>  <r_i_glide_ligand_efficiency>  (125) 
-0.401736

>  <r_i_glide_ligand_efficiency_sa>  (125) 
-0.990766

>  <r_i_glide_ligand_efficiency_ln>  (125) 
-1.62512

>  <r_i_glide_gscore>  (125) 
-6.02604

>  <r_i_glide_lipo>  (125) 
-1.90796

>  <r_i_glide_hbond>  (125) 
0

>  <r_i_glide_metal>  (125) 
-0

>  <r_i_glide_rewards>  (125) 
-2.92704

>  <r_i_glide_evdw>  (125) 
-25.432

>  <r_i_glide_ecoul>  (125) 
0.567648

>  <r_i_glide_erotb>  (125) 
0

>  <r_i_glide_esite>  (125) 
-0.00459438

>  <r_i_glide_emodel>  (125) 
-34.1073

>  <r_i_glide_energy>  (125) 
-24.8644

>  <r_i_glide_einternal>  (125) 
0.0718972

>  <r_i_glide_intrahb_reward>  (125) 
-0

>  <i_i_glide_confnum>  (125) 
1

>  <i_i_glide_posenum>  (125) 
40

>  <r_i_glide_eff_state_penalty>  (125) 
0

>  <ligand_id>  (125) 
36

>  <original_smiles>  (125) 
CCn1c2ccccc2c2nnnnc21

>  <smiles>  (125) 
[H]c1c([H])c([H])c2c(c1[H])c1nnnnc1n2C([H])([H])C([H])([H])[H]

$$$$
36:0:1
     RDKit          3D

 24 26  0  0  1  0  0  0  0  0999 V2000
  -10.1989   -2.8686   -6.9196 C   0  0  0  0  0  0  0  0  0  0  0  0
  -10.5786   -4.3335   -6.7243 C   0  0  0  0  0  0  0  0  0  0  0  0
   -9.4373   -5.2127   -6.9142 N   0  0  0  0  0  0  0  0  0  0  0  0
   -8.3232   -5.3363   -6.0723 C   0  0  0  0  0  0  0  0  0  0  0  0
   -8.0021   -4.6603   -4.8723 C   0  0  0  0  0  0  0  0  0  0  0  0
   -6.8136   -4.9583   -4.1831 C   0  0  0  0  0  0  0  0  0  0  0  0
   -5.9397   -5.9413   -4.6871 C   0  0  0  0  0  0  0  0  0  0  0  0
   -6.2610   -6.6248   -5.8727 C   0  0  0  0  0  0  0  0  0  0  0  0
   -7.4456   -6.3365   -6.5857 C   0  0  0  0  0  0  0  0  0  0  0  0
   -8.0432   -6.8324   -7.7919 C   0  0  0  0  0  0  0  0  0  0  0  0
   -7.6785   -7.7555   -8.6855 N   0  0  0  0  0  0  0  0  0  0  0  0
   -8.5102   -7.9707   -9.7151 N   0  0  0  0  0  0  0  0  0  0  0  0
   -9.6683   -7.3074   -9.8715 N   0  0  0  0  0  0  0  0  0  0  0  0
  -10.0841   -6.3668   -9.0117 N   0  0  0  0  0  0  0  0  0  0  0  0
   -9.2539   -6.1278   -7.9571 C   0  0  0  0  0  0  0  0  0  0  0  0
  -11.0640   -2.2200   -6.7815 H   0  0  0  0  0  0  0  0  0  0  0  0
   -9.7880   -2.7110   -7.9164 H   0  0  0  0  0  0  0  0  0  0  0  0
   -9.4436   -2.5583   -6.1993 H   0  0  0  0  0  0  0  0  0  0  0  0
  -10.9731   -4.4847   -5.7201 H   0  0  0  0  0  0  0  0  0  0  0  0
  -11.3701   -4.6055   -7.4254 H   0  0  0  0  0  0  0  0  0  0  0  0
   -8.6839   -3.9291   -4.4688 H   0  0  0  0  0  0  0  0  0  0  0  0
   -6.5875   -4.4465   -3.2585 H   0  0  0  0  0  0  0  0  0  0  0  0
   -5.0285   -6.1831   -4.1623 H   0  0  0  0  0  0  0  0  0  0  0  0
   -5.5916   -7.3710   -6.2672 H   0  0  0  0  0  0  0  0  0  0  0  0
  1  2  1  0
  1 16  1  0
  1 17  1  0
  1 18  1  0
  2  3  1  0
  2 19  1  0
  2 20  1  0
  3 15  1  0
  3  4  1  0
  4  9  2  0
  4  5  1  0
  5  6  2  0
  5 21  1  0
  6  7  1  0
  6 22  1  0
  7  8  2  0
  7 23  1  0
  8  9  1  0
  8 24  1  0
  9 10  1  0
 10 15  2  0
 10 11  1  0
 11 12  2  0
 12 13  1  0
 13 14  2  0
 14 15  1  0
M  END
>  <i_m_ct_stereo_status>  (126) 
1

>  <s_m_source_file>  (126) 
/var/tmp/pbs.5076255.sched01/tmp3npnc3rz/42_8qtnw6u.sdf

>  <i_m_source_file_index>  (126) 
14

>  <i_lp_mmshare_version>  (126) 
48012

>  <i_f3d_flags>  (126) 
0

>  <s_epik_input>  (126) 
bjFubm5jKG4yW0NIMl1bQ0gzXSljMWMoYzIzKVtjSF1bY0hdW2NIXVtjSF0z

>  <s_epik_cmdline>  (126) 
J2VwaWtfcHl0aG9uJywgJy1waHQnLCAnMi4wJywgJy1waCcsICc3LjAnLCAnLXRuJywgJzgnLCAnLW1hJywgJzIwMCcsICctaW1hZScsICc8aW5maWxlLm1hZT4nLCAnLW9tYWUnLCAnPG91dGZpbGUubWFlPic=

>  <r_lp_tautomer_probability>  (126) 
1

>  <r_epik_Ionization_Penalty>  (126) 
5.00978e-11

>  <r_epik_Ionization_Penalty_Charging>  (126) 
0

>  <r_epik_Ionization_Penalty_Neutral>  (126) 
5.00978e-11

>  <r_epik_State_Penalty>  (126) 
-0

>  <r_epik_Charging_Adjusted_Penalty>  (126) 
0

>  <i_epik_Tot_Q>  (126) 
0

>  <i_epik_Tot_abs_Q>  (126) 
0

>  <s_lp_Force_Field>  (126) 
OPLS3e

>  <r_lp_Energy>  (126) 
28.9448

>  <b_lp_Chiralities_Consistent>  (126) 
1

>  <s_lp_Variant>  (126) 
36:0-1

>  <s_i_glide_gridfile>  (126) 
pfpi4k_grid

>  <i_i_glide_lignum>  (126) 
14

>  <i_i_glide_rotatable_bonds>  (126) 
1

>  <r_i_docking_score>  (126) 
-5.95311

>  <r_i_glide_ligand_efficiency>  (126) 
-0.396874

>  <r_i_glide_ligand_efficiency_sa>  (126) 
-0.978775

>  <r_i_glide_ligand_efficiency_ln>  (126) 
-1.60545

>  <r_i_glide_gscore>  (126) 
-5.95311

>  <r_i_glide_lipo>  (126) 
-1.96556

>  <r_i_glide_hbond>  (126) 
0

>  <r_i_glide_metal>  (126) 
-0

>  <r_i_glide_rewards>  (126) 
-2.86816

>  <r_i_glide_evdw>  (126) 
-24.9232

>  <r_i_glide_ecoul>  (126) 
0.893703

>  <r_i_glide_erotb>  (126) 
0

>  <r_i_glide_esite>  (126) 
-0.00727079

>  <r_i_glide_emodel>  (126) 
-33.0616

>  <r_i_glide_energy>  (126) 
-24.0295

>  <r_i_glide_einternal>  (126) 
0.202806

>  <r_i_glide_intrahb_reward>  (126) 
-0

>  <i_i_glide_confnum>  (126) 
1

>  <i_i_glide_posenum>  (126) 
2

>  <r_i_glide_eff_state_penalty>  (126) 
0

>  <ligand_id>  (126) 
36

>  <original_smiles>  (126) 
CCn1c2ccccc2c2nnnnc21

>  <smiles>  (126) 
[H]c1c([H])c([H])c2c(c1[H])c1nnnnc1n2C([H])([H])C([H])([H])[H]

$$$$
36:0:2
     RDKit          3D

 24 26  0  0  1  0  0  0  0  0999 V2000
    7.2192   -1.7062    0.4452 C   0  0  0  0  0  0  0  0  0  0  0  0
    5.8205   -1.1047    0.6101 C   0  0  0  0  0  0  0  0  0  0  0  0
    4.8177   -1.9694    0.0122 N   0  0  0  0  0  0  0  0  0  0  0  0
    4.3072   -1.8900   -1.2897 C   0  0  0  0  0  0  0  0  0  0  0  0
    4.5926   -0.9853   -2.3319 C   0  0  0  0  0  0  0  0  0  0  0  0
    3.9476   -1.1024   -3.5756 C   0  0  0  0  0  0  0  0  0  0  0  0
    3.0182   -2.1358   -3.7783 C   0  0  0  0  0  0  0  0  0  0  0  0
    2.7268   -3.0421   -2.7475 C   0  0  0  0  0  0  0  0  0  0  0  0
    3.3611   -2.9400   -1.4931 C   0  0  0  0  0  0  0  0  0  0  0  0
    3.2998   -3.6829   -0.2726 C   0  0  0  0  0  0  0  0  0  0  0  0
    2.6088   -4.7599    0.1088 N   0  0  0  0  0  0  0  0  0  0  0  0
    2.8222   -5.2077    1.3520 N   0  0  0  0  0  0  0  0  0  0  0  0
    3.6802   -4.6260    2.2038 N   0  0  0  0  0  0  0  0  0  0  0  0
    4.3970   -3.5428    1.8797 N   0  0  0  0  0  0  0  0  0  0  0  0
    4.2007   -3.0671    0.6192 C   0  0  0  0  0  0  0  0  0  0  0  0
    7.9824   -1.0585    0.8801 H   0  0  0  0  0  0  0  0  0  0  0  0
    7.4617   -1.8594   -0.6070 H   0  0  0  0  0  0  0  0  0  0  0  0
    7.2819   -2.6788    0.9360 H   0  0  0  0  0  0  0  0  0  0  0  0
    5.5855   -0.9617    1.6650 H   0  0  0  0  0  0  0  0  0  0  0  0
    5.7686   -0.1218    0.1469 H   0  0  0  0  0  0  0  0  0  0  0  0
    5.3047   -0.1923   -2.1778 H   0  0  0  0  0  0  0  0  0  0  0  0
    4.1637   -0.4033   -4.3708 H   0  0  0  0  0  0  0  0  0  0  0  0
    2.5156   -2.2355   -4.7194 H   0  0  0  0  0  0  0  0  0  0  0  0
    2.0114   -3.8349   -2.9014 H   0  0  0  0  0  0  0  0  0  0  0  0
  1  2  1  0
  1 16  1  0
  1 17  1  0
  1 18  1  0
  2  3  1  0
  2 19  1  0
  2 20  1  0
  3 15  1  0
  3  4  1  0
  4  9  2  0
  4  5  1  0
  5  6  2  0
  5 21  1  0
  6  7  1  0
  6 22  1  0
  7  8  2  0
  7 23  1  0
  8  9  1  0
  8 24  1  0
  9 10  1  0
 10 15  2  0
 10 11  1  0
 11 12  2  0
 12 13  1  0
 13 14  2  0
 14 15  1  0
M  END
>  <i_m_ct_stereo_status>  (127) 
1

>  <s_m_source_file>  (127) 
/var/tmp/pbs.5076255.sched01/tmp3npnc3rz/42_8qtnw6u.sdf

>  <i_m_source_file_index>  (127) 
14

>  <i_lp_mmshare_version>  (127) 
48012

>  <i_f3d_flags>  (127) 
0

>  <s_epik_input>  (127) 
bjFubm5jKG4yW0NIMl1bQ0gzXSljMWMoYzIzKVtjSF1bY0hdW2NIXVtjSF0z

>  <s_epik_cmdline>  (127) 
J2VwaWtfcHl0aG9uJywgJy1waHQnLCAnMi4wJywgJy1waCcsICc3LjAnLCAnLXRuJywgJzgnLCAnLW1hJywgJzIwMCcsICctaW1hZScsICc8aW5maWxlLm1hZT4nLCAnLW9tYWUnLCAnPG91dGZpbGUubWFlPic=

>  <r_lp_tautomer_probability>  (127) 
1

>  <r_epik_Ionization_Penalty>  (127) 
5.00978e-11

>  <r_epik_Ionization_Penalty_Charging>  (127) 
0

>  <r_epik_Ionization_Penalty_Neutral>  (127) 
5.00978e-11

>  <r_epik_State_Penalty>  (127) 
-0

>  <r_epik_Charging_Adjusted_Penalty>  (127) 
0

>  <i_epik_Tot_Q>  (127) 
0

>  <i_epik_Tot_abs_Q>  (127) 
0

>  <s_lp_Force_Field>  (127) 
OPLS3e

>  <r_lp_Energy>  (127) 
28.9448

>  <b_lp_Chiralities_Consistent>  (127) 
1

>  <s_lp_Variant>  (127) 
36:0-1

>  <s_i_glide_gridfile>  (127) 
pfpi4k_grid

>  <i_i_glide_lignum>  (127) 
14

>  <i_i_glide_rotatable_bonds>  (127) 
1

>  <r_i_docking_score>  (127) 
-3.81525

>  <r_i_glide_ligand_efficiency>  (127) 
-0.25435

>  <r_i_glide_ligand_efficiency_sa>  (127) 
-0.627281

>  <r_i_glide_ligand_efficiency_ln>  (127) 
-1.02891

>  <r_i_glide_gscore>  (127) 
-3.81525

>  <r_i_glide_lipo>  (127) 
-0.526483

>  <r_i_glide_hbond>  (127) 
0

>  <r_i_glide_metal>  (127) 
-0

>  <r_i_glide_rewards>  (127) 
-2.06212

>  <r_i_glide_evdw>  (127) 
-21.5067

>  <r_i_glide_ecoul>  (127) 
-0.559243

>  <r_i_glide_erotb>  (127) 
0

>  <r_i_glide_esite>  (127) 
-0.0674227

>  <r_i_glide_emodel>  (127) 
-27.9267

>  <r_i_glide_energy>  (127) 
-22.0659

>  <r_i_glide_einternal>  (127) 
0.0224225

>  <r_i_glide_intrahb_reward>  (127) 
-0

>  <i_i_glide_confnum>  (127) 
2

>  <i_i_glide_posenum>  (127) 
13

>  <r_i_glide_eff_state_penalty>  (127) 
0

>  <ligand_id>  (127) 
36

>  <original_smiles>  (127) 
CCn1c2ccccc2c2nnnnc21

>  <smiles>  (127) 
[H]c1c([H])c([H])c2c(c1[H])c1nnnnc1n2C([H])([H])C([H])([H])[H]

$$$$
37:0:0
     RDKit          3D

 79 85  0  0  1  0  0  0  0  0999 V2000
    4.6432  -13.2619    5.9493 C   0  0  0  0  0  0  0  0  0  0  0  0
    5.1386  -12.0067    5.2175 C   0  0  2  0  0  0  0  0  0  0  0  0
    6.5445  -11.6304    5.7020 C   0  0  0  0  0  0  0  0  0  0  0  0
    7.1065  -10.4826    4.8646 C   0  0  0  0  0  0  0  0  0  0  0  0
    6.2327   -9.2086    4.9496 C   0  0  2  0  0  0  0  0  0  0  0  0
    4.7533   -9.5139    4.6617 C   0  0  1  0  0  0  0  0  0  0  0  0
    4.6614   -9.4471    3.1289 C   0  0  0  0  0  0  0  0  0  0  0  0
    5.7076   -8.3960    2.6408 C   0  0  1  0  0  0  0  0  0  0  0  0
    6.5248   -9.0641    1.5007 C   0  0  0  0  0  0  0  0  0  0  0  0
    4.9860   -7.0919    2.1177 C   0  0  2  0  0  0  0  0  0  0  0  0
    4.2888   -7.2460    0.7474 C   0  0  0  0  0  0  0  0  0  0  0  0
    3.7394   -5.9292    0.2475 C   0  0  0  0  0  0  0  0  0  0  0  0
    4.2942   -4.7303    0.4811 C   0  0  0  0  0  0  0  0  0  0  0  0
    3.5827   -3.4522    0.0385 C   0  0  1  0  0  0  0  0  0  0  0  0
    2.8232   -2.8902    1.2514 C   0  0  0  0  0  0  0  0  0  0  0  0
    3.8253   -1.9724    1.9542 C   0  0  0  0  0  0  0  0  0  0  0  0
    5.0979   -2.0093    1.0784 C   0  0  1  0  0  0  0  0  0  0  0  0
    5.8458   -0.6686    1.1740 C   0  0  0  0  0  0  0  0  0  0  0  0
    6.0150   -3.1538    1.5894 C   0  0  0  0  0  0  0  0  0  0  0  0
    5.5536   -4.5990    1.2889 C   0  0  2  0  0  0  0  0  0  0  0  0
    6.7459   -5.5130    1.0198 C   0  0  0  0  0  0  0  0  0  0  0  0
    5.8635   -5.8245    2.1787 C   0  0  2  0  0  0  0  0  0  0  0  0
    6.3275   -5.5595    3.5974 C   0  0  0  0  0  0  0  0  0  0  0  0
    6.1785   -6.7429    4.5517 C   0  0  0  0  0  0  0  0  0  0  0  0
    6.5944   -8.0971    3.9179 C   0  0  1  0  0  0  0  0  0  0  0  0
    8.1258   -8.0088    3.6457 C   0  0  0  0  0  0  0  0  0  0  0  0
    4.5711   -2.3339   -0.3476 C   0  0  0  0  0  0  0  0  0  0  0  0
    5.6461   -2.7685   -1.3774 C   0  0  0  0  0  0  0  0  0  0  0  0
    3.8203   -1.1441   -0.9961 C   0  0  0  0  0  0  0  0  0  0  0  0
    4.1989  -10.7833    5.3701 C   0  0  1  0  0  0  0  0  0  0  0  0
    2.7412  -11.0841    4.9739 C   0  0  0  0  0  0  0  0  0  0  0  0
    4.4388  -13.0667    7.0032 H   0  0  0  0  0  0  0  0  0  0  0  0
    5.3721  -14.0708    5.8890 H   0  0  0  0  0  0  0  0  0  0  0  0
    3.7295  -13.6340    5.4914 H   0  0  0  0  0  0  0  0  0  0  0  0
    5.2036  -12.2646    4.1594 H   0  0  0  0  0  0  0  0  0  0  0  0
    6.5171  -11.3411    6.7539 H   0  0  0  0  0  0  0  0  0  0  0  0
    7.2101  -12.4912    5.6339 H   0  0  0  0  0  0  0  0  0  0  0  0
    8.1170  -10.2653    5.2108 H   0  0  0  0  0  0  0  0  0  0  0  0
    7.1916  -10.8273    3.8367 H   0  0  0  0  0  0  0  0  0  0  0  0
    6.3315   -8.8285    5.9678 H   0  0  0  0  0  0  0  0  0  0  0  0
    4.1562   -8.6827    5.0385 H   0  0  0  0  0  0  0  0  0  0  0  0
    4.8811  -10.4310    2.7112 H   0  0  0  0  0  0  0  0  0  0  0  0
    3.6456   -9.2127    2.8120 H   0  0  0  0  0  0  0  0  0  0  0  0
    7.2265   -8.3738    1.0332 H   0  0  0  0  0  0  0  0  0  0  0  0
    5.8799   -9.4663    0.7209 H   0  0  0  0  0  0  0  0  0  0  0  0
    7.0913   -9.9195    1.8618 H   0  0  0  0  0  0  0  0  0  0  0  0
    4.1661   -6.8828    2.8063 H   0  0  0  0  0  0  0  0  0  0  0  0
    4.9495   -7.6251   -0.0339 H   0  0  0  0  0  0  0  0  0  0  0  0
    3.4606   -7.9467    0.8444 H   0  0  0  0  0  0  0  0  0  0  0  0
    2.8169   -5.9847   -0.3068 H   0  0  0  0  0  0  0  0  0  0  0  0
    2.8973   -3.6817   -0.7797 H   0  0  0  0  0  0  0  0  0  0  0  0
    1.9625   -2.3081    0.9243 H   0  0  0  0  0  0  0  0  0  0  0  0
    2.4521   -3.6751    1.9118 H   0  0  0  0  0  0  0  0  0  0  0  0
    3.4087   -0.9646    2.0128 H   0  0  0  0  0  0  0  0  0  0  0  0
    4.0158   -2.2918    2.9796 H   0  0  0  0  0  0  0  0  0  0  0  0
    6.7089   -0.6545    0.5081 H   0  0  0  0  0  0  0  0  0  0  0  0
    6.2110   -0.5117    2.1890 H   0  0  0  0  0  0  0  0  0  0  0  0
    5.2132    0.1820    0.9202 H   0  0  0  0  0  0  0  0  0  0  0  0
    6.9963   -3.0147    1.1348 H   0  0  0  0  0  0  0  0  0  0  0  0
    6.1708   -3.0327    2.6578 H   0  0  0  0  0  0  0  0  0  0  0  0
    6.7118   -6.1437    0.1364 H   0  0  0  0  0  0  0  0  0  0  0  0
    7.7427   -5.1512    1.2588 H   0  0  0  0  0  0  0  0  0  0  0  0
    7.3782   -5.2854    3.5523 H   0  0  0  0  0  0  0  0  0  0  0  0
    5.7689   -4.7178    4.0038 H   0  0  0  0  0  0  0  0  0  0  0  0
    6.7656   -6.5476    5.4478 H   0  0  0  0  0  0  0  0  0  0  0  0
    5.1425   -6.7740    4.8890 H   0  0  0  0  0  0  0  0  0  0  0  0
    8.3588   -7.2514    2.8982 H   0  0  0  0  0  0  0  0  0  0  0  0
    8.5586   -8.9371    3.2782 H   0  0  0  0  0  0  0  0  0  0  0  0
    8.6706   -7.7442    4.5526 H   0  0  0  0  0  0  0  0  0  0  0  0
    6.3486   -1.9598   -1.5757 H   0  0  0  0  0  0  0  0  0  0  0  0
    5.1792   -3.0364   -2.3249 H   0  0  0  0  0  0  0  0  0  0  0  0
    6.2344   -3.6306   -1.0709 H   0  0  0  0  0  0  0  0  0  0  0  0
    4.5112   -0.3549   -1.2987 H   0  0  0  0  0  0  0  0  0  0  0  0
    3.0886   -0.6857   -0.3312 H   0  0  0  0  0  0  0  0  0  0  0  0
    3.2820   -1.4592   -1.8907 H   0  0  0  0  0  0  0  0  0  0  0  0
    4.1720  -10.5495    6.4372 H   0  0  0  0  0  0  0  0  0  0  0  0
    2.6628  -11.4772    3.9605 H   0  0  0  0  0  0  0  0  0  0  0  0
    2.1119  -10.1980    5.0512 H   0  0  0  0  0  0  0  0  0  0  0  0
    2.3087  -11.8258    5.6478 H   0  0  0  0  0  0  0  0  0  0  0  0
  1  2  1  0
  1 32  1  0
  1 33  1  0
  1 34  1  0
  2 30  1  0
  2  3  1  0
  2 35  1  6
  3  4  1  0
  3 36  1  0
  3 37  1  0
  4  5  1  0
  4 38  1  0
  4 39  1  0
  5 25  1  0
  5  6  1  0
  5 40  1  1
  6  7  1  0
  6 30  1  0
  6 41  1  1
  7  8  1  0
  7 42  1  0
  7 43  1  0
  8 25  1  0
  8  9  1  6
  8 10  1  0
  9 44  1  0
  9 45  1  0
  9 46  1  0
 10 22  1  0
 10 11  1  0
 10 47  1  1
 11 12  1  0
 11 48  1  0
 11 49  1  0
 12 13  2  0
 12 50  1  0
 13 20  1  0
 13 14  1  0
 14 27  1  0
 14 15  1  0
 14 51  1  6
 15 16  1  0
 15 52  1  0
 15 53  1  0
 16 17  1  0
 16 54  1  0
 16 55  1  0
 17 18  1  6
 17 19  1  0
 17 27  1  0
 18 56  1  0
 18 57  1  0
 18 58  1  0
 20 19  1  1
 19 59  1  0
 19 60  1  0
 20 22  1  0
 20 21  1  0
 22 21  1  6
 21 61  1  0
 21 62  1  0
 22 23  1  0
 23 24  1  0
 23 63  1  0
 23 64  1  0
 24 25  1  0
 24 65  1  0
 24 66  1  0
 25 26  1  6
 26 67  1  0
 26 68  1  0
 26 69  1  0
 27 28  1  0
 27 29  1  0
 28 70  1  0
 28 71  1  0
 28 72  1  0
 29 73  1  0
 29 74  1  0
 29 75  1  0
 30 31  1  0
 30 76  1  1
 31 77  1  0
 31 78  1  0
 31 79  1  0
M  END
>  <i_m_ct_stereo_status>  (128) 
1

>  <s_m_source_file>  (128) 
/var/tmp/pbs.5076255.sched01/tmp3npnc3rz/42_8qtnw6u.sdf

>  <i_m_source_file_index>  (128) 
15

>  <i_lp_mmshare_version>  (128) 
48012

>  <i_f3d_flags>  (128) 
0

>  <s_epik_input>  (128) 
W0NIMl0xW0NIMl1bQ0BASF0oW0NIM10pW0NASF0oW0NIM10pW0NASF0oW0NIMl0yKVtDQEBIXTFbQ0BdKFtDSDNdKShbQ0gyXVtDSDJdMylbQ0BdMihbQ0gzXSlbQ0BASF0oW0NAXTMoW0NAQF00NTYpW0NIMl02KVtDSDJdW0NIXT1DNFtDQEhdN1tDSDJdW0NIMl1bQ0BAXShbQ0gzXSkoW0NIMl01KUM3KFtDSDNdKVtDSDNd

>  <s_epik_cmdline>  (128) 
J2VwaWtfcHl0aG9uJywgJy1waHQnLCAnMi4wJywgJy1waCcsICc3LjAnLCAnLXRuJywgJzgnLCAnLW1hJywgJzIwMCcsICctaW1hZScsICc8aW5maWxlLm1hZT4nLCAnLW9tYWUnLCAnPG91dGZpbGUubWFlPic=

>  <r_lp_tautomer_probability>  (128) 
1

>  <r_epik_Ionization_Penalty>  (128) 
0

>  <r_epik_Ionization_Penalty_Charging>  (128) 
0

>  <r_epik_Ionization_Penalty_Neutral>  (128) 
0

>  <r_epik_State_Penalty>  (128) 
-0

>  <r_epik_Charging_Adjusted_Penalty>  (128) 
0

>  <i_epik_Tot_Q>  (128) 
0

>  <i_epik_Tot_abs_Q>  (128) 
0

>  <s_lp_Force_Field>  (128) 
OPLS3e

>  <r_lp_Energy>  (128) 
97.7861

>  <b_lp_Chiralities_Consistent>  (128) 
1

>  <s_lp_Variant>  (128) 
37:0-1

>  <s_i_glide_gridfile>  (128) 
pfpi4k_grid

>  <i_i_glide_lignum>  (128) 
15

>  <i_i_glide_rotatable_bonds>  (128) 
0

>  <r_i_docking_score>  (128) 
-2.65509

>  <r_i_glide_ligand_efficiency>  (128) 
-0.0856481

>  <r_i_glide_ligand_efficiency_sa>  (128) 
-0.269053

>  <r_i_glide_ligand_efficiency_ln>  (128) 
-0.598804

>  <r_i_glide_gscore>  (128) 
-2.65509

>  <r_i_glide_lipo>  (128) 
-0.72594

>  <r_i_glide_hbond>  (128) 
0

>  <r_i_glide_metal>  (128) 
-0

>  <r_i_glide_rewards>  (128) 
-0.540594

>  <r_i_glide_evdw>  (128) 
-26.6727

>  <r_i_glide_ecoul>  (128) 
-0.366149

>  <r_i_glide_erotb>  (128) 
0

>  <r_i_glide_esite>  (128) 
0

>  <r_i_glide_emodel>  (128) 
-30.8229

>  <r_i_glide_energy>  (128) 
-27.0388

>  <r_i_glide_einternal>  (128) 
0

>  <r_i_glide_intrahb_reward>  (128) 
-0

>  <i_i_glide_confnum>  (128) 
1

>  <i_i_glide_posenum>  (128) 
2

>  <r_i_glide_eff_state_penalty>  (128) 
0

>  <ligand_id>  (128) 
37

>  <original_smiles>  (128) 
CC1CCC2C(CC3(C)C4CC=C5C6CCC(C)(CC57CC47CCC23C)C6(C)C)C1C

>  <smiles>  (128) 
[H]C1=C2C3([H])C([H])([H])C([H])([H])C(C([H])([H])[H])(C([H])([H])C24C([H])([H])C42C([H])([H])C([H])([H])C4(C([H])([H])[H])C5([H])C([H])([H])C([H])([H])C([H])(C([H])([H])[H])C([H])(C([H])([H])[H])C5([H])C([H])([H])C4(C([H])([H])[H])C2([H])C1([H])[H])C3(C([H])([H])[H])C([H])([H])[H]

$$$$
37:0:1
     RDKit          3D

 79 85  0  0  1  0  0  0  0  0999 V2000
    1.2393   -9.0471    9.4959 C   0  0  0  0  0  0  0  0  0  0  0  0
    1.9766   -8.7548    8.1784 C   0  0  2  0  0  0  0  0  0  0  0  0
    3.2547   -9.5984    8.0806 C   0  0  0  0  0  0  0  0  0  0  0  0
    3.9009   -9.4310    6.7044 C   0  0  0  0  0  0  0  0  0  0  0  0
    4.2993   -7.9643    6.4124 C   0  0  2  0  0  0  0  0  0  0  0  0
    3.1271   -7.0022    6.6636 C   0  0  1  0  0  0  0  0  0  0  0  0
    2.3483   -7.0292    5.3385 C   0  0  0  0  0  0  0  0  0  0  0  0
    3.3743   -7.2741    4.1865 C   0  0  1  0  0  0  0  0  0  0  0  0
    2.8182   -8.4338    3.3115 C   0  0  0  0  0  0  0  0  0  0  0  0
    3.5665   -5.9660    3.3138 C   0  0  2  0  0  0  0  0  0  0  0  0
    2.3751   -5.6360    2.3652 C   0  0  0  0  0  0  0  0  0  0  0  0
    2.6705   -4.4588    1.4600 C   0  0  0  0  0  0  0  0  0  0  0  0
    3.8988   -4.1433    1.0139 C   0  0  0  0  0  0  0  0  0  0  0  0
    4.1273   -2.8480    0.2401 C   0  0  1  0  0  0  0  0  0  0  0  0
    4.6864   -1.7952    1.2087 C   0  0  0  0  0  0  0  0  0  0  0  0
    6.2080   -1.9723    1.1505 C   0  0  0  0  0  0  0  0  0  0  0  0
    6.4591   -3.0882    0.1120 C   0  0  1  0  0  0  0  0  0  0  0  0
    7.8175   -2.8851   -0.5955 C   0  0  0  0  0  0  0  0  0  0  0  0
    6.4687   -4.4587    0.8479 C   0  0  0  0  0  0  0  0  0  0  0  0
    5.1030   -4.9866    1.3510 C   0  0  2  0  0  0  0  0  0  0  0  0
    5.0337   -6.5119    1.2334 C   0  0  0  0  0  0  0  0  0  0  0  0
    4.9209   -5.8982    2.5870 C   0  0  2  0  0  0  0  0  0  0  0  0
    6.0838   -5.9828    3.5660 C   0  0  0  0  0  0  0  0  0  0  0  0
    5.6969   -6.4842    4.9610 C   0  0  0  0  0  0  0  0  0  0  0  0
    4.7111   -7.6801    4.9350 C   0  0  1  0  0  0  0  0  0  0  0  0
    5.4849   -8.8650    4.2887 C   0  0  0  0  0  0  0  0  0  0  0  0
    5.2235   -2.9864   -0.8280 C   0  0  0  0  0  0  0  0  0  0  0  0
    5.0152   -4.1806   -1.7812 C   0  0  0  0  0  0  0  0  0  0  0  0
    5.2499   -1.7395   -1.7403 C   0  0  0  0  0  0  0  0  0  0  0  0
    2.3391   -7.2607    7.9823 C   0  0  1  0  0  0  0  0  0  0  0  0
    1.1277   -6.3207    8.1399 C   0  0  0  0  0  0  0  0  0  0  0  0
    1.8002   -8.6862   10.3588 H   0  0  0  0  0  0  0  0  0  0  0  0
    1.0859  -10.1204    9.6192 H   0  0  0  0  0  0  0  0  0  0  0  0
    0.2536   -8.5846    9.5099 H   0  0  0  0  0  0  0  0  0  0  0  0
    1.3148   -9.0683    7.3705 H   0  0  0  0  0  0  0  0  0  0  0  0
    3.9647   -9.3104    8.8579 H   0  0  0  0  0  0  0  0  0  0  0  0
    3.0229  -10.6537    8.2419 H   0  0  0  0  0  0  0  0  0  0  0  0
    4.7819  -10.0706    6.6592 H   0  0  0  0  0  0  0  0  0  0  0  0
    3.2031   -9.8053    5.9570 H   0  0  0  0  0  0  0  0  0  0  0  0
    5.1209   -7.7200    7.0879 H   0  0  0  0  0  0  0  0  0  0  0  0
    3.5324   -5.9949    6.7529 H   0  0  0  0  0  0  0  0  0  0  0  0
    1.6147   -7.8373    5.3720 H   0  0  0  0  0  0  0  0  0  0  0  0
    1.7742   -6.1119    5.2064 H   0  0  0  0  0  0  0  0  0  0  0  0
    3.4244   -8.6071    2.4241 H   0  0  0  0  0  0  0  0  0  0  0  0
    1.7980   -8.2406    2.9826 H   0  0  0  0  0  0  0  0  0  0  0  0
    2.7657   -9.3746    3.8573 H   0  0  0  0  0  0  0  0  0  0  0  0
    3.5899   -5.1264    4.0095 H   0  0  0  0  0  0  0  0  0  0  0  0
    2.1032   -6.4670    1.7134 H   0  0  0  0  0  0  0  0  0  0  0  0
    1.4955   -5.3891    2.9563 H   0  0  0  0  0  0  0  0  0  0  0  0
    1.8288   -3.8282    1.2077 H   0  0  0  0  0  0  0  0  0  0  0  0
    3.1829   -2.5165   -0.1924 H   0  0  0  0  0  0  0  0  0  0  0  0
    4.4150   -0.7925    0.8776 H   0  0  0  0  0  0  0  0  0  0  0  0
    4.2974   -1.9161    2.2216 H   0  0  0  0  0  0  0  0  0  0  0  0
    6.6735   -1.0306    0.8547 H   0  0  0  0  0  0  0  0  0  0  0  0
    6.6075   -2.2281    2.1294 H   0  0  0  0  0  0  0  0  0  0  0  0
    7.9707   -3.6110   -1.3944 H   0  0  0  0  0  0  0  0  0  0  0  0
    8.6413   -2.9921    0.1105 H   0  0  0  0  0  0  0  0  0  0  0  0
    7.9098   -1.8945   -1.0336 H   0  0  0  0  0  0  0  0  0  0  0  0
    6.8754   -5.1956    0.1546 H   0  0  0  0  0  0  0  0  0  0  0  0
    7.1784   -4.4200    1.6710 H   0  0  0  0  0  0  0  0  0  0  0  0
    4.1502   -6.9477    0.7746 H   0  0  0  0  0  0  0  0  0  0  0  0
    5.9488   -7.0614    1.0399 H   0  0  0  0  0  0  0  0  0  0  0  0
    6.8583   -6.6200    3.1436 H   0  0  0  0  0  0  0  0  0  0  0  0
    6.5189   -4.9959    3.6853 H   0  0  0  0  0  0  0  0  0  0  0  0
    6.6049   -6.7456    5.5079 H   0  0  0  0  0  0  0  0  0  0  0  0
    5.2689   -5.6439    5.5082 H   0  0  0  0  0  0  0  0  0  0  0  0
    5.7400   -8.6592    3.2484 H   0  0  0  0  0  0  0  0  0  0  0  0
    4.9273   -9.8006    4.2831 H   0  0  0  0  0  0  0  0  0  0  0  0
    6.4209   -9.0571    4.8154 H   0  0  0  0  0  0  0  0  0  0  0  0
    5.8274   -4.2379   -2.5052 H   0  0  0  0  0  0  0  0  0  0  0  0
    4.0950   -4.0606   -2.3497 H   0  0  0  0  0  0  0  0  0  0  0  0
    4.9522   -5.1464   -1.2848 H   0  0  0  0  0  0  0  0  0  0  0  0
    5.9953   -1.8725   -2.5199 H   0  0  0  0  0  0  0  0  0  0  0  0
    5.4836   -0.8133   -1.2165 H   0  0  0  0  0  0  0  0  0  0  0  0
    4.2909   -1.5968   -2.2413 H   0  0  0  0  0  0  0  0  0  0  0  0
    3.0220   -7.0028    8.7953 H   0  0  0  0  0  0  0  0  0  0  0  0
    0.3150   -6.5888    7.4639 H   0  0  0  0  0  0  0  0  0  0  0  0
    1.4011   -5.2821    7.9512 H   0  0  0  0  0  0  0  0  0  0  0  0
    0.7368   -6.3572    9.1573 H   0  0  0  0  0  0  0  0  0  0  0  0
  1  2  1  0
  1 32  1  0
  1 33  1  0
  1 34  1  0
  2 30  1  0
  2  3  1  0
  2 35  1  6
  3  4  1  0
  3 36  1  0
  3 37  1  0
  4  5  1  0
  4 38  1  0
  4 39  1  0
  5 25  1  0
  5  6  1  0
  5 40  1  1
  6  7  1  0
  6 30  1  0
  6 41  1  1
  7  8  1  0
  7 42  1  0
  7 43  1  0
  8 25  1  0
  8  9  1  6
  8 10  1  0
  9 44  1  0
  9 45  1  0
  9 46  1  0
 10 22  1  0
 10 11  1  0
 10 47  1  1
 11 12  1  0
 11 48  1  0
 11 49  1  0
 12 13  2  0
 12 50  1  0
 13 20  1  0
 13 14  1  0
 14 27  1  0
 14 15  1  0
 14 51  1  6
 15 16  1  0
 15 52  1  0
 15 53  1  0
 16 17  1  0
 16 54  1  0
 16 55  1  0
 17 18  1  6
 17 19  1  0
 17 27  1  0
 18 56  1  0
 18 57  1  0
 18 58  1  0
 20 19  1  1
 19 59  1  0
 19 60  1  0
 20 22  1  0
 20 21  1  0
 22 21  1  6
 21 61  1  0
 21 62  1  0
 22 23  1  0
 23 24  1  0
 23 63  1  0
 23 64  1  0
 24 25  1  0
 24 65  1  0
 24 66  1  0
 25 26  1  6
 26 67  1  0
 26 68  1  0
 26 69  1  0
 27 28  1  0
 27 29  1  0
 28 70  1  0
 28 71  1  0
 28 72  1  0
 29 73  1  0
 29 74  1  0
 29 75  1  0
 30 31  1  0
 30 76  1  1
 31 77  1  0
 31 78  1  0
 31 79  1  0
M  END
>  <i_m_ct_stereo_status>  (129) 
1

>  <s_m_source_file>  (129) 
/var/tmp/pbs.5076255.sched01/tmp3npnc3rz/42_8qtnw6u.sdf

>  <i_m_source_file_index>  (129) 
15

>  <i_lp_mmshare_version>  (129) 
48012

>  <i_f3d_flags>  (129) 
0

>  <s_epik_input>  (129) 
W0NIMl0xW0NIMl1bQ0BASF0oW0NIM10pW0NASF0oW0NIM10pW0NASF0oW0NIMl0yKVtDQEBIXTFbQ0BdKFtDSDNdKShbQ0gyXVtDSDJdMylbQ0BdMihbQ0gzXSlbQ0BASF0oW0NAXTMoW0NAQF00NTYpW0NIMl02KVtDSDJdW0NIXT1DNFtDQEhdN1tDSDJdW0NIMl1bQ0BAXShbQ0gzXSkoW0NIMl01KUM3KFtDSDNdKVtDSDNd

>  <s_epik_cmdline>  (129) 
J2VwaWtfcHl0aG9uJywgJy1waHQnLCAnMi4wJywgJy1waCcsICc3LjAnLCAnLXRuJywgJzgnLCAnLW1hJywgJzIwMCcsICctaW1hZScsICc8aW5maWxlLm1hZT4nLCAnLW9tYWUnLCAnPG91dGZpbGUubWFlPic=

>  <r_lp_tautomer_probability>  (129) 
1

>  <r_epik_Ionization_Penalty>  (129) 
0

>  <r_epik_Ionization_Penalty_Charging>  (129) 
0

>  <r_epik_Ionization_Penalty_Neutral>  (129) 
0

>  <r_epik_State_Penalty>  (129) 
-0

>  <r_epik_Charging_Adjusted_Penalty>  (129) 
0

>  <i_epik_Tot_Q>  (129) 
0

>  <i_epik_Tot_abs_Q>  (129) 
0

>  <s_lp_Force_Field>  (129) 
OPLS3e

>  <r_lp_Energy>  (129) 
97.7861

>  <b_lp_Chiralities_Consistent>  (129) 
1

>  <s_lp_Variant>  (129) 
37:0-1

>  <s_i_glide_gridfile>  (129) 
pfpi4k_grid

>  <i_i_glide_lignum>  (129) 
15

>  <i_i_glide_rotatable_bonds>  (129) 
0

>  <r_i_docking_score>  (129) 
-2.32

>  <r_i_glide_ligand_efficiency>  (129) 
-0.0748388

>  <r_i_glide_ligand_efficiency_sa>  (129) 
-0.235097

>  <r_i_glide_ligand_efficiency_ln>  (129) 
-0.523232

>  <r_i_glide_gscore>  (129) 
-2.32

>  <r_i_glide_lipo>  (129) 
-0.539061

>  <r_i_glide_hbond>  (129) 
0

>  <r_i_glide_metal>  (129) 
-0

>  <r_i_glide_rewards>  (129) 
-0.540594

>  <r_i_glide_evdw>  (129) 
-24.7105

>  <r_i_glide_ecoul>  (129) 
-0.0321722

>  <r_i_glide_erotb>  (129) 
0

>  <r_i_glide_esite>  (129) 
0

>  <r_i_glide_emodel>  (129) 
-28.039

>  <r_i_glide_energy>  (129) 
-24.7426

>  <r_i_glide_einternal>  (129) 
0

>  <r_i_glide_intrahb_reward>  (129) 
-0

>  <i_i_glide_confnum>  (129) 
1

>  <i_i_glide_posenum>  (129) 
8

>  <r_i_glide_eff_state_penalty>  (129) 
0

>  <ligand_id>  (129) 
37

>  <original_smiles>  (129) 
CC1CCC2C(CC3(C)C4CC=C5C6CCC(C)(CC57CC47CCC23C)C6(C)C)C1C

>  <smiles>  (129) 
[H]C1=C2C3([H])C([H])([H])C([H])([H])C(C([H])([H])[H])(C([H])([H])C24C([H])([H])C42C([H])([H])C([H])([H])C4(C([H])([H])[H])C5([H])C([H])([H])C([H])([H])C([H])(C([H])([H])[H])C([H])(C([H])([H])[H])C5([H])C([H])([H])C4(C([H])([H])[H])C2([H])C1([H])[H])C3(C([H])([H])[H])C([H])([H])[H]

$$$$
37:0:2
     RDKit          3D

 79 85  0  0  1  0  0  0  0  0999 V2000
    1.7177   -9.9011    9.6200 C   0  0  0  0  0  0  0  0  0  0  0  0
    2.4782   -9.3034    8.4243 C   0  0  2  0  0  0  0  0  0  0  0  0
    3.9934   -9.4220    8.6384 C   0  0  0  0  0  0  0  0  0  0  0  0
    4.7490   -8.9684    7.3884 C   0  0  0  0  0  0  0  0  0  0  0  0
    4.4485   -7.4960    7.0175 C   0  0  2  0  0  0  0  0  0  0  0  0
    2.9361   -7.2244    6.9565 C   0  0  1  0  0  0  0  0  0  0  0  0
    2.5541   -7.6381    5.5261 C   0  0  0  0  0  0  0  0  0  0  0  0
    3.7845   -7.3557    4.6057 C   0  0  1  0  0  0  0  0  0  0  0  0
    4.0417   -8.6440    3.7723 C   0  0  0  0  0  0  0  0  0  0  0  0
    3.4990   -6.1279    3.6494 C   0  0  2  0  0  0  0  0  0  0  0  0
    2.5234   -6.4318    2.4750 C   0  0  0  0  0  0  0  0  0  0  0  0
    2.4085   -5.2704    1.5098 C   0  0  0  0  0  0  0  0  0  0  0  0
    3.3957   -4.3904    1.2616 C   0  0  0  0  0  0  0  0  0  0  0  0
    3.1367   -3.1481    0.4073 C   0  0  1  0  0  0  0  0  0  0  0  0
    2.9164   -1.9542    1.3531 C   0  0  0  0  0  0  0  0  0  0  0  0
    4.3109   -1.3640    1.5845 C   0  0  0  0  0  0  0  0  0  0  0  0
    5.2667   -2.2226    0.7242 C   0  0  1  0  0  0  0  0  0  0  0  0
    6.4737   -1.3875    0.2533 C   0  0  0  0  0  0  0  0  0  0  0  0
    5.7746   -3.4091    1.5880 C   0  0  0  0  0  0  0  0  0  0  0  0
    4.7543   -4.5332    1.8968 C   0  0  2  0  0  0  0  0  0  0  0  0
    5.4447   -5.8962    1.9331 C   0  0  0  0  0  0  0  0  0  0  0  0
    4.7769   -5.4049    3.1706 C   0  0  2  0  0  0  0  0  0  0  0  0
    5.6047   -4.9024    4.3450 C   0  0  0  0  0  0  0  0  0  0  0  0
    5.2331   -5.5250    5.6915 C   0  0  0  0  0  0  0  0  0  0  0  0
    4.9687   -7.0524    5.6146 C   0  0  1  0  0  0  0  0  0  0  0  0
    6.3286   -7.7139    5.2437 C   0  0  0  0  0  0  0  0  0  0  0  0
    4.3650   -2.7409   -0.4336 C   0  0  0  0  0  0  0  0  0  0  0  0
    4.9624   -3.8986   -1.2719 C   0  0  0  0  0  0  0  0  0  0  0  0
    3.9847   -1.6333   -1.4517 C   0  0  0  0  0  0  0  0  0  0  0  0
    2.1159   -7.8254    8.1362 C   0  0  1  0  0  0  0  0  0  0  0  0
    0.6005   -7.5976    7.9788 C   0  0  0  0  0  0  0  0  0  0  0  0
    1.8472   -9.3124   10.5273 H   0  0  0  0  0  0  0  0  0  0  0  0
    2.0639  -10.9170    9.8199 H   0  0  0  0  0  0  0  0  0  0  0  0
    0.6533   -9.9801    9.4041 H   0  0  0  0  0  0  0  0  0  0  0  0
    2.2178   -9.9062    7.5520 H   0  0  0  0  0  0  0  0  0  0  0  0
    4.3030   -8.8220    9.4957 H   0  0  0  0  0  0  0  0  0  0  0  0
    4.2616  -10.4540    8.8685 H   0  0  0  0  0  0  0  0  0  0  0  0
    5.8171   -9.0985    7.5631 H   0  0  0  0  0  0  0  0  0  0  0  0
    4.4810   -9.6375    6.5734 H   0  0  0  0  0  0  0  0  0  0  0  0
    4.8944   -6.8802    7.8003 H   0  0  0  0  0  0  0  0  0  0  0  0
    2.7845   -6.1462    7.0124 H   0  0  0  0  0  0  0  0  0  0  0  0
    2.3053   -8.7005    5.5170 H   0  0  0  0  0  0  0  0  0  0  0  0
    1.6540   -7.1178    5.2001 H   0  0  0  0  0  0  0  0  0  0  0  0
    4.8248   -8.5030    3.0285 H   0  0  0  0  0  0  0  0  0  0  0  0
    3.1453   -8.9744    3.2494 H   0  0  0  0  0  0  0  0  0  0  0  0
    4.3326   -9.4889    4.3951 H   0  0  0  0  0  0  0  0  0  0  0  0
    2.9785   -5.3773    4.2458 H   0  0  0  0  0  0  0  0  0  0  0  0
    2.8208   -7.2944    1.8760 H   0  0  0  0  0  0  0  0  0  0  0  0
    1.5308   -6.6407    2.8731 H   0  0  0  0  0  0  0  0  0  0  0  0
    1.4498   -5.1500    1.0375 H   0  0  0  0  0  0  0  0  0  0  0  0
    2.2573   -3.3114   -0.2178 H   0  0  0  0  0  0  0  0  0  0  0  0
    2.2771   -1.2102    0.8808 H   0  0  0  0  0  0  0  0  0  0  0  0
    2.4290   -2.2411    2.2864 H   0  0  0  0  0  0  0  0  0  0  0  0
    4.3171   -0.3186    1.2693 H   0  0  0  0  0  0  0  0  0  0  0  0
    4.5814   -1.3730    2.6411 H   0  0  0  0  0  0  0  0  0  0  0  0
    7.1114   -1.9594   -0.4202 H   0  0  0  0  0  0  0  0  0  0  0  0
    7.0816   -1.0707    1.1009 H   0  0  0  0  0  0  0  0  0  0  0  0
    6.1585   -0.4815   -0.2659 H   0  0  0  0  0  0  0  0  0  0  0  0
    6.6184   -3.8565    1.0622 H   0  0  0  0  0  0  0  0  0  0  0  0
    6.1914   -3.0198    2.5123 H   0  0  0  0  0  0  0  0  0  0  0  0
    4.9967   -6.7119    1.3710 H   0  0  0  0  0  0  0  0  0  0  0  0
    6.5309   -5.9311    1.9582 H   0  0  0  0  0  0  0  0  0  0  0  0
    6.6573   -5.0890    4.1344 H   0  0  0  0  0  0  0  0  0  0  0  0
    5.4825   -3.8240    4.4300 H   0  0  0  0  0  0  0  0  0  0  0  0
    6.0218   -5.3105    6.4122 H   0  0  0  0  0  0  0  0  0  0  0  0
    4.3550   -5.0011    6.0680 H   0  0  0  0  0  0  0  0  0  0  0  0
    6.6612   -7.4153    4.2503 H   0  0  0  0  0  0  0  0  0  0  0  0
    6.2975   -8.8019    5.2388 H   0  0  0  0  0  0  0  0  0  0  0  0
    7.1110   -7.4231    5.9457 H   0  0  0  0  0  0  0  0  0  0  0  0
    5.8583   -3.5815   -1.8068 H   0  0  0  0  0  0  0  0  0  0  0  0
    4.2405   -4.2415   -2.0130 H   0  0  0  0  0  0  0  0  0  0  0  0
    5.2346   -4.7766   -0.6904 H   0  0  0  0  0  0  0  0  0  0  0  0
    4.8338   -1.3597   -2.0791 H   0  0  0  0  0  0  0  0  0  0  0  0
    3.6277   -0.7181   -0.9812 H   0  0  0  0  0  0  0  0  0  0  0  0
    3.1915   -1.9753   -2.1185 H   0  0  0  0  0  0  0  0  0  0  0  0
    2.4105   -7.2627    9.0248 H   0  0  0  0  0  0  0  0  0  0  0  0
    0.1761   -8.2333    7.2014 H   0  0  0  0  0  0  0  0  0  0  0  0
    0.3761   -6.5603    7.7322 H   0  0  0  0  0  0  0  0  0  0  0  0
    0.0743   -7.8188    8.9083 H   0  0  0  0  0  0  0  0  0  0  0  0
  1  2  1  0
  1 32  1  0
  1 33  1  0
  1 34  1  0
  2 30  1  0
  2  3  1  0
  2 35  1  6
  3  4  1  0
  3 36  1  0
  3 37  1  0
  4  5  1  0
  4 38  1  0
  4 39  1  0
  5 25  1  0
  5  6  1  0
  5 40  1  1
  6  7  1  0
  6 30  1  0
  6 41  1  6
  7  8  1  0
  7 42  1  0
  7 43  1  0
  8 25  1  0
  8  9  1  6
  8 10  1  0
  9 44  1  0
  9 45  1  0
  9 46  1  0
 10 22  1  0
 10 11  1  0
 10 47  1  1
 11 12  1  0
 11 48  1  0
 11 49  1  0
 12 13  2  0
 12 50  1  0
 13 20  1  0
 13 14  1  0
 14 27  1  0
 14 15  1  0
 14 51  1  6
 15 16  1  0
 15 52  1  0
 15 53  1  0
 16 17  1  0
 16 54  1  0
 16 55  1  0
 17 18  1  6
 17 19  1  0
 17 27  1  0
 18 56  1  0
 18 57  1  0
 18 58  1  0
 20 19  1  1
 19 59  1  0
 19 60  1  0
 20 22  1  0
 20 21  1  0
 22 21  1  6
 21 61  1  0
 21 62  1  0
 22 23  1  0
 23 24  1  0
 23 63  1  0
 23 64  1  0
 24 25  1  0
 24 65  1  0
 24 66  1  0
 25 26  1  6
 26 67  1  0
 26 68  1  0
 26 69  1  0
 27 28  1  0
 27 29  1  0
 28 70  1  0
 28 71  1  0
 28 72  1  0
 29 73  1  0
 29 74  1  0
 29 75  1  0
 30 31  1  0
 30 76  1  1
 31 77  1  0
 31 78  1  0
 31 79  1  0
M  END
>  <i_m_ct_stereo_status>  (130) 
1

>  <s_m_source_file>  (130) 
/var/tmp/pbs.5076255.sched01/tmp3npnc3rz/42_8qtnw6u.sdf

>  <i_m_source_file_index>  (130) 
15

>  <i_lp_mmshare_version>  (130) 
48012

>  <i_f3d_flags>  (130) 
0

>  <s_epik_input>  (130) 
W0NIMl0xW0NIMl1bQ0BASF0oW0NIM10pW0NASF0oW0NIM10pW0NASF0oW0NIMl0yKVtDQEBIXTFbQ0BdKFtDSDNdKShbQ0gyXVtDSDJdMylbQ0BdMihbQ0gzXSlbQ0BASF0oW0NAXTMoW0NAQF00NTYpW0NIMl02KVtDSDJdW0NIXT1DNFtDQEhdN1tDSDJdW0NIMl1bQ0BAXShbQ0gzXSkoW0NIMl01KUM3KFtDSDNdKVtDSDNd

>  <s_epik_cmdline>  (130) 
J2VwaWtfcHl0aG9uJywgJy1waHQnLCAnMi4wJywgJy1waCcsICc3LjAnLCAnLXRuJywgJzgnLCAnLW1hJywgJzIwMCcsICctaW1hZScsICc8aW5maWxlLm1hZT4nLCAnLW9tYWUnLCAnPG91dGZpbGUubWFlPic=

>  <r_lp_tautomer_probability>  (130) 
1

>  <r_epik_Ionization_Penalty>  (130) 
0

>  <r_epik_Ionization_Penalty_Charging>  (130) 
0

>  <r_epik_Ionization_Penalty_Neutral>  (130) 
0

>  <r_epik_State_Penalty>  (130) 
-0

>  <r_epik_Charging_Adjusted_Penalty>  (130) 
0

>  <i_epik_Tot_Q>  (130) 
0

>  <i_epik_Tot_abs_Q>  (130) 
0

>  <s_lp_Force_Field>  (130) 
OPLS3e

>  <r_lp_Energy>  (130) 
97.7861

>  <b_lp_Chiralities_Consistent>  (130) 
1

>  <s_lp_Variant>  (130) 
37:0-1

>  <s_i_glide_gridfile>  (130) 
pfpi4k_grid

>  <i_i_glide_lignum>  (130) 
15

>  <i_i_glide_rotatable_bonds>  (130) 
0

>  <r_i_docking_score>  (130) 
-1.79073

>  <r_i_glide_ligand_efficiency>  (130) 
-0.0577655

>  <r_i_glide_ligand_efficiency_sa>  (130) 
-0.181464

>  <r_i_glide_ligand_efficiency_ln>  (130) 
-0.403865

>  <r_i_glide_gscore>  (130) 
-1.79073

>  <r_i_glide_lipo>  (130) 
-0.171495

>  <r_i_glide_hbond>  (130) 
0

>  <r_i_glide_metal>  (130) 
-0

>  <r_i_glide_rewards>  (130) 
-0.540594

>  <r_i_glide_evdw>  (130) 
-23.5737

>  <r_i_glide_ecoul>  (130) 
0.666956

>  <r_i_glide_erotb>  (130) 
0

>  <r_i_glide_esite>  (130) 
0

>  <r_i_glide_emodel>  (130) 
-25.4344

>  <r_i_glide_energy>  (130) 
-22.9068

>  <r_i_glide_einternal>  (130) 
0

>  <r_i_glide_intrahb_reward>  (130) 
-0

>  <i_i_glide_confnum>  (130) 
1

>  <i_i_glide_posenum>  (130) 
5

>  <r_i_glide_eff_state_penalty>  (130) 
0

>  <ligand_id>  (130) 
37

>  <original_smiles>  (130) 
CC1CCC2C(CC3(C)C4CC=C5C6CCC(C)(CC57CC47CCC23C)C6(C)C)C1C

>  <smiles>  (130) 
[H]C1=C2C3([H])C([H])([H])C([H])([H])C(C([H])([H])[H])(C([H])([H])C24C([H])([H])C42C([H])([H])C([H])([H])C4(C([H])([H])[H])C5([H])C([H])([H])C([H])([H])C([H])(C([H])([H])[H])C([H])(C([H])([H])[H])C5([H])C([H])([H])C4(C([H])([H])[H])C2([H])C1([H])[H])C3(C([H])([H])[H])C([H])([H])[H]

$$$$
38:0:0
     RDKit          3D

 26 27  0  0  1  0  0  0  0  0999 V2000
   -7.0242   -4.9014   -4.1072 C   0  0  0  0  0  0  0  0  0  0  0  0
   -7.7175   -4.7522   -5.4370 C   0  0  0  0  0  0  0  0  0  0  0  0
   -7.8144   -5.4915   -6.5285 C   0  0  0  0  0  0  0  0  0  0  0  0
   -7.3195   -6.8373   -7.0133 C   0  0  0  0  0  0  0  0  0  0  0  0
   -8.5041   -7.6586   -7.5595 C   0  0  0  0  0  0  0  0  0  0  0  0
   -9.5409   -6.8021   -8.3463 C   0  0  0  0  0  0  0  0  0  0  0  0
  -10.0332   -5.5289   -7.6069 C   0  0  0  0  0  0  0  0  0  0  0  0
   -8.8611   -4.6143   -7.1860 C   0  0  2  0  0  0  0  0  0  0  0  0
   -8.2702   -3.8628   -8.3611 C   0  0  0  0  0  0  0  0  0  0  0  0
   -8.8717   -3.8461   -5.8138 C   0  0  0  0  0  0  0  0  0  0  0  0
   -6.5570   -3.9506   -3.8888 H   0  0  0  0  0  0  0  0  0  0  0  0
   -6.2785   -5.7019   -4.0570 H   0  0  0  0  0  0  0  0  0  0  0  0
   -7.7847   -5.0459   -3.3529 H   0  0  0  0  0  0  0  0  0  0  0  0
   -6.6569   -6.6933   -7.8617 H   0  0  0  0  0  0  0  0  0  0  0  0
   -6.7308   -7.3400   -6.2350 H   0  0  0  0  0  0  0  0  0  0  0  0
   -8.1327   -8.4461   -8.2128 H   0  0  0  0  0  0  0  0  0  0  0  0
   -8.9777   -8.1911   -6.7390 H   0  0  0  0  0  0  0  0  0  0  0  0
   -9.1411   -6.5233   -9.3243 H   0  0  0  0  0  0  0  0  0  0  0  0
  -10.4124   -7.4182   -8.5504 H   0  0  0  0  0  0  0  0  0  0  0  0
  -10.7648   -4.9926   -8.2238 H   0  0  0  0  0  0  0  0  0  0  0  0
  -10.5996   -5.8415   -6.7298 H   0  0  0  0  0  0  0  0  0  0  0  0
   -8.9750   -3.1154   -8.7159 H   0  0  0  0  0  0  0  0  0  0  0  0
   -8.0120   -4.5379   -9.1773 H   0  0  0  0  0  0  0  0  0  0  0  0
   -7.3937   -3.3091   -8.0429 H   0  0  0  0  0  0  0  0  0  0  0  0
   -9.8024   -3.9584   -5.2481 H   0  0  0  0  0  0  0  0  0  0  0  0
   -8.6201   -2.7856   -5.8898 H   0  0  0  0  0  0  0  0  0  0  0  0
  1  2  1  0
  1 11  1  0
  1 12  1  0
  1 13  1  0
  2 10  1  0
  2  3  2  0
  3  8  1  0
  3  4  1  0
  4  5  1  0
  4 14  1  0
  4 15  1  0
  5  6  1  0
  5 16  1  0
  5 17  1  0
  6  7  1  0
  6 18  1  0
  6 19  1  0
  7  8  1  0
  7 20  1  0
  7 21  1  0
  8  9  1  6
  8 10  1  0
  9 22  1  0
  9 23  1  0
  9 24  1  0
 10 25  1  0
 10 26  1  0
M  END
>  <i_m_ct_stereo_status>  (131) 
1

>  <s_m_source_file>  (131) 
/var/tmp/pbs.5076255.sched01/tmp3npnc3rz/42_8qtnw6u.sdf

>  <i_m_source_file_index>  (131) 
16

>  <i_lp_mmshare_version>  (131) 
48012

>  <i_f3d_flags>  (131) 
0

>  <s_epik_input>  (131) 
W0NIM11DKFtDSDJdMSk9QyhbQ0BdMTJbQ0gzXSlbQ0gyXVtDSDJdW0NIMl1bQ0gyXTI=

>  <s_epik_cmdline>  (131) 
J2VwaWtfcHl0aG9uJywgJy1waHQnLCAnMi4wJywgJy1waCcsICc3LjAnLCAnLXRuJywgJzgnLCAnLW1hJywgJzIwMCcsICctaW1hZScsICc8aW5maWxlLm1hZT4nLCAnLW9tYWUnLCAnPG91dGZpbGUubWFlPic=

>  <r_lp_tautomer_probability>  (131) 
1

>  <r_epik_Ionization_Penalty>  (131) 
0

>  <r_epik_Ionization_Penalty_Charging>  (131) 
0

>  <r_epik_Ionization_Penalty_Neutral>  (131) 
0

>  <r_epik_State_Penalty>  (131) 
-0

>  <r_epik_Charging_Adjusted_Penalty>  (131) 
0

>  <i_epik_Tot_Q>  (131) 
0

>  <i_epik_Tot_abs_Q>  (131) 
0

>  <s_lp_Force_Field>  (131) 
OPLS3e

>  <r_lp_Energy>  (131) 
12.5364

>  <b_lp_Chiralities_Consistent>  (131) 
1

>  <s_lp_Variant>  (131) 
38:0-1

>  <s_i_glide_gridfile>  (131) 
pfpi4k_grid

>  <i_i_glide_lignum>  (131) 
16

>  <i_i_glide_rotatable_bonds>  (131) 
0

>  <r_i_docking_score>  (131) 
-5.31821

>  <r_i_glide_ligand_efficiency>  (131) 
-0.531821

>  <r_i_glide_ligand_efficiency_sa>  (131) 
-1.14577

>  <r_i_glide_ligand_efficiency_ln>  (131) 
-1.61032

>  <r_i_glide_gscore>  (131) 
-5.31821

>  <r_i_glide_lipo>  (131) 
-1.91037

>  <r_i_glide_hbond>  (131) 
0

>  <r_i_glide_metal>  (131) 
-0

>  <r_i_glide_rewards>  (131) 
-2.925

>  <r_i_glide_evdw>  (131) 
-11.1308

>  <r_i_glide_ecoul>  (131) 
0.491343

>  <r_i_glide_erotb>  (131) 
0

>  <r_i_glide_esite>  (131) 
0

>  <r_i_glide_emodel>  (131) 
-12.8732

>  <r_i_glide_energy>  (131) 
-10.6395

>  <r_i_glide_einternal>  (131) 
0

>  <r_i_glide_intrahb_reward>  (131) 
-0

>  <i_i_glide_confnum>  (131) 
1

>  <i_i_glide_posenum>  (131) 
8

>  <r_i_glide_eff_state_penalty>  (131) 
0

>  <ligand_id>  (131) 
38

>  <original_smiles>  (131) 
CC1=C2CCCCC2(C)C1

>  <smiles>  (131) 
[H]C([H])([H])C1=C2C([H])([H])C([H])([H])C([H])([H])C([H])([H])C2(C([H])([H])[H])C1([H])[H]

$$$$
38:0:1
     RDKit          3D

 26 27  0  0  1  0  0  0  0  0999 V2000
   -6.9693   -4.6641   -3.3838 C   0  0  0  0  0  0  0  0  0  0  0  0
   -7.4161   -4.9269   -4.7957 C   0  0  0  0  0  0  0  0  0  0  0  0
   -8.5097   -4.8211   -5.5204 C   0  0  0  0  0  0  0  0  0  0  0  0
   -9.8906   -4.2464   -5.3460 C   0  0  0  0  0  0  0  0  0  0  0  0
  -10.1451   -3.1792   -6.3720 C   0  0  0  0  0  0  0  0  0  0  0  0
   -9.6089   -3.5717   -7.7462 C   0  0  0  0  0  0  0  0  0  0  0  0
   -8.1314   -4.0152   -7.7845 C   0  0  0  0  0  0  0  0  0  0  0  0
   -7.8327   -5.1619   -6.8229 C   0  0  2  0  0  0  0  0  0  0  0  0
   -8.3790   -6.4779   -7.3394 C   0  0  0  0  0  0  0  0  0  0  0  0
   -6.5169   -5.2094   -5.9540 C   0  0  0  0  0  0  0  0  0  0  0  0
   -6.4793   -5.5624   -3.0129 H   0  0  0  0  0  0  0  0  0  0  0  0
   -7.8059   -4.4442   -2.7610 H   0  0  0  0  0  0  0  0  0  0  0  0
   -6.2517   -3.8440   -3.3334 H   0  0  0  0  0  0  0  0  0  0  0  0
  -10.5843   -5.0591   -5.5361 H   0  0  0  0  0  0  0  0  0  0  0  0
  -10.0364   -3.8648   -4.3303 H   0  0  0  0  0  0  0  0  0  0  0  0
  -11.2001   -2.9266   -6.4431 H   0  0  0  0  0  0  0  0  0  0  0  0
   -9.6434   -2.2760   -6.0388 H   0  0  0  0  0  0  0  0  0  0  0  0
  -10.2284   -4.3350   -8.2129 H   0  0  0  0  0  0  0  0  0  0  0  0
   -9.6692   -2.6654   -8.3145 H   0  0  0  0  0  0  0  0  0  0  0  0
   -7.8453   -4.2939   -8.8066 H   0  0  0  0  0  0  0  0  0  0  0  0
   -7.5089   -3.1586   -7.5401 H   0  0  0  0  0  0  0  0  0  0  0  0
   -7.8057   -6.8062   -8.2012 H   0  0  0  0  0  0  0  0  0  0  0  0
   -9.4336   -6.4174   -7.6318 H   0  0  0  0  0  0  0  0  0  0  0  0
   -8.2887   -7.2529   -6.5837 H   0  0  0  0  0  0  0  0  0  0  0  0
   -5.8339   -4.4044   -6.2083 H   0  0  0  0  0  0  0  0  0  0  0  0
   -6.0497   -6.1952   -5.9601 H   0  0  0  0  0  0  0  0  0  0  0  0
  1  2  1  0
  1 11  1  0
  1 12  1  0
  1 13  1  0
  2 10  1  0
  2  3  2  0
  3  8  1  0
  3  4  1  0
  4  5  1  0
  4 14  1  0
  4 15  1  0
  5  6  1  0
  5 16  1  0
  5 17  1  0
  6  7  1  0
  6 18  1  0
  6 19  1  0
  7  8  1  0
  7 20  1  0
  7 21  1  0
  8  9  1  6
  8 10  1  0
  9 22  1  0
  9 23  1  0
  9 24  1  0
 10 25  1  0
 10 26  1  0
M  END
>  <i_m_ct_stereo_status>  (132) 
1

>  <s_m_source_file>  (132) 
/var/tmp/pbs.5076255.sched01/tmp3npnc3rz/42_8qtnw6u.sdf

>  <i_m_source_file_index>  (132) 
16

>  <i_lp_mmshare_version>  (132) 
48012

>  <i_f3d_flags>  (132) 
0

>  <s_epik_input>  (132) 
W0NIM11DKFtDSDJdMSk9QyhbQ0BdMTJbQ0gzXSlbQ0gyXVtDSDJdW0NIMl1bQ0gyXTI=

>  <s_epik_cmdline>  (132) 
J2VwaWtfcHl0aG9uJywgJy1waHQnLCAnMi4wJywgJy1waCcsICc3LjAnLCAnLXRuJywgJzgnLCAnLW1hJywgJzIwMCcsICctaW1hZScsICc8aW5maWxlLm1hZT4nLCAnLW9tYWUnLCAnPG91dGZpbGUubWFlPic=

>  <r_lp_tautomer_probability>  (132) 
1

>  <r_epik_Ionization_Penalty>  (132) 
0

>  <r_epik_Ionization_Penalty_Charging>  (132) 
0

>  <r_epik_Ionization_Penalty_Neutral>  (132) 
0

>  <r_epik_State_Penalty>  (132) 
-0

>  <r_epik_Charging_Adjusted_Penalty>  (132) 
0

>  <i_epik_Tot_Q>  (132) 
0

>  <i_epik_Tot_abs_Q>  (132) 
0

>  <s_lp_Force_Field>  (132) 
OPLS3e

>  <r_lp_Energy>  (132) 
12.5364

>  <b_lp_Chiralities_Consistent>  (132) 
1

>  <s_lp_Variant>  (132) 
38:0-1

>  <s_i_glide_gridfile>  (132) 
pfpi4k_grid

>  <i_i_glide_lignum>  (132) 
16

>  <i_i_glide_rotatable_bonds>  (132) 
0

>  <r_i_docking_score>  (132) 
-5.19637

>  <r_i_glide_ligand_efficiency>  (132) 
-0.519637

>  <r_i_glide_ligand_efficiency_sa>  (132) 
-1.11952

>  <r_i_glide_ligand_efficiency_ln>  (132) 
-1.57342

>  <r_i_glide_gscore>  (132) 
-5.19637

>  <r_i_glide_lipo>  (132) 
-1.87377

>  <r_i_glide_hbond>  (132) 
0

>  <r_i_glide_metal>  (132) 
-0

>  <r_i_glide_rewards>  (132) 
-2.94039

>  <r_i_glide_evdw>  (132) 
-9.56783

>  <r_i_glide_ecoul>  (132) 
0.641216

>  <r_i_glide_erotb>  (132) 
0

>  <r_i_glide_esite>  (132) 
0

>  <r_i_glide_emodel>  (132) 
-11.0385

>  <r_i_glide_energy>  (132) 
-8.92662

>  <r_i_glide_einternal>  (132) 
0

>  <r_i_glide_intrahb_reward>  (132) 
-0

>  <i_i_glide_confnum>  (132) 
2

>  <i_i_glide_posenum>  (132) 
35

>  <r_i_glide_eff_state_penalty>  (132) 
0

>  <ligand_id>  (132) 
38

>  <original_smiles>  (132) 
CC1=C2CCCCC2(C)C1

>  <smiles>  (132) 
[H]C([H])([H])C1=C2C([H])([H])C([H])([H])C([H])([H])C([H])([H])C2(C([H])([H])[H])C1([H])[H]

$$$$
38:0:2
     RDKit          3D

 26 27  0  0  1  0  0  0  0  0999 V2000
   -5.9785   -4.6399   -4.4061 C   0  0  0  0  0  0  0  0  0  0  0  0
   -6.4248   -5.7632   -5.3116 C   0  0  0  0  0  0  0  0  0  0  0  0
   -5.8813   -6.8153   -5.9102 C   0  0  0  0  0  0  0  0  0  0  0  0
   -4.5405   -7.4858   -6.0160 C   0  0  0  0  0  0  0  0  0  0  0  0
   -4.6706   -8.9560   -5.5991 C   0  0  0  0  0  0  0  0  0  0  0  0
   -5.9180   -9.6304   -6.2214 C   0  0  0  0  0  0  0  0  0  0  0  0
   -7.2330   -8.8503   -5.9591 C   0  0  0  0  0  0  0  0  0  0  0  0
   -7.1812   -7.3911   -6.4254 C   0  0  2  0  0  0  0  0  0  0  0  0
   -7.3217   -7.3046   -7.9371 C   0  0  0  0  0  0  0  0  0  0  0  0
   -7.8348   -6.2192   -5.6037 C   0  0  0  0  0  0  0  0  0  0  0  0
   -6.4022   -3.7163   -4.7909 H   0  0  0  0  0  0  0  0  0  0  0  0
   -4.8943   -4.5276   -4.3533 H   0  0  0  0  0  0  0  0  0  0  0  0
   -6.3891   -4.7904   -3.4068 H   0  0  0  0  0  0  0  0  0  0  0  0
   -4.2871   -7.4620   -7.0728 H   0  0  0  0  0  0  0  0  0  0  0  0
   -3.7805   -6.9425   -5.4580 H   0  0  0  0  0  0  0  0  0  0  0  0
   -3.7812   -9.5047   -5.8977 H   0  0  0  0  0  0  0  0  0  0  0  0
   -4.7083   -9.0241   -4.5150 H   0  0  0  0  0  0  0  0  0  0  0  0
   -5.7814   -9.7696   -7.2945 H   0  0  0  0  0  0  0  0  0  0  0  0
   -6.0164  -10.6308   -5.7998 H   0  0  0  0  0  0  0  0  0  0  0  0
   -8.0885   -9.3790   -6.3934 H   0  0  0  0  0  0  0  0  0  0  0  0
   -7.3781   -8.8655   -4.8895 H   0  0  0  0  0  0  0  0  0  0  0  0
   -8.3246   -7.6077   -8.2493 H   0  0  0  0  0  0  0  0  0  0  0  0
   -6.5921   -7.9336   -8.4542 H   0  0  0  0  0  0  0  0  0  0  0  0
   -7.1900   -6.2757   -8.2637 H   0  0  0  0  0  0  0  0  0  0  0  0
   -8.3772   -6.5311   -4.7295 H   0  0  0  0  0  0  0  0  0  0  0  0
   -8.4369   -5.5415   -6.2078 H   0  0  0  0  0  0  0  0  0  0  0  0
  1  2  1  0
  1 11  1  0
  1 12  1  0
  1 13  1  0
  2 10  1  0
  2  3  2  0
  3  8  1  0
  3  4  1  0
  4  5  1  0
  4 14  1  0
  4 15  1  0
  5  6  1  0
  5 16  1  0
  5 17  1  0
  6  7  1  0
  6 18  1  0
  6 19  1  0
  7  8  1  0
  7 20  1  0
  7 21  1  0
  8  9  1  6
  8 10  1  0
  9 22  1  0
  9 23  1  0
  9 24  1  0
 10 25  1  0
 10 26  1  0
M  END
>  <i_m_ct_stereo_status>  (133) 
1

>  <s_m_source_file>  (133) 
/var/tmp/pbs.5076255.sched01/tmp3npnc3rz/42_8qtnw6u.sdf

>  <i_m_source_file_index>  (133) 
16

>  <i_lp_mmshare_version>  (133) 
48012

>  <i_f3d_flags>  (133) 
0

>  <s_epik_input>  (133) 
W0NIM11DKFtDSDJdMSk9QyhbQ0BdMTJbQ0gzXSlbQ0gyXVtDSDJdW0NIMl1bQ0gyXTI=

>  <s_epik_cmdline>  (133) 
J2VwaWtfcHl0aG9uJywgJy1waHQnLCAnMi4wJywgJy1waCcsICc3LjAnLCAnLXRuJywgJzgnLCAnLW1hJywgJzIwMCcsICctaW1hZScsICc8aW5maWxlLm1hZT4nLCAnLW9tYWUnLCAnPG91dGZpbGUubWFlPic=

>  <r_lp_tautomer_probability>  (133) 
1

>  <r_epik_Ionization_Penalty>  (133) 
0

>  <r_epik_Ionization_Penalty_Charging>  (133) 
0

>  <r_epik_Ionization_Penalty_Neutral>  (133) 
0

>  <r_epik_State_Penalty>  (133) 
-0

>  <r_epik_Charging_Adjusted_Penalty>  (133) 
0

>  <i_epik_Tot_Q>  (133) 
0

>  <i_epik_Tot_abs_Q>  (133) 
0

>  <s_lp_Force_Field>  (133) 
OPLS3e

>  <r_lp_Energy>  (133) 
12.5364

>  <b_lp_Chiralities_Consistent>  (133) 
1

>  <s_lp_Variant>  (133) 
38:0-1

>  <s_i_glide_gridfile>  (133) 
pfpi4k_grid

>  <i_i_glide_lignum>  (133) 
16

>  <i_i_glide_rotatable_bonds>  (133) 
0

>  <r_i_docking_score>  (133) 
-4.34421

>  <r_i_glide_ligand_efficiency>  (133) 
-0.434421

>  <r_i_glide_ligand_efficiency_sa>  (133) 
-0.935933

>  <r_i_glide_ligand_efficiency_ln>  (133) 
-1.3154

>  <r_i_glide_gscore>  (133) 
-4.34421

>  <r_i_glide_lipo>  (133) 
-2.20583

>  <r_i_glide_hbond>  (133) 
0

>  <r_i_glide_metal>  (133) 
-0

>  <r_i_glide_rewards>  (133) 
-1.65

>  <r_i_glide_evdw>  (133) 
-9.75952

>  <r_i_glide_ecoul>  (133) 
-0.00269614

>  <r_i_glide_erotb>  (133) 
0

>  <r_i_glide_esite>  (133) 
0

>  <r_i_glide_emodel>  (133) 
-11.6267

>  <r_i_glide_energy>  (133) 
-9.76222

>  <r_i_glide_einternal>  (133) 
0

>  <r_i_glide_intrahb_reward>  (133) 
-0

>  <i_i_glide_confnum>  (133) 
1

>  <i_i_glide_posenum>  (133) 
1

>  <r_i_glide_eff_state_penalty>  (133) 
0

>  <ligand_id>  (133) 
38

>  <original_smiles>  (133) 
CC1=C2CCCCC2(C)C1

>  <smiles>  (133) 
[H]C([H])([H])C1=C2C([H])([H])C([H])([H])C([H])([H])C([H])([H])C2(C([H])([H])[H])C1([H])[H]

$$$$
39:0:0
     RDKit          3D

 25 28  0  0  1  0  0  0  0  0999 V2000
    2.6210   -2.1151   -3.5271 C   0  0  0  0  0  0  0  0  0  0  0  0
    3.4133   -0.9516   -3.6368 C   0  0  0  0  0  0  0  0  0  0  0  0
    4.4772   -0.6711   -2.8468 N   0  0  0  0  0  0  0  0  0  0  0  0
    4.7683   -1.5711   -1.9023 C   0  0  0  0  0  0  0  0  0  0  0  0
    5.8137   -1.5070   -0.9982 N   0  0  0  0  0  0  0  0  0  0  0  0
    5.7632   -2.5679   -0.2498 N   0  0  0  0  0  0  0  0  0  0  0  0
    4.7092   -3.3405   -0.6400 N   0  0  0  0  0  0  0  0  0  0  0  0
    4.4179   -4.5477    0.0379 C   0  0  0  0  0  0  0  0  0  0  0  0
    3.1610   -5.0713    0.1716 C   0  0  0  0  0  0  0  0  0  0  0  0
    3.2003   -6.2548    0.8960 N   0  0  0  0  0  0  0  0  0  0  0  0
    4.4825   -6.4624    1.2003 C   0  0  0  0  0  0  0  0  0  0  0  0
    5.1469   -7.4975    1.9216 C   0  0  0  0  0  0  0  0  0  0  0  0
    6.4358   -7.4938    2.1097 N   0  0  0  0  0  0  0  0  0  0  0  0
    7.1720   -6.4616    1.5892 C   0  0  0  0  0  0  0  0  0  0  0  0
    6.6428   -5.4160    0.8760 C   0  0  0  0  0  0  0  0  0  0  0  0
    5.2928   -5.4158    0.6850 N   0  0  0  0  0  0  0  0  0  0  0  0
    4.0352   -2.7591   -1.7029 C   0  0  0  0  0  0  0  0  0  0  0  0
    2.9305   -3.0433   -2.5193 C   0  0  0  0  0  0  0  0  0  0  0  0
    1.7833   -2.2740   -4.1935 H   0  0  0  0  0  0  0  0  0  0  0  0
    3.1924   -0.2172   -4.3993 H   0  0  0  0  0  0  0  0  0  0  0  0
    2.2169   -4.6964   -0.1919 H   0  0  0  0  0  0  0  0  0  0  0  0
    4.5547   -8.3078    2.3337 H   0  0  0  0  0  0  0  0  0  0  0  0
    8.2403   -6.5172    1.7731 H   0  0  0  0  0  0  0  0  0  0  0  0
    7.2302   -4.6054    0.4575 H   0  0  0  0  0  0  0  0  0  0  0  0
    2.3311   -3.9269   -2.3918 H   0  0  0  0  0  0  0  0  0  0  0  0
  1 18  2  0
  1  2  1  0
  1 19  1  0
  2  3  2  0
  2 20  1  0
  3  4  1  0
  4 17  2  0
  4  5  1  0
  5  6  2  0
  6  7  1  0
  7  8  1  0
  7 17  1  0
  8 16  1  0
  8  9  2  0
  9 10  1  0
  9 21  1  0
 10 11  2  0
 11 16  1  0
 11 12  1  0
 12 13  2  0
 12 22  1  0
 13 14  1  0
 14 15  2  0
 14 23  1  0
 15 16  1  0
 15 24  1  0
 17 18  1  0
 18 25  1  0
M  END
>  <i_m_ct_stereo_status>  (134) 
1

>  <s_m_source_file>  (134) 
/var/tmp/pbs.5076255.sched01/tmp3npnc3rz/42_8qtnw6u.sdf

>  <i_m_source_file_index>  (134) 
17

>  <i_lp_mmshare_version>  (134) 
48012

>  <i_f3d_flags>  (134) 
0

>  <s_epik_input>  (134) 
bjFbY0hdW2NIXVtjSF1jKGMxMiluKG5uMiktYyhbY0hdbjMpbihjMzQpW2NIXVtjSF1uW2NIXTQ=

>  <s_epik_cmdline>  (134) 
J2VwaWtfcHl0aG9uJywgJy1waHQnLCAnMi4wJywgJy1waCcsICc3LjAnLCAnLXRuJywgJzgnLCAnLW1hJywgJzIwMCcsICctaW1hZScsICc8aW5maWxlLm1hZT4nLCAnLW9tYWUnLCAnPG91dGZpbGUubWFlPic=

>  <r_lp_tautomer_probability>  (134) 
1

>  <r_epik_Ionization_Penalty>  (134) 
2.1595e-06

>  <r_epik_Ionization_Penalty_Charging>  (134) 
1.65151e-06

>  <r_epik_Ionization_Penalty_Neutral>  (134) 
5.07997e-07

>  <r_epik_State_Penalty>  (134) 
-0

>  <r_epik_Charging_Adjusted_Penalty>  (134) 
1.65151e-06

>  <i_epik_Tot_Q>  (134) 
0

>  <i_epik_Tot_abs_Q>  (134) 
0

>  <s_lp_Force_Field>  (134) 
OPLS3e

>  <r_lp_Energy>  (134) 
25.8044

>  <b_lp_Chiralities_Consistent>  (134) 
1

>  <s_lp_Variant>  (134) 
39:0-1

>  <s_i_glide_gridfile>  (134) 
pfpi4k_grid

>  <i_i_glide_lignum>  (134) 
17

>  <i_i_glide_rotatable_bonds>  (134) 
1

>  <r_i_docking_score>  (134) 
-4.2976

>  <r_i_glide_ligand_efficiency>  (134) 
-0.238755

>  <r_i_glide_ligand_efficiency_sa>  (134) 
-0.625716

>  <r_i_glide_ligand_efficiency_ln>  (134) 
-1.10468

>  <r_i_glide_gscore>  (134) 
-4.2976

>  <r_i_glide_lipo>  (134) 
-0.655851

>  <r_i_glide_hbond>  (134) 
0

>  <r_i_glide_metal>  (134) 
-0

>  <r_i_glide_rewards>  (134) 
-2.1039

>  <r_i_glide_evdw>  (134) 
-25.2634

>  <r_i_glide_ecoul>  (134) 
-3.18008

>  <r_i_glide_erotb>  (134) 
0.306267

>  <r_i_glide_esite>  (134) 
-0.103933

>  <r_i_glide_emodel>  (134) 
-36.3354

>  <r_i_glide_energy>  (134) 
-28.4434

>  <r_i_glide_einternal>  (134) 
0.274931

>  <r_i_glide_intrahb_reward>  (134) 
-0

>  <i_i_glide_confnum>  (134) 
1

>  <i_i_glide_posenum>  (134) 
22

>  <r_i_glide_eff_state_penalty>  (134) 
0

>  <ligand_id>  (134) 
39

>  <original_smiles>  (134) 
c1cnc2nnn(-c3cnc4cnccn34)c2c1

>  <smiles>  (134) 
[H]c1nc2nnn(-c3c([H])nc4c([H])nc([H])c([H])n34)c2c([H])c1[H]

$$$$
39:0:1
     RDKit          3D

 25 28  0  0  1  0  0  0  0  0999 V2000
    3.3663   -9.3718    2.0891 C   0  0  0  0  0  0  0  0  0  0  0  0
    1.9667   -9.2498    2.2368 C   0  0  0  0  0  0  0  0  0  0  0  0
    1.2625   -8.1230    1.9794 N   0  0  0  0  0  0  0  0  0  0  0  0
    1.9641   -7.0823    1.5341 C   0  0  0  0  0  0  0  0  0  0  0  0
    1.4508   -5.8578    1.1547 N   0  0  0  0  0  0  0  0  0  0  0  0
    2.4481   -5.0994    0.8068 N   0  0  0  0  0  0  0  0  0  0  0  0
    3.6131   -5.8028    0.9033 N   0  0  0  0  0  0  0  0  0  0  0  0
    4.8547   -5.1926    0.5775 C   0  0  0  0  0  0  0  0  0  0  0  0
    6.0780   -5.6583    0.9816 C   0  0  0  0  0  0  0  0  0  0  0  0
    7.0972   -4.8411    0.5129 N   0  0  0  0  0  0  0  0  0  0  0  0
    6.5033   -3.8687   -0.1754 C   0  0  0  0  0  0  0  0  0  0  0  0
    7.0224   -2.7493   -0.8858 C   0  0  0  0  0  0  0  0  0  0  0  0
    6.2496   -1.8967   -1.4968 N   0  0  0  0  0  0  0  0  0  0  0  0
    4.8947   -2.1071   -1.4634 C   0  0  0  0  0  0  0  0  0  0  0  0
    4.2872   -3.1560   -0.8252 C   0  0  0  0  0  0  0  0  0  0  0  0
    5.0926   -4.0417   -0.1723 N   0  0  0  0  0  0  0  0  0  0  0  0
    3.3646   -7.0899    1.3571 C   0  0  0  0  0  0  0  0  0  0  0  0
    4.0930   -8.2558    1.6386 C   0  0  0  0  0  0  0  0  0  0  0  0
    3.8591  -10.3096    2.3087 H   0  0  0  0  0  0  0  0  0  0  0  0
    1.3789  -10.0915    2.5733 H   0  0  0  0  0  0  0  0  0  0  0  0
    6.3318   -6.5161    1.5859 H   0  0  0  0  0  0  0  0  0  0  0  0
    8.0994   -2.6116   -0.9109 H   0  0  0  0  0  0  0  0  0  0  0  0
    4.2970   -1.3719   -1.9896 H   0  0  0  0  0  0  0  0  0  0  0  0
    3.2125   -3.3078   -0.8153 H   0  0  0  0  0  0  0  0  0  0  0  0
    5.1601   -8.3162    1.5042 H   0  0  0  0  0  0  0  0  0  0  0  0
  1 18  2  0
  1  2  1  0
  1 19  1  0
  2  3  2  0
  2 20  1  0
  3  4  1  0
  4 17  2  0
  4  5  1  0
  5  6  2  0
  6  7  1  0
  7  8  1  0
  7 17  1  0
  8 16  1  0
  8  9  2  0
  9 10  1  0
  9 21  1  0
 10 11  2  0
 11 16  1  0
 11 12  1  0
 12 13  2  0
 12 22  1  0
 13 14  1  0
 14 15  2  0
 14 23  1  0
 15 16  1  0
 15 24  1  0
 17 18  1  0
 18 25  1  0
M  END
>  <i_m_ct_stereo_status>  (135) 
1

>  <s_m_source_file>  (135) 
/var/tmp/pbs.5076255.sched01/tmp3npnc3rz/42_8qtnw6u.sdf

>  <i_m_source_file_index>  (135) 
17

>  <i_lp_mmshare_version>  (135) 
48012

>  <i_f3d_flags>  (135) 
0

>  <s_epik_input>  (135) 
bjFbY0hdW2NIXVtjSF1jKGMxMiluKG5uMiktYyhbY0hdbjMpbihjMzQpW2NIXVtjSF1uW2NIXTQ=

>  <s_epik_cmdline>  (135) 
J2VwaWtfcHl0aG9uJywgJy1waHQnLCAnMi4wJywgJy1waCcsICc3LjAnLCAnLXRuJywgJzgnLCAnLW1hJywgJzIwMCcsICctaW1hZScsICc8aW5maWxlLm1hZT4nLCAnLW9tYWUnLCAnPG91dGZpbGUubWFlPic=

>  <r_lp_tautomer_probability>  (135) 
1

>  <r_epik_Ionization_Penalty>  (135) 
2.1595e-06

>  <r_epik_Ionization_Penalty_Charging>  (135) 
1.65151e-06

>  <r_epik_Ionization_Penalty_Neutral>  (135) 
5.07997e-07

>  <r_epik_State_Penalty>  (135) 
-0

>  <r_epik_Charging_Adjusted_Penalty>  (135) 
1.65151e-06

>  <i_epik_Tot_Q>  (135) 
0

>  <i_epik_Tot_abs_Q>  (135) 
0

>  <s_lp_Force_Field>  (135) 
OPLS3e

>  <r_lp_Energy>  (135) 
25.8044

>  <b_lp_Chiralities_Consistent>  (135) 
1

>  <s_lp_Variant>  (135) 
39:0-1

>  <s_i_glide_gridfile>  (135) 
pfpi4k_grid

>  <i_i_glide_lignum>  (135) 
17

>  <i_i_glide_rotatable_bonds>  (135) 
1

>  <r_i_docking_score>  (135) 
-4.0706

>  <r_i_glide_ligand_efficiency>  (135) 
-0.226144

>  <r_i_glide_ligand_efficiency_sa>  (135) 
-0.592666

>  <r_i_glide_ligand_efficiency_ln>  (135) 
-1.04633

>  <r_i_glide_gscore>  (135) 
-4.0706

>  <r_i_glide_lipo>  (135) 
-0.236347

>  <r_i_glide_hbond>  (135) 
-0.148803

>  <r_i_glide_metal>  (135) 
-0

>  <r_i_glide_rewards>  (135) 
-2.10515

>  <r_i_glide_evdw>  (135) 
-21.5596

>  <r_i_glide_ecoul>  (135) 
-4.33793

>  <r_i_glide_erotb>  (135) 
0.306267

>  <r_i_glide_esite>  (135) 
-0.157895

>  <r_i_glide_emodel>  (135) 
-33.4651

>  <r_i_glide_energy>  (135) 
-25.8975

>  <r_i_glide_einternal>  (135) 
0.0288508

>  <r_i_glide_intrahb_reward>  (135) 
-0

>  <i_i_glide_confnum>  (135) 
5

>  <i_i_glide_posenum>  (135) 
1

>  <r_i_glide_eff_state_penalty>  (135) 
0

>  <ligand_id>  (135) 
39

>  <original_smiles>  (135) 
c1cnc2nnn(-c3cnc4cnccn34)c2c1

>  <smiles>  (135) 
[H]c1nc2nnn(-c3c([H])nc4c([H])nc([H])c([H])n34)c2c([H])c1[H]

$$$$
39:0:2
     RDKit          3D

 25 28  0  0  1  0  0  0  0  0999 V2000
    3.0070   -1.9384   -3.5001 C   0  0  0  0  0  0  0  0  0  0  0  0
    4.0908   -1.0509   -3.3402 C   0  0  0  0  0  0  0  0  0  0  0  0
    4.9721   -1.0840   -2.3115 N   0  0  0  0  0  0  0  0  0  0  0  0
    4.7585   -2.0229   -1.3838 C   0  0  0  0  0  0  0  0  0  0  0  0
    5.5246   -2.2514   -0.2561 N   0  0  0  0  0  0  0  0  0  0  0  0
    4.9890   -3.2403    0.3949 N   0  0  0  0  0  0  0  0  0  0  0  0
    3.8924   -3.6901   -0.2829 N   0  0  0  0  0  0  0  0  0  0  0  0
    3.1195   -4.7681    0.2256 C   0  0  0  0  0  0  0  0  0  0  0  0
    1.8572   -5.0817   -0.1975 C   0  0  0  0  0  0  0  0  0  0  0  0
    1.3478   -6.1628    0.5111 N   0  0  0  0  0  0  0  0  0  0  0  0
    2.3194   -6.5419    1.3422 C   0  0  0  0  0  0  0  0  0  0  0  0
    2.4082   -7.5950    2.3006 C   0  0  0  0  0  0  0  0  0  0  0  0
    3.4668   -7.7749    3.0351 N   0  0  0  0  0  0  0  0  0  0  0  0
    4.5348   -6.9341    2.8625 C   0  0  0  0  0  0  0  0  0  0  0  0
    4.5694   -5.8987    1.9675 C   0  0  0  0  0  0  0  0  0  0  0  0
    3.4560   -5.6974    1.2053 N   0  0  0  0  0  0  0  0  0  0  0  0
    3.6957   -2.9505   -1.4397 C   0  0  0  0  0  0  0  0  0  0  0  0
    2.7962   -2.9190   -2.5171 C   0  0  0  0  0  0  0  0  0  0  0  0
    2.3335   -1.8531   -4.3397 H   0  0  0  0  0  0  0  0  0  0  0  0
    4.2696   -0.2867   -4.0838 H   0  0  0  0  0  0  0  0  0  0  0  0
    1.2373   -4.6119   -0.9442 H   0  0  0  0  0  0  0  0  0  0  0  0
    1.5597   -8.2594    2.4270 H   0  0  0  0  0  0  0  0  0  0  0  0
    5.3908   -7.1338    3.4985 H   0  0  0  0  0  0  0  0  0  0  0  0
    5.4246   -5.2435    1.8431 H   0  0  0  0  0  0  0  0  0  0  0  0
    1.9706   -3.6045   -2.6117 H   0  0  0  0  0  0  0  0  0  0  0  0
  1 18  2  0
  1  2  1  0
  1 19  1  0
  2  3  2  0
  2 20  1  0
  3  4  1  0
  4 17  2  0
  4  5  1  0
  5  6  2  0
  6  7  1  0
  7  8  1  0
  7 17  1  0
  8 16  1  0
  8  9  2  0
  9 10  1  0
  9 21  1  0
 10 11  2  0
 11 16  1  0
 11 12  1  0
 12 13  2  0
 12 22  1  0
 13 14  1  0
 14 15  2  0
 14 23  1  0
 15 16  1  0
 15 24  1  0
 17 18  1  0
 18 25  1  0
M  END
>  <i_m_ct_stereo_status>  (136) 
1

>  <s_m_source_file>  (136) 
/var/tmp/pbs.5076255.sched01/tmp3npnc3rz/42_8qtnw6u.sdf

>  <i_m_source_file_index>  (136) 
17

>  <i_lp_mmshare_version>  (136) 
48012

>  <i_f3d_flags>  (136) 
0

>  <s_epik_input>  (136) 
bjFbY0hdW2NIXVtjSF1jKGMxMiluKG5uMiktYyhbY0hdbjMpbihjMzQpW2NIXVtjSF1uW2NIXTQ=

>  <s_epik_cmdline>  (136) 
J2VwaWtfcHl0aG9uJywgJy1waHQnLCAnMi4wJywgJy1waCcsICc3LjAnLCAnLXRuJywgJzgnLCAnLW1hJywgJzIwMCcsICctaW1hZScsICc8aW5maWxlLm1hZT4nLCAnLW9tYWUnLCAnPG91dGZpbGUubWFlPic=

>  <r_lp_tautomer_probability>  (136) 
1

>  <r_epik_Ionization_Penalty>  (136) 
2.1595e-06

>  <r_epik_Ionization_Penalty_Charging>  (136) 
1.65151e-06

>  <r_epik_Ionization_Penalty_Neutral>  (136) 
5.07997e-07

>  <r_epik_State_Penalty>  (136) 
-0

>  <r_epik_Charging_Adjusted_Penalty>  (136) 
1.65151e-06

>  <i_epik_Tot_Q>  (136) 
0

>  <i_epik_Tot_abs_Q>  (136) 
0

>  <s_lp_Force_Field>  (136) 
OPLS3e

>  <r_lp_Energy>  (136) 
25.8044

>  <b_lp_Chiralities_Consistent>  (136) 
1

>  <s_lp_Variant>  (136) 
39:0-1

>  <s_i_glide_gridfile>  (136) 
pfpi4k_grid

>  <i_i_glide_lignum>  (136) 
17

>  <i_i_glide_rotatable_bonds>  (136) 
1

>  <r_i_docking_score>  (136) 
-3.84464

>  <r_i_glide_ligand_efficiency>  (136) 
-0.213591

>  <r_i_glide_ligand_efficiency_sa>  (136) 
-0.559767

>  <r_i_glide_ligand_efficiency_ln>  (136) 
-0.988245

>  <r_i_glide_gscore>  (136) 
-3.84464

>  <r_i_glide_lipo>  (136) 
-0.381051

>  <r_i_glide_hbond>  (136) 
-0.13861

>  <r_i_glide_metal>  (136) 
-0

>  <r_i_glide_rewards>  (136) 
-1.81863

>  <r_i_glide_evdw>  (136) 
-20.8147

>  <r_i_glide_ecoul>  (136) 
-4.62663

>  <r_i_glide_erotb>  (136) 
0.306267

>  <r_i_glide_esite>  (136) 
-0.0778911

>  <r_i_glide_emodel>  (136) 
-32.584

>  <r_i_glide_energy>  (136) 
-25.4413

>  <r_i_glide_einternal>  (136) 
0.0128753

>  <r_i_glide_intrahb_reward>  (136) 
-0

>  <i_i_glide_confnum>  (136) 
2

>  <i_i_glide_posenum>  (136) 
15

>  <r_i_glide_eff_state_penalty>  (136) 
0

>  <ligand_id>  (136) 
39

>  <original_smiles>  (136) 
c1cnc2nnn(-c3cnc4cnccn34)c2c1

>  <smiles>  (136) 
[H]c1nc2nnn(-c3c([H])nc4c([H])nc([H])c([H])n34)c2c([H])c1[H]

$$$$
40:0:0
     RDKit          3D

 43 46  0  0  1  0  0  0  0  0999 V2000
    9.3529   -5.1831    1.7941 C   0  0  0  0  0  0  0  0  0  0  0  0
    8.3881   -5.1087    0.5954 C   0  0  0  0  0  0  0  0  0  0  0  0
    7.2507   -4.2131    0.8594 N   0  0  0  0  0  0  0  0  0  0  0  0
    6.2774   -4.4755    1.7392 C   0  0  0  0  0  0  0  0  0  0  0  0
    6.2335   -5.4645    2.4697 O   0  0  0  0  0  0  0  0  0  0  0  0
    5.2371   -3.3476    1.8144 C   0  0  1  0  0  0  0  0  0  0  0  0
    5.8102   -2.3280    0.8178 C   0  0  1  0  0  0  0  0  0  0  0  0
    7.0763   -3.0144    0.2988 C   0  0  0  0  0  0  0  0  0  0  0  0
    7.8283   -2.4730   -0.5126 O   0  0  0  0  0  0  0  0  0  0  0  0
    4.6841   -2.0689   -0.2197 C   0  0  1  0  0  0  0  0  0  0  0  0
    3.9965   -0.7487    0.2023 C   0  0  0  0  0  0  0  0  0  0  0  0
    5.1246   -1.9536   -1.7073 C   0  0  0  0  0  0  0  0  0  0  0  0
    3.9165   -1.8187   -2.6379 C   0  0  0  0  0  0  0  0  0  0  0  0
    2.9065   -2.9605   -2.4231 C   0  0  0  0  0  0  0  0  0  0  0  0
    2.7638   -3.4646   -0.9780 C   0  0  0  0  0  0  0  0  0  0  0  0
    1.8186   -4.1979   -0.7236 O   0  0  0  0  0  0  0  0  0  0  0  0
    3.7183   -3.1675   -0.0574 N   0  0  0  0  0  0  0  0  0  0  0  0
    3.7986   -3.6839    1.3228 C   0  0  1  0  0  0  0  0  0  0  0  0
    3.3151   -5.1060    1.5714 C   0  0  0  0  0  0  0  0  0  0  0  0
    2.4428   -5.5159    2.5507 C   0  0  0  0  0  0  0  0  0  0  0  0
    2.2000   -6.9224    2.5513 C   0  0  0  0  0  0  0  0  0  0  0  0
    2.8999   -7.5862    1.5820 C   0  0  0  0  0  0  0  0  0  0  0  0
    3.8434   -6.4795    0.6180 S   0  0  0  0  0  0  0  0  0  0  0  0
   10.1853   -5.8463    1.6060 H   0  0  0  0  0  0  0  0  0  0  0  0
    8.8624   -5.5581    2.6947 H   0  0  0  0  0  0  0  0  0  0  0  0
    9.7561   -4.1968    2.0248 H   0  0  0  0  0  0  0  0  0  0  0  0
    8.9489   -4.7877   -0.2862 H   0  0  0  0  0  0  0  0  0  0  0  0
    8.0122   -6.1072    0.3645 H   0  0  0  0  0  0  0  0  0  0  0  0
    5.2214   -2.9670    2.8360 H   0  0  0  0  0  0  0  0  0  0  0  0
    6.1205   -1.4081    1.3170 H   0  0  0  0  0  0  0  0  0  0  0  0
    4.6325    0.1159    0.0064 H   0  0  0  0  0  0  0  0  0  0  0  0
    3.7618   -0.7345    1.2665 H   0  0  0  0  0  0  0  0  0  0  0  0
    3.0514   -0.6198   -0.3191 H   0  0  0  0  0  0  0  0  0  0  0  0
    5.8032   -1.1119   -1.8531 H   0  0  0  0  0  0  0  0  0  0  0  0
    5.6641   -2.8493   -2.0178 H   0  0  0  0  0  0  0  0  0  0  0  0
    3.4289   -0.8530   -2.5018 H   0  0  0  0  0  0  0  0  0  0  0  0
    4.2536   -1.8283   -3.6732 H   0  0  0  0  0  0  0  0  0  0  0  0
    1.9244   -2.6530   -2.7860 H   0  0  0  0  0  0  0  0  0  0  0  0
    3.1989   -3.8148   -3.0360 H   0  0  0  0  0  0  0  0  0  0  0  0
    3.1300   -3.0305    1.8923 H   0  0  0  0  0  0  0  0  0  0  0  0
    1.9729   -4.8648    3.2715 H   0  0  0  0  0  0  0  0  0  0  0  0
    1.5347   -7.3975    3.2587 H   0  0  0  0  0  0  0  0  0  0  0  0
    2.9041   -8.6482    1.3669 H   0  0  0  0  0  0  0  0  0  0  0  0
  1  2  1  0
  1 24  1  0
  1 25  1  0
  1 26  1  0
  2 27  1  0
  2 28  1  0
  2  3  1  0
  3  8  1  0
  3  4  1  0
  4  5  2  0
  4  6  1  0
  6 18  1  0
  6 29  1  1
  6  7  1  0
  7 10  1  0
  7 30  1  1
  7  8  1  0
  8  9  2  0
 10 17  1  0
 10 11  1  1
 10 12  1  0
 11 31  1  0
 11 32  1  0
 11 33  1  0
 12 13  1  0
 12 34  1  0
 12 35  1  0
 13 14  1  0
 13 36  1  0
 13 37  1  0
 14 15  1  0
 14 38  1  0
 14 39  1  0
 15 16  2  0
 15 17  1  0
 17 18  1  0
 18 19  1  0
 18 40  1  1
 19 23  1  0
 19 20  2  0
 20 21  1  0
 20 41  1  0
 21 22  2  0
 21 42  1  0
 22 23  1  0
 22 43  1  0
M  END
>  <i_m_ct_stereo_status>  (137) 
1

>  <s_m_source_file>  (137) 
/var/tmp/pbs.5076255.sched01/tmp3npnc3rz/42_8qtnw6u.sdf

>  <i_m_source_file_index>  (137) 
18

>  <i_lp_mmshare_version>  (137) 
48012

>  <i_f3d_flags>  (137) 
0

>  <s_epik_input>  (137) 
W0NIM11bQ0gyXW4oYzFbT0hdKWMoW09IXSljKGMxW0NAQF0yM1tDSDNdKVtDQEhdKGM0W2NIXVtjSF1bY0hdczQpTjNDKD1PKVtDSDJdW0NIMl1bQ0gyXTI=

>  <s_epik_cmdline>  (137) 
J2VwaWtfcHl0aG9uJywgJy1waHQnLCAnMi4wJywgJy1waCcsICc3LjAnLCAnLXRuJywgJzgnLCAnLW1hJywgJzIwMCcsICctaW1hZScsICc8aW5maWxlLm1hZT4nLCAnLW9tYWUnLCAnPG91dGZpbGUubWFlPic=

>  <r_lp_tautomer_probability>  (137) 
1

>  <r_epik_Ionization_Penalty>  (137) 
5.0112e-10

>  <r_epik_Ionization_Penalty_Charging>  (137) 
0

>  <r_epik_Ionization_Penalty_Neutral>  (137) 
5.0112e-10

>  <r_epik_State_Penalty>  (137) 
-0

>  <r_epik_Charging_Adjusted_Penalty>  (137) 
0

>  <i_epik_Tot_Q>  (137) 
0

>  <i_epik_Tot_abs_Q>  (137) 
0

>  <s_lp_Force_Field>  (137) 
OPLS3e

>  <r_lp_Energy>  (137) 
13.3608

>  <b_lp_Chiralities_Consistent>  (137) 
1

>  <s_lp_Variant>  (137) 
40:0-1

>  <s_i_glide_gridfile>  (137) 
pfpi4k_grid

>  <i_i_glide_lignum>  (137) 
18

>  <i_i_glide_rotatable_bonds>  (137) 
2

>  <r_i_docking_score>  (137) 
-3.40635

>  <r_i_glide_ligand_efficiency>  (137) 
-0.148102

>  <r_i_glide_ligand_efficiency_sa>  (137) 
-0.421183

>  <r_i_glide_ligand_efficiency_ln>  (137) 
-0.823686

>  <r_i_glide_gscore>  (137) 
-3.40635

>  <r_i_glide_lipo>  (137) 
-0.279718

>  <r_i_glide_hbond>  (137) 
-0.0970626

>  <r_i_glide_metal>  (137) 
-0

>  <r_i_glide_rewards>  (137) 
-1.59163

>  <r_i_glide_evdw>  (137) 
-24.6889

>  <r_i_glide_ecoul>  (137) 
-2.4929

>  <r_i_glide_erotb>  (137) 
0.170442

>  <r_i_glide_esite>  (137) 
0

>  <r_i_glide_emodel>  (137) 
-32.2232

>  <r_i_glide_energy>  (137) 
-27.1818

>  <r_i_glide_einternal>  (137) 
1.63339

>  <r_i_glide_intrahb_reward>  (137) 
-0

>  <i_i_glide_confnum>  (137) 
2

>  <i_i_glide_posenum>  (137) 
19

>  <r_i_glide_eff_state_penalty>  (137) 
0

>  <ligand_id>  (137) 
40

>  <original_smiles>  (137) 
CCn1c(O)c2c(c1O)C1(C)CCCC(=O)N1C2c1cccs1

>  <smiles>  (137) 
[H]c1sc(C2([H])N3C(=O)C([H])([H])C([H])([H])C([H])([H])C3(C([H])([H])[H])C3([H])C(=O)N(C([H])([H])C([H])([H])[H])C(=O)C23[H])c([H])c1[H]

$$$$
40:0:1
     RDKit          3D

 43 46  0  0  1  0  0  0  0  0999 V2000
    7.1725   -5.9740    5.7332 C   0  0  0  0  0  0  0  0  0  0  0  0
    5.6664   -5.8233    5.4683 C   0  0  0  0  0  0  0  0  0  0  0  0
    5.2584   -6.4948    4.2277 N   0  0  0  0  0  0  0  0  0  0  0  0
    5.2951   -5.9282    3.0146 C   0  0  0  0  0  0  0  0  0  0  0  0
    5.7058   -4.7940    2.7745 O   0  0  0  0  0  0  0  0  0  0  0  0
    4.8022   -6.8938    1.9222 C   0  0  1  0  0  0  0  0  0  0  0  0
    4.5086   -8.1709    2.7240 C   0  0  1  0  0  0  0  0  0  0  0  0
    4.8464   -7.7651    4.1652 C   0  0  0  0  0  0  0  0  0  0  0  0
    4.7732   -8.5404    5.1190 O   0  0  0  0  0  0  0  0  0  0  0  0
    3.0268   -8.5398    2.4148 C   0  0  1  0  0  0  0  0  0  0  0  0
    3.0645   -9.6466    1.3327 C   0  0  0  0  0  0  0  0  0  0  0  0
    2.1858   -9.0499    3.6183 C   0  0  0  0  0  0  0  0  0  0  0  0
    0.7258   -9.2685    3.2158 C   0  0  0  0  0  0  0  0  0  0  0  0
    0.1169   -8.0074    2.5770 C   0  0  0  0  0  0  0  0  0  0  0  0
    1.0677   -7.1518    1.7138 C   0  0  0  0  0  0  0  0  0  0  0  0
    0.5549   -6.2841    1.0042 O   0  0  0  0  0  0  0  0  0  0  0  0
    2.4132   -7.3314    1.8284 N   0  0  0  0  0  0  0  0  0  0  0  0
    3.4751   -6.5178    1.1955 C   0  0  1  0  0  0  0  0  0  0  0  0
    3.2050   -5.0351    1.0180 C   0  0  0  0  0  0  0  0  0  0  0  0
    3.4162   -4.2904   -0.1183 C   0  0  0  0  0  0  0  0  0  0  0  0
    3.0731   -2.9186    0.0244 C   0  0  0  0  0  0  0  0  0  0  0  0
    2.6204   -2.6083    1.2765 C   0  0  0  0  0  0  0  0  0  0  0  0
    2.5977   -4.0127    2.3090 S   0  0  0  0  0  0  0  0  0  0  0  0
    7.4576   -5.4668    6.6556 H   0  0  0  0  0  0  0  0  0  0  0  0
    7.7618   -5.5445    4.9224 H   0  0  0  0  0  0  0  0  0  0  0  0
    7.4554   -7.0227    5.8305 H   0  0  0  0  0  0  0  0  0  0  0  0
    5.1085   -6.2223    6.3178 H   0  0  0  0  0  0  0  0  0  0  0  0
    5.4061   -4.7653    5.4212 H   0  0  0  0  0  0  0  0  0  0  0  0
    5.6123   -7.0300    1.2053 H   0  0  0  0  0  0  0  0  0  0  0  0
    5.1896   -8.9795    2.4478 H   0  0  0  0  0  0  0  0  0  0  0  0
    3.4122  -10.5856    1.7669 H   0  0  0  0  0  0  0  0  0  0  0  0
    3.7433   -9.3982    0.5154 H   0  0  0  0  0  0  0  0  0  0  0  0
    2.0933   -9.8416    0.8829 H   0  0  0  0  0  0  0  0  0  0  0  0
    2.6042   -9.9715    4.0308 H   0  0  0  0  0  0  0  0  0  0  0  0
    2.1913   -8.3209    4.4292 H   0  0  0  0  0  0  0  0  0  0  0  0
    0.6323  -10.1201    2.5408 H   0  0  0  0  0  0  0  0  0  0  0  0
    0.1451   -9.5439    4.0964 H   0  0  0  0  0  0  0  0  0  0  0  0
   -0.7477   -8.2930    1.9760 H   0  0  0  0  0  0  0  0  0  0  0  0
   -0.2604   -7.3622    3.3714 H   0  0  0  0  0  0  0  0  0  0  0  0
    3.5758   -6.9306    0.1890 H   0  0  0  0  0  0  0  0  0  0  0  0
    3.7936   -4.6717   -1.0555 H   0  0  0  0  0  0  0  0  0  0  0  0
    3.1645   -2.2110   -0.7879 H   0  0  0  0  0  0  0  0  0  0  0  0
    2.2907   -1.6407    1.6302 H   0  0  0  0  0  0  0  0  0  0  0  0
  1  2  1  0
  1 24  1  0
  1 25  1  0
  1 26  1  0
  2 27  1  0
  2 28  1  0
  2  3  1  0
  3  8  1  0
  3  4  1  0
  4  5  2  0
  4  6  1  0
  6 18  1  0
  6 29  1  6
  6  7  1  0
  7 10  1  0
  7 30  1  6
  7  8  1  0
  8  9  2  0
 10 17  1  0
 10 11  1  6
 10 12  1  0
 11 31  1  0
 11 32  1  0
 11 33  1  0
 12 13  1  0
 12 34  1  0
 12 35  1  0
 13 14  1  0
 13 36  1  0
 13 37  1  0
 14 15  1  0
 14 38  1  0
 14 39  1  0
 15 16  2  0
 15 17  1  0
 17 18  1  0
 18 19  1  0
 18 40  1  6
 19 23  1  0
 19 20  2  0
 20 21  1  0
 20 41  1  0
 21 22  2  0
 21 42  1  0
 22 23  1  0
 22 43  1  0
M  END
>  <i_m_ct_stereo_status>  (138) 
1

>  <s_m_source_file>  (138) 
/var/tmp/pbs.5076255.sched01/tmp3npnc3rz/42_8qtnw6u.sdf

>  <i_m_source_file_index>  (138) 
18

>  <i_lp_mmshare_version>  (138) 
48012

>  <i_f3d_flags>  (138) 
0

>  <s_epik_input>  (138) 
W0NIM11bQ0gyXW4oYzFbT0hdKWMoW09IXSljKGMxW0NAQF0yM1tDSDNdKVtDQEhdKGM0W2NIXVtjSF1bY0hdczQpTjNDKD1PKVtDSDJdW0NIMl1bQ0gyXTI=

>  <s_epik_cmdline>  (138) 
J2VwaWtfcHl0aG9uJywgJy1waHQnLCAnMi4wJywgJy1waCcsICc3LjAnLCAnLXRuJywgJzgnLCAnLW1hJywgJzIwMCcsICctaW1hZScsICc8aW5maWxlLm1hZT4nLCAnLW9tYWUnLCAnPG91dGZpbGUubWFlPic=

>  <r_lp_tautomer_probability>  (138) 
1

>  <r_epik_Ionization_Penalty>  (138) 
5.0112e-10

>  <r_epik_Ionization_Penalty_Charging>  (138) 
0

>  <r_epik_Ionization_Penalty_Neutral>  (138) 
5.0112e-10

>  <r_epik_State_Penalty>  (138) 
-0

>  <r_epik_Charging_Adjusted_Penalty>  (138) 
0

>  <i_epik_Tot_Q>  (138) 
0

>  <i_epik_Tot_abs_Q>  (138) 
0

>  <s_lp_Force_Field>  (138) 
OPLS3e

>  <r_lp_Energy>  (138) 
13.3608

>  <b_lp_Chiralities_Consistent>  (138) 
1

>  <s_lp_Variant>  (138) 
40:0-1

>  <s_i_glide_gridfile>  (138) 
pfpi4k_grid

>  <i_i_glide_lignum>  (138) 
18

>  <i_i_glide_rotatable_bonds>  (138) 
2

>  <r_i_docking_score>  (138) 
-3.05042

>  <r_i_glide_ligand_efficiency>  (138) 
-0.132627

>  <r_i_glide_ligand_efficiency_sa>  (138) 
-0.377174

>  <r_i_glide_ligand_efficiency_ln>  (138) 
-0.73762

>  <r_i_glide_gscore>  (138) 
-3.05042

>  <r_i_glide_lipo>  (138) 
-0.100601

>  <r_i_glide_hbond>  (138) 
-0.16

>  <r_i_glide_metal>  (138) 
-0

>  <r_i_glide_rewards>  (138) 
-1.14524

>  <r_i_glide_evdw>  (138) 
-19.3823

>  <r_i_glide_ecoul>  (138) 
-5.2423

>  <r_i_glide_erotb>  (138) 
0.170442

>  <r_i_glide_esite>  (138) 
-0.0595622

>  <r_i_glide_emodel>  (138) 
-29.4723

>  <r_i_glide_energy>  (138) 
-24.6246

>  <r_i_glide_einternal>  (138) 
0.98466

>  <r_i_glide_intrahb_reward>  (138) 
-0

>  <i_i_glide_confnum>  (138) 
4

>  <i_i_glide_posenum>  (138) 
7

>  <r_i_glide_eff_state_penalty>  (138) 
0

>  <ligand_id>  (138) 
40

>  <original_smiles>  (138) 
CCn1c(O)c2c(c1O)C1(C)CCCC(=O)N1C2c1cccs1

>  <smiles>  (138) 
[H]c1sc(C2([H])N3C(=O)C([H])([H])C([H])([H])C([H])([H])C3(C([H])([H])[H])C3([H])C(=O)N(C([H])([H])C([H])([H])[H])C(=O)C23[H])c([H])c1[H]

$$$$
40:0:2
     RDKit          3D

 43 46  0  0  1  0  0  0  0  0999 V2000
    2.8995   -5.3251    6.8806 C   0  0  0  0  0  0  0  0  0  0  0  0
    3.8796   -6.4897    6.6751 C   0  0  0  0  0  0  0  0  0  0  0  0
    3.5249   -7.3063    5.5059 N   0  0  0  0  0  0  0  0  0  0  0  0
    3.9957   -7.1044    4.2693 C   0  0  0  0  0  0  0  0  0  0  0  0
    4.7975   -6.2250    3.9513 O   0  0  0  0  0  0  0  0  0  0  0  0
    3.4555   -8.1490    3.2768 C   0  0  1  0  0  0  0  0  0  0  0  0
    2.5874   -9.0370    4.1826 C   0  0  1  0  0  0  0  0  0  0  0  0
    2.7239   -8.3743    5.5597 C   0  0  0  0  0  0  0  0  0  0  0  0
    2.1801   -8.8066    6.5777 O   0  0  0  0  0  0  0  0  0  0  0  0
    1.1712   -9.0488    3.5384 C   0  0  1  0  0  0  0  0  0  0  0  0
    1.0591  -10.3695    2.7355 C   0  0  0  0  0  0  0  0  0  0  0  0
   -0.0252   -8.9579    4.5246 C   0  0  0  0  0  0  0  0  0  0  0  0
   -1.3492   -8.8456    3.7704 C   0  0  0  0  0  0  0  0  0  0  0  0
   -1.3467   -7.6822    2.7789 C   0  0  0  0  0  0  0  0  0  0  0  0
   -0.0083   -7.4069    2.0723 C   0  0  0  0  0  0  0  0  0  0  0  0
   -0.0440   -6.6502    1.1020 O   0  0  0  0  0  0  0  0  0  0  0  0
    1.1411   -7.9168    2.5902 N   0  0  0  0  0  0  0  0  0  0  0  0
    2.5203   -7.6263    2.1438 C   0  0  1  0  0  0  0  0  0  0  0  0
    2.8124   -6.2239    1.6335 C   0  0  0  0  0  0  0  0  0  0  0  0
    3.5559   -5.8927    0.5246 C   0  0  0  0  0  0  0  0  0  0  0  0
    3.6611   -4.4904    0.3035 C   0  0  0  0  0  0  0  0  0  0  0  0
    3.0147   -3.7489    1.2521 C   0  0  0  0  0  0  0  0  0  0  0  0
    2.2651   -4.7705    2.4526 S   0  0  0  0  0  0  0  0  0  0  0  0
    3.1809   -4.7344    7.7530 H   0  0  0  0  0  0  0  0  0  0  0  0
    1.8827   -5.6854    7.0383 H   0  0  0  0  0  0  0  0  0  0  0  0
    2.8882   -4.6583    6.0177 H   0  0  0  0  0  0  0  0  0  0  0  0
    4.8918   -6.0975    6.5673 H   0  0  0  0  0  0  0  0  0  0  0  0
    3.9038   -7.1073    7.5753 H   0  0  0  0  0  0  0  0  0  0  0  0
    4.3069   -8.6899    2.8608 H   0  0  0  0  0  0  0  0  0  0  0  0
    2.9993  -10.0463    4.2628 H   0  0  0  0  0  0  0  0  0  0  0  0
    0.9835  -11.2313    3.4020 H   0  0  0  0  0  0  0  0  0  0  0  0
    1.9358  -10.5236    2.1039 H   0  0  0  0  0  0  0  0  0  0  0  0
    0.1881  -10.3911    2.0816 H   0  0  0  0  0  0  0  0  0  0  0  0
   -0.0498   -9.8204    5.1951 H   0  0  0  0  0  0  0  0  0  0  0  0
    0.0578   -8.0739    5.1570 H   0  0  0  0  0  0  0  0  0  0  0  0
   -1.5817   -9.7804    3.2586 H   0  0  0  0  0  0  0  0  0  0  0  0
   -2.1615   -8.6952    4.4793 H   0  0  0  0  0  0  0  0  0  0  0  0
   -2.1192   -7.8675    2.0360 H   0  0  0  0  0  0  0  0  0  0  0  0
   -1.6359   -6.7715    3.3033 H   0  0  0  0  0  0  0  0  0  0  0  0
    2.6741   -8.3010    1.2962 H   0  0  0  0  0  0  0  0  0  0  0  0
    4.0217   -6.6015   -0.1432 H   0  0  0  0  0  0  0  0  0  0  0  0
    4.2065   -4.0826   -0.5376 H   0  0  0  0  0  0  0  0  0  0  0  0
    2.9370   -2.6699    1.3137 H   0  0  0  0  0  0  0  0  0  0  0  0
  1  2  1  0
  1 24  1  0
  1 25  1  0
  1 26  1  0
  2 27  1  0
  2 28  1  0
  2  3  1  0
  3  8  1  0
  3  4  1  0
  4  5  2  0
  4  6  1  0
  6 18  1  0
  6 29  1  6
  6  7  1  0
  7 10  1  0
  7 30  1  1
  7  8  1  0
  8  9  2  0
 10 17  1  0
 10 11  1  6
 10 12  1  0
 11 31  1  0
 11 32  1  0
 11 33  1  0
 12 13  1  0
 12 34  1  0
 12 35  1  0
 13 14  1  0
 13 36  1  0
 13 37  1  0
 14 15  1  0
 14 38  1  0
 14 39  1  0
 15 16  2  0
 15 17  1  0
 17 18  1  0
 18 19  1  0
 18 40  1  6
 19 23  1  0
 19 20  2  0
 20 21  1  0
 20 41  1  0
 21 22  2  0
 21 42  1  0
 22 23  1  0
 22 43  1  0
M  END
>  <i_m_ct_stereo_status>  (139) 
1

>  <s_m_source_file>  (139) 
/var/tmp/pbs.5076255.sched01/tmp3npnc3rz/42_8qtnw6u.sdf

>  <i_m_source_file_index>  (139) 
18

>  <i_lp_mmshare_version>  (139) 
48012

>  <i_f3d_flags>  (139) 
0

>  <s_epik_input>  (139) 
W0NIM11bQ0gyXW4oYzFbT0hdKWMoW09IXSljKGMxW0NAQF0yM1tDSDNdKVtDQEhdKGM0W2NIXVtjSF1bY0hdczQpTjNDKD1PKVtDSDJdW0NIMl1bQ0gyXTI=

>  <s_epik_cmdline>  (139) 
J2VwaWtfcHl0aG9uJywgJy1waHQnLCAnMi4wJywgJy1waCcsICc3LjAnLCAnLXRuJywgJzgnLCAnLW1hJywgJzIwMCcsICctaW1hZScsICc8aW5maWxlLm1hZT4nLCAnLW9tYWUnLCAnPG91dGZpbGUubWFlPic=

>  <r_lp_tautomer_probability>  (139) 
1

>  <r_epik_Ionization_Penalty>  (139) 
5.0112e-10

>  <r_epik_Ionization_Penalty_Charging>  (139) 
0

>  <r_epik_Ionization_Penalty_Neutral>  (139) 
5.0112e-10

>  <r_epik_State_Penalty>  (139) 
-0

>  <r_epik_Charging_Adjusted_Penalty>  (139) 
0

>  <i_epik_Tot_Q>  (139) 
0

>  <i_epik_Tot_abs_Q>  (139) 
0

>  <s_lp_Force_Field>  (139) 
OPLS3e

>  <r_lp_Energy>  (139) 
13.3608

>  <b_lp_Chiralities_Consistent>  (139) 
1

>  <s_lp_Variant>  (139) 
40:0-1

>  <s_i_glide_gridfile>  (139) 
pfpi4k_grid

>  <i_i_glide_lignum>  (139) 
18

>  <i_i_glide_rotatable_bonds>  (139) 
2

>  <r_i_docking_score>  (139) 
-3.0201

>  <r_i_glide_ligand_efficiency>  (139) 
-0.131309

>  <r_i_glide_ligand_efficiency_sa>  (139) 
-0.373425

>  <r_i_glide_ligand_efficiency_ln>  (139) 
-0.730289

>  <r_i_glide_gscore>  (139) 
-3.0201

>  <r_i_glide_lipo>  (139) 
-0.188599

>  <r_i_glide_hbond>  (139) 
-0.169777

>  <r_i_glide_metal>  (139) 
-0

>  <r_i_glide_rewards>  (139) 
-1.1426

>  <r_i_glide_evdw>  (139) 
-21.8829

>  <r_i_glide_ecoul>  (139) 
-3.2802

>  <r_i_glide_erotb>  (139) 
0.170442

>  <r_i_glide_esite>  (139) 
-0.103394

>  <r_i_glide_emodel>  (139) 
-29.9964

>  <r_i_glide_energy>  (139) 
-25.1631

>  <r_i_glide_einternal>  (139) 
0.938432

>  <r_i_glide_intrahb_reward>  (139) 
-0

>  <i_i_glide_confnum>  (139) 
4

>  <i_i_glide_posenum>  (139) 
17

>  <r_i_glide_eff_state_penalty>  (139) 
0

>  <ligand_id>  (139) 
40

>  <original_smiles>  (139) 
CCn1c(O)c2c(c1O)C1(C)CCCC(=O)N1C2c1cccs1

>  <smiles>  (139) 
[H]c1sc(C2([H])N3C(=O)C([H])([H])C([H])([H])C([H])([H])C3(C([H])([H])[H])C3([H])C(=O)N(C([H])([H])C([H])([H])[H])C(=O)C23[H])c([H])c1[H]

$$$$
41:0:0
     RDKit          3D

 28 30  0  0  1  0  0  0  0  0999 V2000
    6.6464   -3.7997   -0.3514 O   0  0  0  0  0  0  0  0  0  0  0  0
    5.4151   -3.8347   -0.3571 C   0  0  0  0  0  0  0  0  0  0  0  0
    4.6442   -4.4126    0.7440 C   0  0  0  0  0  0  0  0  0  0  0  0
    3.2836   -4.4129    0.6964 C   0  0  0  0  0  0  0  0  0  0  0  0
    2.4433   -5.0110    1.7973 C   0  0  0  0  0  0  0  0  0  0  0  0
    1.4526   -5.9011    1.2981 O   0  0  0  0  0  0  0  0  0  0  0  0
    0.6582   -6.5309    2.2320 C   0  0  0  0  0  0  0  0  0  0  0  0
   -0.2955   -7.4633    1.7834 C   0  0  0  0  0  0  0  0  0  0  0  0
   -1.1071   -8.1513    2.7101 C   0  0  0  0  0  0  0  0  0  0  0  0
   -0.9769   -7.9059    4.0918 C   0  0  0  0  0  0  0  0  0  0  0  0
   -0.0385   -6.9659    4.5409 C   0  0  0  0  0  0  0  0  0  0  0  0
    0.2017   -6.6251    6.2087 Cl  0  0  0  0  0  0  0  0  0  0  0  0
    0.7599   -6.2768    3.6211 C   0  0  0  0  0  0  0  0  0  0  0  0
    2.5995   -3.8517   -0.3737 N   0  0  0  0  0  0  0  0  0  0  0  0
    3.2575   -3.3692   -1.3674 C   0  0  0  0  0  0  0  0  0  0  0  0
    2.6549   -2.6568   -2.9316 S   0  0  0  0  0  0  0  0  0  0  0  0
    4.3064   -2.3523   -3.4192 C   0  0  0  0  0  0  0  0  0  0  0  0
    5.2048   -2.7812   -2.5248 C   0  0  0  0  0  0  0  0  0  0  0  0
    4.6614   -3.3496   -1.3837 N   0  0  0  0  0  0  0  0  0  0  0  0
    5.1582   -4.8462    1.5943 H   0  0  0  0  0  0  0  0  0  0  0  0
    3.0926   -5.5201    2.5110 H   0  0  0  0  0  0  0  0  0  0  0  0
    1.9568   -4.1642    2.2751 H   0  0  0  0  0  0  0  0  0  0  0  0
   -0.3897   -7.6742    0.7216 H   0  0  0  0  0  0  0  0  0  0  0  0
   -1.8208   -8.8907    2.3577 H   0  0  0  0  0  0  0  0  0  0  0  0
   -1.5787   -8.4523    4.7962 H   0  0  0  0  0  0  0  0  0  0  0  0
    1.4522   -5.5709    4.0503 H   0  0  0  0  0  0  0  0  0  0  0  0
    4.5263   -1.8630   -4.3547 H   0  0  0  0  0  0  0  0  0  0  0  0
    6.2846   -2.7240   -2.6028 H   0  0  0  0  0  0  0  0  0  0  0  0
  1  2  2  0
  2 19  1  0
  2  3  1  0
  3  4  2  0
  3 20  1  0
  4  5  1  0
  4 14  1  0
  5  6  1  0
  5 21  1  0
  5 22  1  0
  6  7  1  0
  7 13  1  0
  7  8  2  0
  8  9  1  0
  8 23  1  0
  9 10  2  0
  9 24  1  0
 10 11  1  0
 10 25  1  0
 11 12  1  0
 11 13  2  0
 13 26  1  0
 14 15  2  0
 15 19  1  0
 15 16  1  0
 16 17  1  0
 17 18  2  0
 17 27  1  0
 18 19  1  0
 18 28  1  0
M  END
>  <i_m_ct_stereo_status>  (140) 
1

>  <s_m_source_file>  (140) 
/var/tmp/pbs.5076255.sched01/tmp3npnc3rz/42_8qtnw6u.sdf

>  <i_m_source_file_index>  (140) 
19

>  <i_lp_mmshare_version>  (140) 
48012

>  <i_f3d_flags>  (140) 
0

>  <s_epik_input>  (140) 
czFbY0hdW2NIXW4oYzEyKWMoPU8pW2NIXWMobjIpW0NIMl1PYzNbY0hdW2NIXVtjSF1jKENsKVtjSF0z

>  <s_epik_cmdline>  (140) 
J2VwaWtfcHl0aG9uJywgJy1waHQnLCAnMi4wJywgJy1waCcsICc3LjAnLCAnLXRuJywgJzgnLCAnLW1hJywgJzIwMCcsICctaW1hZScsICc8aW5maWxlLm1hZT4nLCAnLW9tYWUnLCAnPG91dGZpbGUubWFlPic=

>  <r_lp_tautomer_probability>  (140) 
1

>  <r_epik_Ionization_Penalty>  (140) 
7.63783e-07

>  <r_epik_Ionization_Penalty_Charging>  (140) 
0

>  <r_epik_Ionization_Penalty_Neutral>  (140) 
7.63783e-07

>  <r_epik_State_Penalty>  (140) 
-0

>  <r_epik_Charging_Adjusted_Penalty>  (140) 
0

>  <i_epik_Tot_Q>  (140) 
0

>  <i_epik_Tot_abs_Q>  (140) 
0

>  <s_lp_Force_Field>  (140) 
OPLS3e

>  <r_lp_Energy>  (140) 
40.7817

>  <b_lp_Chiralities_Consistent>  (140) 
1

>  <s_lp_Variant>  (140) 
41:0-1

>  <s_i_glide_gridfile>  (140) 
pfpi4k_grid

>  <i_i_glide_lignum>  (140) 
19

>  <i_i_glide_rotatable_bonds>  (140) 
3

>  <r_i_docking_score>  (140) 
-3.3793

>  <r_i_glide_ligand_efficiency>  (140) 
-0.177858

>  <r_i_glide_ligand_efficiency_sa>  (140) 
-0.474596

>  <r_i_glide_ligand_efficiency_ln>  (140) 
-0.856724

>  <r_i_glide_gscore>  (140) 
-3.3793

>  <r_i_glide_lipo>  (140) 
-0.418605

>  <r_i_glide_hbond>  (140) 
-0.135469

>  <r_i_glide_metal>  (140) 
-0

>  <r_i_glide_rewards>  (140) 
-1.57653

>  <r_i_glide_evdw>  (140) 
-29.9145

>  <r_i_glide_ecoul>  (140) 
-2.61504

>  <r_i_glide_erotb>  (140) 
0.639288

>  <r_i_glide_esite>  (140) 
0

>  <r_i_glide_emodel>  (140) 
-37.6693

>  <r_i_glide_energy>  (140) 
-32.5295

>  <r_i_glide_einternal>  (140) 
3.95749

>  <r_i_glide_intrahb_reward>  (140) 
-0

>  <i_i_glide_confnum>  (140) 
5

>  <i_i_glide_posenum>  (140) 
21

>  <r_i_glide_eff_state_penalty>  (140) 
0

>  <ligand_id>  (140) 
41

>  <original_smiles>  (140) 
O=c1cc(COc2cccc(Cl)c2)nc2sccn12

>  <smiles>  (140) 
[H]c1sc2nc(C([H])([H])Oc3c([H])c([H])c([H])c(Cl)c3[H])c([H])c(=O)n2c1[H]

$$$$
41:0:1
     RDKit          3D

 28 30  0  0  1  0  0  0  0  0999 V2000
    6.8000   -3.4348   -0.5322 O   0  0  0  0  0  0  0  0  0  0  0  0
    5.5743   -3.5252   -0.4501 C   0  0  0  0  0  0  0  0  0  0  0  0
    4.8883   -4.0273    0.7444 C   0  0  0  0  0  0  0  0  0  0  0  0
    3.5351   -4.0797    0.7850 C   0  0  0  0  0  0  0  0  0  0  0  0
    2.7627   -4.5970    1.9772 C   0  0  0  0  0  0  0  0  0  0  0  0
    1.8342   -5.5884    1.5556 O   0  0  0  0  0  0  0  0  0  0  0  0
    1.0280   -6.1828    2.4981 C   0  0  0  0  0  0  0  0  0  0  0  0
    1.0438   -5.8478    3.8745 C   0  0  0  0  0  0  0  0  0  0  0  0
    0.1930   -6.5104    4.7796 C   0  0  0  0  0  0  0  0  0  0  0  0
   -0.6830   -7.5085    4.3184 C   0  0  0  0  0  0  0  0  0  0  0  0
   -0.7091   -7.8382    2.9533 C   0  0  0  0  0  0  0  0  0  0  0  0
   -1.7865   -9.0565    2.3967 Cl  0  0  0  0  0  0  0  0  0  0  0  0
    0.1385   -7.1778    2.0453 C   0  0  0  0  0  0  0  0  0  0  0  0
    2.7633   -3.6688   -0.3041 N   0  0  0  0  0  0  0  0  0  0  0  0
    3.3461   -3.2385   -1.3736 C   0  0  0  0  0  0  0  0  0  0  0  0
    2.6333   -2.6575   -2.9475 S   0  0  0  0  0  0  0  0  0  0  0  0
    4.2424   -2.3337   -3.5489 C   0  0  0  0  0  0  0  0  0  0  0  0
    5.2047   -2.6589   -2.6815 C   0  0  0  0  0  0  0  0  0  0  0  0
    4.7450   -3.1591   -1.4687 N   0  0  0  0  0  0  0  0  0  0  0  0
    5.4776   -4.3589    1.5949 H   0  0  0  0  0  0  0  0  0  0  0  0
    3.4389   -4.9952    2.7369 H   0  0  0  0  0  0  0  0  0  0  0  0
    2.2268   -3.7485    2.4005 H   0  0  0  0  0  0  0  0  0  0  0  0
    1.7080   -5.0922    4.2613 H   0  0  0  0  0  0  0  0  0  0  0  0
    0.2225   -6.2594    5.8281 H   0  0  0  0  0  0  0  0  0  0  0  0
   -1.3280   -8.0329    5.0031 H   0  0  0  0  0  0  0  0  0  0  0  0
    0.1100   -7.4504    0.9992 H   0  0  0  0  0  0  0  0  0  0  0  0
    4.3833   -1.9173   -4.5326 H   0  0  0  0  0  0  0  0  0  0  0  0
    6.2751   -2.5840   -2.8252 H   0  0  0  0  0  0  0  0  0  0  0  0
  1  2  2  0
  2 19  1  0
  2  3  1  0
  3  4  2  0
  3 20  1  0
  4  5  1  0
  4 14  1  0
  5  6  1  0
  5 21  1  0
  5 22  1  0
  6  7  1  0
  7 13  1  0
  7  8  2  0
  8  9  1  0
  8 23  1  0
  9 10  2  0
  9 24  1  0
 10 11  1  0
 10 25  1  0
 11 12  1  0
 11 13  2  0
 13 26  1  0
 14 15  2  0
 15 19  1  0
 15 16  1  0
 16 17  1  0
 17 18  2  0
 17 27  1  0
 18 19  1  0
 18 28  1  0
M  END
>  <i_m_ct_stereo_status>  (141) 
1

>  <s_m_source_file>  (141) 
/var/tmp/pbs.5076255.sched01/tmp3npnc3rz/42_8qtnw6u.sdf

>  <i_m_source_file_index>  (141) 
19

>  <i_lp_mmshare_version>  (141) 
48012

>  <i_f3d_flags>  (141) 
0

>  <s_epik_input>  (141) 
czFbY0hdW2NIXW4oYzEyKWMoPU8pW2NIXWMobjIpW0NIMl1PYzNbY0hdW2NIXVtjSF1jKENsKVtjSF0z

>  <s_epik_cmdline>  (141) 
J2VwaWtfcHl0aG9uJywgJy1waHQnLCAnMi4wJywgJy1waCcsICc3LjAnLCAnLXRuJywgJzgnLCAnLW1hJywgJzIwMCcsICctaW1hZScsICc8aW5maWxlLm1hZT4nLCAnLW9tYWUnLCAnPG91dGZpbGUubWFlPic=

>  <r_lp_tautomer_probability>  (141) 
1

>  <r_epik_Ionization_Penalty>  (141) 
7.63783e-07

>  <r_epik_Ionization_Penalty_Charging>  (141) 
0

>  <r_epik_Ionization_Penalty_Neutral>  (141) 
7.63783e-07

>  <r_epik_State_Penalty>  (141) 
-0

>  <r_epik_Charging_Adjusted_Penalty>  (141) 
0

>  <i_epik_Tot_Q>  (141) 
0

>  <i_epik_Tot_abs_Q>  (141) 
0

>  <s_lp_Force_Field>  (141) 
OPLS3e

>  <r_lp_Energy>  (141) 
40.7817

>  <b_lp_Chiralities_Consistent>  (141) 
1

>  <s_lp_Variant>  (141) 
41:0-1

>  <s_i_glide_gridfile>  (141) 
pfpi4k_grid

>  <i_i_glide_lignum>  (141) 
19

>  <i_i_glide_rotatable_bonds>  (141) 
3

>  <r_i_docking_score>  (141) 
-3.34701

>  <r_i_glide_ligand_efficiency>  (141) 
-0.176158

>  <r_i_glide_ligand_efficiency_sa>  (141) 
-0.470061

>  <r_i_glide_ligand_efficiency_ln>  (141) 
-0.848538

>  <r_i_glide_gscore>  (141) 
-3.34701

>  <r_i_glide_lipo>  (141) 
-0.748897

>  <r_i_glide_hbond>  (141) 
-0.0397241

>  <r_i_glide_metal>  (141) 
-0

>  <r_i_glide_rewards>  (141) 
-1.50035

>  <r_i_glide_evdw>  (141) 
-31.7981

>  <r_i_glide_ecoul>  (141) 
-0.716096

>  <r_i_glide_erotb>  (141) 
0.639288

>  <r_i_glide_esite>  (141) 
0

>  <r_i_glide_emodel>  (141) 
-39.398

>  <r_i_glide_energy>  (141) 
-32.5142

>  <r_i_glide_einternal>  (141) 
0.626729

>  <r_i_glide_intrahb_reward>  (141) 
-0

>  <i_i_glide_confnum>  (141) 
5

>  <i_i_glide_posenum>  (141) 
26

>  <r_i_glide_eff_state_penalty>  (141) 
0

>  <ligand_id>  (141) 
41

>  <original_smiles>  (141) 
O=c1cc(COc2cccc(Cl)c2)nc2sccn12

>  <smiles>  (141) 
[H]c1sc2nc(C([H])([H])Oc3c([H])c([H])c([H])c(Cl)c3[H])c([H])c(=O)n2c1[H]

$$$$
41:0:2
     RDKit          3D

 28 30  0  0  1  0  0  0  0  0999 V2000
    6.2079   -1.0647   -0.1419 O   0  0  0  0  0  0  0  0  0  0  0  0
    5.3520   -1.9415   -0.2906 C   0  0  0  0  0  0  0  0  0  0  0  0
    5.1825   -3.0614    0.6420 C   0  0  0  0  0  0  0  0  0  0  0  0
    4.2321   -3.9984    0.4184 C   0  0  0  0  0  0  0  0  0  0  0  0
    4.0264   -5.2074    1.3019 C   0  0  0  0  0  0  0  0  0  0  0  0
    2.6417   -5.3567    1.6027 O   0  0  0  0  0  0  0  0  0  0  0  0
    2.1200   -6.6017    1.8807 C   0  0  0  0  0  0  0  0  0  0  0  0
    2.8346   -7.8179    1.7592 C   0  0  0  0  0  0  0  0  0  0  0  0
    2.2127   -9.0411    2.0609 C   0  0  0  0  0  0  0  0  0  0  0  0
    0.8740   -9.0714    2.4921 C   0  0  0  0  0  0  0  0  0  0  0  0
    0.1531   -7.8691    2.6164 C   0  0  0  0  0  0  0  0  0  0  0  0
   -1.4886   -7.8888    3.1446 Cl  0  0  0  0  0  0  0  0  0  0  0  0
    0.7769   -6.6439    2.3120 C   0  0  0  0  0  0  0  0  0  0  0  0
    3.3902   -3.9221   -0.6915 N   0  0  0  0  0  0  0  0  0  0  0  0
    3.5325   -2.9621   -1.5399 C   0  0  0  0  0  0  0  0  0  0  0  0
    2.6373   -2.6391   -3.0948 S   0  0  0  0  0  0  0  0  0  0  0  0
    3.5783   -1.1745   -3.3138 C   0  0  0  0  0  0  0  0  0  0  0  0
    4.4840   -0.9834   -2.3481 C   0  0  0  0  0  0  0  0  0  0  0  0
    4.4917   -1.9537   -1.3532 N   0  0  0  0  0  0  0  0  0  0  0  0
    5.8349   -3.1436    1.5064 H   0  0  0  0  0  0  0  0  0  0  0  0
    4.4284   -6.0228    0.7089 H   0  0  0  0  0  0  0  0  0  0  0  0
    4.5981   -5.1353    2.2282 H   0  0  0  0  0  0  0  0  0  0  0  0
    3.8616   -7.8589    1.4355 H   0  0  0  0  0  0  0  0  0  0  0  0
    2.7715   -9.9568    1.9490 H   0  0  0  0  0  0  0  0  0  0  0  0
    0.4087  -10.0151    2.7211 H   0  0  0  0  0  0  0  0  0  0  0  0
    0.2240   -5.7249    2.4287 H   0  0  0  0  0  0  0  0  0  0  0  0
    3.3974   -0.5175   -4.1500 H   0  0  0  0  0  0  0  0  0  0  0  0
    5.1750   -0.1565   -2.2558 H   0  0  0  0  0  0  0  0  0  0  0  0
  1  2  2  0
  2 19  1  0
  2  3  1  0
  3  4  2  0
  3 20  1  0
  4  5  1  0
  4 14  1  0
  5  6  1  0
  5 21  1  0
  5 22  1  0
  6  7  1  0
  7 13  1  0
  7  8  2  0
  8  9  1  0
  8 23  1  0
  9 10  2  0
  9 24  1  0
 10 11  1  0
 10 25  1  0
 11 12  1  0
 11 13  2  0
 13 26  1  0
 14 15  2  0
 15 19  1  0
 15 16  1  0
 16 17  1  0
 17 18  2  0
 17 27  1  0
 18 19  1  0
 18 28  1  0
M  END
>  <i_m_ct_stereo_status>  (142) 
1

>  <s_m_source_file>  (142) 
/var/tmp/pbs.5076255.sched01/tmp3npnc3rz/42_8qtnw6u.sdf

>  <i_m_source_file_index>  (142) 
19

>  <i_lp_mmshare_version>  (142) 
48012

>  <i_f3d_flags>  (142) 
0

>  <s_epik_input>  (142) 
czFbY0hdW2NIXW4oYzEyKWMoPU8pW2NIXWMobjIpW0NIMl1PYzNbY0hdW2NIXVtjSF1jKENsKVtjSF0z

>  <s_epik_cmdline>  (142) 
J2VwaWtfcHl0aG9uJywgJy1waHQnLCAnMi4wJywgJy1waCcsICc3LjAnLCAnLXRuJywgJzgnLCAnLW1hJywgJzIwMCcsICctaW1hZScsICc8aW5maWxlLm1hZT4nLCAnLW9tYWUnLCAnPG91dGZpbGUubWFlPic=

>  <r_lp_tautomer_probability>  (142) 
1

>  <r_epik_Ionization_Penalty>  (142) 
7.63783e-07

>  <r_epik_Ionization_Penalty_Charging>  (142) 
0

>  <r_epik_Ionization_Penalty_Neutral>  (142) 
7.63783e-07

>  <r_epik_State_Penalty>  (142) 
-0

>  <r_epik_Charging_Adjusted_Penalty>  (142) 
0

>  <i_epik_Tot_Q>  (142) 
0

>  <i_epik_Tot_abs_Q>  (142) 
0

>  <s_lp_Force_Field>  (142) 
OPLS3e

>  <r_lp_Energy>  (142) 
40.7817

>  <b_lp_Chiralities_Consistent>  (142) 
1

>  <s_lp_Variant>  (142) 
41:0-1

>  <s_i_glide_gridfile>  (142) 
pfpi4k_grid

>  <i_i_glide_lignum>  (142) 
19

>  <i_i_glide_rotatable_bonds>  (142) 
3

>  <r_i_docking_score>  (142) 
-2.84472

>  <r_i_glide_ligand_efficiency>  (142) 
-0.149722

>  <r_i_glide_ligand_efficiency_sa>  (142) 
-0.399518

>  <r_i_glide_ligand_efficiency_ln>  (142) 
-0.721197

>  <r_i_glide_gscore>  (142) 
-2.84472

>  <r_i_glide_lipo>  (142) 
-0.307136

>  <r_i_glide_hbond>  (142) 
-0.0383309

>  <r_i_glide_metal>  (142) 
-0

>  <r_i_glide_rewards>  (142) 
-1.41313

>  <r_i_glide_evdw>  (142) 
-32.2839

>  <r_i_glide_ecoul>  (142) 
-0.457686

>  <r_i_glide_erotb>  (142) 
0.639288

>  <r_i_glide_esite>  (142) 
-0.0425638

>  <r_i_glide_emodel>  (142) 
-38.2285

>  <r_i_glide_energy>  (142) 
-32.7416

>  <r_i_glide_einternal>  (142) 
1.04085

>  <r_i_glide_intrahb_reward>  (142) 
-0

>  <i_i_glide_confnum>  (142) 
4

>  <i_i_glide_posenum>  (142) 
1

>  <r_i_glide_eff_state_penalty>  (142) 
0

>  <ligand_id>  (142) 
41

>  <original_smiles>  (142) 
O=c1cc(COc2cccc(Cl)c2)nc2sccn12

>  <smiles>  (142) 
[H]c1sc2nc(C([H])([H])Oc3c([H])c([H])c([H])c(Cl)c3[H])c([H])c(=O)n2c1[H]

$$$$
42:0:0
     RDKit          3D

 54 59  0  0  1  0  0  0  0  0999 V2000
  -11.6685   -9.5181   -8.4188 C   0  0  0  0  0  0  0  0  0  0  0  0
  -10.5578  -10.5026   -8.7672 C   0  0  2  0  0  0  0  0  0  0  0  0
   -9.9405  -11.2715   -7.4301 C   0  0  2  0  0  0  0  0  0  0  0  0
   -8.7533  -10.9573   -6.3595 C   0  0  0  0  0  0  0  0  0  0  0  0
   -7.1902  -10.9815   -6.8855 C   0  0  1  0  0  0  0  0  0  0  0  0
   -6.9062  -12.3758   -7.4679 C   0  0  0  0  0  0  0  0  0  0  0  0
   -7.9428  -12.5532   -8.6025 C   0  0  2  0  0  0  0  0  0  0  0  0
   -7.6285  -12.3166  -10.1412 C   0  0  0  0  0  0  0  0  0  0  0  0
   -8.5379  -11.1702  -10.8309 C   0  0  0  0  0  0  0  0  0  0  0  0
   -9.3151  -10.1346   -9.8393 C   0  0  2  0  0  0  0  0  0  0  0  0
   -8.4402   -9.8595   -8.6676 C   0  0  2  0  0  0  0  0  0  0  0  0
   -8.8872   -8.5615   -7.9387 N   0  0  2  0  0  0  0  0  0  0  0  0
   -9.4385   -7.3464   -8.6299 C   0  0  1  0  0  0  0  0  0  0  0  0
  -10.5563   -6.5347   -7.9298 C   0  0  0  0  0  0  0  0  0  0  0  0
  -10.9914   -5.5265   -8.8266 O   0  0  0  0  0  0  0  0  0  0  0  0
   -8.0228   -7.3509   -8.1270 C   0  0  1  0  0  0  0  0  0  0  0  0
   -7.5743   -6.5854   -6.8821 C   0  0  0  0  0  0  0  0  0  0  0  0
   -6.7283   -7.1540   -5.8993 C   0  0  0  0  0  0  0  0  0  0  0  0
   -6.2931   -6.3838   -4.7836 C   0  0  0  0  0  0  0  0  0  0  0  0
   -6.7276   -5.0575   -4.6282 C   0  0  0  0  0  0  0  0  0  0  0  0
   -7.5555   -4.4836   -5.5985 C   0  0  0  0  0  0  0  0  0  0  0  0
   -7.9212   -5.2193   -6.7379 C   0  0  0  0  0  0  0  0  0  0  0  0
   -6.9823  -10.1041   -8.1791 C   0  0  0  0  0  0  0  0  0  0  0  0
   -8.9862  -11.4621   -8.4149 C   0  0  2  0  0  0  0  0  0  0  0  0
  -11.4360   -9.0782   -7.4550 H   0  0  0  0  0  0  0  0  0  0  0  0
  -12.6168  -10.0400   -8.2589 H   0  0  0  0  0  0  0  0  0  0  0  0
  -11.8130   -8.7804   -9.2143 H   0  0  0  0  0  0  0  0  0  0  0  0
  -11.1920  -11.1965   -9.3363 H   0  0  0  0  0  0  0  0  0  0  0  0
  -10.4904  -12.1846   -7.1897 H   0  0  0  0  0  0  0  0  0  0  0  0
   -8.9507  -10.0158   -5.8650 H   0  0  0  0  0  0  0  0  0  0  0  0
   -8.8547  -11.6982   -5.5704 H   0  0  0  0  0  0  0  0  0  0  0  0
   -6.4819  -10.7318   -6.0884 H   0  0  0  0  0  0  0  0  0  0  0  0
   -5.8752  -12.4722   -7.8107 H   0  0  0  0  0  0  0  0  0  0  0  0
   -7.0612  -13.1244   -6.6899 H   0  0  0  0  0  0  0  0  0  0  0  0
   -8.3388  -13.5697   -8.4983 H   0  0  0  0  0  0  0  0  0  0  0  0
   -6.5638  -12.1445  -10.2973 H   0  0  0  0  0  0  0  0  0  0  0  0
   -7.8330  -13.2524  -10.6662 H   0  0  0  0  0  0  0  0  0  0  0  0
   -7.8839  -10.6088  -11.4948 H   0  0  0  0  0  0  0  0  0  0  0  0
   -9.2848  -11.6440  -11.4711 H   0  0  0  0  0  0  0  0  0  0  0  0
   -9.5810   -9.2864  -10.4580 H   0  0  0  0  0  0  0  0  0  0  0  0
   -9.5049   -7.4443   -9.7109 H   0  0  0  0  0  0  0  0  0  0  0  0
  -11.4482   -7.0946   -7.6437 H   0  0  0  0  0  0  0  0  0  0  0  0
  -10.2392   -6.0249   -7.0322 H   0  0  0  0  0  0  0  0  0  0  0  0
  -11.9330   -5.4234   -8.7090 H   0  0  0  0  0  0  0  0  0  0  0  0
   -7.2578   -7.4886   -8.8751 H   0  0  0  0  0  0  0  0  0  0  0  0
   -6.3725   -8.1644   -5.9706 H   0  0  0  0  0  0  0  0  0  0  0  0
   -5.6341   -6.8186   -4.0600 H   0  0  0  0  0  0  0  0  0  0  0  0
   -6.4360   -4.4708   -3.7612 H   0  0  0  0  0  0  0  0  0  0  0  0
   -7.9038   -3.4736   -5.4889 H   0  0  0  0  0  0  0  0  0  0  0  0
   -8.4681   -4.7016   -7.5154 H   0  0  0  0  0  0  0  0  0  0  0  0
   -6.4411   -9.2123   -7.8861 H   0  0  0  0  0  0  0  0  0  0  0  0
   -6.3174  -10.5250   -8.9265 H   0  0  0  0  0  0  0  0  0  0  0  0
   -9.5275  -12.2174   -9.0522 H   0  0  0  0  0  0  0  0  0  0  0  0
   -9.2046   -8.6396   -6.9799 H   0  0  0  0  0  0  0  0  0  0  0  0
  1  2  1  0
  1 25  1  0
  1 26  1  0
  1 27  1  0
  2 10  1  0
  2  3  1  0
  2 28  1  6
  3 24  1  0
  3  4  1  0
  3 29  1  1
  4  5  1  0
  4 30  1  0
  4 31  1  0
  5 23  1  0
  5  6  1  0
  5 32  1  1
  6  7  1  0
  6 33  1  0
  6 34  1  0
  7 24  1  0
  7  8  1  0
  7 35  1  6
  8  9  1  0
  8 36  1  0
  8 37  1  0
  9 10  1  0
  9 38  1  0
  9 39  1  0
 10 11  1  0
 10 40  1  6
 11 12  1  0
 11 23  1  6
 11 24  1  0
 12 16  1  0
 12 13  1  0
 12 54  1  1
 13 14  1  0
 13 16  1  0
 13 41  1  6
 14 15  1  0
 14 42  1  0
 14 43  1  0
 15 44  1  0
 16 17  1  0
 16 45  1  6
 17 22  1  0
 17 18  2  0
 18 19  1  0
 18 46  1  0
 19 20  2  0
 19 47  1  0
 20 21  1  0
 20 48  1  0
 21 22  2  0
 21 49  1  0
 22 50  1  0
 23 51  1  0
 23 52  1  0
 24 53  1  6
M  CHG  1  12   1
M  END
>  <i_m_ct_stereo_status>  (143) 
1

>  <s_m_source_file>  (143) 
/var/tmp/pbs.5076255.sched01/tmp3npnc3rz/42_8qtnw6u.sdf

>  <i_m_source_file_index>  (143) 
20

>  <i_lp_mmshare_version>  (143) 
48012

>  <i_f3d_flags>  (143) 
0

>  <s_epik_input>  (143) 
W0NIMl0xW0NASF0oW0NIMl0yKVtDSDJdW0NASF0oW0NIMl1bQ0gyXTMpW0NIXTRbQ0BIXTFbQ0BASF0oW0NIM10pW0NASF0zW0NAXTI0TjVbQ0BASF0oW0NIMl1bT0hdKVtDQEhdNWM2W2NIXVtjSF1bY0hdW2NIXVtjSF02

>  <s_epik_cmdline>  (143) 
J2VwaWtfcHl0aG9uJywgJy1waHQnLCAnMi4wJywgJy1waCcsICc3LjAnLCAnLXRuJywgJzgnLCAnLW1hJywgJzIwMCcsICctaW1hZScsICc8aW5maWxlLm1hZT4nLCAnLW9tYWUnLCAnPG91dGZpbGUubWFlPic=

>  <r_epik_Ionization_Penalty>  (143) 
0.0061451

>  <r_epik_Ionization_Penalty_Charging>  (143) 
0.00614454

>  <r_epik_Ionization_Penalty_Neutral>  (143) 
5.55901e-07

>  <r_epik_State_Penalty>  (143) 
0.00453037

>  <r_epik_Charging_Adjusted_Penalty>  (143) 
0.0106749

>  <i_epik_Tot_Q>  (143) 
1

>  <i_epik_Tot_abs_Q>  (143) 
1

>  <s_lp_Force_Field>  (143) 
OPLS3e

>  <r_lp_Energy>  (143) 
309.079

>  <b_lp_Chiralities_Consistent>  (143) 
1

>  <s_lp_Variant>  (143) 
42:0-1

>  <s_i_glide_gridfile>  (143) 
pfpi4k_grid

>  <i_i_glide_lignum>  (143) 
20

>  <i_i_glide_rotatable_bonds>  (143) 
4

>  <r_i_docking_score>  (143) 
-5.98823

>  <r_i_glide_ligand_efficiency>  (143) 
-0.249509

>  <r_i_glide_ligand_efficiency_sa>  (143) 
-0.71971

>  <r_i_glide_ligand_efficiency_ln>  (143) 
-1.43326

>  <r_i_glide_gscore>  (143) 
-5.98823

>  <r_i_glide_lipo>  (143) 
-2.5208

>  <r_i_glide_hbond>  (143) 
-0.236412

>  <r_i_glide_metal>  (143) 
-0

>  <r_i_glide_rewards>  (143) 
-1.69673

>  <r_i_glide_evdw>  (143) 
-23.2204

>  <r_i_glide_ecoul>  (143) 
-4.97868

>  <r_i_glide_erotb>  (143) 
0.373543

>  <r_i_glide_esite>  (143) 
0

>  <r_i_glide_emodel>  (143) 
-35.109

>  <r_i_glide_energy>  (143) 
-28.1991

>  <r_i_glide_einternal>  (143) 
2.92795

>  <r_i_glide_intrahb_reward>  (143) 
-0

>  <i_i_glide_confnum>  (143) 
3

>  <i_i_glide_posenum>  (143) 
11

>  <r_i_glide_eff_state_penalty>  (143) 
0

>  <ligand_id>  (143) 
42

>  <original_smiles>  (143) 
CC1C2CC3CC4CCC1C(N1C(CO)C1c1ccccc1)(C3)C42

>  <smiles>  (143) 
[H]OC([H])([H])C1([H])C([H])(c2c([H])c([H])c([H])c([H])c2[H])[N+]1([H])C12C([H])([H])C3([H])C([H])([H])C4([H])C([H])([H])C([H])([H])C1([H])C([H])(C([H])([H])[H])C([H])(C3([H])[H])C42[H]

$$$$
42:0:1
     RDKit          3D

 54 59  0  0  1  0  0  0  0  0999 V2000
  -10.7470  -11.1074   -9.7885 C   0  0  0  0  0  0  0  0  0  0  0  0
   -9.5180  -11.8525   -9.2874 C   0  0  2  0  0  0  0  0  0  0  0  0
   -9.4191  -11.9572   -7.6358 C   0  0  2  0  0  0  0  0  0  0  0  0
   -8.8184  -11.0085   -6.4618 C   0  0  0  0  0  0  0  0  0  0  0  0
   -7.1807  -10.8543   -6.3612 C   0  0  1  0  0  0  0  0  0  0  0  0
   -6.5642  -12.2578   -6.2191 C   0  0  0  0  0  0  0  0  0  0  0  0
   -7.0257  -13.0620   -7.4492 C   0  0  2  0  0  0  0  0  0  0  0  0
   -6.1374  -13.2730   -8.7452 C   0  0  0  0  0  0  0  0  0  0  0  0
   -6.7799  -12.6797  -10.1104 C   0  0  0  0  0  0  0  0  0  0  0  0
   -7.9765  -11.5770   -9.9320 C   0  0  2  0  0  0  0  0  0  0  0  0
   -7.6660  -10.7480   -8.7580 C   0  0  2  0  0  0  0  0  0  0  0  0
   -8.4826   -9.4259   -8.8222 N   0  0  2  0  0  0  0  0  0  0  0  0
   -8.7457   -8.6641  -10.0735 C   0  0  1  0  0  0  0  0  0  0  0  0
  -10.0653   -7.8995  -10.1974 C   0  0  0  0  0  0  0  0  0  0  0  0
  -11.0011   -8.4727  -11.0873 O   0  0  0  0  0  0  0  0  0  0  0  0
   -7.7249   -8.1691   -9.1090 C   0  0  1  0  0  0  0  0  0  0  0  0
   -7.9540   -6.9784   -8.1926 C   0  0  0  0  0  0  0  0  0  0  0  0
   -7.6417   -7.0126   -6.8106 C   0  0  0  0  0  0  0  0  0  0  0  0
   -7.7944   -5.8723   -5.9994 C   0  0  0  0  0  0  0  0  0  0  0  0
   -8.2919   -4.6732   -6.5513 C   0  0  0  0  0  0  0  0  0  0  0  0
   -8.5856   -4.6131   -7.9176 C   0  0  0  0  0  0  0  0  0  0  0  0
   -8.3812   -5.7459   -8.7327 C   0  0  0  0  0  0  0  0  0  0  0  0
   -6.5323  -10.4470   -7.7406 C   0  0  0  0  0  0  0  0  0  0  0  0
   -8.1403  -12.2490   -8.0854 C   0  0  2  0  0  0  0  0  0  0  0  0
  -10.9423  -10.2135   -9.1987 H   0  0  0  0  0  0  0  0  0  0  0  0
  -11.6376  -11.7296   -9.6942 H   0  0  0  0  0  0  0  0  0  0  0  0
  -10.6040  -10.8856  -10.8481 H   0  0  0  0  0  0  0  0  0  0  0  0
   -9.8112  -12.8307   -9.7104 H   0  0  0  0  0  0  0  0  0  0  0  0
   -9.9559  -12.8269   -7.2520 H   0  0  0  0  0  0  0  0  0  0  0  0
   -9.2919  -10.0300   -6.5068 H   0  0  0  0  0  0  0  0  0  0  0  0
   -9.1699  -11.4382   -5.5192 H   0  0  0  0  0  0  0  0  0  0  0  0
   -6.8725  -10.1955   -5.5484 H   0  0  0  0  0  0  0  0  0  0  0  0
   -5.4759  -12.2319   -6.1101 H   0  0  0  0  0  0  0  0  0  0  0  0
   -6.9470  -12.7527   -5.3284 H   0  0  0  0  0  0  0  0  0  0  0  0
   -7.3507  -14.0422   -7.0801 H   0  0  0  0  0  0  0  0  0  0  0  0
   -5.1163  -12.9106   -8.6045 H   0  0  0  0  0  0  0  0  0  0  0  0
   -6.0256  -14.3491   -8.8843 H   0  0  0  0  0  0  0  0  0  0  0  0
   -5.9577  -12.2718  -10.6704 H   0  0  0  0  0  0  0  0  0  0  0  0
   -7.1664  -13.5136  -10.7102 H   0  0  0  0  0  0  0  0  0  0  0  0
   -8.0662  -11.0722  -10.8956 H   0  0  0  0  0  0  0  0  0  0  0  0
   -8.3240   -9.0508  -10.9923 H   0  0  0  0  0  0  0  0  0  0  0  0
  -10.5029   -7.6933   -9.2210 H   0  0  0  0  0  0  0  0  0  0  0  0
   -9.8567   -6.9479  -10.6815 H   0  0  0  0  0  0  0  0  0  0  0  0
  -11.3328   -9.2861  -10.7356 H   0  0  0  0  0  0  0  0  0  0  0  0
   -6.6919   -8.3180   -9.4180 H   0  0  0  0  0  0  0  0  0  0  0  0
   -7.2511   -7.8980   -6.3497 H   0  0  0  0  0  0  0  0  0  0  0  0
   -7.5296   -5.8887   -4.9525 H   0  0  0  0  0  0  0  0  0  0  0  0
   -8.4168   -3.7807   -5.9389 H   0  0  0  0  0  0  0  0  0  0  0  0
   -8.9302   -3.6800   -8.3462 H   0  0  0  0  0  0  0  0  0  0  0  0
   -8.5398   -5.6247   -9.7909 H   0  0  0  0  0  0  0  0  0  0  0  0
   -6.2208   -9.4112   -7.6479 H   0  0  0  0  0  0  0  0  0  0  0  0
   -5.5836  -10.9310   -7.9823 H   0  0  0  0  0  0  0  0  0  0  0  0
   -8.3298  -13.2821   -8.5067 H   0  0  0  0  0  0  0  0  0  0  0  0
   -9.1855   -9.2779   -8.1106 H   0  0  0  0  0  0  0  0  0  0  0  0
  1  2  1  0
  1 25  1  0
  1 26  1  0
  1 27  1  0
  2 10  1  0
  2  3  1  0
  2 28  1  6
  3 24  1  0
  3  4  1  0
  3 29  1  1
  4  5  1  0
  4 30  1  0
  4 31  1  0
  5 23  1  0
  5  6  1  0
  5 32  1  1
  6  7  1  0
  6 33  1  0
  6 34  1  0
  7 24  1  0
  7  8  1  0
  7 35  1  1
  8  9  1  0
  8 36  1  0
  8 37  1  0
  9 10  1  0
  9 38  1  0
  9 39  1  0
 10 11  1  0
 10 40  1  6
 11 12  1  0
 11 23  1  6
 11 24  1  0
 12 16  1  0
 12 13  1  0
 12 54  1  1
 13 14  1  0
 13 16  1  0
 13 41  1  6
 14 15  1  0
 14 42  1  0
 14 43  1  0
 15 44  1  0
 16 17  1  0
 16 45  1  6
 17 22  1  0
 17 18  2  0
 18 19  1  0
 18 46  1  0
 19 20  2  0
 19 47  1  0
 20 21  1  0
 20 48  1  0
 21 22  2  0
 21 49  1  0
 22 50  1  0
 23 51  1  0
 23 52  1  0
 24 53  1  6
M  CHG  1  12   1
M  END
>  <i_m_ct_stereo_status>  (144) 
1

>  <s_m_source_file>  (144) 
/var/tmp/pbs.5076255.sched01/tmp3npnc3rz/42_8qtnw6u.sdf

>  <i_m_source_file_index>  (144) 
20

>  <i_lp_mmshare_version>  (144) 
48012

>  <i_f3d_flags>  (144) 
0

>  <s_epik_input>  (144) 
W0NIMl0xW0NASF0oW0NIMl0yKVtDSDJdW0NASF0oW0NIMl1bQ0gyXTMpW0NIXTRbQ0BIXTFbQ0BASF0oW0NIM10pW0NASF0zW0NAXTI0TjVbQ0BASF0oW0NIMl1bT0hdKVtDQEhdNWM2W2NIXVtjSF1bY0hdW2NIXVtjSF02

>  <s_epik_cmdline>  (144) 
J2VwaWtfcHl0aG9uJywgJy1waHQnLCAnMi4wJywgJy1waCcsICc3LjAnLCAnLXRuJywgJzgnLCAnLW1hJywgJzIwMCcsICctaW1hZScsICc8aW5maWxlLm1hZT4nLCAnLW9tYWUnLCAnPG91dGZpbGUubWFlPic=

>  <r_epik_Ionization_Penalty>  (144) 
0.0061451

>  <r_epik_Ionization_Penalty_Charging>  (144) 
0.00614454

>  <r_epik_Ionization_Penalty_Neutral>  (144) 
5.55901e-07

>  <r_epik_State_Penalty>  (144) 
0.00453037

>  <r_epik_Charging_Adjusted_Penalty>  (144) 
0.0106749

>  <i_epik_Tot_Q>  (144) 
1

>  <i_epik_Tot_abs_Q>  (144) 
1

>  <s_lp_Force_Field>  (144) 
OPLS3e

>  <r_lp_Energy>  (144) 
309.079

>  <b_lp_Chiralities_Consistent>  (144) 
1

>  <s_lp_Variant>  (144) 
42:0-1

>  <s_i_glide_gridfile>  (144) 
pfpi4k_grid

>  <i_i_glide_lignum>  (144) 
20

>  <i_i_glide_rotatable_bonds>  (144) 
4

>  <r_i_docking_score>  (144) 
-4.43893

>  <r_i_glide_ligand_efficiency>  (144) 
-0.184956

>  <r_i_glide_ligand_efficiency_sa>  (144) 
-0.533504

>  <r_i_glide_ligand_efficiency_ln>  (144) 
-1.06244

>  <r_i_glide_gscore>  (144) 
-4.43893

>  <r_i_glide_lipo>  (144) 
-2.16816

>  <r_i_glide_hbond>  (144) 
0

>  <r_i_glide_metal>  (144) 
-0

>  <r_i_glide_rewards>  (144) 
-1.62173

>  <r_i_glide_evdw>  (144) 
-21.9311

>  <r_i_glide_ecoul>  (144) 
-0.574119

>  <r_i_glide_erotb>  (144) 
0.533633

>  <r_i_glide_esite>  (144) 
0

>  <r_i_glide_emodel>  (144) 
-28.2937

>  <r_i_glide_energy>  (144) 
-22.5052

>  <r_i_glide_einternal>  (144) 
0.788453

>  <r_i_glide_intrahb_reward>  (144) 
-0

>  <i_i_glide_confnum>  (144) 
6

>  <i_i_glide_posenum>  (144) 
6

>  <r_i_glide_eff_state_penalty>  (144) 
0

>  <ligand_id>  (144) 
42

>  <original_smiles>  (144) 
CC1C2CC3CC4CCC1C(N1C(CO)C1c1ccccc1)(C3)C42

>  <smiles>  (144) 
[H]OC([H])([H])C1([H])C([H])(c2c([H])c([H])c([H])c([H])c2[H])[N+]1([H])C12C([H])([H])C3([H])C([H])([H])C4([H])C([H])([H])C([H])([H])C1([H])C([H])(C([H])([H])[H])C([H])(C3([H])[H])C42[H]

$$$$
43:1:0
     RDKit          3D

 95101  0  0  1  0  0  0  0  0999 V2000
    7.3658   -5.5708    2.8147 C   0  0  0  0  0  0  0  0  0  0  0  0
    6.7223   -6.9430    3.0177 C   0  0  2  0  0  0  0  0  0  0  0  0
    6.2315   -7.0953    4.3669 O   0  0  0  0  0  0  0  0  0  0  0  0
    5.4958   -8.2654    4.6531 C   0  0  1  0  0  0  0  0  0  0  0  0
    4.4013   -8.4169    3.8005 O   0  0  0  0  0  0  0  0  0  0  0  0
    3.0228   -8.1516    4.1090 C   0  0  2  0  0  0  0  0  0  0  0  0
    2.5640   -8.8911    5.4149 C   0  0  0  0  0  0  0  0  0  0  0  0
    2.6218  -10.4209    5.3686 C   0  0  0  0  0  0  0  0  0  0  0  0
    1.8605  -10.9155    4.1580 C   0  0  0  0  0  0  0  0  0  0  0  0
    0.9960  -11.7940    4.2511 O   0  0  0  0  0  0  0  0  0  0  0  0
    2.2451  -10.3189    2.8234 C   0  0  0  0  0  0  0  0  0  0  0  0
    2.3386   -8.8009    2.8806 C   0  0  0  0  0  0  0  0  0  0  0  0
    1.9204   -8.0807    1.8173 C   0  0  0  0  0  0  0  0  0  0  0  0
    2.0977   -6.5853    1.6694 C   0  0  0  0  0  0  0  0  0  0  0  0
    2.9608   -5.9657    2.7935 C   0  0  1  0  0  0  0  0  0  0  0  0
    3.1997   -4.4191    2.7116 C   0  0  1  0  0  0  0  0  0  0  0  0
    1.9631   -3.5534    2.4824 C   0  0  0  0  0  0  0  0  0  0  0  0
    2.2927   -2.0713    2.2430 C   0  0  0  0  0  0  0  0  0  0  0  0
    3.0601   -1.4828    3.4386 C   0  0  2  0  0  0  0  0  0  0  0  0
    3.3143    0.0281    3.2852 C   0  0  0  0  0  0  0  0  0  0  0  0
    4.1517    0.5707    4.4364 C   0  0  0  0  0  0  0  0  0  0  0  0
    3.8652    1.6366    4.9899 O   0  0  0  0  0  0  0  0  0  0  0  0
    5.3892   -0.2165    4.8529 C   0  0  0  0  0  0  0  0  0  0  0  0
    5.0558   -1.7164    4.9796 C   0  0  0  0  0  0  0  0  0  0  0  0
    4.3472   -2.3063    3.7219 C   0  0  2  0  0  0  0  0  0  0  0  0
    5.3370   -2.1445    2.5263 C   0  0  0  0  0  0  0  0  0  0  0  0
    3.9611   -3.8225    3.9122 C   0  0  1  0  0  0  0  0  0  0  0  0
    3.2587   -4.2825    5.1847 C   0  0  0  0  0  0  0  0  0  0  0  0
    2.6330   -3.5265    5.9760 N   0  0  0  0  0  0  0  0  0  0  0  0
    2.1133   -4.2856    7.0164 O   0  0  0  0  0  0  0  0  0  0  0  0
    1.4346   -3.4490    7.8983 C   0  0  0  0  0  0  0  0  0  0  0  0
    0.9460   -4.2378    9.1047 C   0  0  0  0  0  0  0  0  0  0  0  0
    1.1647   -5.6335    9.1956 C   0  0  0  0  0  0  0  0  0  0  0  0
    0.7349   -6.3479   10.3201 C   0  0  0  0  0  0  0  0  0  0  0  0
    0.0744   -5.6790   11.3663 C   0  0  0  0  0  0  0  0  0  0  0  0
   -0.1511   -4.2934   11.2772 C   0  0  0  0  0  0  0  0  0  0  0  0
    0.2863   -3.5711   10.1513 C   0  0  0  0  0  0  0  0  0  0  0  0
    3.3832   -5.8059    5.3204 C   0  0  0  0  0  0  0  0  0  0  0  0
    2.6517   -6.5892    4.1872 C   0  0  2  0  0  0  0  0  0  0  0  0
    1.1420   -6.4029    4.5097 C   0  0  0  0  0  0  0  0  0  0  0  0
    6.4740   -9.4425    4.4352 C   0  0  1  0  0  0  0  0  0  0  0  0
    6.0118  -10.7343    4.7976 O   0  0  0  0  0  0  0  0  0  0  0  0
    7.1190   -9.4097    3.0178 C   0  0  1  0  0  0  0  0  0  0  0  0
    6.1848   -9.7314    2.0029 O   0  0  0  0  0  0  0  0  0  0  0  0
    7.7518   -8.0209    2.7619 C   0  0  1  0  0  0  0  0  0  0  0  0
    8.2082   -7.8596    1.4221 O   0  0  0  0  0  0  0  0  0  0  0  0
    7.7357   -5.4065    1.8026 H   0  0  0  0  0  0  0  0  0  0  0  0
    8.1915   -5.4711    3.5182 H   0  0  0  0  0  0  0  0  0  0  0  0
    6.6491   -4.7613    2.9609 H   0  0  0  0  0  0  0  0  0  0  0  0
    5.9335   -7.0785    2.2895 H   0  0  0  0  0  0  0  0  0  0  0  0
    5.2017   -8.2026    5.7072 H   0  0  0  0  0  0  0  0  0  0  0  0
    3.0872   -8.5369    6.3041 H   0  0  0  0  0  0  0  0  0  0  0  0
    1.5109   -8.6905    5.6019 H   0  0  0  0  0  0  0  0  0  0  0  0
    3.6368  -10.7956    5.3272 H   0  0  0  0  0  0  0  0  0  0  0  0
    2.1927  -10.8446    6.2739 H   0  0  0  0  0  0  0  0  0  0  0  0
    3.2073  -10.7411    2.5193 H   0  0  0  0  0  0  0  0  0  0  0  0
    1.4966  -10.6152    2.0844 H   0  0  0  0  0  0  0  0  0  0  0  0
    1.4682   -8.5895    0.9723 H   0  0  0  0  0  0  0  0  0  0  0  0
    2.5870   -6.4185    0.7062 H   0  0  0  0  0  0  0  0  0  0  0  0
    1.1000   -6.1490    1.6256 H   0  0  0  0  0  0  0  0  0  0  0  0
    3.9441   -6.3434    2.5583 H   0  0  0  0  0  0  0  0  0  0  0  0
    3.8010   -4.3031    1.8103 H   0  0  0  0  0  0  0  0  0  0  0  0
    1.5077   -3.9708    1.6071 H   0  0  0  0  0  0  0  0  0  0  0  0
    1.2555   -3.6155    3.3060 H   0  0  0  0  0  0  0  0  0  0  0  0
    2.8634   -1.9594    1.3174 H   0  0  0  0  0  0  0  0  0  0  0  0
    1.3611   -1.5148    2.0981 H   0  0  0  0  0  0  0  0  0  0  0  0
    2.4074   -1.5794    4.3017 H   0  0  0  0  0  0  0  0  0  0  0  0
    3.8247    0.2506    2.3482 H   0  0  0  0  0  0  0  0  0  0  0  0
    2.3578    0.5507    3.2551 H   0  0  0  0  0  0  0  0  0  0  0  0
    6.1707   -0.0413    4.1154 H   0  0  0  0  0  0  0  0  0  0  0  0
    5.7748    0.1751    5.7950 H   0  0  0  0  0  0  0  0  0  0  0  0
    5.9534   -2.2924    5.2320 H   0  0  0  0  0  0  0  0  0  0  0  0
    4.4275   -1.7870    5.8607 H   0  0  0  0  0  0  0  0  0  0  0  0
    6.2661   -2.6400    2.7492 H   0  0  0  0  0  0  0  0  0  0  0  0
    5.6156   -1.1124    2.3206 H   0  0  0  0  0  0  0  0  0  0  0  0
    4.9959   -2.5687    1.5840 H   0  0  0  0  0  0  0  0  0  0  0  0
    4.9109   -4.3486    3.9937 H   0  0  0  0  0  0  0  0  0  0  0  0
    2.0777   -2.6371    8.2334 H   0  0  0  0  0  0  0  0  0  0  0  0
    0.6047   -3.0431    7.3302 H   0  0  0  0  0  0  0  0  0  0  0  0
    1.6783   -6.1806    8.4100 H   0  0  0  0  0  0  0  0  0  0  0  0
    0.9332   -7.4145   10.3714 H   0  0  0  0  0  0  0  0  0  0  0  0
   -0.2450   -6.2368   12.2407 H   0  0  0  0  0  0  0  0  0  0  0  0
   -0.6531   -3.7757   12.0883 H   0  0  0  0  0  0  0  0  0  0  0  0
    0.1264   -2.4970   10.0991 H   0  0  0  0  0  0  0  0  0  0  0  0
    4.4480   -5.9566    5.3061 H   0  0  0  0  0  0  0  0  0  0  0  0
    3.1169   -6.1944    6.3027 H   0  0  0  0  0  0  0  0  0  0  0  0
    0.8295   -5.3730    4.3642 H   0  0  0  0  0  0  0  0  0  0  0  0
    0.9437   -6.6128    5.5620 H   0  0  0  0  0  0  0  0  0  0  0  0
    0.4856   -7.0316    3.9063 H   0  0  0  0  0  0  0  0  0  0  0  0
    7.2580   -9.2400    5.1601 H   0  0  0  0  0  0  0  0  0  0  0  0
    5.3748  -10.6394    5.4960 H   0  0  0  0  0  0  0  0  0  0  0  0
    7.9181  -10.1464    3.0065 H   0  0  0  0  0  0  0  0  0  0  0  0
    6.6252   -9.6279    1.1591 H   0  0  0  0  0  0  0  0  0  0  0  0
    8.5742   -7.8497    3.4570 H   0  0  0  0  0  0  0  0  0  0  0  0
    9.1739   -7.8473    1.4072 H   0  0  0  0  0  0  0  0  0  0  0  0
  1  2  1  0
  1 47  1  0
  1 48  1  0
  1 49  1  0
  2 45  1  0
  2  3  1  0
  2 50  1  6
  3  4  1  0
  4  5  1  0
  4 41  1  0
  4 51  1  1
  6  5  1  6
  6 12  1  0
  6 39  1  0
  6  7  1  0
  7  8  1  0
  7 52  1  0
  7 53  1  0
  8  9  1  0
  8 54  1  0
  8 55  1  0
  9 10  2  0
  9 11  1  0
 11 12  1  0
 11 56  1  0
 11 57  1  0
 12 13  2  0
 13 14  1  0
 13 58  1  0
 14 15  1  0
 14 59  1  0
 14 60  1  0
 15 39  1  0
 15 16  1  0
 15 61  1  6
 16 27  1  0
 16 17  1  0
 16 62  1  6
 17 18  1  0
 17 63  1  0
 17 64  1  0
 18 19  1  0
 18 65  1  0
 18 66  1  0
 19 25  1  0
 19 20  1  0
 19 67  1  1
 20 21  1  0
 20 68  1  0
 20 69  1  0
 21 22  2  0
 21 23  1  0
 23 24  1  0
 23 70  1  0
 23 71  1  0
 24 25  1  0
 24 72  1  0
 24 73  1  0
 25 26  1  6
 25 27  1  0
 26 74  1  0
 26 75  1  0
 26 76  1  0
 27 28  1  0
 27 77  1  1
 28 29  2  3
 28 38  1  0
 29 30  1  0
 30 31  1  0
 31 32  1  0
 31 78  1  0
 31 79  1  0
 32 37  1  0
 32 33  2  0
 33 34  1  0
 33 80  1  0
 34 35  2  0
 34 81  1  0
 35 36  1  0
 35 82  1  0
 36 37  2  0
 36 83  1  0
 37 84  1  0
 38 39  1  0
 38 85  1  0
 38 86  1  0
 39 40  1  1
 40 87  1  0
 40 88  1  0
 40 89  1  0
 41 42  1  0
 41 43  1  0
 41 90  1  1
 42 91  1  0
 43 44  1  0
 43 45  1  0
 43 92  1  1
 44 93  1  0
 45 46  1  0
 45 94  1  1
 46 95  1  0
M  END
>  <i_m_ct_stereo_status>  (145) 
1

>  <s_m_source_file>  (145) 
/var/tmp/pbs.5076255.sched01/tmp3npnc3rz/42_8qtnw6u.sdf

>  <i_m_source_file_index>  (145) 
22

>  <i_lp_mmshare_version>  (145) 
48012

>  <i_f3d_flags>  (145) 
0

>  <s_epik_input>  (145) 
W09IXVtDQEBIXTFbQ0BIXShbT0hdKVtDQEhdKFtPSF0pW0NAQEhdKE9bQ0BIXTFbQ0gzXSlPW0NAQF0yM0MoW0NIMl1DKD1PKVtDSDJdW0NIMl0yKT1bQ0hdW0NIMl1bQ0BIXTRbQ0BASF01W0NAQEhdKFtDQEBdNihbQ0gzXSlbQ0BIXShbQ0gyXVtDSDJdNSlbQ0gyXUMoPU8pW0NIMl1bQ0gyXTYpL0MoW0NIMl1bQ0BdMzRbQ0gzXSk9TlxPW0NIMl1jN1tjSF1bY0hdW2NIXVtjSF1bY0hdNw==

>  <s_epik_cmdline>  (145) 
J2VwaWtfcHl0aG9uJywgJy1waHQnLCAnMi4wJywgJy1waCcsICc3LjAnLCAnLXRuJywgJzgnLCAnLW1hJywgJzIwMCcsICctaW1hZScsICc8aW5maWxlLm1hZT4nLCAnLW9tYWUnLCAnPG91dGZpbGUubWFlPic=

>  <r_lp_tautomer_probability>  (145) 
1

>  <r_epik_Ionization_Penalty>  (145) 
1.98875e-06

>  <r_epik_Ionization_Penalty_Charging>  (145) 
0

>  <r_epik_Ionization_Penalty_Neutral>  (145) 
1.98875e-06

>  <r_epik_State_Penalty>  (145) 
-0

>  <r_epik_Charging_Adjusted_Penalty>  (145) 
0

>  <i_epik_Tot_Q>  (145) 
0

>  <i_epik_Tot_abs_Q>  (145) 
0

>  <s_epik_Chemistry_Notes>  (145) 
This compound has an imine and may undergo hydrolysis. This compound contains an acetal/aminal-like group ( X-CH(R)-Y where X, Y are N, S, or O) that may be acid/base labile, releasing an aldehyde.

>  <s_lp_Force_Field>  (145) 
OPLS3e

>  <r_lp_Energy>  (145) 
79.7092

>  <b_lp_Chiralities_Consistent>  (145) 
1

>  <s_lp_Variant>  (145) 
43:0-2

>  <s_i_glide_gridfile>  (145) 
pfpi4k_grid

>  <i_i_glide_lignum>  (145) 
22

>  <i_i_glide_rotatable_bonds>  (145) 
8

>  <r_i_docking_score>  (145) 
-2.29177

>  <r_i_glide_ligand_efficiency>  (145) 
-0.0498212

>  <r_i_glide_ligand_efficiency_sa>  (145) 
-0.178512

>  <r_i_glide_ligand_efficiency_ln>  (145) 
-0.474621

>  <r_i_glide_gscore>  (145) 
-2.29177

>  <r_i_glide_lipo>  (145) 
-0.295175

>  <r_i_glide_hbond>  (145) 
0

>  <r_i_glide_metal>  (145) 
-0

>  <r_i_glide_rewards>  (145) 
-0.0154547

>  <r_i_glide_evdw>  (145) 
-26.7615

>  <r_i_glide_ecoul>  (145) 
-4.70203

>  <r_i_glide_erotb>  (145) 
0.0672599

>  <r_i_glide_esite>  (145) 
-0.00502551

>  <r_i_glide_emodel>  (145) 
-30.7468

>  <r_i_glide_energy>  (145) 
-31.4635

>  <r_i_glide_einternal>  (145) 
5.28288

>  <r_i_glide_intrahb_reward>  (145) 
-0

>  <i_i_glide_confnum>  (145) 
1

>  <i_i_glide_posenum>  (145) 
19

>  <r_i_glide_eff_state_penalty>  (145) 
0

>  <ligand_id>  (145) 
43

>  <original_smiles>  (145) 
CC1OC(OC23CCC(=O)CC2=CCC2C4CCC5CC(=O)CCC5(C)C4C(=NOCc4ccccc4)CC23C)C(O)C(O)C1O

>  <smiles>  (145) 
[H]OC1([H])C([H])(OC23C(=C([H])C([H])([H])C4([H])C5([H])C([H])([H])C([H])([H])C6([H])C([H])([H])C(=O)C([H])([H])C([H])([H])C6(C([H])([H])[H])C5([H])C(=NOC([H])([H])c5c([H])c([H])c([H])c([H])c5[H])C([H])([H])C24C([H])([H])[H])C([H])([H])C(=O)C([H])([H])C3([H])[H])OC([H])(C([H])([H])[H])C([H])(O[H])C1([H])O[H]

$$$$
43:1:1
     RDKit          3D

 95101  0  0  1  0  0  0  0  0999 V2000
    5.1608   -4.4162    5.4352 C   0  0  0  0  0  0  0  0  0  0  0  0
    5.2529   -5.9437    5.3044 C   0  0  2  0  0  0  0  0  0  0  0  0
    4.4302   -6.5978    6.2512 O   0  0  0  0  0  0  0  0  0  0  0  0
    4.2162   -7.9750    6.0595 C   0  0  1  0  0  0  0  0  0  0  0  0
    3.7973   -8.3429    4.7585 O   0  0  0  0  0  0  0  0  0  0  0  0
    2.4477   -8.2869    4.2212 C   0  0  2  0  0  0  0  0  0  0  0  0
    1.3298   -8.6594    5.2637 C   0  0  0  0  0  0  0  0  0  0  0  0
    1.3679  -10.0926    5.8120 C   0  0  0  0  0  0  0  0  0  0  0  0
    1.3617  -11.0941    4.6614 C   0  0  0  0  0  0  0  0  0  0  0  0
    0.6218  -12.0675    4.6410 O   0  0  0  0  0  0  0  0  0  0  0  0
    2.3968  -10.8415    3.5717 C   0  0  0  0  0  0  0  0  0  0  0  0
    2.4914   -9.3828    3.1296 C   0  0  0  0  0  0  0  0  0  0  0  0
    2.7686   -9.0988    1.8457 C   0  0  0  0  0  0  0  0  0  0  0  0
    3.0796   -7.7217    1.2822 C   0  0  0  0  0  0  0  0  0  0  0  0
    3.2149   -6.6658    2.3669 C   0  0  1  0  0  0  0  0  0  0  0  0
    3.4921   -5.2028    1.8361 C   0  0  1  0  0  0  0  0  0  0  0  0
    2.5981   -4.6643    0.7195 C   0  0  0  0  0  0  0  0  0  0  0  0
    3.0670   -3.2642    0.2548 C   0  0  0  0  0  0  0  0  0  0  0  0
    3.0924   -2.2276    1.3989 C   0  0  2  0  0  0  0  0  0  0  0  0
    3.4246   -0.8089    0.8957 C   0  0  0  0  0  0  0  0  0  0  0  0
    3.5227    0.2058    2.0372 C   0  0  0  0  0  0  0  0  0  0  0  0
    3.0049    1.3086    1.9656 O   0  0  0  0  0  0  0  0  0  0  0  0
    4.3383   -0.2118    3.2612 C   0  0  0  0  0  0  0  0  0  0  0  0
    3.9306   -1.6281    3.7124 C   0  0  0  0  0  0  0  0  0  0  0  0
    4.0001   -2.6913    2.5543 C   0  0  2  0  0  0  0  0  0  0  0  0
    5.5044   -2.7578    2.1181 C   0  0  0  0  0  0  0  0  0  0  0  0
    3.4689   -4.1343    2.9239 C   0  0  1  0  0  0  0  0  0  0  0  0
    2.2263   -4.3205    3.8199 C   0  0  0  0  0  0  0  0  0  0  0  0
    1.3155   -3.4448    3.9618 N   0  0  0  0  0  0  0  0  0  0  0  0
    0.2593   -3.9127    4.7445 O   0  0  0  0  0  0  0  0  0  0  0  0
   -0.3109   -2.8175    5.4240 C   0  0  0  0  0  0  0  0  0  0  0  0
   -0.5383   -3.1834    6.8683 C   0  0  0  0  0  0  0  0  0  0  0  0
    0.3258   -2.6668    7.8540 C   0  0  0  0  0  0  0  0  0  0  0  0
    0.1368   -3.0140    9.2051 C   0  0  0  0  0  0  0  0  0  0  0  0
   -0.9092   -3.8727    9.5704 C   0  0  0  0  0  0  0  0  0  0  0  0
   -1.7835   -4.4028    8.5877 C   0  0  0  0  0  0  0  0  0  0  0  0
   -1.5807   -4.0523    7.2276 C   0  0  0  0  0  0  0  0  0  0  0  0
    2.1485   -5.6848    4.4906 C   0  0  0  0  0  0  0  0  0  0  0  0
    2.1648   -6.8714    3.5260 C   0  0  2  0  0  0  0  0  0  0  0  0
    0.7235   -6.7985    2.9583 C   0  0  0  0  0  0  0  0  0  0  0  0
    5.6129   -8.5636    6.3449 C   0  0  1  0  0  0  0  0  0  0  0  0
    5.6252   -9.9660    6.3119 O   0  0  0  0  0  0  0  0  0  0  0  0
    6.6857   -7.9585    5.4016 C   0  0  1  0  0  0  0  0  0  0  0  0
    6.4718   -8.4146    4.0799 O   0  0  0  0  0  0  0  0  0  0  0  0
    6.6637   -6.4251    5.4413 C   0  0  1  0  0  0  0  0  0  0  0  0
    7.4896   -5.8699    4.4434 O   0  0  0  0  0  0  0  0  0  0  0  0
    5.7488   -3.9382    4.6816 H   0  0  0  0  0  0  0  0  0  0  0  0
    5.4378   -4.0320    6.4154 H   0  0  0  0  0  0  0  0  0  0  0  0
    4.1644   -4.0142    5.3559 H   0  0  0  0  0  0  0  0  0  0  0  0
    4.9582   -6.2104    4.2898 H   0  0  0  0  0  0  0  0  0  0  0  0
    3.4916   -8.3255    6.7793 H   0  0  0  0  0  0  0  0  0  0  0  0
    1.3076   -7.9574    6.0943 H   0  0  0  0  0  0  0  0  0  0  0  0
    0.3483   -8.5718    4.7981 H   0  0  0  0  0  0  0  0  0  0  0  0
    2.2527  -10.2668    6.4235 H   0  0  0  0  0  0  0  0  0  0  0  0
    0.5056  -10.2881    6.4545 H   0  0  0  0  0  0  0  0  0  0  0  0
    3.3698  -11.1272    3.9625 H   0  0  0  0  0  0  0  0  0  0  0  0
    2.1887  -11.4971    2.7224 H   0  0  0  0  0  0  0  0  0  0  0  0
    2.8480   -9.9177    1.1406 H   0  0  0  0  0  0  0  0  0  0  0  0
    4.0035   -7.7706    0.7020 H   0  0  0  0  0  0  0  0  0  0  0  0
    2.2846   -7.4238    0.6154 H   0  0  0  0  0  0  0  0  0  0  0  0
    4.1762   -7.0015    2.7413 H   0  0  0  0  0  0  0  0  0  0  0  0
    4.5014   -5.2546    1.4462 H   0  0  0  0  0  0  0  0  0  0  0  0
    2.6316   -5.3539   -0.1142 H   0  0  0  0  0  0  0  0  0  0  0  0
    1.5936   -4.6148    1.0630 H   0  0  0  0  0  0  0  0  0  0  0  0
    4.0410   -3.3388   -0.2182 H   0  0  0  0  0  0  0  0  0  0  0  0
    2.3821   -2.9265   -0.5149 H   0  0  0  0  0  0  0  0  0  0  0  0
    2.0787   -2.1826    1.7934 H   0  0  0  0  0  0  0  0  0  0  0  0
    4.3594   -0.8088    0.3394 H   0  0  0  0  0  0  0  0  0  0  0  0
    2.6431   -0.4788    0.2137 H   0  0  0  0  0  0  0  0  0  0  0  0
    5.4010   -0.1624    3.0207 H   0  0  0  0  0  0  0  0  0  0  0  0
    4.1774    0.5109    4.0629 H   0  0  0  0  0  0  0  0  0  0  0  0
    4.5575   -1.9074    4.5545 H   0  0  0  0  0  0  0  0  0  0  0  0
    2.9270   -1.5381    4.1225 H   0  0  0  0  0  0  0  0  0  0  0  0
    6.1834   -3.0019    2.9277 H   0  0  0  0  0  0  0  0  0  0  0  0
    5.8867   -1.8148    1.7353 H   0  0  0  0  0  0  0  0  0  0  0  0
    5.7080   -3.4933    1.3460 H   0  0  0  0  0  0  0  0  0  0  0  0
    4.3440   -4.5589    3.3500 H   0  0  0  0  0  0  0  0  0  0  0  0
    0.3184   -1.9269    5.3635 H   0  0  0  0  0  0  0  0  0  0  0  0
   -1.2714   -2.5397    4.9882 H   0  0  0  0  0  0  0  0  0  0  0  0
    1.1364   -2.0114    7.5754 H   0  0  0  0  0  0  0  0  0  0  0  0
    0.7988   -2.6160    9.9588 H   0  0  0  0  0  0  0  0  0  0  0  0
   -1.0587   -4.1399   10.6062 H   0  0  0  0  0  0  0  0  0  0  0  0
   -2.5748   -5.0370    8.8643 H   0  0  0  0  0  0  0  0  0  0  0  0
   -2.2493   -4.4649    6.4849 H   0  0  0  0  0  0  0  0  0  0  0  0
    3.0187   -5.6773    5.0560 H   0  0  0  0  0  0  0  0  0  0  0  0
    1.4986   -5.7763    5.3560 H   0  0  0  0  0  0  0  0  0  0  0  0
    0.5807   -5.9301    2.3299 H   0  0  0  0  0  0  0  0  0  0  0  0
   -0.0115   -6.6939    3.7558 H   0  0  0  0  0  0  0  0  0  0  0  0
    0.4663   -7.6722    2.3726 H   0  0  0  0  0  0  0  0  0  0  0  0
    5.8599   -8.2736    7.3735 H   0  0  0  0  0  0  0  0  0  0  0  0
    4.8889  -10.2728    6.8226 H   0  0  0  0  0  0  0  0  0  0  0  0
    7.6779   -8.2672    5.7185 H   0  0  0  0  0  0  0  0  0  0  0  0
    7.1767   -8.0951    3.5364 H   0  0  0  0  0  0  0  0  0  0  0  0
    6.9388   -6.0311    6.4150 H   0  0  0  0  0  0  0  0  0  0  0  0
    7.2256   -6.2227    3.6048 H   0  0  0  0  0  0  0  0  0  0  0  0
  1  2  1  0
  1 47  1  0
  1 48  1  0
  1 49  1  0
  2 45  1  0
  2  3  1  0
  2 50  1  6
  3  4  1  0
  4  5  1  0
  4 41  1  0
  4 51  1  1
  6  5  1  1
  6 12  1  0
  6 39  1  0
  6  7  1  0
  7  8  1  0
  7 52  1  0
  7 53  1  0
  8  9  1  0
  8 54  1  0
  8 55  1  0
  9 10  2  0
  9 11  1  0
 11 12  1  0
 11 56  1  0
 11 57  1  0
 12 13  2  0
 13 14  1  0
 13 58  1  0
 14 15  1  0
 14 59  1  0
 14 60  1  0
 15 39  1  0
 15 16  1  0
 15 61  1  1
 16 27  1  0
 16 17  1  0
 16 62  1  6
 17 18  1  0
 17 63  1  0
 17 64  1  0
 18 19  1  0
 18 65  1  0
 18 66  1  0
 19 25  1  0
 19 20  1  0
 19 67  1  1
 20 21  1  0
 20 68  1  0
 20 69  1  0
 21 22  2  0
 21 23  1  0
 23 24  1  0
 23 70  1  0
 23 71  1  0
 24 25  1  0
 24 72  1  0
 24 73  1  0
 25 26  1  6
 25 27  1  0
 26 74  1  0
 26 75  1  0
 26 76  1  0
 27 28  1  0
 27 77  1  1
 28 29  2  3
 28 38  1  0
 29 30  1  0
 30 31  1  0
 31 32  1  0
 31 78  1  0
 31 79  1  0
 32 37  1  0
 32 33  2  0
 33 34  1  0
 33 80  1  0
 34 35  2  0
 34 81  1  0
 35 36  1  0
 35 82  1  0
 36 37  2  0
 36 83  1  0
 37 84  1  0
 38 39  1  0
 38 85  1  0
 38 86  1  0
 39 40  1  6
 40 87  1  0
 40 88  1  0
 40 89  1  0
 41 42  1  0
 41 43  1  0
 41 90  1  1
 42 91  1  0
 43 44  1  0
 43 45  1  0
 43 92  1  1
 44 93  1  0
 45 46  1  0
 45 94  1  1
 46 95  1  0
M  END
>  <i_m_ct_stereo_status>  (146) 
1

>  <s_m_source_file>  (146) 
/var/tmp/pbs.5076255.sched01/tmp3npnc3rz/42_8qtnw6u.sdf

>  <i_m_source_file_index>  (146) 
22

>  <i_lp_mmshare_version>  (146) 
48012

>  <i_f3d_flags>  (146) 
0

>  <s_epik_input>  (146) 
W09IXVtDQEBIXTFbQ0BIXShbT0hdKVtDQEhdKFtPSF0pW0NAQEhdKE9bQ0BIXTFbQ0gzXSlPW0NAQF0yM0MoW0NIMl1DKD1PKVtDSDJdW0NIMl0yKT1bQ0hdW0NIMl1bQ0BIXTRbQ0BASF01W0NAQEhdKFtDQEBdNihbQ0gzXSlbQ0BIXShbQ0gyXVtDSDJdNSlbQ0gyXUMoPU8pW0NIMl1bQ0gyXTYpL0MoW0NIMl1bQ0BdMzRbQ0gzXSk9TlxPW0NIMl1jN1tjSF1bY0hdW2NIXVtjSF1bY0hdNw==

>  <s_epik_cmdline>  (146) 
J2VwaWtfcHl0aG9uJywgJy1waHQnLCAnMi4wJywgJy1waCcsICc3LjAnLCAnLXRuJywgJzgnLCAnLW1hJywgJzIwMCcsICctaW1hZScsICc8aW5maWxlLm1hZT4nLCAnLW9tYWUnLCAnPG91dGZpbGUubWFlPic=

>  <r_lp_tautomer_probability>  (146) 
1

>  <r_epik_Ionization_Penalty>  (146) 
1.98875e-06

>  <r_epik_Ionization_Penalty_Charging>  (146) 
0

>  <r_epik_Ionization_Penalty_Neutral>  (146) 
1.98875e-06

>  <r_epik_State_Penalty>  (146) 
-0

>  <r_epik_Charging_Adjusted_Penalty>  (146) 
0

>  <i_epik_Tot_Q>  (146) 
0

>  <i_epik_Tot_abs_Q>  (146) 
0

>  <s_epik_Chemistry_Notes>  (146) 
This compound has an imine and may undergo hydrolysis. This compound contains an acetal/aminal-like group ( X-CH(R)-Y where X, Y are N, S, or O) that may be acid/base labile, releasing an aldehyde.

>  <s_lp_Force_Field>  (146) 
OPLS3e

>  <r_lp_Energy>  (146) 
79.7092

>  <b_lp_Chiralities_Consistent>  (146) 
1

>  <s_lp_Variant>  (146) 
43:0-2

>  <s_i_glide_gridfile>  (146) 
pfpi4k_grid

>  <i_i_glide_lignum>  (146) 
22

>  <i_i_glide_rotatable_bonds>  (146) 
8

>  <r_i_docking_score>  (146) 
-0.790639

>  <r_i_glide_ligand_efficiency>  (146) 
-0.0171878

>  <r_i_glide_ligand_efficiency_sa>  (146) 
-0.0615847

>  <r_i_glide_ligand_efficiency_ln>  (146) 
-0.163739

>  <r_i_glide_gscore>  (146) 
-0.790639

>  <r_i_glide_lipo>  (146) 
-0.131693

>  <r_i_glide_hbond>  (146) 
0

>  <r_i_glide_metal>  (146) 
-0

>  <r_i_glide_rewards>  (146) 
-0.0458082

>  <r_i_glide_evdw>  (146) 
-30.7374

>  <r_i_glide_ecoul>  (146) 
-0.914093

>  <r_i_glide_erotb>  (146) 
0.0672599

>  <r_i_glide_esite>  (146) 
-0.0220499

>  <r_i_glide_emodel>  (146) 
-24.6691

>  <r_i_glide_energy>  (146) 
-31.6515

>  <r_i_glide_einternal>  (146) 
5.09452

>  <r_i_glide_intrahb_reward>  (146) 
-0

>  <i_i_glide_confnum>  (146) 
1

>  <i_i_glide_posenum>  (146) 
17

>  <r_i_glide_eff_state_penalty>  (146) 
0

>  <ligand_id>  (146) 
43

>  <original_smiles>  (146) 
CC1OC(OC23CCC(=O)CC2=CCC2C4CCC5CC(=O)CCC5(C)C4C(=NOCc4ccccc4)CC23C)C(O)C(O)C1O

>  <smiles>  (146) 
[H]OC1([H])C([H])(OC23C(=C([H])C([H])([H])C4([H])C5([H])C([H])([H])C([H])([H])C6([H])C([H])([H])C(=O)C([H])([H])C([H])([H])C6(C([H])([H])[H])C5([H])C(=NOC([H])([H])c5c([H])c([H])c([H])c([H])c5[H])C([H])([H])C24C([H])([H])[H])C([H])([H])C(=O)C([H])([H])C3([H])[H])OC([H])(C([H])([H])[H])C([H])(O[H])C1([H])O[H]

$$$$
43:1:2
     RDKit          3D

 95101  0  0  1  0  0  0  0  0999 V2000
    5.0999   -4.4861    5.4580 C   0  0  0  0  0  0  0  0  0  0  0  0
    5.2388   -6.0259    5.2562 C   0  0  2  0  0  0  0  0  0  0  0  0
    4.4355   -6.7172    6.2421 O   0  0  0  0  0  0  0  0  0  0  0  0
    4.2602   -8.0789    6.0271 C   0  0  1  0  0  0  0  0  0  0  0  0
    3.8224   -8.4489    4.7350 O   0  0  0  0  0  0  0  0  0  0  0  0
    2.4571   -8.3765    4.2155 C   0  0  2  0  0  0  0  0  0  0  0  0
    1.3567   -8.7649    5.2721 C   0  0  0  0  0  0  0  0  0  0  0  0
    1.3990  -10.2126    5.7863 C   0  0  0  0  0  0  0  0  0  0  0  0
    1.3769  -11.1868    4.6226 C   0  0  0  0  0  0  0  0  0  0  0  0
    0.6266  -12.1656    4.5904 O   0  0  0  0  0  0  0  0  0  0  0  0
    2.3893  -10.9173    3.5170 C   0  0  0  0  0  0  0  0  0  0  0  0
    2.4794   -9.4401    3.1077 C   0  0  0  0  0  0  0  0  0  0  0  0
    2.7441   -9.1395    1.8192 C   0  0  0  0  0  0  0  0  0  0  0  0
    3.0514   -7.7476    1.2823 C   0  0  0  0  0  0  0  0  0  0  0  0
    3.2163   -6.7244    2.3876 C   0  0  1  0  0  0  0  0  0  0  0  0
    3.4761   -5.2451    1.8869 C   0  0  1  0  0  0  0  0  0  0  0  0
    2.5760   -4.6766    0.7878 C   0  0  0  0  0  0  0  0  0  0  0  0
    3.0314   -3.2729    0.3479 C   0  0  0  0  0  0  0  0  0  0  0  0
    3.0767   -2.2584    1.5093 C   0  0  2  0  0  0  0  0  0  0  0  0
    3.4100   -0.8294    1.0315 C   0  0  0  0  0  0  0  0  0  0  0  0
    3.5314    0.1692    2.1888 C   0  0  0  0  0  0  0  0  0  0  0  0
    2.9847    1.2712    2.1425 O   0  0  0  0  0  0  0  0  0  0  0  0
    4.3612   -0.2820    3.3951 C   0  0  0  0  0  0  0  0  0  0  0  0
    3.9519   -1.7040    3.8221 C   0  0  0  0  0  0  0  0  0  0  0  0
    4.0055   -2.7541    2.6472 C   0  0  2  0  0  0  0  0  0  0  0  0
    5.5009   -2.8095    2.1859 C   0  0  0  0  0  0  0  0  0  0  0  0
    3.4881   -4.1962    2.9938 C   0  0  1  0  0  0  0  0  0  0  0  0
    2.2444   -4.4204    3.8961 C   0  0  0  0  0  0  0  0  0  0  0  0
    1.3207   -3.5086    4.0739 N   0  0  0  0  0  0  0  0  0  0  0  0
    0.2956   -4.0062    4.8641 O   0  0  0  0  0  0  0  0  0  0  0  0
   -0.3322   -2.9048    5.4935 C   0  0  0  0  0  0  0  0  0  0  0  0
   -0.5721   -3.2265    6.9406 C   0  0  0  0  0  0  0  0  0  0  0  0
   -1.6205   -4.0975    7.3054 C   0  0  0  0  0  0  0  0  0  0  0  0
   -1.8216   -4.3875    8.6586 C   0  0  0  0  0  0  0  0  0  0  0  0
   -0.9972   -3.8510    9.6530 C   0  0  0  0  0  0  0  0  0  0  0  0
    0.0522   -2.9855    9.2865 C   0  0  0  0  0  0  0  0  0  0  0  0
    0.2665   -2.6738    7.9310 C   0  0  0  0  0  0  0  0  0  0  0  0
    2.1886   -5.7765    4.5660 C   0  0  0  0  0  0  0  0  0  0  0  0
    2.1736   -6.9422    3.5560 C   0  0  2  0  0  0  0  0  0  0  0  0
    0.7160   -6.8536    3.0106 C   0  0  0  0  0  0  0  0  0  0  0  0
    5.6891   -8.6343    6.2669 C   0  0  1  0  0  0  0  0  0  0  0  0
    5.7209  -10.0442    6.2086 O   0  0  0  0  0  0  0  0  0  0  0  0
    6.7078   -7.9979    5.3113 C   0  0  1  0  0  0  0  0  0  0  0  0
    6.4821   -8.4457    3.9806 O   0  0  0  0  0  0  0  0  0  0  0  0
    6.6314   -6.4642    5.3679 C   0  0  1  0  0  0  0  0  0  0  0  0
    7.4300   -5.8768    4.3639 O   0  0  0  0  0  0  0  0  0  0  0  0
    5.6760   -3.9814    4.6775 H   0  0  0  0  0  0  0  0  0  0  0  0
    5.3830   -4.1249    6.4042 H   0  0  0  0  0  0  0  0  0  0  0  0
    4.1035   -4.1181    5.3765 H   0  0  0  0  0  0  0  0  0  0  0  0
    4.9063   -6.2793    4.2714 H   0  0  0  0  0  0  0  0  0  0  0  0
    3.5674   -8.4667    6.7559 H   0  0  0  0  0  0  0  0  0  0  0  0
    1.3492   -8.0805    6.1137 H   0  0  0  0  0  0  0  0  0  0  0  0
    0.3680   -8.6640    4.8210 H   0  0  0  0  0  0  0  0  0  0  0  0
    2.2936  -10.3972    6.3826 H   0  0  0  0  0  0  0  0  0  0  0  0
    0.5468  -10.4145    6.4400 H   0  0  0  0  0  0  0  0  0  0  0  0
    3.3687  -11.2082    3.8870 H   0  0  0  0  0  0  0  0  0  0  0  0
    2.1708  -11.5501    2.6610 H   0  0  0  0  0  0  0  0  0  0  0  0
    2.8090   -9.9408    1.1027 H   0  0  0  0  0  0  0  0  0  0  0  0
    3.9645   -7.7884    0.6867 H   0  0  0  0  0  0  0  0  0  0  0  0
    2.2452   -7.4382    0.6285 H   0  0  0  0  0  0  0  0  0  0  0  0
    4.1689   -7.0579    2.7402 H   0  0  0  0  0  0  0  0  0  0  0  0
    4.4833   -5.2889    1.4749 H   0  0  0  0  0  0  0  0  0  0  0  0
    2.5853   -5.3520   -0.0560 H   0  0  0  0  0  0  0  0  0  0  0  0
    1.5600   -4.6335    1.1499 H   0  0  0  0  0  0  0  0  0  0  0  0
    4.0005   -3.3387   -0.1442 H   0  0  0  0  0  0  0  0  0  0  0  0
    2.3394   -2.9169   -0.4046 H   0  0  0  0  0  0  0  0  0  0  0  0
    2.0730   -2.2203    1.9224 H   0  0  0  0  0  0  0  0  0  0  0  0
    4.3345   -0.8221    0.4609 H   0  0  0  0  0  0  0  0  0  0  0  0
    2.6174   -0.4848    0.3704 H   0  0  0  0  0  0  0  0  0  0  0  0
    5.4203   -0.2326    3.1380 H   0  0  0  0  0  0  0  0  0  0  0  0
    4.2131    0.4234    4.2136 H   0  0  0  0  0  0  0  0  0  0  0  0
    4.5907   -2.0029    4.6483 H   0  0  0  0  0  0  0  0  0  0  0  0
    2.9555   -1.6248    4.2513 H   0  0  0  0  0  0  0  0  0  0  0  0
    6.1921   -3.0778    2.9788 H   0  0  0  0  0  0  0  0  0  0  0  0
    5.8807   -1.8613    1.8136 H   0  0  0  0  0  0  0  0  0  0  0  0
    5.6910   -3.5305    1.3918 H   0  0  0  0  0  0  0  0  0  0  0  0
    4.3363   -4.6320    3.3955 H   0  0  0  0  0  0  0  0  0  0  0  0
    0.2683   -1.9985    5.4009 H   0  0  0  0  0  0  0  0  0  0  0  0
   -1.2957   -2.6719    5.0317 H   0  0  0  0  0  0  0  0  0  0  0  0
   -2.2639   -4.5253    6.5579 H   0  0  0  0  0  0  0  0  0  0  0  0
   -2.6517   -5.0682    8.9476 H   0  0  0  0  0  0  0  0  0  0  0  0
   -1.1655   -4.0817   10.6895 H   0  0  0  0  0  0  0  0  0  0  0  0
    0.6883   -2.5615   10.0431 H   0  0  0  0  0  0  0  0  0  0  0  0
    1.0746   -2.0195    7.6559 H   0  0  0  0  0  0  0  0  0  0  0  0
    3.0262   -5.7865    5.0913 H   0  0  0  0  0  0  0  0  0  0  0  0
    1.5404   -5.8853    5.4149 H   0  0  0  0  0  0  0  0  0  0  0  0
    0.5713   -5.9744    2.4053 H   0  0  0  0  0  0  0  0  0  0  0  0
   -0.0004   -6.7639    3.8228 H   0  0  0  0  0  0  0  0  0  0  0  0
    0.4527   -7.7145    2.4144 H   0  0  0  0  0  0  0  0  0  0  0  0
    5.9508   -8.3639    7.2940 H   0  0  0  0  0  0  0  0  0  0  0  0
    5.0253  -10.3734    6.7392 H   0  0  0  0  0  0  0  0  0  0  0  0
    7.7187   -8.2843    5.5863 H   0  0  0  0  0  0  0  0  0  0  0  0
    7.1321   -8.0692    3.4279 H   0  0  0  0  0  0  0  0  0  0  0  0
    6.9436   -6.0768    6.3426 H   0  0  0  0  0  0  0  0  0  0  0  0
    8.3154   -6.1395    4.5236 H   0  0  0  0  0  0  0  0  0  0  0  0
  1  2  1  0
  1 47  1  0
  1 48  1  0
  1 49  1  0
  2 45  1  0
  2  3  1  0
  2 50  1  6
  3  4  1  0
  4  5  1  0
  4 41  1  0
  4 51  1  1
  6  5  1  1
  6 12  1  0
  6 39  1  0
  6  7  1  0
  7  8  1  0
  7 52  1  0
  7 53  1  0
  8  9  1  0
  8 54  1  0
  8 55  1  0
  9 10  2  0
  9 11  1  0
 11 12  1  0
 11 56  1  0
 11 57  1  0
 12 13  2  0
 13 14  1  0
 13 58  1  0
 14 15  1  0
 14 59  1  0
 14 60  1  0
 15 39  1  0
 15 16  1  0
 15 61  1  1
 16 27  1  0
 16 17  1  0
 16 62  1  6
 17 18  1  0
 17 63  1  0
 17 64  1  0
 18 19  1  0
 18 65  1  0
 18 66  1  0
 19 25  1  0
 19 20  1  0
 19 67  1  1
 20 21  1  0
 20 68  1  0
 20 69  1  0
 21 22  2  0
 21 23  1  0
 23 24  1  0
 23 70  1  0
 23 71  1  0
 24 25  1  0
 24 72  1  0
 24 73  1  0
 25 26  1  6
 25 27  1  0
 26 74  1  0
 26 75  1  0
 26 76  1  0
 27 28  1  0
 27 77  1  1
 28 29  2  3
 28 38  1  0
 29 30  1  0
 30 31  1  0
 31 32  1  0
 31 78  1  0
 31 79  1  0
 32 37  1  0
 32 33  2  0
 33 34  1  0
 33 80  1  0
 34 35  2  0
 34 81  1  0
 35 36  1  0
 35 82  1  0
 36 37  2  0
 36 83  1  0
 37 84  1  0
 38 39  1  0
 38 85  1  0
 38 86  1  0
 39 40  1  6
 40 87  1  0
 40 88  1  0
 40 89  1  0
 41 42  1  0
 41 43  1  0
 41 90  1  1
 42 91  1  0
 43 44  1  0
 43 45  1  0
 43 92  1  1
 44 93  1  0
 45 46  1  0
 45 94  1  1
 46 95  1  0
M  END
>  <i_m_ct_stereo_status>  (147) 
1

>  <s_m_source_file>  (147) 
/var/tmp/pbs.5076255.sched01/tmp3npnc3rz/42_8qtnw6u.sdf

>  <i_m_source_file_index>  (147) 
22

>  <i_lp_mmshare_version>  (147) 
48012

>  <i_f3d_flags>  (147) 
0

>  <s_epik_input>  (147) 
W09IXVtDQEBIXTFbQ0BIXShbT0hdKVtDQEhdKFtPSF0pW0NAQEhdKE9bQ0BIXTFbQ0gzXSlPW0NAQF0yM0MoW0NIMl1DKD1PKVtDSDJdW0NIMl0yKT1bQ0hdW0NIMl1bQ0BIXTRbQ0BASF01W0NAQEhdKFtDQEBdNihbQ0gzXSlbQ0BIXShbQ0gyXVtDSDJdNSlbQ0gyXUMoPU8pW0NIMl1bQ0gyXTYpL0MoW0NIMl1bQ0BdMzRbQ0gzXSk9TlxPW0NIMl1jN1tjSF1bY0hdW2NIXVtjSF1bY0hdNw==

>  <s_epik_cmdline>  (147) 
J2VwaWtfcHl0aG9uJywgJy1waHQnLCAnMi4wJywgJy1waCcsICc3LjAnLCAnLXRuJywgJzgnLCAnLW1hJywgJzIwMCcsICctaW1hZScsICc8aW5maWxlLm1hZT4nLCAnLW9tYWUnLCAnPG91dGZpbGUubWFlPic=

>  <r_lp_tautomer_probability>  (147) 
1

>  <r_epik_Ionization_Penalty>  (147) 
1.98875e-06

>  <r_epik_Ionization_Penalty_Charging>  (147) 
0

>  <r_epik_Ionization_Penalty_Neutral>  (147) 
1.98875e-06

>  <r_epik_State_Penalty>  (147) 
-0

>  <r_epik_Charging_Adjusted_Penalty>  (147) 
0

>  <i_epik_Tot_Q>  (147) 
0

>  <i_epik_Tot_abs_Q>  (147) 
0

>  <s_epik_Chemistry_Notes>  (147) 
This compound has an imine and may undergo hydrolysis. This compound contains an acetal/aminal-like group ( X-CH(R)-Y where X, Y are N, S, or O) that may be acid/base labile, releasing an aldehyde.

>  <s_lp_Force_Field>  (147) 
OPLS3e

>  <r_lp_Energy>  (147) 
79.7092

>  <b_lp_Chiralities_Consistent>  (147) 
1

>  <s_lp_Variant>  (147) 
43:0-2

>  <s_i_glide_gridfile>  (147) 
pfpi4k_grid

>  <i_i_glide_lignum>  (147) 
22

>  <i_i_glide_rotatable_bonds>  (147) 
8

>  <r_i_docking_score>  (147) 
0.713903

>  <r_i_glide_ligand_efficiency>  (147) 
0.0155196

>  <r_i_glide_ligand_efficiency_sa>  (147) 
0.0556076

>  <r_i_glide_ligand_efficiency_ln>  (147) 
0.147848

>  <r_i_glide_gscore>  (147) 
0.713903

>  <r_i_glide_lipo>  (147) 
-0.141975

>  <r_i_glide_hbond>  (147) 
0

>  <r_i_glide_metal>  (147) 
-0

>  <r_i_glide_rewards>  (147) 
-0.0388378

>  <r_i_glide_evdw>  (147) 
-30.2054

>  <r_i_glide_ecoul>  (147) 
-1.53141

>  <r_i_glide_erotb>  (147) 
0.0672599

>  <r_i_glide_esite>  (147) 
-0.0162114

>  <r_i_glide_emodel>  (147) 
-18.6341

>  <r_i_glide_energy>  (147) 
-31.7369

>  <r_i_glide_einternal>  (147) 
5.04592

>  <r_i_glide_intrahb_reward>  (147) 
-0

>  <i_i_glide_confnum>  (147) 
1

>  <i_i_glide_posenum>  (147) 
18

>  <r_i_glide_eff_state_penalty>  (147) 
0

>  <ligand_id>  (147) 
43

>  <original_smiles>  (147) 
CC1OC(OC23CCC(=O)CC2=CCC2C4CCC5CC(=O)CCC5(C)C4C(=NOCc4ccccc4)CC23C)C(O)C(O)C1O

>  <smiles>  (147) 
[H]OC1([H])C([H])(OC23C(=C([H])C([H])([H])C4([H])C5([H])C([H])([H])C([H])([H])C6([H])C([H])([H])C(=O)C([H])([H])C([H])([H])C6(C([H])([H])[H])C5([H])C(=NOC([H])([H])c5c([H])c([H])c([H])c([H])c5[H])C([H])([H])C24C([H])([H])[H])C([H])([H])C(=O)C([H])([H])C3([H])[H])OC([H])(C([H])([H])[H])C([H])(O[H])C1([H])O[H]

$$$$
44:0:0
     RDKit          3D

 48 55  0  0  1  0  0  0  0  0999 V2000
    8.2112   -2.2748   -1.2767 O   0  0  0  0  0  0  0  0  0  0  0  0
    7.4791   -2.9189   -0.2400 C   0  0  0  0  0  0  0  0  0  0  0  0
    5.9815   -2.5277   -0.2691 C   0  0  1  0  0  0  0  0  0  0  0  0
    5.7979   -1.0078    0.2432 C   0  0  1  0  0  0  0  0  0  0  0  0
    4.5724   -0.0556    1.0128 C   0  0  2  0  0  0  0  0  0  0  0  0
    4.5464   -1.2269    0.5229 C   0  0  2  0  0  0  0  0  0  0  0  0
    4.0556   -2.2396    1.5871 C   0  0  1  0  0  0  0  0  0  0  0  0
    2.7215   -1.9198    1.2376 C   0  0  1  0  0  0  0  0  0  0  0  0
    1.8512   -2.2656    2.3010 O   0  0  0  0  0  0  0  0  0  0  0  0
    3.0130   -0.3093    1.1434 C   0  0  1  0  0  0  0  0  0  0  0  0
    2.5571    0.3743    2.2963 O   0  0  0  0  0  0  0  0  0  0  0  0
    3.1388   -3.1933    0.2677 C   0  0  1  0  0  0  0  0  0  0  0  0
    2.6250   -3.5219   -1.0758 C   0  0  1  0  0  0  0  0  0  0  0  0
    2.6220   -2.4791   -2.1822 C   0  0  2  0  0  0  0  0  0  0  0  0
    2.2418   -2.4365   -3.6357 C   0  0  0  0  0  0  0  0  0  0  0  0
    3.5673   -3.0169   -3.2603 C   0  0  1  0  0  0  0  0  0  0  0  0
    4.9078   -2.5184   -2.7962 C   0  0  1  0  0  0  0  0  0  0  0  0
    4.9760   -1.1043   -2.7271 O   0  0  0  0  0  0  0  0  0  0  0  0
    5.1972   -3.2225   -1.4337 C   0  0  2  0  0  0  0  0  0  0  0  0
    3.9738   -4.0159   -0.6192 C   0  0  1  0  0  0  0  0  0  0  0  0
    4.1507   -3.7168    1.1394 C   0  0  2  0  0  0  0  0  0  0  0  0
    4.1842   -4.8576    2.2195 C   0  0  0  0  0  0  0  0  0  0  0  0
    2.9872   -4.9004    2.9662 O   0  0  0  0  0  0  0  0  0  0  0  0
    5.0260   -3.6271    0.3147 C   0  0  2  0  0  0  0  0  0  0  0  0
    9.1204   -2.5516   -1.2872 H   0  0  0  0  0  0  0  0  0  0  0  0
    7.6320   -3.9939   -0.3356 H   0  0  0  0  0  0  0  0  0  0  0  0
    7.8989   -2.6216    0.7188 H   0  0  0  0  0  0  0  0  0  0  0  0
    6.1621   -0.3571   -0.5453 H   0  0  0  0  0  0  0  0  0  0  0  0
    4.9843    0.1576    1.9965 H   0  0  0  0  0  0  0  0  0  0  0  0
    4.1015   -1.2187   -0.4742 H   0  0  0  0  0  0  0  0  0  0  0  0
    4.3801   -2.0151    2.6098 H   0  0  0  0  0  0  0  0  0  0  0  0
    1.0317   -1.8207    2.1378 H   0  0  0  0  0  0  0  0  0  0  0  0
    2.4580    0.1334    0.3190 H   0  0  0  0  0  0  0  0  0  0  0  0
    2.7101    1.3001    2.1743 H   0  0  0  0  0  0  0  0  0  0  0  0
    2.2191   -3.8116    0.6463 H   0  0  0  0  0  0  0  0  0  0  0  0
    1.8896   -4.3222   -1.1926 H   0  0  0  0  0  0  0  0  0  0  0  0
    2.6506   -1.4520   -1.8313 H   0  0  0  0  0  0  0  0  0  0  0  0
    1.4536   -3.1190   -3.9458 H   0  0  0  0  0  0  0  0  0  0  0  0
    2.2599   -1.4739   -4.1464 H   0  0  0  0  0  0  0  0  0  0  0  0
    3.5864   -4.0900   -3.4583 H   0  0  0  0  0  0  0  0  0  0  0  0
    5.6335   -2.8793   -3.5275 H   0  0  0  0  0  0  0  0  0  0  0  0
    4.2183   -0.7970   -2.2339 H   0  0  0  0  0  0  0  0  0  0  0  0
    5.8191   -4.0476   -1.7989 H   0  0  0  0  0  0  0  0  0  0  0  0
    3.9956   -5.0891   -0.9032 H   0  0  0  0  0  0  0  0  0  0  0  0
    4.3267   -5.8430    1.7753 H   0  0  0  0  0  0  0  0  0  0  0  0
    5.0009   -4.6695    2.9169 H   0  0  0  0  0  0  0  0  0  0  0  0
    2.7847   -4.0165    3.2502 H   0  0  0  0  0  0  0  0  0  0  0  0
    5.6347   -4.5469    0.5532 H   0  0  0  0  0  0  0  0  0  0  0  0
  1  2  1  0
  1 25  1  0
  3  2  1  6
  2 26  1  0
  2 27  1  0
  3 19  1  0
  3 24  1  0
  3  4  1  0
  4  6  1  0
  4  5  1  0
  4 28  1  6
  5 10  1  0
  5  6  1  0
  5 29  1  1
  6  7  1  0
  6 30  1  6
  7 21  1  0
  7  8  1  0
  7 31  1  1
  8  9  1  1
  8 10  1  0
  8 12  1  0
  9 32  1  0
 10 11  1  0
 10 33  1  6
 11 34  1  0
 12 24  1  0
 12 13  1  0
 12 35  1  1
 13 20  1  0
 13 14  1  0
 13 36  1  1
 14 16  1  0
 14 15  1  0
 14 37  1  1
 15 16  1  0
 15 38  1  0
 15 39  1  0
 16 17  1  0
 16 40  1  1
 17 18  1  0
 17 19  1  0
 17 41  1  6
 18 42  1  0
 19 20  1  0
 19 43  1  6
 20 21  1  0
 20 44  1  1
 21 22  1  1
 21 24  1  0
 22 23  1  0
 22 45  1  0
 22 46  1  0
 23 47  1  0
 24 48  1  6
M  END
>  <i_m_ct_stereo_status>  (148) 
1

>  <s_m_source_file>  (148) 
/var/tmp/pbs.5076255.sched01/tmp3npnc3rz/42_8qtnw6u.sdf

>  <i_m_source_file_index>  (148) 
23

>  <i_lp_mmshare_version>  (148) 
48012

>  <i_f3d_flags>  (148) 
0

>  <s_epik_input>  (148) 
W09IXVtDSDJdW0NAQF0xMltDQEBIXTNbQ0BIXTRbQ0BASF0zW0NASF01W0NAQF0oW09IXSkoW0NASF00W09IXSlbQ0BIXTZbQ0BIXTdbQ0BIXThbQ0BASF0oW0NIMl04KVtDQEBIXShbT0hdKVtDQEBIXTFbQ0BIXTdbQ0BdNShbQ0BASF0yNilbQ0gyXVtPSF0=

>  <s_epik_cmdline>  (148) 
J2VwaWtfcHl0aG9uJywgJy1waHQnLCAnMi4wJywgJy1waCcsICc3LjAnLCAnLXRuJywgJzgnLCAnLW1hJywgJzIwMCcsICctaW1hZScsICc8aW5maWxlLm1hZT4nLCAnLW9tYWUnLCAnPG91dGZpbGUubWFlPic=

>  <r_lp_tautomer_probability>  (148) 
1

>  <r_epik_Ionization_Penalty>  (148) 
5.58725e-06

>  <r_epik_Ionization_Penalty_Charging>  (148) 
0

>  <r_epik_Ionization_Penalty_Neutral>  (148) 
5.58725e-06

>  <r_epik_State_Penalty>  (148) 
-0

>  <r_epik_Charging_Adjusted_Penalty>  (148) 
0

>  <i_epik_Tot_Q>  (148) 
0

>  <i_epik_Tot_abs_Q>  (148) 
0

>  <s_lp_Force_Field>  (148) 
OPLS3e

>  <r_lp_Energy>  (148) 
663.505

>  <b_lp_Chiralities_Consistent>  (148) 
1

>  <s_lp_Variant>  (148) 
44:0-1

>  <s_i_glide_gridfile>  (148) 
pfpi4k_grid

>  <i_i_glide_lignum>  (148) 
23

>  <i_i_glide_rotatable_bonds>  (148) 
7

>  <r_i_docking_score>  (148) 
-4.76668

>  <r_i_glide_ligand_efficiency>  (148) 
-0.198612

>  <r_i_glide_ligand_efficiency_sa>  (148) 
-0.572895

>  <r_i_glide_ligand_efficiency_ln>  (148) 
-1.14089

>  <r_i_glide_gscore>  (148) 
-4.76668

>  <r_i_glide_lipo>  (148) 
-0.943913

>  <r_i_glide_hbond>  (148) 
-0.281605

>  <r_i_glide_metal>  (148) 
-0

>  <r_i_glide_rewards>  (148) 
-1.64279

>  <r_i_glide_evdw>  (148) 
-19.0369

>  <r_i_glide_ecoul>  (148) 
-7.90121

>  <r_i_glide_erotb>  (148) 
0.238654

>  <r_i_glide_esite>  (148) 
0

>  <r_i_glide_emodel>  (148) 
-40.303

>  <r_i_glide_energy>  (148) 
-26.9381

>  <r_i_glide_einternal>  (148) 
1.05797

>  <r_i_glide_intrahb_reward>  (148) 
-0.5

>  <i_i_glide_confnum>  (148) 
4

>  <i_i_glide_posenum>  (148) 
11

>  <r_i_glide_eff_state_penalty>  (148) 
0

>  <ligand_id>  (148) 
44

>  <original_smiles>  (148) 
OCC12C3C4C3C3C(O)(C4O)C4C5C6CC6C(O)C1C5C3(CO)C42

>  <smiles>  (148) 
[H]OC([H])([H])C12C3([H])C([H])(O[H])C4([H])C([H])([H])C4([H])C4([H])C5([H])C1([H])C(C([H])([H])O[H])(C43[H])C1([H])C3([H])C([H])(C([H])(O[H])C51O[H])C32[H]

$$$$
44:0:1
     RDKit          3D

 48 55  0  0  1  0  0  0  0  0999 V2000
    8.4914   -1.5468    0.0690 O   0  0  0  0  0  0  0  0  0  0  0  0
    7.7285   -2.7204   -0.1666 C   0  0  0  0  0  0  0  0  0  0  0  0
    6.1788   -2.4730   -0.1443 C   0  0  1  0  0  0  0  0  0  0  0  0
    5.8384   -1.0069    0.4312 C   0  0  1  0  0  0  0  0  0  0  0  0
    4.5459   -0.2287    1.2705 C   0  0  2  0  0  0  0  0  0  0  0  0
    4.6262   -1.3739    0.7291 C   0  0  2  0  0  0  0  0  0  0  0  0
    4.2646   -2.4738    1.7523 C   0  0  1  0  0  0  0  0  0  0  0  0
    2.8966   -2.2675    1.4383 C   0  0  1  0  0  0  0  0  0  0  0  0
    2.0829   -2.7317    2.5069 O   0  0  0  0  0  0  0  0  0  0  0  0
    3.0248   -0.6300    1.4006 C   0  0  1  0  0  0  0  0  0  0  0  0
    2.5320   -0.0540    2.5950 O   0  0  0  0  0  0  0  0  0  0  0  0
    3.4150   -3.4581    0.4197 C   0  0  1  0  0  0  0  0  0  0  0  0
    2.8990   -3.7843   -0.9159 C   0  0  1  0  0  0  0  0  0  0  0  0
    2.7609   -2.7073   -1.9745 C   0  0  2  0  0  0  0  0  0  0  0  0
    2.3366   -2.6466   -3.4104 C   0  0  0  0  0  0  0  0  0  0  0  0
    3.7284   -3.0899   -3.0891 C   0  0  1  0  0  0  0  0  0  0  0  0
    5.0329   -2.4815   -2.6603 C   0  0  1  0  0  0  0  0  0  0  0  0
    4.9897   -1.0756   -2.5943 O   0  0  0  0  0  0  0  0  0  0  0  0
    5.4308   -3.2025   -1.3252 C   0  0  2  0  0  0  0  0  0  0  0  0
    4.3102   -4.1599   -0.5231 C   0  0  1  0  0  0  0  0  0  0  0  0
    4.5147   -3.9136    1.2435 C   0  0  2  0  0  0  0  0  0  0  0  0
    4.6893   -5.0890    2.2742 C   0  0  0  0  0  0  0  0  0  0  0  0
    3.5442   -5.2581    3.0811 O   0  0  0  0  0  0  0  0  0  0  0  0
    5.3406   -3.6924    0.3935 C   0  0  2  0  0  0  0  0  0  0  0  0
    9.4187   -1.6858   -0.1571 H   0  0  0  0  0  0  0  0  0  0  0  0
    8.0696   -3.1435   -1.1101 H   0  0  0  0  0  0  0  0  0  0  0  0
    8.0044   -3.4250    0.6171 H   0  0  0  0  0  0  0  0  0  0  0  0
    6.0933   -0.2743   -0.3307 H   0  0  0  0  0  0  0  0  0  0  0  0
    4.9526   -0.0171    2.2597 H   0  0  0  0  0  0  0  0  0  0  0  0
    4.1602   -1.3678   -0.2652 H   0  0  0  0  0  0  0  0  0  0  0  0
    4.5939   -2.2556    2.7705 H   0  0  0  0  0  0  0  0  0  0  0  0
    1.1776   -2.6312    2.2526 H   0  0  0  0  0  0  0  0  0  0  0  0
    2.4511   -0.1949    0.5782 H   0  0  0  0  0  0  0  0  0  0  0  0
    1.5904   -0.1771    2.6220 H   0  0  0  0  0  0  0  0  0  0  0  0
    2.5882   -4.1901    0.7971 H   0  0  0  0  0  0  0  0  0  0  0  0
    2.2421   -4.6531   -1.0480 H   0  0  0  0  0  0  0  0  0  0  0  0
    2.6697   -1.7045   -1.5749 H   0  0  0  0  0  0  0  0  0  0  0  0
    1.6288   -3.4047   -3.7333 H   0  0  0  0  0  0  0  0  0  0  0  0
    2.2363   -1.6752   -3.8869 H   0  0  0  0  0  0  0  0  0  0  0  0
    3.8549   -4.1444   -3.3296 H   0  0  0  0  0  0  0  0  0  0  0  0
    5.7556   -2.7527   -3.4354 H   0  0  0  0  0  0  0  0  0  0  0  0
    4.3154   -0.8221   -1.9719 H   0  0  0  0  0  0  0  0  0  0  0  0
    6.1197   -3.9462   -1.7399 H   0  0  0  0  0  0  0  0  0  0  0  0
    4.4232   -5.2160   -0.8611 H   0  0  0  0  0  0  0  0  0  0  0  0
    4.8744   -6.0425    1.7787 H   0  0  0  0  0  0  0  0  0  0  0  0
    5.5251   -4.8750    2.9377 H   0  0  0  0  0  0  0  0  0  0  0  0
    3.3246   -4.4192    3.4733 H   0  0  0  0  0  0  0  0  0  0  0  0
    6.0390   -4.5545    0.5805 H   0  0  0  0  0  0  0  0  0  0  0  0
  1  2  1  0
  1 25  1  0
  3  2  1  6
  2 26  1  0
  2 27  1  0
  3 19  1  0
  3 24  1  0
  3  4  1  0
  4  6  1  0
  4  5  1  0
  4 28  1  6
  5 10  1  0
  5  6  1  0
  5 29  1  1
  6  7  1  0
  6 30  1  6
  7 21  1  0
  7  8  1  0
  7 31  1  1
  8  9  1  1
  8 10  1  0
  8 12  1  0
  9 32  1  0
 10 11  1  0
 10 33  1  6
 11 34  1  0
 12 24  1  0
 12 13  1  0
 12 35  1  1
 13 20  1  0
 13 14  1  0
 13 36  1  1
 14 16  1  0
 14 15  1  0
 14 37  1  1
 15 16  1  0
 15 38  1  0
 15 39  1  0
 16 17  1  0
 16 40  1  1
 17 18  1  0
 17 19  1  0
 17 41  1  6
 18 42  1  0
 19 20  1  0
 19 43  1  6
 20 21  1  0
 20 44  1  1
 21 22  1  1
 21 24  1  0
 22 23  1  0
 22 45  1  0
 22 46  1  0
 23 47  1  0
 24 48  1  6
M  END
>  <i_m_ct_stereo_status>  (149) 
1

>  <s_m_source_file>  (149) 
/var/tmp/pbs.5076255.sched01/tmp3npnc3rz/42_8qtnw6u.sdf

>  <i_m_source_file_index>  (149) 
23

>  <i_lp_mmshare_version>  (149) 
48012

>  <i_f3d_flags>  (149) 
0

>  <s_epik_input>  (149) 
W09IXVtDSDJdW0NAQF0xMltDQEBIXTNbQ0BIXTRbQ0BASF0zW0NASF01W0NAQF0oW09IXSkoW0NASF00W09IXSlbQ0BIXTZbQ0BIXTdbQ0BIXThbQ0BASF0oW0NIMl04KVtDQEBIXShbT0hdKVtDQEBIXTFbQ0BIXTdbQ0BdNShbQ0BASF0yNilbQ0gyXVtPSF0=

>  <s_epik_cmdline>  (149) 
J2VwaWtfcHl0aG9uJywgJy1waHQnLCAnMi4wJywgJy1waCcsICc3LjAnLCAnLXRuJywgJzgnLCAnLW1hJywgJzIwMCcsICctaW1hZScsICc8aW5maWxlLm1hZT4nLCAnLW9tYWUnLCAnPG91dGZpbGUubWFlPic=

>  <r_lp_tautomer_probability>  (149) 
1

>  <r_epik_Ionization_Penalty>  (149) 
5.58725e-06

>  <r_epik_Ionization_Penalty_Charging>  (149) 
0

>  <r_epik_Ionization_Penalty_Neutral>  (149) 
5.58725e-06

>  <r_epik_State_Penalty>  (149) 
-0

>  <r_epik_Charging_Adjusted_Penalty>  (149) 
0

>  <i_epik_Tot_Q>  (149) 
0

>  <i_epik_Tot_abs_Q>  (149) 
0

>  <s_lp_Force_Field>  (149) 
OPLS3e

>  <r_lp_Energy>  (149) 
663.505

>  <b_lp_Chiralities_Consistent>  (149) 
1

>  <s_lp_Variant>  (149) 
44:0-1

>  <s_i_glide_gridfile>  (149) 
pfpi4k_grid

>  <i_i_glide_lignum>  (149) 
23

>  <i_i_glide_rotatable_bonds>  (149) 
7

>  <r_i_docking_score>  (149) 
-4.47711

>  <r_i_glide_ligand_efficiency>  (149) 
-0.186546

>  <r_i_glide_ligand_efficiency_sa>  (149) 
-0.538092

>  <r_i_glide_ligand_efficiency_ln>  (149) 
-1.07158

>  <r_i_glide_gscore>  (149) 
-4.47711

>  <r_i_glide_lipo>  (149) 
-0.903525

>  <r_i_glide_hbond>  (149) 
-0.157246

>  <r_i_glide_metal>  (149) 
-0

>  <r_i_glide_rewards>  (149) 
-1.64279

>  <r_i_glide_evdw>  (149) 
-19.8343

>  <r_i_glide_ecoul>  (149) 
-7.48511

>  <r_i_glide_erotb>  (149) 
0.340934

>  <r_i_glide_esite>  (149) 
0

>  <r_i_glide_emodel>  (149) 
-37.5825

>  <r_i_glide_energy>  (149) 
-27.3194

>  <r_i_glide_einternal>  (149) 
6.09964

>  <r_i_glide_intrahb_reward>  (149) 
-0.5

>  <i_i_glide_confnum>  (149) 
6

>  <i_i_glide_posenum>  (149) 
1

>  <r_i_glide_eff_state_penalty>  (149) 
0

>  <ligand_id>  (149) 
44

>  <original_smiles>  (149) 
OCC12C3C4C3C3C(O)(C4O)C4C5C6CC6C(O)C1C5C3(CO)C42

>  <smiles>  (149) 
[H]OC([H])([H])C12C3([H])C([H])(O[H])C4([H])C([H])([H])C4([H])C4([H])C5([H])C1([H])C(C([H])([H])O[H])(C43[H])C1([H])C3([H])C([H])(C([H])(O[H])C51O[H])C32[H]

$$$$
44:0:2
     RDKit          3D

 48 55  0  0  1  0  0  0  0  0999 V2000
    9.0806   -1.9060    0.3534 O   0  0  0  0  0  0  0  0  0  0  0  0
    8.2925   -2.6004   -0.5907 C   0  0  0  0  0  0  0  0  0  0  0  0
    6.7870   -2.5067   -0.2075 C   0  0  1  0  0  0  0  0  0  0  0  0
    6.4584   -1.1009    0.5068 C   0  0  1  0  0  0  0  0  0  0  0  0
    5.3250   -0.4908    1.6581 C   0  0  2  0  0  0  0  0  0  0  0  0
    5.3793   -1.5941    1.0384 C   0  0  2  0  0  0  0  0  0  0  0  0
    5.3342   -2.7838    2.0332 C   0  0  1  0  0  0  0  0  0  0  0  0
    3.9201   -2.6798    2.0194 C   0  0  1  0  0  0  0  0  0  0  0  0
    3.4096   -3.2702    3.1959 O   0  0  0  0  0  0  0  0  0  0  0  0
    3.9022   -1.0409    2.0674 C   0  0  1  0  0  0  0  0  0  0  0  0
    3.6458   -0.6039    3.3916 O   0  0  0  0  0  0  0  0  0  0  0  0
    4.2995   -3.7556    0.8353 C   0  0  1  0  0  0  0  0  0  0  0  0
    3.5410   -4.0513   -0.3916 C   0  0  1  0  0  0  0  0  0  0  0  0
    3.1081   -2.9254   -1.3032 C   0  0  2  0  0  0  0  0  0  0  0  0
    2.3833   -2.8276   -2.6062 C   0  0  0  0  0  0  0  0  0  0  0  0
    3.8432   -3.1562   -2.6266 C   0  0  1  0  0  0  0  0  0  0  0  0
    5.1578   -2.4638   -2.4357 C   0  0  1  0  0  0  0  0  0  0  0  0
    5.0117   -1.0644   -2.2936 O   0  0  0  0  0  0  0  0  0  0  0  0
    5.8754   -3.2187   -1.2661 C   0  0  2  0  0  0  0  0  0  0  0  0
    5.0233   -4.3203   -0.3327 C   0  0  1  0  0  0  0  0  0  0  0  0
    5.5743   -4.1681    1.3736 C   0  0  2  0  0  0  0  0  0  0  0  0
    6.0694   -5.3747    2.2449 C   0  0  0  0  0  0  0  0  0  0  0  0
    5.1640   -5.6988    3.2753 O   0  0  0  0  0  0  0  0  0  0  0  0
    6.1879   -3.8158    0.4072 C   0  0  2  0  0  0  0  0  0  0  0  0
    9.8670   -1.5756   -0.0852 H   0  0  0  0  0  0  0  0  0  0  0  0
    8.4754   -2.1837   -1.5818 H   0  0  0  0  0  0  0  0  0  0  0  0
    8.6701   -3.6248   -0.6330 H   0  0  0  0  0  0  0  0  0  0  0  0
    6.4861   -0.3097   -0.2379 H   0  0  0  0  0  0  0  0  0  0  0  0
    5.9106   -0.2722    2.5440 H   0  0  0  0  0  0  0  0  0  0  0  0
    4.7289   -1.5782    0.1558 H   0  0  0  0  0  0  0  0  0  0  0  0
    5.8513   -2.5851    2.9777 H   0  0  0  0  0  0  0  0  0  0  0  0
    3.6904   -2.7089    3.9044 H   0  0  0  0  0  0  0  0  0  0  0  0
    3.1192   -0.6201    1.4241 H   0  0  0  0  0  0  0  0  0  0  0  0
    3.5586    0.3382    3.3893 H   0  0  0  0  0  0  0  0  0  0  0  0
    3.6149   -4.5745    1.3172 H   0  0  0  0  0  0  0  0  0  0  0  0
    2.9416   -4.9700   -0.4525 H   0  0  0  0  0  0  0  0  0  0  0  0
    3.0266   -1.9591   -0.8163 H   0  0  0  0  0  0  0  0  0  0  0  0
    1.6773   -3.6273   -2.8184 H   0  0  0  0  0  0  0  0  0  0  0  0
    2.1147   -1.8467   -2.9827 H   0  0  0  0  0  0  0  0  0  0  0  0
    4.0061   -4.1718   -2.9729 H   0  0  0  0  0  0  0  0  0  0  0  0
    5.7125   -2.6441   -3.3620 H   0  0  0  0  0  0  0  0  0  0  0  0
    4.3416   -0.8908   -1.6453 H   0  0  0  0  0  0  0  0  0  0  0  0
    6.5319   -3.8575   -1.8658 H   0  0  0  0  0  0  0  0  0  0  0  0
    5.1357   -5.3336   -0.7669 H   0  0  0  0  0  0  0  0  0  0  0  0
    6.2067   -6.2693    1.6493 H   0  0  0  0  0  0  0  0  0  0  0  0
    7.0139   -5.1135    2.7118 H   0  0  0  0  0  0  0  0  0  0  0  0
    4.9108   -4.9020    3.7202 H   0  0  0  0  0  0  0  0  0  0  0  0
    6.9646   -4.6253    0.3610 H   0  0  0  0  0  0  0  0  0  0  0  0
  1  2  1  0
  1 25  1  0
  3  2  1  6
  2 26  1  0
  2 27  1  0
  3 19  1  0
  3 24  1  0
  3  4  1  0
  4  6  1  0
  4  5  1  0
  4 28  1  6
  5 10  1  0
  5  6  1  0
  5 29  1  1
  6  7  1  0
  6 30  1  6
  7 21  1  0
  7  8  1  0
  7 31  1  1
  8  9  1  1
  8 10  1  0
  8 12  1  0
  9 32  1  0
 10 11  1  0
 10 33  1  6
 11 34  1  0
 12 24  1  0
 12 13  1  0
 12 35  1  1
 13 20  1  0
 13 14  1  0
 13 36  1  1
 14 16  1  0
 14 15  1  0
 14 37  1  1
 15 16  1  0
 15 38  1  0
 15 39  1  0
 16 17  1  0
 16 40  1  1
 17 18  1  0
 17 19  1  0
 17 41  1  6
 18 42  1  0
 19 20  1  0
 19 43  1  6
 20 21  1  0
 20 44  1  6
 21 22  1  1
 21 24  1  0
 22 23  1  0
 22 45  1  0
 22 46  1  0
 23 47  1  0
 24 48  1  6
M  END
>  <i_m_ct_stereo_status>  (150) 
1

>  <s_m_source_file>  (150) 
/var/tmp/pbs.5076255.sched01/tmp3npnc3rz/42_8qtnw6u.sdf

>  <i_m_source_file_index>  (150) 
23

>  <i_lp_mmshare_version>  (150) 
48012

>  <i_f3d_flags>  (150) 
0

>  <s_epik_input>  (150) 
W09IXVtDSDJdW0NAQF0xMltDQEBIXTNbQ0BIXTRbQ0BASF0zW0NASF01W0NAQF0oW09IXSkoW0NASF00W09IXSlbQ0BIXTZbQ0BIXTdbQ0BIXThbQ0BASF0oW0NIMl04KVtDQEBIXShbT0hdKVtDQEBIXTFbQ0BIXTdbQ0BdNShbQ0BASF0yNilbQ0gyXVtPSF0=

>  <s_epik_cmdline>  (150) 
J2VwaWtfcHl0aG9uJywgJy1waHQnLCAnMi4wJywgJy1waCcsICc3LjAnLCAnLXRuJywgJzgnLCAnLW1hJywgJzIwMCcsICctaW1hZScsICc8aW5maWxlLm1hZT4nLCAnLW9tYWUnLCAnPG91dGZpbGUubWFlPic=

>  <r_lp_tautomer_probability>  (150) 
1

>  <r_epik_Ionization_Penalty>  (150) 
5.58725e-06

>  <r_epik_Ionization_Penalty_Charging>  (150) 
0

>  <r_epik_Ionization_Penalty_Neutral>  (150) 
5.58725e-06

>  <r_epik_State_Penalty>  (150) 
-0

>  <r_epik_Charging_Adjusted_Penalty>  (150) 
0

>  <i_epik_Tot_Q>  (150) 
0

>  <i_epik_Tot_abs_Q>  (150) 
0

>  <s_lp_Force_Field>  (150) 
OPLS3e

>  <r_lp_Energy>  (150) 
663.505

>  <b_lp_Chiralities_Consistent>  (150) 
1

>  <s_lp_Variant>  (150) 
44:0-1

>  <s_i_glide_gridfile>  (150) 
pfpi4k_grid

>  <i_i_glide_lignum>  (150) 
23

>  <i_i_glide_rotatable_bonds>  (150) 
7

>  <r_i_docking_score>  (150) 
-3.99897

>  <r_i_glide_ligand_efficiency>  (150) 
-0.166624

>  <r_i_glide_ligand_efficiency_sa>  (150) 
-0.480626

>  <r_i_glide_ligand_efficiency_ln>  (150) 
-0.957137

>  <r_i_glide_gscore>  (150) 
-3.99897

>  <r_i_glide_lipo>  (150) 
-0.786852

>  <r_i_glide_hbond>  (150) 
-0.16

>  <r_i_glide_metal>  (150) 
-0

>  <r_i_glide_rewards>  (150) 
-1.64279

>  <r_i_glide_evdw>  (150) 
-20.5222

>  <r_i_glide_ecoul>  (150) 
-4.82767

>  <r_i_glide_erotb>  (150) 
0.340934

>  <r_i_glide_esite>  (150) 
0

>  <r_i_glide_emodel>  (150) 
-35.4073

>  <r_i_glide_energy>  (150) 
-25.3499

>  <r_i_glide_einternal>  (150) 
3.88193

>  <r_i_glide_intrahb_reward>  (150) 
-0.5

>  <i_i_glide_confnum>  (150) 
6

>  <i_i_glide_posenum>  (150) 
19

>  <r_i_glide_eff_state_penalty>  (150) 
0

>  <ligand_id>  (150) 
44

>  <original_smiles>  (150) 
OCC12C3C4C3C3C(O)(C4O)C4C5C6CC6C(O)C1C5C3(CO)C42

>  <smiles>  (150) 
[H]OC([H])([H])C12C3([H])C([H])(O[H])C4([H])C([H])([H])C4([H])C4([H])C5([H])C1([H])C(C([H])([H])O[H])(C43[H])C1([H])C3([H])C([H])(C([H])(O[H])C51O[H])C32[H]

$$$$
45:0:0
     RDKit          3D

 46 49  0  0  1  0  0  0  0  0999 V2000
    5.2550   -2.8876    1.7201 C   0  0  0  0  0  0  0  0  0  0  0  0
    3.9513   -2.7290    0.8978 C   0  0  1  0  0  0  0  0  0  0  0  0
    3.9790   -1.3693    0.1494 C   0  0  0  0  0  0  0  0  0  0  0  0
    5.0702   -1.2883   -0.9286 C   0  0  0  0  0  0  0  0  0  0  0  0
    4.9501   -2.4563   -1.9032 C   0  0  0  0  0  0  0  0  0  0  0  0
    5.0103   -2.2874   -3.1175 O   0  0  0  0  0  0  0  0  0  0  0  0
    4.8069   -3.8469   -1.2859 C   0  0  0  0  0  0  0  0  0  0  0  0
    3.7634   -3.8721   -0.1374 C   0  0  1  0  0  0  0  0  0  0  0  0
    3.5429   -5.2739    0.5048 C   0  0  1  0  0  0  0  0  0  0  0  0
    4.7859   -6.0944    0.7912 C   0  0  0  0  0  0  0  0  0  0  0  0
    4.6791   -7.3070    1.3494 C   0  0  0  0  0  0  0  0  0  0  0  0
    3.3856   -7.7452    1.8273 C   0  0  0  0  0  0  0  0  0  0  0  0
    3.0669   -9.0515    1.7582 C   0  0  0  0  0  0  0  0  0  0  0  0
    1.7662   -9.5241    2.1866 C   0  0  0  0  0  0  0  0  0  0  0  0
    0.7788   -8.6905    2.5648 C   0  0  0  0  0  0  0  0  0  0  0  0
   -0.7846   -9.3229    2.9462 Cl  0  0  0  0  0  0  0  0  0  0  0  0
    1.0149   -7.2326    2.6048 C   0  0  0  0  0  0  0  0  0  0  0  0
    0.0974   -6.4242    2.7777 O   0  0  0  0  0  0  0  0  0  0  0  0
    2.4715   -6.6988    2.4960 C   0  0  1  0  0  0  0  0  0  0  0  0
    2.9846   -6.5614    3.9538 C   0  0  0  0  0  0  0  0  0  0  0  0
    2.5038   -5.3290    1.6795 C   0  0  1  0  0  0  0  0  0  0  0  0
    2.5477   -4.0658    2.5828 C   0  0  0  0  0  0  0  0  0  0  0  0
    2.7128   -2.7432    1.8207 C   0  0  0  0  0  0  0  0  0  0  0  0
    5.3617   -2.0663    2.4310 H   0  0  0  0  0  0  0  0  0  0  0  0
    6.1406   -2.8960    1.0839 H   0  0  0  0  0  0  0  0  0  0  0  0
    5.2756   -3.8174    2.2878 H   0  0  0  0  0  0  0  0  0  0  0  0
    3.0156   -1.1986   -0.3380 H   0  0  0  0  0  0  0  0  0  0  0  0
    4.1044   -0.5473    0.8569 H   0  0  0  0  0  0  0  0  0  0  0  0
    5.0003   -0.3451   -1.4690 H   0  0  0  0  0  0  0  0  0  0  0  0
    6.0585   -1.3176   -0.4736 H   0  0  0  0  0  0  0  0  0  0  0  0
    4.5245   -4.5449   -2.0744 H   0  0  0  0  0  0  0  0  0  0  0  0
    5.7924   -4.1500   -0.9424 H   0  0  0  0  0  0  0  0  0  0  0  0
    2.8138   -3.6635   -0.6315 H   0  0  0  0  0  0  0  0  0  0  0  0
    3.0926   -5.8617   -0.2971 H   0  0  0  0  0  0  0  0  0  0  0  0
    5.7443   -5.7315    0.4617 H   0  0  0  0  0  0  0  0  0  0  0  0
    5.5540   -7.9213    1.5234 H   0  0  0  0  0  0  0  0  0  0  0  0
    3.7541   -9.7592    1.3120 H   0  0  0  0  0  0  0  0  0  0  0  0
    1.5665  -10.5868    2.1475 H   0  0  0  0  0  0  0  0  0  0  0  0
    2.9868   -7.5251    4.4627 H   0  0  0  0  0  0  0  0  0  0  0  0
    2.3626   -5.9026    4.5596 H   0  0  0  0  0  0  0  0  0  0  0  0
    4.0091   -6.1882    3.9984 H   0  0  0  0  0  0  0  0  0  0  0  0
    1.5547   -5.2447    1.1501 H   0  0  0  0  0  0  0  0  0  0  0  0
    1.6269   -4.0132    3.1628 H   0  0  0  0  0  0  0  0  0  0  0  0
    3.3539   -4.1265    3.3094 H   0  0  0  0  0  0  0  0  0  0  0  0
    2.7665   -1.9148    2.5290 H   0  0  0  0  0  0  0  0  0  0  0  0
    1.8191   -2.5657    1.2213 H   0  0  0  0  0  0  0  0  0  0  0  0
  2  1  1  1
  1 24  1  0
  1 25  1  0
  1 26  1  0
  2  8  1  0
  2 23  1  0
  2  3  1  0
  3  4  1  0
  3 27  1  0
  3 28  1  0
  4  5  1  0
  4 29  1  0
  4 30  1  0
  5  6  2  0
  5  7  1  0
  7  8  1  0
  7 31  1  0
  7 32  1  0
  8  9  1  0
  8 33  1  6
  9 21  1  0
  9 10  1  0
  9 34  1  6
 10 11  2  0
 10 35  1  0
 11 12  1  0
 11 36  1  0
 12 19  1  0
 12 13  2  0
 13 14  1  0
 13 37  1  0
 14 15  2  0
 14 38  1  0
 15 16  1  0
 15 17  1  0
 17 18  2  0
 17 19  1  0
 19 20  1  1
 19 21  1  0
 20 39  1  0
 20 40  1  0
 20 41  1  0
 21 22  1  0
 21 42  1  6
 22 23  1  0
 22 43  1  0
 22 44  1  0
 23 45  1  0
 23 46  1  0
M  END
>  <i_m_ct_stereo_status>  (151) 
1

>  <s_m_source_file>  (151) 
/var/tmp/pbs.5076255.sched01/tmp3npnc3rz/42_8qtnw6u.sdf

>  <i_m_source_file_index>  (151) 
24

>  <i_lp_mmshare_version>  (151) 
48012

>  <i_f3d_flags>  (151) 
0

>  <s_epik_input>  (151) 
W0NIMl0xW0NIMl1DKD1PKVtDSDJdW0NASF0oW0NAQF0xMltDSDNdKVtDQEBIXTNbQ0BIXShbQ0gyXVtDSDJdMilbQ0BdNChbQ0gzXSlDKFtDSF09W0NIXTMpPVtDSF1bQ0hdPUMoQ2wpQzQ9Tw==

>  <s_epik_cmdline>  (151) 
J2VwaWtfcHl0aG9uJywgJy1waHQnLCAnMi4wJywgJy1waCcsICc3LjAnLCAnLXRuJywgJzgnLCAnLW1hJywgJzIwMCcsICctaW1hZScsICc8aW5maWxlLm1hZT4nLCAnLW9tYWUnLCAnPG91dGZpbGUubWFlPic=

>  <r_lp_tautomer_probability>  (151) 
1

>  <r_epik_Ionization_Penalty>  (151) 
1.45898e-13

>  <r_epik_Ionization_Penalty_Charging>  (151) 
0

>  <r_epik_Ionization_Penalty_Neutral>  (151) 
1.45898e-13

>  <r_epik_State_Penalty>  (151) 
-0

>  <r_epik_Charging_Adjusted_Penalty>  (151) 
0

>  <i_epik_Tot_Q>  (151) 
0

>  <i_epik_Tot_abs_Q>  (151) 
0

>  <s_lp_Force_Field>  (151) 
OPLS3e

>  <r_lp_Energy>  (151) 
46.2958

>  <b_lp_Chiralities_Consistent>  (151) 
1

>  <s_lp_Variant>  (151) 
45:0-1

>  <s_i_glide_gridfile>  (151) 
pfpi4k_grid

>  <i_i_glide_lignum>  (151) 
24

>  <i_i_glide_rotatable_bonds>  (151) 
0

>  <r_i_docking_score>  (151) 
-3.65348

>  <r_i_glide_ligand_efficiency>  (151) 
-0.158847

>  <r_i_glide_ligand_efficiency_sa>  (151) 
-0.45174

>  <r_i_glide_ligand_efficiency_ln>  (151) 
-0.883445

>  <r_i_glide_gscore>  (151) 
-3.65348

>  <r_i_glide_lipo>  (151) 
-0.33831

>  <r_i_glide_hbond>  (151) 
-0.149393

>  <r_i_glide_metal>  (151) 
-0

>  <r_i_glide_rewards>  (151) 
-1.15933

>  <r_i_glide_evdw>  (151) 
-28.6222

>  <r_i_glide_ecoul>  (151) 
-3.61474

>  <r_i_glide_erotb>  (151) 
0

>  <r_i_glide_esite>  (151) 
-0.0331223

>  <r_i_glide_emodel>  (151) 
-39.9737

>  <r_i_glide_energy>  (151) 
-32.237

>  <r_i_glide_einternal>  (151) 
0

>  <r_i_glide_intrahb_reward>  (151) 
-0

>  <i_i_glide_confnum>  (151) 
1

>  <i_i_glide_posenum>  (151) 
6

>  <r_i_glide_eff_state_penalty>  (151) 
0

>  <ligand_id>  (151) 
45

>  <original_smiles>  (151) 
CC12CCC(=O)CC1C1C=CC3=CC=C(Cl)C(=O)C3(C)C1CC2

>  <smiles>  (151) 
[H]C1=C(Cl)C(=O)C2(C([H])([H])[H])C(=C1[H])C([H])=C([H])C1([H])C2([H])C([H])([H])C([H])([H])C2(C([H])([H])[H])C([H])([H])C([H])([H])C(=O)C([H])([H])C12[H]

$$$$
45:0:1
     RDKit          3D

 46 49  0  0  1  0  0  0  0  0999 V2000
    4.8458   -5.9836    3.4973 C   0  0  0  0  0  0  0  0  0  0  0  0
    3.7749   -6.4862    2.4979 C   0  0  1  0  0  0  0  0  0  0  0  0
    3.0921   -7.7565    3.0708 C   0  0  0  0  0  0  0  0  0  0  0  0
    2.2658   -7.4901    4.3407 C   0  0  0  0  0  0  0  0  0  0  0  0
    1.2544   -6.3724    4.0934 C   0  0  0  0  0  0  0  0  0  0  0  0
    0.0772   -6.4722    4.4334 O   0  0  0  0  0  0  0  0  0  0  0  0
    1.7806   -5.1039    3.4243 C   0  0  0  0  0  0  0  0  0  0  0  0
    2.6892   -5.4163    2.2063 C   0  0  1  0  0  0  0  0  0  0  0  0
    3.2257   -4.1571    1.4603 C   0  0  1  0  0  0  0  0  0  0  0  0
    3.7399   -3.0267    2.3352 C   0  0  0  0  0  0  0  0  0  0  0  0
    4.2328   -1.9154    1.7708 C   0  0  0  0  0  0  0  0  0  0  0  0
    4.4167   -1.8825    0.3398 C   0  0  0  0  0  0  0  0  0  0  0  0
    4.2439   -0.7280   -0.3236 C   0  0  0  0  0  0  0  0  0  0  0  0
    4.3498   -0.6623   -1.7643 C   0  0  0  0  0  0  0  0  0  0  0  0
    4.5314   -1.7423   -2.5328 C   0  0  0  0  0  0  0  0  0  0  0  0
    4.5329   -1.5649   -4.2485 Cl  0  0  0  0  0  0  0  0  0  0  0  0
    4.7287   -3.0641   -1.9046 C   0  0  0  0  0  0  0  0  0  0  0  0
    4.8603   -4.0742   -2.5899 O   0  0  0  0  0  0  0  0  0  0  0  0
    4.9108   -3.1640   -0.3595 C   0  0  1  0  0  0  0  0  0  0  0  0
    6.4428   -3.1864   -0.1398 C   0  0  0  0  0  0  0  0  0  0  0  0
    4.1513   -4.4381    0.2264 C   0  0  1  0  0  0  0  0  0  0  0  0
    5.0851   -5.6569    0.4542 C   0  0  0  0  0  0  0  0  0  0  0  0
    4.4203   -6.8552    1.1457 C   0  0  0  0  0  0  0  0  0  0  0  0
    5.5880   -6.7602    3.6837 H   0  0  0  0  0  0  0  0  0  0  0  0
    4.4076   -5.7035    4.4550 H   0  0  0  0  0  0  0  0  0  0  0  0
    5.3755   -5.1053    3.1315 H   0  0  0  0  0  0  0  0  0  0  0  0
    2.4199   -8.1837    2.3227 H   0  0  0  0  0  0  0  0  0  0  0  0
    3.8372   -8.5263    3.2747 H   0  0  0  0  0  0  0  0  0  0  0  0
    1.7564   -8.3967    4.6660 H   0  0  0  0  0  0  0  0  0  0  0  0
    2.9156   -7.1941    5.1628 H   0  0  0  0  0  0  0  0  0  0  0  0
    0.9265   -4.4967    3.1199 H   0  0  0  0  0  0  0  0  0  0  0  0
    2.3107   -4.5416    4.1898 H   0  0  0  0  0  0  0  0  0  0  0  0
    2.0185   -5.8765    1.4800 H   0  0  0  0  0  0  0  0  0  0  0  0
    2.3329   -3.6933    1.0396 H   0  0  0  0  0  0  0  0  0  0  0  0
    3.6266   -3.0846    3.3997 H   0  0  0  0  0  0  0  0  0  0  0  0
    4.5606   -1.0776    2.3745 H   0  0  0  0  0  0  0  0  0  0  0  0
    3.9320    0.1494    0.2202 H   0  0  0  0  0  0  0  0  0  0  0  0
    4.2252    0.2860   -2.2695 H   0  0  0  0  0  0  0  0  0  0  0  0
    6.9097   -2.2791   -0.5206 H   0  0  0  0  0  0  0  0  0  0  0  0
    6.9296   -4.0116   -0.6605 H   0  0  0  0  0  0  0  0  0  0  0  0
    6.7123   -3.2503    0.9158 H   0  0  0  0  0  0  0  0  0  0  0  0
    3.4501   -4.7805   -0.5371 H   0  0  0  0  0  0  0  0  0  0  0  0
    5.4458   -5.9828   -0.5184 H   0  0  0  0  0  0  0  0  0  0  0  0
    5.9651   -5.3908    1.0342 H   0  0  0  0  0  0  0  0  0  0  0  0
    5.1508   -7.6535    1.2804 H   0  0  0  0  0  0  0  0  0  0  0  0
    3.6559   -7.2601    0.4814 H   0  0  0  0  0  0  0  0  0  0  0  0
  2  1  1  1
  1 24  1  0
  1 25  1  0
  1 26  1  0
  2  8  1  0
  2 23  1  0
  2  3  1  0
  3  4  1  0
  3 27  1  0
  3 28  1  0
  4  5  1  0
  4 29  1  0
  4 30  1  0
  5  6  2  0
  5  7  1  0
  7  8  1  0
  7 31  1  0
  7 32  1  0
  8  9  1  0
  8 33  1  6
  9 21  1  0
  9 10  1  0
  9 34  1  6
 10 11  2  0
 10 35  1  0
 11 12  1  0
 11 36  1  0
 12 19  1  0
 12 13  2  0
 13 14  1  0
 13 37  1  0
 14 15  2  0
 14 38  1  0
 15 16  1  0
 15 17  1  0
 17 18  2  0
 17 19  1  0
 19 20  1  6
 19 21  1  0
 20 39  1  0
 20 40  1  0
 20 41  1  0
 21 22  1  0
 21 42  1  6
 22 23  1  0
 22 43  1  0
 22 44  1  0
 23 45  1  0
 23 46  1  0
M  END
>  <i_m_ct_stereo_status>  (152) 
1

>  <s_m_source_file>  (152) 
/var/tmp/pbs.5076255.sched01/tmp3npnc3rz/42_8qtnw6u.sdf

>  <i_m_source_file_index>  (152) 
24

>  <i_lp_mmshare_version>  (152) 
48012

>  <i_f3d_flags>  (152) 
0

>  <s_epik_input>  (152) 
W0NIMl0xW0NIMl1DKD1PKVtDSDJdW0NASF0oW0NAQF0xMltDSDNdKVtDQEBIXTNbQ0BIXShbQ0gyXVtDSDJdMilbQ0BdNChbQ0gzXSlDKFtDSF09W0NIXTMpPVtDSF1bQ0hdPUMoQ2wpQzQ9Tw==

>  <s_epik_cmdline>  (152) 
J2VwaWtfcHl0aG9uJywgJy1waHQnLCAnMi4wJywgJy1waCcsICc3LjAnLCAnLXRuJywgJzgnLCAnLW1hJywgJzIwMCcsICctaW1hZScsICc8aW5maWxlLm1hZT4nLCAnLW9tYWUnLCAnPG91dGZpbGUubWFlPic=

>  <r_lp_tautomer_probability>  (152) 
1

>  <r_epik_Ionization_Penalty>  (152) 
1.45898e-13

>  <r_epik_Ionization_Penalty_Charging>  (152) 
0

>  <r_epik_Ionization_Penalty_Neutral>  (152) 
1.45898e-13

>  <r_epik_State_Penalty>  (152) 
-0

>  <r_epik_Charging_Adjusted_Penalty>  (152) 
0

>  <i_epik_Tot_Q>  (152) 
0

>  <i_epik_Tot_abs_Q>  (152) 
0

>  <s_lp_Force_Field>  (152) 
OPLS3e

>  <r_lp_Energy>  (152) 
46.2958

>  <b_lp_Chiralities_Consistent>  (152) 
1

>  <s_lp_Variant>  (152) 
45:0-1

>  <s_i_glide_gridfile>  (152) 
pfpi4k_grid

>  <i_i_glide_lignum>  (152) 
24

>  <i_i_glide_rotatable_bonds>  (152) 
0

>  <r_i_docking_score>  (152) 
-2.75704

>  <r_i_glide_ligand_efficiency>  (152) 
-0.119871

>  <r_i_glide_ligand_efficiency_sa>  (152) 
-0.340898

>  <r_i_glide_ligand_efficiency_ln>  (152) 
-0.666677

>  <r_i_glide_gscore>  (152) 
-2.75704

>  <r_i_glide_lipo>  (152) 
-0.341854

>  <r_i_glide_hbond>  (152) 
0

>  <r_i_glide_metal>  (152) 
-0

>  <r_i_glide_rewards>  (152) 
-1.19204

>  <r_i_glide_evdw>  (152) 
-23.3791

>  <r_i_glide_ecoul>  (152) 
-0.295451

>  <r_i_glide_erotb>  (152) 
0

>  <r_i_glide_esite>  (152) 
-0.00987415

>  <r_i_glide_emodel>  (152) 
-29.3984

>  <r_i_glide_energy>  (152) 
-23.6746

>  <r_i_glide_einternal>  (152) 
0

>  <r_i_glide_intrahb_reward>  (152) 
-0

>  <i_i_glide_confnum>  (152) 
1

>  <i_i_glide_posenum>  (152) 
7

>  <r_i_glide_eff_state_penalty>  (152) 
0

>  <ligand_id>  (152) 
45

>  <original_smiles>  (152) 
CC12CCC(=O)CC1C1C=CC3=CC=C(Cl)C(=O)C3(C)C1CC2

>  <smiles>  (152) 
[H]C1=C(Cl)C(=O)C2(C([H])([H])[H])C(=C1[H])C([H])=C([H])C1([H])C2([H])C([H])([H])C([H])([H])C2(C([H])([H])[H])C([H])([H])C([H])([H])C(=O)C([H])([H])C12[H]

$$$$
45:0:2
     RDKit          3D

 46 49  0  0  1  0  0  0  0  0999 V2000
    3.6136   -5.9210    3.5837 C   0  0  0  0  0  0  0  0  0  0  0  0
    2.1940   -5.4491    3.1824 C   0  0  1  0  0  0  0  0  0  0  0  0
    1.1559   -6.0582    4.1630 C   0  0  0  0  0  0  0  0  0  0  0  0
    1.2933   -5.5403    5.6044 C   0  0  0  0  0  0  0  0  0  0  0  0
    1.2467   -4.0154    5.6289 C   0  0  0  0  0  0  0  0  0  0  0  0
    0.5365   -3.4074    6.4268 O   0  0  0  0  0  0  0  0  0  0  0  0
    2.1445   -3.2865    4.6266 C   0  0  0  0  0  0  0  0  0  0  0  0
    2.0593   -3.9013    3.2025 C   0  0  1  0  0  0  0  0  0  0  0  0
    2.9317   -3.1807    2.1299 C   0  0  1  0  0  0  0  0  0  0  0  0
    4.3421   -2.8002    2.5421 C   0  0  0  0  0  0  0  0  0  0  0  0
    5.1549   -2.1885    1.6727 C   0  0  0  0  0  0  0  0  0  0  0  0
    4.7272   -2.0487    0.2941 C   0  0  0  0  0  0  0  0  0  0  0  0
    5.0943   -0.9614   -0.4026 C   0  0  0  0  0  0  0  0  0  0  0  0
    4.6462   -0.7542   -1.7676 C   0  0  0  0  0  0  0  0  0  0  0  0
    3.7722   -1.5746   -2.3771 C   0  0  0  0  0  0  0  0  0  0  0  0
    3.2352   -1.2117   -3.9801 Cl  0  0  0  0  0  0  0  0  0  0  0  0
    3.2592   -2.7657   -1.6651 C   0  0  0  0  0  0  0  0  0  0  0  0
    2.3394   -3.4477   -2.1167 O   0  0  0  0  0  0  0  0  0  0  0  0
    3.9510   -3.2155   -0.3430 C   0  0  1  0  0  0  0  0  0  0  0  0
    5.0285   -4.2495   -0.7565 C   0  0  0  0  0  0  0  0  0  0  0  0
    2.8746   -3.7901    0.6827 C   0  0  1  0  0  0  0  0  0  0  0  0
    2.7768   -5.3397    0.6811 C   0  0  0  0  0  0  0  0  0  0  0  0
    1.8471   -5.9247    1.7536 C   0  0  0  0  0  0  0  0  0  0  0  0
    3.6759   -7.0108    3.5686 H   0  0  0  0  0  0  0  0  0  0  0  0
    3.8886   -5.5871    4.5847 H   0  0  0  0  0  0  0  0  0  0  0  0
    4.3838   -5.5422    2.9123 H   0  0  0  0  0  0  0  0  0  0  0  0
    0.1460   -5.8254    3.8214 H   0  0  0  0  0  0  0  0  0  0  0  0
    1.2287   -7.1470    4.1606 H   0  0  0  0  0  0  0  0  0  0  0  0
    0.5029   -5.9463    6.2352 H   0  0  0  0  0  0  0  0  0  0  0  0
    2.2357   -5.8663    6.0419 H   0  0  0  0  0  0  0  0  0  0  0  0
    1.8542   -2.2351    4.6018 H   0  0  0  0  0  0  0  0  0  0  0  0
    3.1577   -3.3252    5.0200 H   0  0  0  0  0  0  0  0  0  0  0  0
    1.0368   -3.6948    2.8845 H   0  0  0  0  0  0  0  0  0  0  0  0
    2.4718   -2.1941    2.0364 H   0  0  0  0  0  0  0  0  0  0  0  0
    4.6521   -2.9480    3.5642 H   0  0  0  0  0  0  0  0  0  0  0  0
    6.1475   -1.8721    1.9695 H   0  0  0  0  0  0  0  0  0  0  0  0
    5.6657   -0.1834    0.0865 H   0  0  0  0  0  0  0  0  0  0  0  0
    4.9908    0.1222   -2.3021 H   0  0  0  0  0  0  0  0  0  0  0  0
    5.7675   -3.8038   -1.4228 H   0  0  0  0  0  0  0  0  0  0  0  0
    4.6124   -5.0965   -1.2996 H   0  0  0  0  0  0  0  0  0  0  0  0
    5.5771   -4.6402    0.1015 H   0  0  0  0  0  0  0  0  0  0  0  0
    1.8966   -3.4628    0.3298 H   0  0  0  0  0  0  0  0  0  0  0  0
    2.4312   -5.6687   -0.2992 H   0  0  0  0  0  0  0  0  0  0  0  0
    3.7536   -5.7958    0.8178 H   0  0  0  0  0  0  0  0  0  0  0  0
    1.8709   -7.0135    1.7041 H   0  0  0  0  0  0  0  0  0  0  0  0
    0.8214   -5.6486    1.5239 H   0  0  0  0  0  0  0  0  0  0  0  0
  2  1  1  1
  1 24  1  0
  1 25  1  0
  1 26  1  0
  2  8  1  0
  2 23  1  0
  2  3  1  0
  3  4  1  0
  3 27  1  0
  3 28  1  0
  4  5  1  0
  4 29  1  0
  4 30  1  0
  5  6  2  0
  5  7  1  0
  7  8  1  0
  7 31  1  0
  7 32  1  0
  8  9  1  0
  8 33  1  6
  9 21  1  0
  9 10  1  0
  9 34  1  6
 10 11  2  0
 10 35  1  0
 11 12  1  0
 11 36  1  0
 12 19  1  0
 12 13  2  0
 13 14  1  0
 13 37  1  0
 14 15  2  0
 14 38  1  0
 15 16  1  0
 15 17  1  0
 17 18  2  0
 17 19  1  0
 19 20  1  6
 19 21  1  0
 20 39  1  0
 20 40  1  0
 20 41  1  0
 21 22  1  0
 21 42  1  6
 22 23  1  0
 22 43  1  0
 22 44  1  0
 23 45  1  0
 23 46  1  0
M  END
>  <i_m_ct_stereo_status>  (153) 
1

>  <s_m_source_file>  (153) 
/var/tmp/pbs.5076255.sched01/tmp3npnc3rz/42_8qtnw6u.sdf

>  <i_m_source_file_index>  (153) 
24

>  <i_lp_mmshare_version>  (153) 
48012

>  <i_f3d_flags>  (153) 
0

>  <s_epik_input>  (153) 
W0NIMl0xW0NIMl1DKD1PKVtDSDJdW0NASF0oW0NAQF0xMltDSDNdKVtDQEBIXTNbQ0BIXShbQ0gyXVtDSDJdMilbQ0BdNChbQ0gzXSlDKFtDSF09W0NIXTMpPVtDSF1bQ0hdPUMoQ2wpQzQ9Tw==

>  <s_epik_cmdline>  (153) 
J2VwaWtfcHl0aG9uJywgJy1waHQnLCAnMi4wJywgJy1waCcsICc3LjAnLCAnLXRuJywgJzgnLCAnLW1hJywgJzIwMCcsICctaW1hZScsICc8aW5maWxlLm1hZT4nLCAnLW9tYWUnLCAnPG91dGZpbGUubWFlPic=

>  <r_lp_tautomer_probability>  (153) 
1

>  <r_epik_Ionization_Penalty>  (153) 
1.45898e-13

>  <r_epik_Ionization_Penalty_Charging>  (153) 
0

>  <r_epik_Ionization_Penalty_Neutral>  (153) 
1.45898e-13

>  <r_epik_State_Penalty>  (153) 
-0

>  <r_epik_Charging_Adjusted_Penalty>  (153) 
0

>  <i_epik_Tot_Q>  (153) 
0

>  <i_epik_Tot_abs_Q>  (153) 
0

>  <s_lp_Force_Field>  (153) 
OPLS3e

>  <r_lp_Energy>  (153) 
46.2958

>  <b_lp_Chiralities_Consistent>  (153) 
1

>  <s_lp_Variant>  (153) 
45:0-1

>  <s_i_glide_gridfile>  (153) 
pfpi4k_grid

>  <i_i_glide_lignum>  (153) 
24

>  <i_i_glide_rotatable_bonds>  (153) 
0

>  <r_i_docking_score>  (153) 
-2.62372

>  <r_i_glide_ligand_efficiency>  (153) 
-0.114075

>  <r_i_glide_ligand_efficiency_sa>  (153) 
-0.324413

>  <r_i_glide_ligand_efficiency_ln>  (153) 
-0.634439

>  <r_i_glide_gscore>  (153) 
-2.62372

>  <r_i_glide_lipo>  (153) 
-0.244412

>  <r_i_glide_hbond>  (153) 
0

>  <r_i_glide_metal>  (153) 
-0

>  <r_i_glide_rewards>  (153) 
-1.15331

>  <r_i_glide_evdw>  (153) 
-25.1229

>  <r_i_glide_ecoul>  (153) 
0.361532

>  <r_i_glide_erotb>  (153) 
0

>  <r_i_glide_esite>  (153) 
-0.0240799

>  <r_i_glide_emodel>  (153) 
-30.2715

>  <r_i_glide_energy>  (153) 
-24.7614

>  <r_i_glide_einternal>  (153) 
0

>  <r_i_glide_intrahb_reward>  (153) 
-0

>  <i_i_glide_confnum>  (153) 
1

>  <i_i_glide_posenum>  (153) 
12

>  <r_i_glide_eff_state_penalty>  (153) 
0

>  <ligand_id>  (153) 
45

>  <original_smiles>  (153) 
CC12CCC(=O)CC1C1C=CC3=CC=C(Cl)C(=O)C3(C)C1CC2

>  <smiles>  (153) 
[H]C1=C(Cl)C(=O)C2(C([H])([H])[H])C(=C1[H])C([H])=C([H])C1([H])C2([H])C([H])([H])C([H])([H])C2(C([H])([H])[H])C([H])([H])C([H])([H])C(=O)C([H])([H])C12[H]

$$$$
46:0:0
     RDKit          3D

 31 33  0  0  1  0  0  0  0  0999 V2000
    2.2254   -3.4491   -2.0010 C   0  0  0  0  0  0  0  0  0  0  0  0
    3.0712   -2.3064   -2.2672 N   0  0  0  0  0  0  0  0  0  0  0  0
    3.2338   -1.7086   -3.5083 C   0  0  0  0  0  0  0  0  0  0  0  0
    4.1361   -0.6938   -3.3393 C   0  0  0  0  0  0  0  0  0  0  0  0
    4.5413   -0.6557   -2.0065 N   0  0  0  0  0  0  0  0  0  0  0  0
    3.8572   -1.6220   -1.4086 C   0  0  0  0  0  0  0  0  0  0  0  0
    4.0424   -2.0076    0.0373 C   0  0  0  0  0  0  0  0  0  0  0  0
    3.0337   -1.2598    0.8505 N   0  0  1  0  0  0  0  0  0  0  0  0
    2.5747   -2.0749    2.0177 C   0  0  0  0  0  0  0  0  0  0  0  0
    1.3884   -1.4172    2.7508 C   0  0  0  0  0  0  0  0  0  0  0  0
    1.6283   -0.0034    2.9175 N   0  0  0  0  0  0  0  0  0  0  0  0
    0.8392    0.7650    3.7005 N   0  0  0  0  0  0  0  0  0  0  0  0
    1.2836    1.9749    3.5909 N   0  0  0  0  0  0  0  0  0  0  0  0
    2.3594    1.9976    2.6949 C   0  0  0  0  0  0  0  0  0  0  0  0
    2.5819    0.7236    2.2568 C   0  0  0  0  0  0  0  0  0  0  0  0
    3.5473    0.0622    1.3254 C   0  0  0  0  0  0  0  0  0  0  0  0
    1.8297   -3.8401   -2.9409 H   0  0  0  0  0  0  0  0  0  0  0  0
    1.3981   -3.1427   -1.3666 H   0  0  0  0  0  0  0  0  0  0  0  0
    2.7982   -4.2375   -1.5094 H   0  0  0  0  0  0  0  0  0  0  0  0
    2.7091   -2.0469   -4.3871 H   0  0  0  0  0  0  0  0  0  0  0  0
    4.5129   -0.0071   -4.0766 H   0  0  0  0  0  0  0  0  0  0  0  0
    3.9431   -3.0887    0.1321 H   0  0  0  0  0  0  0  0  0  0  0  0
    5.0608   -1.7758    0.3472 H   0  0  0  0  0  0  0  0  0  0  0  0
    2.2731   -3.0772    1.7069 H   0  0  0  0  0  0  0  0  0  0  0  0
    3.4010   -2.1972    2.7221 H   0  0  0  0  0  0  0  0  0  0  0  0
    0.4901   -1.5169    2.1496 H   0  0  0  0  0  0  0  0  0  0  0  0
    1.2127   -1.8747    3.7271 H   0  0  0  0  0  0  0  0  0  0  0  0
    2.8768    2.9131    2.4494 H   0  0  0  0  0  0  0  0  0  0  0  0
    4.4762   -0.0931    1.8796 H   0  0  0  0  0  0  0  0  0  0  0  0
    3.7908    0.7157    0.4912 H   0  0  0  0  0  0  0  0  0  0  0  0
    2.2103   -1.0829    0.2686 H   0  0  0  0  0  0  0  0  0  0  0  0
  1  2  1  0
  1 17  1  0
  1 18  1  0
  1 19  1  0
  2  6  1  0
  2  3  1  0
  3  4  2  0
  3 20  1  0
  4  5  1  0
  4 21  1  0
  5  6  2  0
  6  7  1  0
  7  8  1  0
  7 22  1  0
  7 23  1  0
  8 16  1  0
  8  9  1  0
  8 31  1  6
  9 10  1  0
  9 24  1  0
  9 25  1  0
 10 11  1  0
 10 26  1  0
 10 27  1  0
 11 15  1  0
 11 12  1  0
 12 13  2  0
 13 14  1  0
 14 15  2  0
 14 28  1  0
 15 16  1  0
 16 29  1  0
 16 30  1  0
M  CHG  1   8   1
M  END
>  <i_m_ct_stereo_status>  (154) 
1

>  <s_m_source_file>  (154) 
/var/tmp/pbs.5076255.sched01/tmp3npnc3rz/42_8qtnw6u.sdf

>  <i_m_source_file_index>  (154) 
25

>  <i_lp_mmshare_version>  (154) 
48012

>  <i_f3d_flags>  (154) 
0

>  <s_epik_input>  (154) 
W0NIM11uMVtjSF1bY0hdbmMxW0NIMl1OKFtDSDJdW0NIMl0yKVtDSDJdYyhuMjMpW2NIXW5uMw==

>  <s_epik_cmdline>  (154) 
J2VwaWtfcHl0aG9uJywgJy1waHQnLCAnMi4wJywgJy1waCcsICc3LjAnLCAnLXRuJywgJzgnLCAnLW1hJywgJzIwMCcsICctaW1hZScsICc8aW5maWxlLm1hZT4nLCAnLW9tYWUnLCAnPG91dGZpbGUubWFlPic=

>  <r_lp_tautomer_probability>  (154) 
1

>  <r_epik_Ionization_Penalty>  (154) 
0.0203654

>  <r_epik_Ionization_Penalty_Charging>  (154) 
0.0203654

>  <r_epik_Ionization_Penalty_Neutral>  (154) 
4.06708e-08

>  <r_epik_State_Penalty>  (154) 
0.238607

>  <r_epik_Charging_Adjusted_Penalty>  (154) 
0.258972

>  <i_epik_Tot_Q>  (154) 
1

>  <i_epik_Tot_abs_Q>  (154) 
1

>  <s_lp_Force_Field>  (154) 
OPLS3e

>  <r_lp_Energy>  (154) 
12.8983

>  <b_lp_Chiralities_Consistent>  (154) 
1

>  <s_lp_Variant>  (154) 
46:0-1

>  <s_i_glide_gridfile>  (154) 
pfpi4k_grid

>  <i_i_glide_lignum>  (154) 
25

>  <i_i_glide_rotatable_bonds>  (154) 
2

>  <r_i_docking_score>  (154) 
-4.36247

>  <r_i_glide_ligand_efficiency>  (154) 
-0.272654

>  <r_i_glide_ligand_efficiency_sa>  (154) 
-0.687046

>  <r_i_glide_ligand_efficiency_ln>  (154) 
-1.15636

>  <r_i_glide_gscore>  (154) 
-4.36247

>  <r_i_glide_lipo>  (154) 
-0.617521

>  <r_i_glide_hbond>  (154) 
-0.2

>  <r_i_glide_metal>  (154) 
-0

>  <r_i_glide_rewards>  (154) 
-1.91409

>  <r_i_glide_evdw>  (154) 
-20.4691

>  <r_i_glide_ecoul>  (154) 
-7.12317

>  <r_i_glide_erotb>  (154) 
0.699957

>  <r_i_glide_esite>  (154) 
-0.238882

>  <r_i_glide_emodel>  (154) 
-35.8619

>  <r_i_glide_energy>  (154) 
-27.5922

>  <r_i_glide_einternal>  (154) 
1.55264

>  <r_i_glide_intrahb_reward>  (154) 
-0

>  <i_i_glide_confnum>  (154) 
5

>  <i_i_glide_posenum>  (154) 
38

>  <r_i_glide_eff_state_penalty>  (154) 
0

>  <ligand_id>  (154) 
46

>  <original_smiles>  (154) 
Cn1ccnc1CN1CCn2nncc2C1

>  <smiles>  (154) 
[H]c1nnn2c1C([H])([H])[N+]([H])(C([H])([H])c1nc([H])c([H])n1C([H])([H])[H])C([H])([H])C2([H])[H]

$$$$
46:0:1
     RDKit          3D

 31 33  0  0  1  0  0  0  0  0999 V2000
    2.7262   -3.6471   -3.9004 C   0  0  0  0  0  0  0  0  0  0  0  0
    3.3220   -2.4217   -3.4286 N   0  0  0  0  0  0  0  0  0  0  0  0
    3.0276   -1.1530   -3.9104 C   0  0  0  0  0  0  0  0  0  0  0  0
    3.8221   -0.2805   -3.2193 C   0  0  0  0  0  0  0  0  0  0  0  0
    4.6034   -0.9862   -2.3049 N   0  0  0  0  0  0  0  0  0  0  0  0
    4.2632   -2.2591   -2.4759 C   0  0  0  0  0  0  0  0  0  0  0  0
    4.9500   -3.3965   -1.7618 C   0  0  0  0  0  0  0  0  0  0  0  0
    4.0301   -3.8828   -0.6938 N   0  0  1  0  0  0  0  0  0  0  0  0
    4.4147   -5.2539   -0.2318 C   0  0  0  0  0  0  0  0  0  0  0  0
    3.3294   -5.8808    0.6761 C   0  0  0  0  0  0  0  0  0  0  0  0
    2.8684   -4.9013    1.6350 N   0  0  0  0  0  0  0  0  0  0  0  0
    2.0888   -5.2455    2.6849 N   0  0  0  0  0  0  0  0  0  0  0  0
    1.7914   -4.1384    3.2965 N   0  0  0  0  0  0  0  0  0  0  0  0
    2.3874   -3.0616    2.6323 C   0  0  0  0  0  0  0  0  0  0  0  0
    3.0775   -3.5490    1.5589 C   0  0  0  0  0  0  0  0  0  0  0  0
    3.9061   -2.9491    0.4688 C   0  0  0  0  0  0  0  0  0  0  0  0
    2.0669   -3.4479   -4.7423 H   0  0  0  0  0  0  0  0  0  0  0  0
    2.1140   -4.0614   -3.1016 H   0  0  0  0  0  0  0  0  0  0  0  0
    3.5089   -4.3452   -4.2087 H   0  0  0  0  0  0  0  0  0  0  0  0
    2.3007   -0.9728   -4.6898 H   0  0  0  0  0  0  0  0  0  0  0  0
    3.8898    0.7908   -3.3203 H   0  0  0  0  0  0  0  0  0  0  0  0
    5.1873   -4.1759   -2.4865 H   0  0  0  0  0  0  0  0  0  0  0  0
    5.8906   -3.0517   -1.3350 H   0  0  0  0  0  0  0  0  0  0  0  0
    4.6132   -5.9203   -1.0741 H   0  0  0  0  0  0  0  0  0  0  0  0
    5.3513   -5.1891    0.3238 H   0  0  0  0  0  0  0  0  0  0  0  0
    2.4651   -6.2095    0.0924 H   0  0  0  0  0  0  0  0  0  0  0  0
    3.7273   -6.7434    1.2144 H   0  0  0  0  0  0  0  0  0  0  0  0
    2.2649   -2.0438    2.9681 H   0  0  0  0  0  0  0  0  0  0  0  0
    4.8989   -2.7564    0.8728 H   0  0  0  0  0  0  0  0  0  0  0  0
    3.4775   -1.9939    0.1723 H   0  0  0  0  0  0  0  0  0  0  0  0
    3.1146   -3.9711   -1.1152 H   0  0  0  0  0  0  0  0  0  0  0  0
  1  2  1  0
  1 17  1  0
  1 18  1  0
  1 19  1  0
  2  6  1  0
  2  3  1  0
  3  4  2  0
  3 20  1  0
  4  5  1  0
  4 21  1  0
  5  6  2  0
  6  7  1  0
  7  8  1  0
  7 22  1  0
  7 23  1  0
  8 16  1  0
  8  9  1  0
  8 31  1  6
  9 10  1  0
  9 24  1  0
  9 25  1  0
 10 11  1  0
 10 26  1  0
 10 27  1  0
 11 15  1  0
 11 12  1  0
 12 13  2  0
 13 14  1  0
 14 15  2  0
 14 28  1  0
 15 16  1  0
 16 29  1  0
 16 30  1  0
M  CHG  1   8   1
M  END
>  <i_m_ct_stereo_status>  (155) 
1

>  <s_m_source_file>  (155) 
/var/tmp/pbs.5076255.sched01/tmp3npnc3rz/42_8qtnw6u.sdf

>  <i_m_source_file_index>  (155) 
25

>  <i_lp_mmshare_version>  (155) 
48012

>  <i_f3d_flags>  (155) 
0

>  <s_epik_input>  (155) 
W0NIM11uMVtjSF1bY0hdbmMxW0NIMl1OKFtDSDJdW0NIMl0yKVtDSDJdYyhuMjMpW2NIXW5uMw==

>  <s_epik_cmdline>  (155) 
J2VwaWtfcHl0aG9uJywgJy1waHQnLCAnMi4wJywgJy1waCcsICc3LjAnLCAnLXRuJywgJzgnLCAnLW1hJywgJzIwMCcsICctaW1hZScsICc8aW5maWxlLm1hZT4nLCAnLW9tYWUnLCAnPG91dGZpbGUubWFlPic=

>  <r_lp_tautomer_probability>  (155) 
1

>  <r_epik_Ionization_Penalty>  (155) 
0.0203654

>  <r_epik_Ionization_Penalty_Charging>  (155) 
0.0203654

>  <r_epik_Ionization_Penalty_Neutral>  (155) 
4.06708e-08

>  <r_epik_State_Penalty>  (155) 
0.238607

>  <r_epik_Charging_Adjusted_Penalty>  (155) 
0.258972

>  <i_epik_Tot_Q>  (155) 
1

>  <i_epik_Tot_abs_Q>  (155) 
1

>  <s_lp_Force_Field>  (155) 
OPLS3e

>  <r_lp_Energy>  (155) 
12.8983

>  <b_lp_Chiralities_Consistent>  (155) 
1

>  <s_lp_Variant>  (155) 
46:0-1

>  <s_i_glide_gridfile>  (155) 
pfpi4k_grid

>  <i_i_glide_lignum>  (155) 
25

>  <i_i_glide_rotatable_bonds>  (155) 
2

>  <r_i_docking_score>  (155) 
-3.85716

>  <r_i_glide_ligand_efficiency>  (155) 
-0.241072

>  <r_i_glide_ligand_efficiency_sa>  (155) 
-0.607465

>  <r_i_glide_ligand_efficiency_ln>  (155) 
-1.02242

>  <r_i_glide_gscore>  (155) 
-3.85716

>  <r_i_glide_lipo>  (155) 
-0.449287

>  <r_i_glide_hbond>  (155) 
0

>  <r_i_glide_metal>  (155) 
-0

>  <r_i_glide_rewards>  (155) 
-2.26141

>  <r_i_glide_evdw>  (155) 
-21.7478

>  <r_i_glide_ecoul>  (155) 
-4.82849

>  <r_i_glide_erotb>  (155) 
0.699957

>  <r_i_glide_esite>  (155) 
-0.0347575

>  <r_i_glide_emodel>  (155) 
-33.4439

>  <r_i_glide_energy>  (155) 
-26.5762

>  <r_i_glide_einternal>  (155) 
2.47656

>  <r_i_glide_intrahb_reward>  (155) 
-0

>  <i_i_glide_confnum>  (155) 
5

>  <i_i_glide_posenum>  (155) 
10

>  <r_i_glide_eff_state_penalty>  (155) 
0

>  <ligand_id>  (155) 
46

>  <original_smiles>  (155) 
Cn1ccnc1CN1CCn2nncc2C1

>  <smiles>  (155) 
[H]c1nnn2c1C([H])([H])[N+]([H])(C([H])([H])c1nc([H])c([H])n1C([H])([H])[H])C([H])([H])C2([H])[H]

$$$$
46:0:2
     RDKit          3D

 31 33  0  0  1  0  0  0  0  0999 V2000
    4.9635   -4.1731   -1.6646 C   0  0  0  0  0  0  0  0  0  0  0  0
    4.3860   -3.0213   -2.3310 N   0  0  0  0  0  0  0  0  0  0  0  0
    3.8543   -3.0352   -3.6133 C   0  0  0  0  0  0  0  0  0  0  0  0
    3.4731   -1.7509   -3.8965 C   0  0  0  0  0  0  0  0  0  0  0  0
    3.7445   -0.9407   -2.8011 N   0  0  0  0  0  0  0  0  0  0  0  0
    4.2756   -1.7530   -1.8894 C   0  0  0  0  0  0  0  0  0  0  0  0
    4.8249   -1.2691   -0.5747 C   0  0  0  0  0  0  0  0  0  0  0  0
    3.6846   -1.1621    0.3849 N   0  0  1  0  0  0  0  0  0  0  0  0
    3.5528   -2.3702    1.2578 C   0  0  0  0  0  0  0  0  0  0  0  0
    2.2780   -2.3335    2.1178 C   0  0  0  0  0  0  0  0  0  0  0  0
    2.0967   -1.0252    2.6897 N   0  0  0  0  0  0  0  0  0  0  0  0
    1.1683   -0.7837    3.6430 N   0  0  0  0  0  0  0  0  0  0  0  0
    1.2271    0.4888    3.8913 N   0  0  0  0  0  0  0  0  0  0  0  0
    2.1896    1.0831    3.0670 C   0  0  0  0  0  0  0  0  0  0  0  0
    2.7517    0.1080    2.2929 C   0  0  0  0  0  0  0  0  0  0  0  0
    3.8078    0.0583    1.2385 C   0  0  0  0  0  0  0  0  0  0  0  0
    5.0177   -5.0076   -2.3644 H   0  0  0  0  0  0  0  0  0  0  0  0
    4.3196   -4.4892   -0.8487 H   0  0  0  0  0  0  0  0  0  0  0  0
    5.9642   -3.9372   -1.2964 H   0  0  0  0  0  0  0  0  0  0  0  0
    3.8090   -3.9376   -4.2052 H   0  0  0  0  0  0  0  0  0  0  0  0
    3.0273   -1.3628   -4.7993 H   0  0  0  0  0  0  0  0  0  0  0  0
    5.6271   -1.9109   -0.2120 H   0  0  0  0  0  0  0  0  0  0  0  0
    5.2719   -0.2959   -0.7603 H   0  0  0  0  0  0  0  0  0  0  0  0
    3.5296   -3.2876    0.6777 H   0  0  0  0  0  0  0  0  0  0  0  0
    4.4228   -2.4256    1.9169 H   0  0  0  0  0  0  0  0  0  0  0  0
    1.4112   -2.5307    1.4931 H   0  0  0  0  0  0  0  0  0  0  0  0
    2.3172   -3.0769    2.9135 H   0  0  0  0  0  0  0  0  0  0  0  0
    2.3930    2.1416    3.0977 H   0  0  0  0  0  0  0  0  0  0  0  0
    4.7766    0.0433    1.7345 H   0  0  0  0  0  0  0  0  0  0  0  0
    3.7693    0.9516    0.6296 H   0  0  0  0  0  0  0  0  0  0  0  0
    2.8248   -1.0605   -0.1509 H   0  0  0  0  0  0  0  0  0  0  0  0
  1  2  1  0
  1 17  1  0
  1 18  1  0
  1 19  1  0
  2  6  1  0
  2  3  1  0
  3  4  2  0
  3 20  1  0
  4  5  1  0
  4 21  1  0
  5  6  2  0
  6  7  1  0
  7  8  1  0
  7 22  1  0
  7 23  1  0
  8 16  1  0
  8  9  1  0
  8 31  1  6
  9 10  1  0
  9 24  1  0
  9 25  1  0
 10 11  1  0
 10 26  1  0
 10 27  1  0
 11 15  1  0
 11 12  1  0
 12 13  2  0
 13 14  1  0
 14 15  2  0
 14 28  1  0
 15 16  1  0
 16 29  1  0
 16 30  1  0
M  CHG  1   8   1
M  END
>  <i_m_ct_stereo_status>  (156) 
1

>  <s_m_source_file>  (156) 
/var/tmp/pbs.5076255.sched01/tmp3npnc3rz/42_8qtnw6u.sdf

>  <i_m_source_file_index>  (156) 
25

>  <i_lp_mmshare_version>  (156) 
48012

>  <i_f3d_flags>  (156) 
0

>  <s_epik_input>  (156) 
W0NIM11uMVtjSF1bY0hdbmMxW0NIMl1OKFtDSDJdW0NIMl0yKVtDSDJdYyhuMjMpW2NIXW5uMw==

>  <s_epik_cmdline>  (156) 
J2VwaWtfcHl0aG9uJywgJy1waHQnLCAnMi4wJywgJy1waCcsICc3LjAnLCAnLXRuJywgJzgnLCAnLW1hJywgJzIwMCcsICctaW1hZScsICc8aW5maWxlLm1hZT4nLCAnLW9tYWUnLCAnPG91dGZpbGUubWFlPic=

>  <r_lp_tautomer_probability>  (156) 
1

>  <r_epik_Ionization_Penalty>  (156) 
0.0203654

>  <r_epik_Ionization_Penalty_Charging>  (156) 
0.0203654

>  <r_epik_Ionization_Penalty_Neutral>  (156) 
4.06708e-08

>  <r_epik_State_Penalty>  (156) 
0.238607

>  <r_epik_Charging_Adjusted_Penalty>  (156) 
0.258972

>  <i_epik_Tot_Q>  (156) 
1

>  <i_epik_Tot_abs_Q>  (156) 
1

>  <s_lp_Force_Field>  (156) 
OPLS3e

>  <r_lp_Energy>  (156) 
12.8983

>  <b_lp_Chiralities_Consistent>  (156) 
1

>  <s_lp_Variant>  (156) 
46:0-1

>  <s_i_glide_gridfile>  (156) 
pfpi4k_grid

>  <i_i_glide_lignum>  (156) 
25

>  <i_i_glide_rotatable_bonds>  (156) 
2

>  <r_i_docking_score>  (156) 
-3.50271

>  <r_i_glide_ligand_efficiency>  (156) 
-0.218919

>  <r_i_glide_ligand_efficiency_sa>  (156) 
-0.551642

>  <r_i_glide_ligand_efficiency_ln>  (156) 
-0.928464

>  <r_i_glide_gscore>  (156) 
-3.50271

>  <r_i_glide_lipo>  (156) 
-0.354722

>  <r_i_glide_hbond>  (156) 
-0.116688

>  <r_i_glide_metal>  (156) 
-0

>  <r_i_glide_rewards>  (156) 
-1.91409

>  <r_i_glide_evdw>  (156) 
-22.0124

>  <r_i_glide_ecoul>  (156) 
-4.03834

>  <r_i_glide_erotb>  (156) 
0.699957

>  <r_i_glide_esite>  (156) 
-0.110794

>  <r_i_glide_emodel>  (156) 
-32.4959

>  <r_i_glide_energy>  (156) 
-26.0507

>  <r_i_glide_einternal>  (156) 
1.47501

>  <r_i_glide_intrahb_reward>  (156) 
-0

>  <i_i_glide_confnum>  (156) 
5

>  <i_i_glide_posenum>  (156) 
3

>  <r_i_glide_eff_state_penalty>  (156) 
0

>  <ligand_id>  (156) 
46

>  <original_smiles>  (156) 
Cn1ccnc1CN1CCn2nncc2C1

>  <smiles>  (156) 
[H]c1nnn2c1C([H])([H])[N+]([H])(C([H])([H])c1nc([H])c([H])n1C([H])([H])[H])C([H])([H])C2([H])[H]

$$$$
46:1:0
     RDKit          3D

 31 33  0  0  1  0  0  0  0  0999 V2000
    4.7019   -0.3263   -1.9801 C   0  0  0  0  0  0  0  0  0  0  0  0
    3.9631   -1.4576   -2.5195 N   0  0  0  0  0  0  0  0  0  0  0  0
    3.0269   -1.3950   -3.5213 C   0  0  0  0  0  0  0  0  0  0  0  0
    2.5398   -2.6617   -3.6765 C   0  0  0  0  0  0  0  0  0  0  0  0
    3.2275   -3.4570   -2.8038 N   0  0  0  0  0  0  0  0  0  0  0  0
    4.0699   -2.7201   -2.0736 C   0  0  0  0  0  0  0  0  0  0  0  0
    4.8982   -3.2230   -0.9328 C   0  0  0  0  0  0  0  0  0  0  0  0
    4.1494   -3.5690    0.2763 N   0  0  0  0  0  0  0  0  0  0  0  0
    3.3069   -2.4518    0.7317 C   0  0  0  0  0  0  0  0  0  0  0  0
    2.7472   -2.7266    2.1466 C   0  0  0  0  0  0  0  0  0  0  0  0
    2.2785   -4.0948    2.2426 N   0  0  0  0  0  0  0  0  0  0  0  0
    1.5281   -4.5404    3.2756 N   0  0  0  0  0  0  0  0  0  0  0  0
    1.3003   -5.8016    3.0491 N   0  0  0  0  0  0  0  0  0  0  0  0
    1.9659   -6.1926    1.8805 C   0  0  0  0  0  0  0  0  0  0  0  0
    2.5792   -5.0929    1.3549 C   0  0  0  0  0  0  0  0  0  0  0  0
    3.3549   -4.7933    0.1212 C   0  0  0  0  0  0  0  0  0  0  0  0
    4.2184    0.5685   -2.3675 H   0  0  0  0  0  0  0  0  0  0  0  0
    5.7306   -0.3583   -2.3254 H   0  0  0  0  0  0  0  0  0  0  0  0
    4.6885   -0.3108   -0.8870 H   0  0  0  0  0  0  0  0  0  0  0  0
    2.7503   -0.4640   -4.0089 H   0  0  0  0  0  0  0  0  0  0  0  0
    1.7601   -3.0462   -4.3165 H   0  0  0  0  0  0  0  0  0  0  0  0
    5.4255   -4.1027   -1.3050 H   0  0  0  0  0  0  0  0  0  0  0  0
    5.6405   -2.4525   -0.7060 H   0  0  0  0  0  0  0  0  0  0  0  0
    3.8724   -1.5193    0.7575 H   0  0  0  0  0  0  0  0  0  0  0  0
    2.4733   -2.3117    0.0402 H   0  0  0  0  0  0  0  0  0  0  0  0
    3.5231   -2.5859    2.9040 H   0  0  0  0  0  0  0  0  0  0  0  0
    1.9186   -2.0499    2.3652 H   0  0  0  0  0  0  0  0  0  0  0  0
    1.9374   -7.2070    1.5143 H   0  0  0  0  0  0  0  0  0  0  0  0
    2.6302   -4.6756   -0.6825 H   0  0  0  0  0  0  0  0  0  0  0  0
    3.9976   -5.6357   -0.1292 H   0  0  0  0  0  0  0  0  0  0  0  0
    3.0622   -4.4573   -2.6593 H   0  0  0  0  0  0  0  0  0  0  0  0
  1  2  1  0
  1 17  1  0
  1 18  1  0
  1 19  1  0
  2  6  1  0
  2  3  1  0
  3  4  2  0
  3 20  1  0
  4  5  1  0
  4 21  1  0
  5  6  2  0
  5 31  1  0
  6  7  1  0
  7  8  1  0
  7 22  1  0
  7 23  1  0
  8 16  1  0
  8  9  1  0
  9 10  1  0
  9 24  1  0
  9 25  1  0
 10 11  1  0
 10 26  1  0
 10 27  1  0
 11 15  1  0
 11 12  1  0
 12 13  2  0
 13 14  1  0
 14 15  2  0
 14 28  1  0
 15 16  1  0
 16 29  1  0
 16 30  1  0
M  CHG  1   5   1
M  END
>  <i_m_ct_stereo_status>  (157) 
1

>  <s_m_source_file>  (157) 
/var/tmp/pbs.5076255.sched01/tmp3npnc3rz/42_8qtnw6u.sdf

>  <i_m_source_file_index>  (157) 
26

>  <i_lp_mmshare_version>  (157) 
48012

>  <i_f3d_flags>  (157) 
0

>  <s_epik_input>  (157) 
W0NIM11uMVtjSF1bY0hdbmMxW0NIMl1OKFtDSDJdW0NIMl0yKVtDSDJdYyhuMjMpW2NIXW5uMw==

>  <s_epik_cmdline>  (157) 
J2VwaWtfcHl0aG9uJywgJy1waHQnLCAnMi4wJywgJy1waCcsICc3LjAnLCAnLXRuJywgJzgnLCAnLW1hJywgJzIwMCcsICctaW1hZScsICc8aW5maWxlLm1hZT4nLCAnLW9tYWUnLCAnPG91dGZpbGUubWFlPic=

>  <r_epik_Ionization_Penalty>  (157) 
0.116729

>  <r_epik_Ionization_Penalty_Charging>  (157) 
0

>  <r_epik_Ionization_Penalty_Neutral>  (157) 
0.116729

>  <r_epik_State_Penalty>  (157) 
0.68104

>  <r_epik_Charging_Adjusted_Penalty>  (157) 
0.68104

>  <i_epik_Tot_Q>  (157) 
1

>  <i_epik_Tot_abs_Q>  (157) 
1

>  <s_lp_Force_Field>  (157) 
OPLS3e

>  <r_lp_Energy>  (157) 
23.8469

>  <b_lp_Chiralities_Consistent>  (157) 
1

>  <s_lp_Variant>  (157) 
46:0-2

>  <s_i_glide_gridfile>  (157) 
pfpi4k_grid

>  <i_i_glide_lignum>  (157) 
26

>  <i_i_glide_rotatable_bonds>  (157) 
2

>  <r_i_docking_score>  (157) 
-4.07168

>  <r_i_glide_ligand_efficiency>  (157) 
-0.25448

>  <r_i_glide_ligand_efficiency_sa>  (157) 
-0.641249

>  <r_i_glide_ligand_efficiency_ln>  (157) 
-1.07928

>  <r_i_glide_gscore>  (157) 
-4.07168

>  <r_i_glide_lipo>  (157) 
-0.466899

>  <r_i_glide_hbond>  (157) 
0

>  <r_i_glide_metal>  (157) 
-0

>  <r_i_glide_rewards>  (157) 
-1.91409

>  <r_i_glide_evdw>  (157) 
-18.4385

>  <r_i_glide_ecoul>  (157) 
-8.97041

>  <r_i_glide_erotb>  (157) 
0.699957

>  <r_i_glide_esite>  (157) 
-0.123158

>  <r_i_glide_emodel>  (157) 
-32.4773

>  <r_i_glide_energy>  (157) 
-27.4089

>  <r_i_glide_einternal>  (157) 
4.06133

>  <r_i_glide_intrahb_reward>  (157) 
-0

>  <i_i_glide_confnum>  (157) 
5

>  <i_i_glide_posenum>  (157) 
8

>  <r_i_glide_eff_state_penalty>  (157) 
0

>  <ligand_id>  (157) 
46

>  <original_smiles>  (157) 
Cn1ccnc1CN1CCn2nncc2C1

>  <smiles>  (157) 
[H]c1nnn2c1C([H])([H])N(C([H])([H])c1n(C([H])([H])[H])c([H])c([H])[n+]1[H])C([H])([H])C2([H])[H]

$$$$
46:1:1
     RDKit          3D

 31 33  0  0  1  0  0  0  0  0999 V2000
    4.8995   -3.2786    2.9263 C   0  0  0  0  0  0  0  0  0  0  0  0
    4.2635   -1.9467    2.7353 N   0  0  0  0  0  0  0  0  0  0  0  0
    3.1415   -1.5605    3.4185 C   0  0  0  0  0  0  0  0  0  0  0  0
    2.8327   -0.2723    3.0551 C   0  0  0  0  0  0  0  0  0  0  0  0
    3.7808    0.0933    2.1467 N   0  0  0  0  0  0  0  0  0  0  0  0
    4.6396   -0.9214    1.9193 C   0  0  0  0  0  0  0  0  0  0  0  0
    5.7583   -0.8540    0.9105 C   0  0  0  0  0  0  0  0  0  0  0  0
    5.5248   -1.4720   -0.4011 N   0  0  0  0  0  0  0  0  0  0  0  0
    5.2827   -2.9131   -0.2420 C   0  0  0  0  0  0  0  0  0  0  0  0
    5.2102   -3.7109   -1.5210 C   0  0  0  0  0  0  0  0  0  0  0  0
    4.4485   -2.9676   -2.4816 N   0  0  0  0  0  0  0  0  0  0  0  0
    4.0821   -3.4691   -3.6768 N   0  0  0  0  0  0  0  0  0  0  0  0
    3.4985   -2.5355   -4.3232 N   0  0  0  0  0  0  0  0  0  0  0  0
    3.4666   -1.3639   -3.5366 C   0  0  0  0  0  0  0  0  0  0  0  0
    4.0862   -1.6478   -2.3509 C   0  0  0  0  0  0  0  0  0  0  0  0
    4.3803   -0.9017   -1.1074 C   0  0  0  0  0  0  0  0  0  0  0  0
    4.1687   -3.9055    3.4413 H   0  0  0  0  0  0  0  0  0  0  0  0
    5.8112   -3.1406    3.4841 H   0  0  0  0  0  0  0  0  0  0  0  0
    5.0903   -3.8244    2.0019 H   0  0  0  0  0  0  0  0  0  0  0  0
    2.6388   -2.2246    4.1116 H   0  0  0  0  0  0  0  0  0  0  0  0
    2.0236    0.3872    3.3817 H   0  0  0  0  0  0  0  0  0  0  0  0
    5.9723    0.2067    0.7294 H   0  0  0  0  0  0  0  0  0  0  0  0
    6.6446   -1.2677    1.3950 H   0  0  0  0  0  0  0  0  0  0  0  0
    6.1004   -3.3321    0.3256 H   0  0  0  0  0  0  0  0  0  0  0  0
    4.3181   -3.0407    0.2442 H   0  0  0  0  0  0  0  0  0  0  0  0
    6.2127   -3.8615   -1.9004 H   0  0  0  0  0  0  0  0  0  0  0  0
    4.7421   -4.6847   -1.3446 H   0  0  0  0  0  0  0  0  0  0  0  0
    3.0377   -0.4423   -3.8760 H   0  0  0  0  0  0  0  0  0  0  0  0
    3.4880   -0.9047   -0.4630 H   0  0  0  0  0  0  0  0  0  0  0  0
    4.6125    0.1525   -1.3365 H   0  0  0  0  0  0  0  0  0  0  0  0
    3.8119    1.0103    1.6822 H   0  0  0  0  0  0  0  0  0  0  0  0
  1  2  1  0
  1 17  1  0
  1 18  1  0
  1 19  1  0
  2  6  1  0
  2  3  1  0
  3  4  2  0
  3 20  1  0
  4  5  1  0
  4 21  1  0
  5  6  2  0
  5 31  1  0
  6  7  1  0
  7  8  1  0
  7 22  1  0
  7 23  1  0
  8 16  1  0
  8  9  1  0
  9 10  1  0
  9 24  1  0
  9 25  1  0
 10 11  1  0
 10 26  1  0
 10 27  1  0
 11 15  1  0
 11 12  1  0
 12 13  2  0
 13 14  1  0
 14 15  2  0
 14 28  1  0
 15 16  1  0
 16 29  1  0
 16 30  1  0
M  CHG  1   5   1
M  END
>  <i_m_ct_stereo_status>  (158) 
1

>  <s_m_source_file>  (158) 
/var/tmp/pbs.5076255.sched01/tmp3npnc3rz/42_8qtnw6u.sdf

>  <i_m_source_file_index>  (158) 
26

>  <i_lp_mmshare_version>  (158) 
48012

>  <i_f3d_flags>  (158) 
0

>  <s_epik_input>  (158) 
W0NIM11uMVtjSF1bY0hdbmMxW0NIMl1OKFtDSDJdW0NIMl0yKVtDSDJdYyhuMjMpW2NIXW5uMw==

>  <s_epik_cmdline>  (158) 
J2VwaWtfcHl0aG9uJywgJy1waHQnLCAnMi4wJywgJy1waCcsICc3LjAnLCAnLXRuJywgJzgnLCAnLW1hJywgJzIwMCcsICctaW1hZScsICc8aW5maWxlLm1hZT4nLCAnLW9tYWUnLCAnPG91dGZpbGUubWFlPic=

>  <r_epik_Ionization_Penalty>  (158) 
0.116729

>  <r_epik_Ionization_Penalty_Charging>  (158) 
0

>  <r_epik_Ionization_Penalty_Neutral>  (158) 
0.116729

>  <r_epik_State_Penalty>  (158) 
0.68104

>  <r_epik_Charging_Adjusted_Penalty>  (158) 
0.68104

>  <i_epik_Tot_Q>  (158) 
1

>  <i_epik_Tot_abs_Q>  (158) 
1

>  <s_lp_Force_Field>  (158) 
OPLS3e

>  <r_lp_Energy>  (158) 
23.8469

>  <b_lp_Chiralities_Consistent>  (158) 
1

>  <s_lp_Variant>  (158) 
46:0-2

>  <s_i_glide_gridfile>  (158) 
pfpi4k_grid

>  <i_i_glide_lignum>  (158) 
26

>  <i_i_glide_rotatable_bonds>  (158) 
2

>  <r_i_docking_score>  (158) 
-3.78817

>  <r_i_glide_ligand_efficiency>  (158) 
-0.236761

>  <r_i_glide_ligand_efficiency_sa>  (158) 
-0.596599

>  <r_i_glide_ligand_efficiency_ln>  (158) 
-1.00413

>  <r_i_glide_gscore>  (158) 
-3.78817

>  <r_i_glide_lipo>  (158) 
-0.406698

>  <r_i_glide_hbond>  (158) 
0

>  <r_i_glide_metal>  (158) 
-0

>  <r_i_glide_rewards>  (158) 
-2.08245

>  <r_i_glide_evdw>  (158) 
-21.2024

>  <r_i_glide_ecoul>  (158) 
-5.97862

>  <r_i_glide_erotb>  (158) 
0.699957

>  <r_i_glide_esite>  (158) 
-0.0420663

>  <r_i_glide_emodel>  (158) 
-29.1697

>  <r_i_glide_energy>  (158) 
-27.181

>  <r_i_glide_einternal>  (158) 
5.96383

>  <r_i_glide_intrahb_reward>  (158) 
-0

>  <i_i_glide_confnum>  (158) 
5

>  <i_i_glide_posenum>  (158) 
9

>  <r_i_glide_eff_state_penalty>  (158) 
0

>  <ligand_id>  (158) 
46

>  <original_smiles>  (158) 
Cn1ccnc1CN1CCn2nncc2C1

>  <smiles>  (158) 
[H]c1nnn2c1C([H])([H])N(C([H])([H])c1n(C([H])([H])[H])c([H])c([H])[n+]1[H])C([H])([H])C2([H])[H]

$$$$
46:1:2
     RDKit          3D

 31 33  0  0  1  0  0  0  0  0999 V2000
    4.7785   -0.6970   -1.8847 C   0  0  0  0  0  0  0  0  0  0  0  0
    3.8020   -1.6740   -2.3596 N   0  0  0  0  0  0  0  0  0  0  0  0
    3.0341   -1.5399   -3.4866 C   0  0  0  0  0  0  0  0  0  0  0  0
    2.2555   -2.6599   -3.5628 C   0  0  0  0  0  0  0  0  0  0  0  0
    2.5823   -3.4389   -2.4903 N   0  0  0  0  0  0  0  0  0  0  0  0
    3.5157   -2.8382   -1.7441 C   0  0  0  0  0  0  0  0  0  0  0  0
    4.0927   -3.3920   -0.4738 C   0  0  0  0  0  0  0  0  0  0  0  0
    3.2225   -3.2359    0.6912 N   0  0  0  0  0  0  0  0  0  0  0  0
    3.7792   -3.9185    1.8707 C   0  0  0  0  0  0  0  0  0  0  0  0
    2.7286   -3.9421    3.0153 C   0  0  0  0  0  0  0  0  0  0  0  0
    2.1150   -2.6377    3.1538 N   0  0  0  0  0  0  0  0  0  0  0  0
    1.3051   -2.3070    4.1867 N   0  0  0  0  0  0  0  0  0  0  0  0
    0.8775   -1.1030    3.9495 N   0  0  0  0  0  0  0  0  0  0  0  0
    1.4106   -0.6481    2.7359 C   0  0  0  0  0  0  0  0  0  0  0  0
    2.2005   -1.6379    2.2286 C   0  0  0  0  0  0  0  0  0  0  0  0
    3.0475   -1.8152    1.0187 C   0  0  0  0  0  0  0  0  0  0  0  0
    4.5781    0.2497   -2.3873 H   0  0  0  0  0  0  0  0  0  0  0  0
    5.7824   -1.0420   -2.1352 H   0  0  0  0  0  0  0  0  0  0  0  0
    4.6809   -0.5483   -0.8094 H   0  0  0  0  0  0  0  0  0  0  0  0
    3.0766   -0.6716   -4.1337 H   0  0  0  0  0  0  0  0  0  0  0  0
    1.5104   -2.9478   -4.2937 H   0  0  0  0  0  0  0  0  0  0  0  0
    4.2478   -4.4566   -0.6649 H   0  0  0  0  0  0  0  0  0  0  0  0
    5.0701   -2.9316   -0.3150 H   0  0  0  0  0  0  0  0  0  0  0  0
    4.0689   -4.9409    1.6318 H   0  0  0  0  0  0  0  0  0  0  0  0
    4.6815   -3.4043    2.2069 H   0  0  0  0  0  0  0  0  0  0  0  0
    1.9355   -4.6597    2.7922 H   0  0  0  0  0  0  0  0  0  0  0  0
    3.1794   -4.2297    3.9664 H   0  0  0  0  0  0  0  0  0  0  0  0
    1.1772    0.3250    2.3302 H   0  0  0  0  0  0  0  0  0  0  0  0
    4.0215   -1.3630    1.2008 H   0  0  0  0  0  0  0  0  0  0  0  0
    2.6180   -1.2788    0.1823 H   0  0  0  0  0  0  0  0  0  0  0  0
    2.1977   -4.3641   -2.3074 H   0  0  0  0  0  0  0  0  0  0  0  0
  1  2  1  0
  1 17  1  0
  1 18  1  0
  1 19  1  0
  2  6  1  0
  2  3  1  0
  3  4  2  0
  3 20  1  0
  4  5  1  0
  4 21  1  0
  5  6  2  0
  5 31  1  0
  6  7  1  0
  7  8  1  0
  7 22  1  0
  7 23  1  0
  8 16  1  0
  8  9  1  0
  9 10  1  0
  9 24  1  0
  9 25  1  0
 10 11  1  0
 10 26  1  0
 10 27  1  0
 11 15  1  0
 11 12  1  0
 12 13  2  0
 13 14  1  0
 14 15  2  0
 14 28  1  0
 15 16  1  0
 16 29  1  0
 16 30  1  0
M  CHG  1   5   1
M  END
>  <i_m_ct_stereo_status>  (159) 
1

>  <s_m_source_file>  (159) 
/var/tmp/pbs.5076255.sched01/tmp3npnc3rz/42_8qtnw6u.sdf

>  <i_m_source_file_index>  (159) 
26

>  <i_lp_mmshare_version>  (159) 
48012

>  <i_f3d_flags>  (159) 
0

>  <s_epik_input>  (159) 
W0NIM11uMVtjSF1bY0hdbmMxW0NIMl1OKFtDSDJdW0NIMl0yKVtDSDJdYyhuMjMpW2NIXW5uMw==

>  <s_epik_cmdline>  (159) 
J2VwaWtfcHl0aG9uJywgJy1waHQnLCAnMi4wJywgJy1waCcsICc3LjAnLCAnLXRuJywgJzgnLCAnLW1hJywgJzIwMCcsICctaW1hZScsICc8aW5maWxlLm1hZT4nLCAnLW9tYWUnLCAnPG91dGZpbGUubWFlPic=

>  <r_epik_Ionization_Penalty>  (159) 
0.116729

>  <r_epik_Ionization_Penalty_Charging>  (159) 
0

>  <r_epik_Ionization_Penalty_Neutral>  (159) 
0.116729

>  <r_epik_State_Penalty>  (159) 
0.68104

>  <r_epik_Charging_Adjusted_Penalty>  (159) 
0.68104

>  <i_epik_Tot_Q>  (159) 
1

>  <i_epik_Tot_abs_Q>  (159) 
1

>  <s_lp_Force_Field>  (159) 
OPLS3e

>  <r_lp_Energy>  (159) 
23.8469

>  <b_lp_Chiralities_Consistent>  (159) 
1

>  <s_lp_Variant>  (159) 
46:0-2

>  <s_i_glide_gridfile>  (159) 
pfpi4k_grid

>  <i_i_glide_lignum>  (159) 
26

>  <i_i_glide_rotatable_bonds>  (159) 
2

>  <r_i_docking_score>  (159) 
-3.34545

>  <r_i_glide_ligand_efficiency>  (159) 
-0.209091

>  <r_i_glide_ligand_efficiency_sa>  (159) 
-0.526876

>  <r_i_glide_ligand_efficiency_ln>  (159) 
-0.886779

>  <r_i_glide_gscore>  (159) 
-3.34545

>  <r_i_glide_lipo>  (159) 
-0.480616

>  <r_i_glide_hbond>  (159) 
0

>  <r_i_glide_metal>  (159) 
-0

>  <r_i_glide_rewards>  (159) 
-1.91409

>  <r_i_glide_evdw>  (159) 
-18.7745

>  <r_i_glide_ecoul>  (159) 
-4.30069

>  <r_i_glide_erotb>  (159) 
0.699957

>  <r_i_glide_esite>  (159) 
-0.0668688

>  <r_i_glide_emodel>  (159) 
-28.9671

>  <r_i_glide_energy>  (159) 
-23.0752

>  <r_i_glide_einternal>  (159) 
0.0562936

>  <r_i_glide_intrahb_reward>  (159) 
-0

>  <i_i_glide_confnum>  (159) 
4

>  <i_i_glide_posenum>  (159) 
13

>  <r_i_glide_eff_state_penalty>  (159) 
0

>  <ligand_id>  (159) 
46

>  <original_smiles>  (159) 
Cn1ccnc1CN1CCn2nncc2C1

>  <smiles>  (159) 
[H]c1nnn2c1C([H])([H])N(C([H])([H])c1n(C([H])([H])[H])c([H])c([H])[n+]1[H])C([H])([H])C2([H])[H]

$$$$
46:2:0
     RDKit          3D

 30 32  0  0  1  0  0  0  0  0999 V2000
    3.0615    0.1919    1.3920 C   0  0  0  0  0  0  0  0  0  0  0  0
    3.7911   -0.8284    2.1255 N   0  0  0  0  0  0  0  0  0  0  0  0
    3.2757   -1.5424    3.1939 C   0  0  0  0  0  0  0  0  0  0  0  0
    4.2656   -2.3814    3.6646 C   0  0  0  0  0  0  0  0  0  0  0  0
    5.3972   -2.2054    2.8749 N   0  0  0  0  0  0  0  0  0  0  0  0
    5.0614   -1.2954    1.9625 C   0  0  0  0  0  0  0  0  0  0  0  0
    6.0335   -0.8683    0.8930 C   0  0  0  0  0  0  0  0  0  0  0  0
    5.8575   -1.4810   -0.4302 N   0  0  0  0  0  0  0  0  0  0  0  0
    5.7397   -2.9473   -0.3222 C   0  0  0  0  0  0  0  0  0  0  0  0
    5.6914   -3.5897   -1.7287 C   0  0  0  0  0  0  0  0  0  0  0  0
    4.8062   -2.8620   -2.6095 N   0  0  0  0  0  0  0  0  0  0  0  0
    4.3433   -3.3167   -3.7937 N   0  0  0  0  0  0  0  0  0  0  0  0
    3.6112   -2.3832   -4.3189 N   0  0  0  0  0  0  0  0  0  0  0  0
    3.5709   -1.2863   -3.4322 C   0  0  0  0  0  0  0  0  0  0  0  0
    4.3418   -1.5944   -2.3666 C   0  0  0  0  0  0  0  0  0  0  0  0
    4.6279   -0.9999   -1.0493 C   0  0  0  0  0  0  0  0  0  0  0  0
    2.2809    0.6186    2.0295 H   0  0  0  0  0  0  0  0  0  0  0  0
    2.5850   -0.2377    0.5073 H   0  0  0  0  0  0  0  0  0  0  0  0
    3.7357    0.9895    1.0755 H   0  0  0  0  0  0  0  0  0  0  0  0
    2.2670   -1.3999    3.5243 H   0  0  0  0  0  0  0  0  0  0  0  0
    4.2469   -3.0732    4.4911 H   0  0  0  0  0  0  0  0  0  0  0  0
    6.0225    0.2207    0.7994 H   0  0  0  0  0  0  0  0  0  0  0  0
    7.0441   -1.1257    1.2369 H   0  0  0  0  0  0  0  0  0  0  0  0
    6.5574   -3.3619    0.2639 H   0  0  0  0  0  0  0  0  0  0  0  0
    4.8247   -3.2121    0.2096 H   0  0  0  0  0  0  0  0  0  0  0  0
    6.6807   -3.5310   -2.1827 H   0  0  0  0  0  0  0  0  0  0  0  0
    5.3695   -4.6376   -1.6719 H   0  0  0  0  0  0  0  0  0  0  0  0
    2.9480   -0.4188   -3.6136 H   0  0  0  0  0  0  0  0  0  0  0  0
    3.8183   -1.3610   -0.4307 H   0  0  0  0  0  0  0  0  0  0  0  0
    4.5963    0.0864   -1.0936 H   0  0  0  0  0  0  0  0  0  0  0  0
  1  2  1  0
  1 17  1  0
  1 18  1  0
  1 19  1  0
  2  6  1  0
  2  3  1  0
  3  4  2  0
  3 20  1  0
  4  5  1  0
  4 21  1  0
  5  6  2  0
  6  7  1  0
  7  8  1  0
  7 22  1  0
  7 23  1  0
  8 16  1  0
  8  9  1  0
  9 10  1  0
  9 24  1  0
  9 25  1  0
 10 11  1  0
 10 26  1  0
 10 27  1  0
 11 15  1  0
 11 12  1  0
 12 13  2  0
 13 14  1  0
 14 15  2  0
 14 28  1  0
 15 16  1  0
 16 29  1  0
 16 30  1  0
M  END
>  <i_m_ct_stereo_status>  (160) 
1

>  <s_m_source_file>  (160) 
/var/tmp/pbs.5076255.sched01/tmp3npnc3rz/42_8qtnw6u.sdf

>  <i_m_source_file_index>  (160) 
27

>  <i_lp_mmshare_version>  (160) 
48012

>  <i_f3d_flags>  (160) 
0

>  <s_epik_input>  (160) 
W0NIM11uMVtjSF1bY0hdbmMxW0NIMl1OKFtDSDJdW0NIMl0yKVtDSDJdYyhuMjMpW2NIXW5uMw==

>  <s_epik_cmdline>  (160) 
J2VwaWtfcHl0aG9uJywgJy1waHQnLCAnMi4wJywgJy1waCcsICc3LjAnLCAnLXRuJywgJzgnLCAnLW1hJywgJzIwMCcsICctaW1hZScsICc8aW5maWxlLm1hZT4nLCAnLW9tYWUnLCAnPG91dGZpbGUubWFlPic=

>  <r_lp_tautomer_probability>  (160) 
1

>  <r_epik_Ionization_Penalty>  (160) 
3.87348

>  <r_epik_Ionization_Penalty_Charging>  (160) 
1.73746

>  <r_epik_Ionization_Penalty_Neutral>  (160) 
2.13603

>  <r_epik_State_Penalty>  (160) 
2.50044

>  <r_epik_Charging_Adjusted_Penalty>  (160) 
4.2379

>  <i_epik_Tot_Q>  (160) 
0

>  <i_epik_Tot_abs_Q>  (160) 
0

>  <s_lp_Force_Field>  (160) 
OPLS3e

>  <r_lp_Energy>  (160) 
17.7339

>  <b_lp_Chiralities_Consistent>  (160) 
1

>  <s_lp_Variant>  (160) 
46:0-3

>  <s_i_glide_gridfile>  (160) 
pfpi4k_grid

>  <i_i_glide_lignum>  (160) 
27

>  <i_i_glide_rotatable_bonds>  (160) 
2

>  <r_i_docking_score>  (160) 
-3.95692

>  <r_i_glide_ligand_efficiency>  (160) 
-0.247307

>  <r_i_glide_ligand_efficiency_sa>  (160) 
-0.623176

>  <r_i_glide_ligand_efficiency_ln>  (160) 
-1.04886

>  <r_i_glide_gscore>  (160) 
-3.95692

>  <r_i_glide_lipo>  (160) 
-0.45844

>  <r_i_glide_hbond>  (160) 
-0.000288015

>  <r_i_glide_metal>  (160) 
-0

>  <r_i_glide_rewards>  (160) 
-2.24306

>  <r_i_glide_evdw>  (160) 
-22.7524

>  <r_i_glide_ecoul>  (160) 
-5.16821

>  <r_i_glide_erotb>  (160) 
0.705416

>  <r_i_glide_esite>  (160) 
-0.0476916

>  <r_i_glide_emodel>  (160) 
-31.5001

>  <r_i_glide_energy>  (160) 
-27.9207

>  <r_i_glide_einternal>  (160) 
3.81941

>  <r_i_glide_intrahb_reward>  (160) 
-0

>  <i_i_glide_confnum>  (160) 
5

>  <i_i_glide_posenum>  (160) 
32

>  <r_i_glide_eff_state_penalty>  (160) 
0

>  <ligand_id>  (160) 
46

>  <original_smiles>  (160) 
Cn1ccnc1CN1CCn2nncc2C1

>  <smiles>  (160) 
[H]c1nnn2c1C([H])([H])N(C([H])([H])c1nc([H])c([H])n1C([H])([H])[H])C([H])([H])C2([H])[H]

$$$$
46:2:1
     RDKit          3D

 30 32  0  0  1  0  0  0  0  0999 V2000
    2.4840   -2.8061   -2.8631 C   0  0  0  0  0  0  0  0  0  0  0  0
    3.9180   -2.7904   -2.6480 N   0  0  0  0  0  0  0  0  0  0  0  0
    4.8168   -3.6784   -3.2184 C   0  0  0  0  0  0  0  0  0  0  0  0
    6.0553   -3.3393   -2.7394 C   0  0  0  0  0  0  0  0  0  0  0  0
    5.9541   -2.2314   -1.9188 N   0  0  0  0  0  0  0  0  0  0  0  0
    4.6549   -1.9563   -1.8792 C   0  0  0  0  0  0  0  0  0  0  0  0
    4.0756   -0.8475   -1.0553 C   0  0  0  0  0  0  0  0  0  0  0  0
    4.3204   -0.9934    0.3792 N   0  0  0  0  0  0  0  0  0  0  0  0
    5.7013   -0.6299    0.7426 C   0  0  0  0  0  0  0  0  0  0  0  0
    6.0054   -1.0748    2.1879 C   0  0  0  0  0  0  0  0  0  0  0  0
    4.9264   -0.6705    3.0572 N   0  0  0  0  0  0  0  0  0  0  0  0
    5.0109   -0.7289    4.4032 N   0  0  0  0  0  0  0  0  0  0  0  0
    3.8477   -0.3761    4.8565 N   0  0  0  0  0  0  0  0  0  0  0  0
    2.9909   -0.0953    3.7872 C   0  0  0  0  0  0  0  0  0  0  0  0
    3.6844   -0.2824    2.6269 C   0  0  0  0  0  0  0  0  0  0  0  0
    3.4010   -0.1559    1.1615 C   0  0  0  0  0  0  0  0  0  0  0  0
    2.1868   -3.7705   -3.2792 H   0  0  0  0  0  0  0  0  0  0  0  0
    2.2146   -2.0174   -3.5663 H   0  0  0  0  0  0  0  0  0  0  0  0
    1.9503   -2.6634   -1.9227 H   0  0  0  0  0  0  0  0  0  0  0  0
    4.5107   -4.4788   -3.8771 H   0  0  0  0  0  0  0  0  0  0  0  0
    7.0093   -3.7989   -2.9404 H   0  0  0  0  0  0  0  0  0  0  0  0
    4.5006    0.0906   -1.4063 H   0  0  0  0  0  0  0  0  0  0  0  0
    3.0079   -0.7938   -1.2461 H   0  0  0  0  0  0  0  0  0  0  0  0
    6.4517   -1.1031    0.1169 H   0  0  0  0  0  0  0  0  0  0  0  0
    5.8379    0.4465    0.6235 H   0  0  0  0  0  0  0  0  0  0  0  0
    6.0991   -2.1590    2.2399 H   0  0  0  0  0  0  0  0  0  0  0  0
    6.9473   -0.6564    2.5379 H   0  0  0  0  0  0  0  0  0  0  0  0
    1.9663    0.2057    3.9366 H   0  0  0  0  0  0  0  0  0  0  0  0
    3.5136    0.8898    0.8769 H   0  0  0  0  0  0  0  0  0  0  0  0
    2.3682   -0.4384    0.9626 H   0  0  0  0  0  0  0  0  0  0  0  0
  1  2  1  0
  1 17  1  0
  1 18  1  0
  1 19  1  0
  2  6  1  0
  2  3  1  0
  3  4  2  0
  3 20  1  0
  4  5  1  0
  4 21  1  0
  5  6  2  0
  6  7  1  0
  7  8  1  0
  7 22  1  0
  7 23  1  0
  8 16  1  0
  8  9  1  0
  9 10  1  0
  9 24  1  0
  9 25  1  0
 10 11  1  0
 10 26  1  0
 10 27  1  0
 11 15  1  0
 11 12  1  0
 12 13  2  0
 13 14  1  0
 14 15  2  0
 14 28  1  0
 15 16  1  0
 16 29  1  0
 16 30  1  0
M  END
>  <i_m_ct_stereo_status>  (161) 
1

>  <s_m_source_file>  (161) 
/var/tmp/pbs.5076255.sched01/tmp3npnc3rz/42_8qtnw6u.sdf

>  <i_m_source_file_index>  (161) 
27

>  <i_lp_mmshare_version>  (161) 
48012

>  <i_f3d_flags>  (161) 
0

>  <s_epik_input>  (161) 
W0NIM11uMVtjSF1bY0hdbmMxW0NIMl1OKFtDSDJdW0NIMl0yKVtDSDJdYyhuMjMpW2NIXW5uMw==

>  <s_epik_cmdline>  (161) 
J2VwaWtfcHl0aG9uJywgJy1waHQnLCAnMi4wJywgJy1waCcsICc3LjAnLCAnLXRuJywgJzgnLCAnLW1hJywgJzIwMCcsICctaW1hZScsICc8aW5maWxlLm1hZT4nLCAnLW9tYWUnLCAnPG91dGZpbGUubWFlPic=

>  <r_lp_tautomer_probability>  (161) 
1

>  <r_epik_Ionization_Penalty>  (161) 
3.87348

>  <r_epik_Ionization_Penalty_Charging>  (161) 
1.73746

>  <r_epik_Ionization_Penalty_Neutral>  (161) 
2.13603

>  <r_epik_State_Penalty>  (161) 
2.50044

>  <r_epik_Charging_Adjusted_Penalty>  (161) 
4.2379

>  <i_epik_Tot_Q>  (161) 
0

>  <i_epik_Tot_abs_Q>  (161) 
0

>  <s_lp_Force_Field>  (161) 
OPLS3e

>  <r_lp_Energy>  (161) 
17.7339

>  <b_lp_Chiralities_Consistent>  (161) 
1

>  <s_lp_Variant>  (161) 
46:0-3

>  <s_i_glide_gridfile>  (161) 
pfpi4k_grid

>  <i_i_glide_lignum>  (161) 
27

>  <i_i_glide_rotatable_bonds>  (161) 
2

>  <r_i_docking_score>  (161) 
-3.63032

>  <r_i_glide_ligand_efficiency>  (161) 
-0.226895

>  <r_i_glide_ligand_efficiency_sa>  (161) 
-0.57174

>  <r_i_glide_ligand_efficiency_ln>  (161) 
-0.96229

>  <r_i_glide_gscore>  (161) 
-3.63032

>  <r_i_glide_lipo>  (161) 
-0.655271

>  <r_i_glide_hbond>  (161) 
-0.00147699

>  <r_i_glide_metal>  (161) 
-0

>  <r_i_glide_rewards>  (161) 
-2.07457

>  <r_i_glide_evdw>  (161) 
-20.5849

>  <r_i_glide_ecoul>  (161) 
-3.65976

>  <r_i_glide_erotb>  (161) 
0.705416

>  <r_i_glide_esite>  (161) 
-0.0262136

>  <r_i_glide_emodel>  (161) 
-29.5514

>  <r_i_glide_energy>  (161) 
-24.2447

>  <r_i_glide_einternal>  (161) 
1.90039

>  <r_i_glide_intrahb_reward>  (161) 
-0

>  <i_i_glide_confnum>  (161) 
6

>  <i_i_glide_posenum>  (161) 
36

>  <r_i_glide_eff_state_penalty>  (161) 
0

>  <ligand_id>  (161) 
46

>  <original_smiles>  (161) 
Cn1ccnc1CN1CCn2nncc2C1

>  <smiles>  (161) 
[H]c1nnn2c1C([H])([H])N(C([H])([H])c1nc([H])c([H])n1C([H])([H])[H])C([H])([H])C2([H])[H]

$$$$
46:2:2
     RDKit          3D

 30 32  0  0  1  0  0  0  0  0999 V2000
    4.7147   -3.8490    3.3454 C   0  0  0  0  0  0  0  0  0  0  0  0
    4.8280   -2.4042    3.2550 N   0  0  0  0  0  0  0  0  0  0  0  0
    4.3237   -1.4970    4.1773 C   0  0  0  0  0  0  0  0  0  0  0  0
    4.6519   -0.2422    3.7216 C   0  0  0  0  0  0  0  0  0  0  0  0
    5.3797   -0.3609    2.5464 N   0  0  0  0  0  0  0  0  0  0  0  0
    5.4324   -1.6659    2.2986 C   0  0  0  0  0  0  0  0  0  0  0  0
    6.1037   -2.2598    1.0917 C   0  0  0  0  0  0  0  0  0  0  0  0
    5.2761   -2.2094   -0.1124 N   0  0  0  0  0  0  0  0  0  0  0  0
    5.2201   -0.8488   -0.6716 C   0  0  0  0  0  0  0  0  0  0  0  0
    4.1381   -0.7544   -1.7718 C   0  0  0  0  0  0  0  0  0  0  0  0
    4.2303   -1.8906   -2.6558 N   0  0  0  0  0  0  0  0  0  0  0  0
    3.5303   -1.9745   -3.8025 N   0  0  0  0  0  0  0  0  0  0  0  0
    3.7885   -3.1476   -4.2942 N   0  0  0  0  0  0  0  0  0  0  0  0
    4.6497   -3.8402   -3.4402 C   0  0  0  0  0  0  0  0  0  0  0  0
    4.9429   -3.0289   -2.3854 C   0  0  0  0  0  0  0  0  0  0  0  0
    5.7722   -3.1269   -1.1461 C   0  0  0  0  0  0  0  0  0  0  0  0
    3.9320   -4.1122    4.0582 H   0  0  0  0  0  0  0  0  0  0  0  0
    5.6587   -4.2732    3.6926 H   0  0  0  0  0  0  0  0  0  0  0  0
    4.4562   -4.2775    2.3757 H   0  0  0  0  0  0  0  0  0  0  0  0
    3.7847   -1.8069    5.0597 H   0  0  0  0  0  0  0  0  0  0  0  0
    4.4283    0.7247    4.1467 H   0  0  0  0  0  0  0  0  0  0  0  0
    7.0351   -1.7210    0.9143 H   0  0  0  0  0  0  0  0  0  0  0  0
    6.3810   -3.2911    1.3113 H   0  0  0  0  0  0  0  0  0  0  0  0
    5.0034   -0.0915    0.0811 H   0  0  0  0  0  0  0  0  0  0  0  0
    6.1973   -0.6070   -1.0865 H   0  0  0  0  0  0  0  0  0  0  0  0
    3.1443   -0.7647   -1.3201 H   0  0  0  0  0  0  0  0  0  0  0  0
    4.2362    0.1615   -2.3550 H   0  0  0  0  0  0  0  0  0  0  0  0
    4.9689   -4.8511   -3.6386 H   0  0  0  0  0  0  0  0  0  0  0  0
    6.8100   -2.8933   -1.3879 H   0  0  0  0  0  0  0  0  0  0  0  0
    5.7457   -4.1484   -0.7719 H   0  0  0  0  0  0  0  0  0  0  0  0
  1  2  1  0
  1 17  1  0
  1 18  1  0
  1 19  1  0
  2  6  1  0
  2  3  1  0
  3  4  2  0
  3 20  1  0
  4  5  1  0
  4 21  1  0
  5  6  2  0
  6  7  1  0
  7  8  1  0
  7 22  1  0
  7 23  1  0
  8 16  1  0
  8  9  1  0
  9 10  1  0
  9 24  1  0
  9 25  1  0
 10 11  1  0
 10 26  1  0
 10 27  1  0
 11 15  1  0
 11 12  1  0
 12 13  2  0
 13 14  1  0
 14 15  2  0
 14 28  1  0
 15 16  1  0
 16 29  1  0
 16 30  1  0
M  END
>  <i_m_ct_stereo_status>  (162) 
1

>  <s_m_source_file>  (162) 
/var/tmp/pbs.5076255.sched01/tmp3npnc3rz/42_8qtnw6u.sdf

>  <i_m_source_file_index>  (162) 
27

>  <i_lp_mmshare_version>  (162) 
48012

>  <i_f3d_flags>  (162) 
0

>  <s_epik_input>  (162) 
W0NIM11uMVtjSF1bY0hdbmMxW0NIMl1OKFtDSDJdW0NIMl0yKVtDSDJdYyhuMjMpW2NIXW5uMw==

>  <s_epik_cmdline>  (162) 
J2VwaWtfcHl0aG9uJywgJy1waHQnLCAnMi4wJywgJy1waCcsICc3LjAnLCAnLXRuJywgJzgnLCAnLW1hJywgJzIwMCcsICctaW1hZScsICc8aW5maWxlLm1hZT4nLCAnLW9tYWUnLCAnPG91dGZpbGUubWFlPic=

>  <r_lp_tautomer_probability>  (162) 
1

>  <r_epik_Ionization_Penalty>  (162) 
3.87348

>  <r_epik_Ionization_Penalty_Charging>  (162) 
1.73746

>  <r_epik_Ionization_Penalty_Neutral>  (162) 
2.13603

>  <r_epik_State_Penalty>  (162) 
2.50044

>  <r_epik_Charging_Adjusted_Penalty>  (162) 
4.2379

>  <i_epik_Tot_Q>  (162) 
0

>  <i_epik_Tot_abs_Q>  (162) 
0

>  <s_lp_Force_Field>  (162) 
OPLS3e

>  <r_lp_Energy>  (162) 
17.7339

>  <b_lp_Chiralities_Consistent>  (162) 
1

>  <s_lp_Variant>  (162) 
46:0-3

>  <s_i_glide_gridfile>  (162) 
pfpi4k_grid

>  <i_i_glide_lignum>  (162) 
27

>  <i_i_glide_rotatable_bonds>  (162) 
2

>  <r_i_docking_score>  (162) 
-3.35028

>  <r_i_glide_ligand_efficiency>  (162) 
-0.209392

>  <r_i_glide_ligand_efficiency_sa>  (162) 
-0.527635

>  <r_i_glide_ligand_efficiency_ln>  (162) 
-0.888057

>  <r_i_glide_gscore>  (162) 
-3.35028

>  <r_i_glide_lipo>  (162) 
-0.422958

>  <r_i_glide_hbond>  (162) 
-0.0752322

>  <r_i_glide_metal>  (162) 
-0

>  <r_i_glide_rewards>  (162) 
-2.12589

>  <r_i_glide_evdw>  (162) 
-20.6456

>  <r_i_glide_ecoul>  (162) 
-2.43502

>  <r_i_glide_erotb>  (162) 
0.705416

>  <r_i_glide_esite>  (162) 
-0.0340753

>  <r_i_glide_emodel>  (162) 
-28.017

>  <r_i_glide_energy>  (162) 
-23.0806

>  <r_i_glide_einternal>  (162) 
1.83129

>  <r_i_glide_intrahb_reward>  (162) 
-0

>  <i_i_glide_confnum>  (162) 
6

>  <i_i_glide_posenum>  (162) 
10

>  <r_i_glide_eff_state_penalty>  (162) 
0

>  <ligand_id>  (162) 
46

>  <original_smiles>  (162) 
Cn1ccnc1CN1CCn2nncc2C1

>  <smiles>  (162) 
[H]c1nnn2c1C([H])([H])N(C([H])([H])c1nc([H])c([H])n1C([H])([H])[H])C([H])([H])C2([H])[H]

$$$$
47:0:0
     RDKit          3D

 15 16  0  0  1  0  0  0  0  0999 V2000
    1.1002    1.0555    2.1988 N   0  0  0  0  0  0  0  0  0  0  0  0
    0.4922    0.5291    3.0337 C   0  0  0  0  0  0  0  0  0  0  0  0
   -0.2662   -0.1002    4.0602 C   0  0  0  0  0  0  0  0  0  0  0  0
   -1.4260    0.2637    4.8060 C   0  0  0  0  0  0  0  0  0  0  0  0
   -1.8167   -0.6619    5.6937 N   0  0  0  0  0  0  0  0  0  0  0  0
   -0.9408   -1.7019    5.6191 N   0  0  0  0  0  0  0  0  0  0  0  0
   -0.9875   -2.8084    6.3614 N   0  0  0  0  0  0  0  0  0  0  0  0
   -0.0051   -3.7000    6.0752 C   0  0  0  0  0  0  0  0  0  0  0  0
    0.9964   -3.4758    5.0779 C   0  0  0  0  0  0  0  0  0  0  0  0
    1.0068   -2.2666    4.3175 C   0  0  0  0  0  0  0  0  0  0  0  0
   -0.0301   -1.3680    4.6387 C   0  0  0  0  0  0  0  0  0  0  0  0
   -1.9972    1.1715    4.7144 H   0  0  0  0  0  0  0  0  0  0  0  0
   -0.0124   -4.6164    6.6468 H   0  0  0  0  0  0  0  0  0  0  0  0
    1.7532   -4.2425    4.9172 H   0  0  0  0  0  0  0  0  0  0  0  0
    1.7278   -2.0275    3.5639 H   0  0  0  0  0  0  0  0  0  0  0  0
  1  2  3  0
  2  3  1  0
  3 11  2  0
  3  4  1  0
  4  5  2  0
  4 12  1  0
  5  6  1  0
  6 11  1  0
  6  7  1  0
  7  8  2  0
  8  9  1  0
  8 13  1  0
  9 10  2  0
  9 14  1  0
 10 11  1  0
 10 15  1  0
M  END
>  <i_m_ct_stereo_status>  (163) 
1

>  <s_m_source_file>  (163) 
/var/tmp/pbs.5076255.sched01/tmp3npnc3rz/42_8qtnw6u.sdf

>  <i_m_source_file_index>  (163) 
28

>  <i_lp_mmshare_version>  (163) 
48012

>  <i_f3d_flags>  (163) 
0

>  <s_epik_input>  (163) 
TiNDYyhbY0hdbjEpYyhuMTIpW2NIXVtjSF1bY0hdbjI=

>  <s_epik_cmdline>  (163) 
J2VwaWtfcHl0aG9uJywgJy1waHQnLCAnMi4wJywgJy1waCcsICc3LjAnLCAnLXRuJywgJzgnLCAnLW1hJywgJzIwMCcsICctaW1hZScsICc8aW5maWxlLm1hZT4nLCAnLW9tYWUnLCAnPG91dGZpbGUubWFlPic=

>  <r_lp_tautomer_probability>  (163) 
1

>  <r_epik_Ionization_Penalty>  (163) 
1.05294e-08

>  <r_epik_Ionization_Penalty_Charging>  (163) 
0

>  <r_epik_Ionization_Penalty_Neutral>  (163) 
1.05294e-08

>  <r_epik_State_Penalty>  (163) 
-0

>  <r_epik_Charging_Adjusted_Penalty>  (163) 
0

>  <i_epik_Tot_Q>  (163) 
0

>  <i_epik_Tot_abs_Q>  (163) 
0

>  <s_lp_Force_Field>  (163) 
OPLS3e

>  <r_lp_Energy>  (163) 
13.3343

>  <b_lp_Chiralities_Consistent>  (163) 
1

>  <s_lp_Variant>  (163) 
47:0-1

>  <s_i_glide_gridfile>  (163) 
pfpi4k_grid

>  <i_i_glide_lignum>  (163) 
28

>  <i_i_glide_rotatable_bonds>  (163) 
1

>  <r_i_docking_score>  (163) 
-3.55072

>  <r_i_glide_ligand_efficiency>  (163) 
-0.322793

>  <r_i_glide_ligand_efficiency_sa>  (163) 
-0.717884

>  <r_i_glide_ligand_efficiency_ln>  (163) 
-1.04498

>  <r_i_glide_gscore>  (163) 
-3.55072

>  <r_i_glide_lipo>  (163) 
-0.0164538

>  <r_i_glide_hbond>  (163) 
-0.0501242

>  <r_i_glide_metal>  (163) 
-0

>  <r_i_glide_rewards>  (163) 
-2.25

>  <r_i_glide_evdw>  (163) 
-13.3964

>  <r_i_glide_ecoul>  (163) 
-3.29054

>  <r_i_glide_erotb>  (163) 
0

>  <r_i_glide_esite>  (163) 
-0.0707402

>  <r_i_glide_emodel>  (163) 
-21.1248

>  <r_i_glide_energy>  (163) 
-16.6869

>  <r_i_glide_einternal>  (163) 
-0.364006

>  <r_i_glide_intrahb_reward>  (163) 
-0

>  <i_i_glide_confnum>  (163) 
1

>  <i_i_glide_posenum>  (163) 
2

>  <r_i_glide_eff_state_penalty>  (163) 
0

>  <ligand_id>  (163) 
47

>  <original_smiles>  (163) 
N#Cc1cnn2ncccc12

>  <smiles>  (163) 
[H]c1nn2nc([H])c(C#N)c2c([H])c1[H]

$$$$
47:0:1
     RDKit          3D

 15 16  0  0  1  0  0  0  0  0999 V2000
   -2.1550   -0.4501    5.6064 N   0  0  0  0  0  0  0  0  0  0  0  0
   -1.1937   -0.7454    5.0266 C   0  0  0  0  0  0  0  0  0  0  0  0
   -0.0176   -1.1489    4.3256 C   0  0  0  0  0  0  0  0  0  0  0  0
    0.7095   -2.3720    4.2861 C   0  0  0  0  0  0  0  0  0  0  0  0
    1.7771   -2.3535    3.4876 N   0  0  0  0  0  0  0  0  0  0  0  0
    1.8513   -1.1057    2.9303 N   0  0  0  0  0  0  0  0  0  0  0  0
    2.7877   -0.6940    2.0850 N   0  0  0  0  0  0  0  0  0  0  0  0
    2.6224    0.5955    1.6790 C   0  0  0  0  0  0  0  0  0  0  0  0
    1.5511    1.4348    2.1063 C   0  0  0  0  0  0  0  0  0  0  0  0
    0.5704    0.9504    3.0201 C   0  0  0  0  0  0  0  0  0  0  0  0
    0.7727   -0.3807    3.4246 C   0  0  0  0  0  0  0  0  0  0  0  0
    0.4828   -3.2859    4.8185 H   0  0  0  0  0  0  0  0  0  0  0  0
    3.3686    0.9611    0.9954 H   0  0  0  0  0  0  0  0  0  0  0  0
    1.4907    2.4496    1.7325 H   0  0  0  0  0  0  0  0  0  0  0  0
   -0.2628    1.5268    3.3889 H   0  0  0  0  0  0  0  0  0  0  0  0
  1  2  3  0
  2  3  1  0
  3 11  2  0
  3  4  1  0
  4  5  2  0
  4 12  1  0
  5  6  1  0
  6 11  1  0
  6  7  1  0
  7  8  2  0
  8  9  1  0
  8 13  1  0
  9 10  2  0
  9 14  1  0
 10 11  1  0
 10 15  1  0
M  END
>  <i_m_ct_stereo_status>  (164) 
1

>  <s_m_source_file>  (164) 
/var/tmp/pbs.5076255.sched01/tmp3npnc3rz/42_8qtnw6u.sdf

>  <i_m_source_file_index>  (164) 
28

>  <i_lp_mmshare_version>  (164) 
48012

>  <i_f3d_flags>  (164) 
0

>  <s_epik_input>  (164) 
TiNDYyhbY0hdbjEpYyhuMTIpW2NIXVtjSF1bY0hdbjI=

>  <s_epik_cmdline>  (164) 
J2VwaWtfcHl0aG9uJywgJy1waHQnLCAnMi4wJywgJy1waCcsICc3LjAnLCAnLXRuJywgJzgnLCAnLW1hJywgJzIwMCcsICctaW1hZScsICc8aW5maWxlLm1hZT4nLCAnLW9tYWUnLCAnPG91dGZpbGUubWFlPic=

>  <r_lp_tautomer_probability>  (164) 
1

>  <r_epik_Ionization_Penalty>  (164) 
1.05294e-08

>  <r_epik_Ionization_Penalty_Charging>  (164) 
0

>  <r_epik_Ionization_Penalty_Neutral>  (164) 
1.05294e-08

>  <r_epik_State_Penalty>  (164) 
-0

>  <r_epik_Charging_Adjusted_Penalty>  (164) 
0

>  <i_epik_Tot_Q>  (164) 
0

>  <i_epik_Tot_abs_Q>  (164) 
0

>  <s_lp_Force_Field>  (164) 
OPLS3e

>  <r_lp_Energy>  (164) 
13.3343

>  <b_lp_Chiralities_Consistent>  (164) 
1

>  <s_lp_Variant>  (164) 
47:0-1

>  <s_i_glide_gridfile>  (164) 
pfpi4k_grid

>  <i_i_glide_lignum>  (164) 
28

>  <i_i_glide_rotatable_bonds>  (164) 
1

>  <r_i_docking_score>  (164) 
-3.42053

>  <r_i_glide_ligand_efficiency>  (164) 
-0.310957

>  <r_i_glide_ligand_efficiency_sa>  (164) 
-0.691562

>  <r_i_glide_ligand_efficiency_ln>  (164) 
-1.00666

>  <r_i_glide_gscore>  (164) 
-3.42053

>  <r_i_glide_lipo>  (164) 
-0.0479304

>  <r_i_glide_hbond>  (164) 
-0.0576653

>  <r_i_glide_metal>  (164) 
-0

>  <r_i_glide_rewards>  (164) 
-2.25

>  <r_i_glide_evdw>  (164) 
-13.7188

>  <r_i_glide_ecoul>  (164) 
-2.1696

>  <r_i_glide_erotb>  (164) 
0

>  <r_i_glide_esite>  (164) 
-0.0535495

>  <r_i_glide_emodel>  (164) 
-20.1213

>  <r_i_glide_energy>  (164) 
-15.8884

>  <r_i_glide_einternal>  (164) 
-0.363989

>  <r_i_glide_intrahb_reward>  (164) 
-0

>  <i_i_glide_confnum>  (164) 
1

>  <i_i_glide_posenum>  (164) 
3

>  <r_i_glide_eff_state_penalty>  (164) 
0

>  <ligand_id>  (164) 
47

>  <original_smiles>  (164) 
N#Cc1cnn2ncccc12

>  <smiles>  (164) 
[H]c1nn2nc([H])c(C#N)c2c([H])c1[H]

$$$$
47:0:2
     RDKit          3D

 15 16  0  0  1  0  0  0  0  0999 V2000
    0.0923   -6.8523    8.1899 N   0  0  0  0  0  0  0  0  0  0  0  0
    0.2349   -6.6107    7.0622 C   0  0  0  0  0  0  0  0  0  0  0  0
    0.4186   -6.2949    5.6824 C   0  0  0  0  0  0  0  0  0  0  0  0
    1.1016   -5.2451    5.0064 C   0  0  0  0  0  0  0  0  0  0  0  0
    1.0184   -5.3012    3.6614 N   0  0  0  0  0  0  0  0  0  0  0  0
    0.2900   -6.4135    3.3500 N   0  0  0  0  0  0  0  0  0  0  0  0
   -0.0101   -6.8049    2.1227 N   0  0  0  0  0  0  0  0  0  0  0  0
   -0.7610   -7.9362    2.0807 C   0  0  0  0  0  0  0  0  0  0  0  0
   -1.2078   -8.6366    3.2316 C   0  0  0  0  0  0  0  0  0  0  0  0
   -0.8685   -8.1797    4.5295 C   0  0  0  0  0  0  0  0  0  0  0  0
   -0.0803   -7.0053    4.5511 C   0  0  0  0  0  0  0  0  0  0  0  0
    1.6518   -4.4292    5.4533 H   0  0  0  0  0  0  0  0  0  0  0  0
   -0.9996   -8.2911    1.0913 H   0  0  0  0  0  0  0  0  0  0  0  0
   -1.7963   -9.5407    3.1229 H   0  0  0  0  0  0  0  0  0  0  0  0
   -1.1551   -8.6689    5.4572 H   0  0  0  0  0  0  0  0  0  0  0  0
  1  2  3  0
  2  3  1  0
  3 11  2  0
  3  4  1  0
  4  5  2  0
  4 12  1  0
  5  6  1  0
  6 11  1  0
  6  7  1  0
  7  8  2  0
  8  9  1  0
  8 13  1  0
  9 10  2  0
  9 14  1  0
 10 11  1  0
 10 15  1  0
M  END
>  <i_m_ct_stereo_status>  (165) 
1

>  <s_m_source_file>  (165) 
/var/tmp/pbs.5076255.sched01/tmp3npnc3rz/42_8qtnw6u.sdf

>  <i_m_source_file_index>  (165) 
28

>  <i_lp_mmshare_version>  (165) 
48012

>  <i_f3d_flags>  (165) 
0

>  <s_epik_input>  (165) 
TiNDYyhbY0hdbjEpYyhuMTIpW2NIXVtjSF1bY0hdbjI=

>  <s_epik_cmdline>  (165) 
J2VwaWtfcHl0aG9uJywgJy1waHQnLCAnMi4wJywgJy1waCcsICc3LjAnLCAnLXRuJywgJzgnLCAnLW1hJywgJzIwMCcsICctaW1hZScsICc8aW5maWxlLm1hZT4nLCAnLW9tYWUnLCAnPG91dGZpbGUubWFlPic=

>  <r_lp_tautomer_probability>  (165) 
1

>  <r_epik_Ionization_Penalty>  (165) 
1.05294e-08

>  <r_epik_Ionization_Penalty_Charging>  (165) 
0

>  <r_epik_Ionization_Penalty_Neutral>  (165) 
1.05294e-08

>  <r_epik_State_Penalty>  (165) 
-0

>  <r_epik_Charging_Adjusted_Penalty>  (165) 
0

>  <i_epik_Tot_Q>  (165) 
0

>  <i_epik_Tot_abs_Q>  (165) 
0

>  <s_lp_Force_Field>  (165) 
OPLS3e

>  <r_lp_Energy>  (165) 
13.3343

>  <b_lp_Chiralities_Consistent>  (165) 
1

>  <s_lp_Variant>  (165) 
47:0-1

>  <s_i_glide_gridfile>  (165) 
pfpi4k_grid

>  <i_i_glide_lignum>  (165) 
28

>  <i_i_glide_rotatable_bonds>  (165) 
1

>  <r_i_docking_score>  (165) 
-3.401

>  <r_i_glide_ligand_efficiency>  (165) 
-0.309182

>  <r_i_glide_ligand_efficiency_sa>  (165) 
-0.687614

>  <r_i_glide_ligand_efficiency_ln>  (165) 
-1.00091

>  <r_i_glide_gscore>  (165) 
-3.401

>  <r_i_glide_lipo>  (165) 
0

>  <r_i_glide_hbond>  (165) 
-0.095844

>  <r_i_glide_metal>  (165) 
-0

>  <r_i_glide_rewards>  (165) 
-2.25

>  <r_i_glide_evdw>  (165) 
-12.6465

>  <r_i_glide_ecoul>  (165) 
-2.37104

>  <r_i_glide_erotb>  (165) 
0

>  <r_i_glide_esite>  (165) 
-0.0671766

>  <r_i_glide_emodel>  (165) 
-19.2498

>  <r_i_glide_energy>  (165) 
-15.0175

>  <r_i_glide_einternal>  (165) 
-0.372913

>  <r_i_glide_intrahb_reward>  (165) 
-0

>  <i_i_glide_confnum>  (165) 
2

>  <i_i_glide_posenum>  (165) 
31

>  <r_i_glide_eff_state_penalty>  (165) 
0

>  <ligand_id>  (165) 
47

>  <original_smiles>  (165) 
N#Cc1cnn2ncccc12

>  <smiles>  (165) 
[H]c1nn2nc([H])c(C#N)c2c([H])c1[H]

$$$$
48:0:0
     RDKit          3D

 19 19  0  0  1  0  0  0  0  0999 V2000
    3.3325    0.0015   -4.7768 C   0  0  0  0  0  0  0  0  0  0  0  0
    3.9040   -1.3021   -4.6614 O   0  0  0  0  0  0  0  0  0  0  0  0
    4.2148   -1.7605   -3.3933 C   0  0  0  0  0  0  0  0  0  0  0  0
    4.2039   -0.9765   -2.2879 C   0  0  0  0  0  0  0  0  0  0  0  0
    4.5298   -1.5005   -0.9518 C   0  0  0  0  0  0  0  0  0  0  0  0
    4.5190   -0.7590    0.0346 O   0  0  0  0  0  0  0  0  0  0  0  0
    4.8825   -2.9334   -0.8573 C   0  0  0  0  0  0  0  0  0  0  0  0
    5.2051   -3.4276    0.5399 C   0  0  0  0  0  0  0  0  0  0  0  0
    4.9037   -3.7225   -1.9576 C   0  0  0  0  0  0  0  0  0  0  0  0
    4.5748   -3.1987   -3.3047 C   0  0  0  0  0  0  0  0  0  0  0  0
    4.6163   -3.9271   -4.2997 O   0  0  0  0  0  0  0  0  0  0  0  0
    3.0440    0.2477   -5.7889 H   0  0  0  0  0  0  0  0  0  0  0  0
    4.0401    0.7649   -4.4339 H   0  0  0  0  0  0  0  0  0  0  0  0
    2.4364    0.0546   -4.1564 H   0  0  0  0  0  0  0  0  0  0  0  0
    3.9749    0.0787   -2.3212 H   0  0  0  0  0  0  0  0  0  0  0  0
    6.0433   -2.8641    0.9579 H   0  0  0  0  0  0  0  0  0  0  0  0
    5.4668   -4.4853    0.5362 H   0  0  0  0  0  0  0  0  0  0  0  0
    4.3438   -3.2859    1.1984 H   0  0  0  0  0  0  0  0  0  0  0  0
    5.1561   -4.7728   -1.8682 H   0  0  0  0  0  0  0  0  0  0  0  0
  1  2  1  0
  1 12  1  0
  1 13  1  0
  1 14  1  0
  2  3  1  0
  3 10  1  0
  3  4  2  0
  4  5  1  0
  4 15  1  0
  5  6  2  0
  5  7  1  0
  7  8  1  0
  7  9  2  0
  8 16  1  0
  8 17  1  0
  8 18  1  0
  9 10  1  0
  9 19  1  0
 10 11  2  0
M  END
>  <i_m_ct_stereo_status>  (166) 
1

>  <s_m_source_file>  (166) 
/var/tmp/pbs.5076255.sched01/tmp3npnc3rz/42_8qtnw6u.sdf

>  <i_m_source_file_index>  (166) 
29

>  <i_lp_mmshare_version>  (166) 
48012

>  <i_f3d_flags>  (166) 
0

>  <s_epik_input>  (166) 
W0NIM11PQzE9W0NIXUMoPU8pQyhbQ0gzXSk9W0NIXUMxPU8=

>  <s_epik_cmdline>  (166) 
J2VwaWtfcHl0aG9uJywgJy1waHQnLCAnMi4wJywgJy1waCcsICc3LjAnLCAnLXRuJywgJzgnLCAnLW1hJywgJzIwMCcsICctaW1hZScsICc8aW5maWxlLm1hZT4nLCAnLW9tYWUnLCAnPG91dGZpbGUubWFlPic=

>  <r_lp_tautomer_probability>  (166) 
1

>  <r_epik_Ionization_Penalty>  (166) 
0

>  <r_epik_Ionization_Penalty_Charging>  (166) 
0

>  <r_epik_Ionization_Penalty_Neutral>  (166) 
0

>  <r_epik_State_Penalty>  (166) 
-0

>  <r_epik_Charging_Adjusted_Penalty>  (166) 
0

>  <i_epik_Tot_Q>  (166) 
0

>  <i_epik_Tot_abs_Q>  (166) 
0

>  <s_lp_Force_Field>  (166) 
OPLS3e

>  <r_lp_Energy>  (166) 
19.2838

>  <b_lp_Chiralities_Consistent>  (166) 
1

>  <s_lp_Variant>  (166) 
48:0-1

>  <s_i_glide_gridfile>  (166) 
pfpi4k_grid

>  <i_i_glide_lignum>  (166) 
29

>  <i_i_glide_rotatable_bonds>  (166) 
1

>  <r_i_docking_score>  (166) 
-4.80052

>  <r_i_glide_ligand_efficiency>  (166) 
-0.436411

>  <r_i_glide_ligand_efficiency_sa>  (166) 
-0.970569

>  <r_i_glide_ligand_efficiency_ln>  (166) 
-1.41279

>  <r_i_glide_gscore>  (166) 
-4.80052

>  <r_i_glide_lipo>  (166) 
-0.368567

>  <r_i_glide_hbond>  (166) 
-0.330279

>  <r_i_glide_metal>  (166) 
-0

>  <r_i_glide_rewards>  (166) 
-2.48456

>  <r_i_glide_evdw>  (166) 
-21.7511

>  <r_i_glide_ecoul>  (166) 
-3.26749

>  <r_i_glide_erotb>  (166) 
0

>  <r_i_glide_esite>  (166) 
-0.0394335

>  <r_i_glide_emodel>  (166) 
-32.2411

>  <r_i_glide_energy>  (166) 
-25.0186

>  <r_i_glide_einternal>  (166) 
0.0251604

>  <r_i_glide_intrahb_reward>  (166) 
-0

>  <i_i_glide_confnum>  (166) 
1

>  <i_i_glide_posenum>  (166) 
14

>  <r_i_glide_eff_state_penalty>  (166) 
0

>  <ligand_id>  (166) 
48

>  <original_smiles>  (166) 
COC1=CC(=O)C(C)=CC1=O

>  <smiles>  (166) 
[H]C1=C(OC([H])([H])[H])C(=O)C([H])=C(C([H])([H])[H])C1=O

$$$$
48:0:1
     RDKit          3D

 19 19  0  0  1  0  0  0  0  0999 V2000
    2.0614   -5.5466    0.7215 C   0  0  0  0  0  0  0  0  0  0  0  0
    0.8493   -6.2244    1.0689 O   0  0  0  0  0  0  0  0  0  0  0  0
    0.9623   -7.4461    1.7174 C   0  0  0  0  0  0  0  0  0  0  0  0
    2.0946   -8.1782    1.7617 C   0  0  0  0  0  0  0  0  0  0  0  0
    2.1789   -9.4406    2.5021 C   0  0  0  0  0  0  0  0  0  0  0  0
    3.2416  -10.0501    2.5504 O   0  0  0  0  0  0  0  0  0  0  0  0
    0.9600   -9.9149    3.1983 C   0  0  0  0  0  0  0  0  0  0  0  0
    1.1151  -11.2296    3.9369 C   0  0  0  0  0  0  0  0  0  0  0  0
   -0.1805   -9.1905    3.1719 C   0  0  0  0  0  0  0  0  0  0  0  0
   -0.2577   -7.8911    2.4465 C   0  0  0  0  0  0  0  0  0  0  0  0
   -1.2800   -7.2056    2.4746 O   0  0  0  0  0  0  0  0  0  0  0  0
    1.8957   -4.5595    0.2956 H   0  0  0  0  0  0  0  0  0  0  0  0
    2.6293   -6.1198   -0.0105 H   0  0  0  0  0  0  0  0  0  0  0  0
    2.6715   -5.4211    1.6173 H   0  0  0  0  0  0  0  0  0  0  0  0
    3.0343   -7.9140    1.2797 H   0  0  0  0  0  0  0  0  0  0  0  0
    1.4021  -12.0188    3.2360 H   0  0  0  0  0  0  0  0  0  0  0  0
    0.1856  -11.5144    4.4276 H   0  0  0  0  0  0  0  0  0  0  0  0
    1.8937  -11.1503    4.7025 H   0  0  0  0  0  0  0  0  0  0  0  0
   -1.0670   -9.5424    3.6949 H   0  0  0  0  0  0  0  0  0  0  0  0
  1  2  1  0
  1 12  1  0
  1 13  1  0
  1 14  1  0
  2  3  1  0
  3 10  1  0
  3  4  2  0
  4  5  1  0
  4 15  1  0
  5  6  2  0
  5  7  1  0
  7  8  1  0
  7  9  2  0
  8 16  1  0
  8 17  1  0
  8 18  1  0
  9 10  1  0
  9 19  1  0
 10 11  2  0
M  END
>  <i_m_ct_stereo_status>  (167) 
1

>  <s_m_source_file>  (167) 
/var/tmp/pbs.5076255.sched01/tmp3npnc3rz/42_8qtnw6u.sdf

>  <i_m_source_file_index>  (167) 
29

>  <i_lp_mmshare_version>  (167) 
48012

>  <i_f3d_flags>  (167) 
0

>  <s_epik_input>  (167) 
W0NIM11PQzE9W0NIXUMoPU8pQyhbQ0gzXSk9W0NIXUMxPU8=

>  <s_epik_cmdline>  (167) 
J2VwaWtfcHl0aG9uJywgJy1waHQnLCAnMi4wJywgJy1waCcsICc3LjAnLCAnLXRuJywgJzgnLCAnLW1hJywgJzIwMCcsICctaW1hZScsICc8aW5maWxlLm1hZT4nLCAnLW9tYWUnLCAnPG91dGZpbGUubWFlPic=

>  <r_lp_tautomer_probability>  (167) 
1

>  <r_epik_Ionization_Penalty>  (167) 
0

>  <r_epik_Ionization_Penalty_Charging>  (167) 
0

>  <r_epik_Ionization_Penalty_Neutral>  (167) 
0

>  <r_epik_State_Penalty>  (167) 
-0

>  <r_epik_Charging_Adjusted_Penalty>  (167) 
0

>  <i_epik_Tot_Q>  (167) 
0

>  <i_epik_Tot_abs_Q>  (167) 
0

>  <s_lp_Force_Field>  (167) 
OPLS3e

>  <r_lp_Energy>  (167) 
19.2838

>  <b_lp_Chiralities_Consistent>  (167) 
1

>  <s_lp_Variant>  (167) 
48:0-1

>  <s_i_glide_gridfile>  (167) 
pfpi4k_grid

>  <i_i_glide_lignum>  (167) 
29

>  <i_i_glide_rotatable_bonds>  (167) 
1

>  <r_i_docking_score>  (167) 
-4.4964

>  <r_i_glide_ligand_efficiency>  (167) 
-0.408764

>  <r_i_glide_ligand_efficiency_sa>  (167) 
-0.909083

>  <r_i_glide_ligand_efficiency_ln>  (167) 
-1.32329

>  <r_i_glide_gscore>  (167) 
-4.4964

>  <r_i_glide_lipo>  (167) 
-0.239397

>  <r_i_glide_hbond>  (167) 
-0.32

>  <r_i_glide_metal>  (167) 
-0

>  <r_i_glide_rewards>  (167) 
-2.31607

>  <r_i_glide_evdw>  (167) 
-17.0686

>  <r_i_glide_ecoul>  (167) 
-4.73017

>  <r_i_glide_erotb>  (167) 
0

>  <r_i_glide_esite>  (167) 
-0.0579774

>  <r_i_glide_emodel>  (167) 
-28.4061

>  <r_i_glide_energy>  (167) 
-21.7987

>  <r_i_glide_einternal>  (167) 
0.161248

>  <r_i_glide_intrahb_reward>  (167) 
-0

>  <i_i_glide_confnum>  (167) 
1

>  <i_i_glide_posenum>  (167) 
35

>  <r_i_glide_eff_state_penalty>  (167) 
0

>  <ligand_id>  (167) 
48

>  <original_smiles>  (167) 
COC1=CC(=O)C(C)=CC1=O

>  <smiles>  (167) 
[H]C1=C(OC([H])([H])[H])C(=O)C([H])=C(C([H])([H])[H])C1=O

$$$$
48:0:2
     RDKit          3D

 19 19  0  0  1  0  0  0  0  0999 V2000
    3.6939    0.5405   -4.5553 C   0  0  0  0  0  0  0  0  0  0  0  0
    3.1297   -0.6935   -4.1368 O   0  0  0  0  0  0  0  0  0  0  0  0
    3.7988   -1.3822   -3.1400 C   0  0  0  0  0  0  0  0  0  0  0  0
    4.4388   -0.7943   -2.1136 C   0  0  0  0  0  0  0  0  0  0  0  0
    5.2350   -1.5518   -1.1253 C   0  0  0  0  0  0  0  0  0  0  0  0
    5.8267   -0.9835   -0.2225 O   0  0  0  0  0  0  0  0  0  0  0  0
    5.3511   -3.0141   -1.3324 C   0  0  0  0  0  0  0  0  0  0  0  0
    6.1881   -3.7672   -0.3167 C   0  0  0  0  0  0  0  0  0  0  0  0
    4.7354   -3.6086   -2.3599 C   0  0  0  0  0  0  0  0  0  0  0  0
    3.9224   -2.8468   -3.3439 C   0  0  0  0  0  0  0  0  0  0  0  0
    3.3985   -3.4029   -4.3057 O   0  0  0  0  0  0  0  0  0  0  0  0
    2.9936    1.0550   -5.2098 H   0  0  0  0  0  0  0  0  0  0  0  0
    4.5974    0.3247   -5.1202 H   0  0  0  0  0  0  0  0  0  0  0  0
    3.9584    1.2417   -3.7774 H   0  0  0  0  0  0  0  0  0  0  0  0
    4.3944    0.2561   -1.9283 H   0  0  0  0  0  0  0  0  0  0  0  0
    7.2127   -3.4003   -0.3112 H   0  0  0  0  0  0  0  0  0  0  0  0
    6.1994   -4.8296   -0.5443 H   0  0  0  0  0  0  0  0  0  0  0  0
    5.7696   -3.6441    0.6799 H   0  0  0  0  0  0  0  0  0  0  0  0
    4.8111   -4.6743   -2.5214 H   0  0  0  0  0  0  0  0  0  0  0  0
  1  2  1  0
  1 12  1  0
  1 13  1  0
  1 14  1  0
  2  3  1  0
  3 10  1  0
  3  4  2  0
  4  5  1  0
  4 15  1  0
  5  6  2  0
  5  7  1  0
  7  8  1  0
  7  9  2  0
  8 16  1  0
  8 17  1  0
  8 18  1  0
  9 10  1  0
  9 19  1  0
 10 11  2  0
M  END
>  <i_m_ct_stereo_status>  (168) 
1

>  <s_m_source_file>  (168) 
/var/tmp/pbs.5076255.sched01/tmp3npnc3rz/42_8qtnw6u.sdf

>  <i_m_source_file_index>  (168) 
29

>  <i_lp_mmshare_version>  (168) 
48012

>  <i_f3d_flags>  (168) 
0

>  <s_epik_input>  (168) 
W0NIM11PQzE9W0NIXUMoPU8pQyhbQ0gzXSk9W0NIXUMxPU8=

>  <s_epik_cmdline>  (168) 
J2VwaWtfcHl0aG9uJywgJy1waHQnLCAnMi4wJywgJy1waCcsICc3LjAnLCAnLXRuJywgJzgnLCAnLW1hJywgJzIwMCcsICctaW1hZScsICc8aW5maWxlLm1hZT4nLCAnLW9tYWUnLCAnPG91dGZpbGUubWFlPic=

>  <r_lp_tautomer_probability>  (168) 
1

>  <r_epik_Ionization_Penalty>  (168) 
0

>  <r_epik_Ionization_Penalty_Charging>  (168) 
0

>  <r_epik_Ionization_Penalty_Neutral>  (168) 
0

>  <r_epik_State_Penalty>  (168) 
-0

>  <r_epik_Charging_Adjusted_Penalty>  (168) 
0

>  <i_epik_Tot_Q>  (168) 
0

>  <i_epik_Tot_abs_Q>  (168) 
0

>  <s_lp_Force_Field>  (168) 
OPLS3e

>  <r_lp_Energy>  (168) 
19.2838

>  <b_lp_Chiralities_Consistent>  (168) 
1

>  <s_lp_Variant>  (168) 
48:0-1

>  <s_i_glide_gridfile>  (168) 
pfpi4k_grid

>  <i_i_glide_lignum>  (168) 
29

>  <i_i_glide_rotatable_bonds>  (168) 
1

>  <r_i_docking_score>  (168) 
-4.08232

>  <r_i_glide_ligand_efficiency>  (168) 
-0.37112

>  <r_i_glide_ligand_efficiency_sa>  (168) 
-0.825364

>  <r_i_glide_ligand_efficiency_ln>  (168) 
-1.20143

>  <r_i_glide_gscore>  (168) 
-4.08232

>  <r_i_glide_lipo>  (168) 
-0.227645

>  <r_i_glide_hbond>  (168) 
-0.108533

>  <r_i_glide_metal>  (168) 
-0

>  <r_i_glide_rewards>  (168) 
-2.4564

>  <r_i_glide_evdw>  (168) 
-20.5652

>  <r_i_glide_ecoul>  (168) 
-1.46989

>  <r_i_glide_erotb>  (168) 
0

>  <r_i_glide_esite>  (168) 
-0.0410042

>  <r_i_glide_emodel>  (168) 
-27.6646

>  <r_i_glide_energy>  (168) 
-22.0351

>  <r_i_glide_einternal>  (168) 
0.593791

>  <r_i_glide_intrahb_reward>  (168) 
-0

>  <i_i_glide_confnum>  (168) 
1

>  <i_i_glide_posenum>  (168) 
18

>  <r_i_glide_eff_state_penalty>  (168) 
0

>  <ligand_id>  (168) 
48

>  <original_smiles>  (168) 
COC1=CC(=O)C(C)=CC1=O

>  <smiles>  (168) 
[H]C1=C(OC([H])([H])[H])C(=O)C([H])=C(C([H])([H])[H])C1=O

$$$$
49:0:0
     RDKit          3D

 55 60  0  0  1  0  0  0  0  0999 V2000
    3.0364   -1.3286    1.9292 C   0  0  0  0  0  0  0  0  0  0  0  0
    2.1028   -1.9524    2.8590 N   0  0  0  0  0  0  0  0  0  0  0  0
    2.1247   -3.2646    3.3052 C   0  0  0  0  0  0  0  0  0  0  0  0
    1.0900   -3.4950    4.1578 C   0  0  0  0  0  0  0  0  0  0  0  0
    0.3658   -2.2618    4.2702 C   0  0  0  0  0  0  0  0  0  0  0  0
   -0.7765   -1.8420    4.9854 C   0  0  0  0  0  0  0  0  0  0  0  0
   -1.2658   -0.5168    4.8799 C   0  0  0  0  0  0  0  0  0  0  0  0
   -0.6093    0.4118    4.0547 C   0  0  0  0  0  0  0  0  0  0  0  0
    0.5333    0.0184    3.3371 C   0  0  0  0  0  0  0  0  0  0  0  0
    1.0180   -1.3054    3.4427 C   0  0  0  0  0  0  0  0  0  0  0  0
    0.8938   -4.8548    4.7537 C   0  0  2  0  0  0  0  0  0  0  0  0
    1.5664   -4.9844    6.1418 C   0  0  0  0  0  0  0  0  0  0  0  0
    3.0860   -4.7827    6.0394 C   0  0  0  0  0  0  0  0  0  0  0  0
    3.8386   -3.8976    6.7481 C   0  0  0  0  0  0  0  0  0  0  0  0
    5.2445   -3.8470    6.5110 C   0  0  0  0  0  0  0  0  0  0  0  0
    6.3885   -3.7655    6.3456 N   0  0  0  0  0  0  0  0  0  0  0  0
    3.3173   -2.8726    7.6865 C   0  0  0  0  0  0  0  0  0  0  0  0
    2.1413   -2.1289    7.4471 C   0  0  0  0  0  0  0  0  0  0  0  0
    1.6316   -1.2420    8.3320 N   0  0  0  0  0  0  0  0  0  0  0  0
    2.3591   -1.0404    9.4513 C   0  0  0  0  0  0  0  0  0  0  0  0
    3.5704   -1.7215    9.6774 C   0  0  0  0  0  0  0  0  0  0  0  0
    4.0455   -2.6495    8.8092 N   0  0  0  0  0  0  0  0  0  0  0  0
    3.6645   -5.7475    4.9982 C   0  0  0  0  0  0  0  0  0  0  0  0
    2.8981   -5.6843    3.6499 C   0  0  2  0  0  0  0  0  0  0  0  0
    3.1117   -4.3257    2.9042 C   0  0  0  0  0  0  0  0  0  0  0  0
    1.4636   -5.9229    3.9173 N   0  0  0  0  0  0  0  0  0  0  0  0
    0.4744   -6.7409    2.7576 S   0  0  0  0  0  0  0  0  0  0  0  0
   -0.9115   -6.6617    3.2173 O   0  0  0  0  0  0  0  0  0  0  0  0
    0.8401   -6.2673    1.4230 O   0  0  0  0  0  0  0  0  0  0  0  0
    0.9631   -8.4353    2.9260 C   0  0  0  0  0  0  0  0  0  0  0  0
    0.3306   -9.4057    3.6822 C   0  0  0  0  0  0  0  0  0  0  0  0
    1.0188  -10.6463    3.6511 C   0  0  0  0  0  0  0  0  0  0  0  0
    2.1614  -10.6183    2.8801 C   0  0  0  0  0  0  0  0  0  0  0  0
    2.3849   -9.0576    2.1460 S   0  0  0  0  0  0  0  0  0  0  0  0
    3.7641   -2.0459    1.5535 H   0  0  0  0  0  0  0  0  0  0  0  0
    3.5688   -0.5201    2.4353 H   0  0  0  0  0  0  0  0  0  0  0  0
    2.4895   -0.9098    1.0817 H   0  0  0  0  0  0  0  0  0  0  0  0
   -1.2812   -2.5576    5.6138 H   0  0  0  0  0  0  0  0  0  0  0  0
   -2.1555   -0.2188    5.4237 H   0  0  0  0  0  0  0  0  0  0  0  0
   -0.9771    1.4298    3.9617 H   0  0  0  0  0  0  0  0  0  0  0  0
    1.0472    0.7148    2.6917 H   0  0  0  0  0  0  0  0  0  0  0  0
   -0.1666   -5.0178    4.9066 H   0  0  0  0  0  0  0  0  0  0  0  0
    1.0558   -4.3643    6.8755 H   0  0  0  0  0  0  0  0  0  0  0  0
    1.4042   -5.9900    6.5401 H   0  0  0  0  0  0  0  0  0  0  0  0
    1.5705   -2.2239    6.5488 H   0  0  0  0  0  0  0  0  0  0  0  0
    1.9705   -0.3098   10.1470 H   0  0  0  0  0  0  0  0  0  0  0  0
    4.1687   -1.5165   10.5550 H   0  0  0  0  0  0  0  0  0  0  0  0
    4.7270   -5.5833    4.8206 H   0  0  0  0  0  0  0  0  0  0  0  0
    3.5732   -6.7568    5.3986 H   0  0  0  0  0  0  0  0  0  0  0  0
    3.2961   -6.4822    3.0178 H   0  0  0  0  0  0  0  0  0  0  0  0
    3.0279   -4.4856    1.8313 H   0  0  0  0  0  0  0  0  0  0  0  0
    4.1234   -3.9649    3.0815 H   0  0  0  0  0  0  0  0  0  0  0  0
   -0.5784   -9.2617    4.2488 H   0  0  0  0  0  0  0  0  0  0  0  0
    0.6639  -11.5170    4.1942 H   0  0  0  0  0  0  0  0  0  0  0  0
    2.8552  -11.4155    2.6729 H   0  0  0  0  0  0  0  0  0  0  0  0
  1  2  1  0
  1 35  1  0
  1 36  1  0
  1 37  1  0
  2 10  1  0
  2  3  1  0
  3 25  1  0
  3  4  2  0
  4  5  1  0
  4 11  1  0
  5 10  2  0
  5  6  1  0
  6  7  2  0
  6 38  1  0
  7  8  1  0
  7 39  1  0
  8  9  2  0
  8 40  1  0
  9 10  1  0
  9 41  1  0
 11 26  1  0
 11 12  1  0
 11 42  1  1
 12 13  1  0
 12 43  1  0
 12 44  1  0
 13 14  2  3
 13 23  1  0
 14 15  1  0
 14 17  1  0
 15 16  3  0
 17 22  1  0
 17 18  2  0
 18 19  1  0
 18 45  1  0
 19 20  2  0
 20 21  1  0
 20 46  1  0
 21 22  2  0
 21 47  1  0
 23 24  1  0
 23 48  1  0
 23 49  1  0
 24 25  1  0
 24 26  1  0
 24 50  1  6
 25 51  1  0
 25 52  1  0
 26 27  1  0
 27 28  2  0
 27 29  2  0
 27 30  1  0
 30 34  1  0
 30 31  2  0
 31 32  1  0
 31 53  1  0
 32 33  2  0
 32 54  1  0
 33 34  1  0
 33 55  1  0
M  END
>  <i_m_ct_stereo_status>  (169) 
1

>  <s_m_source_file>  (169) 
/var/tmp/pbs.5076255.sched01/tmp3npnc3rz/42_8qtnw6u.sdf

>  <i_m_source_file_index>  (169) 
30

>  <i_lp_mmshare_version>  (169) 
48012

>  <i_f3d_flags>  (169) 
0

>  <s_epik_input>  (169) 
W2NIXTFbY0hdW2NIXVtjSF1jKG4yW0NIM10pYzFjKGMyMylbQ0hdNFtDSDJdL0MoPUMoL0MjTiljNVtjSF1uW2NIXVtjSF1uNSlbQ0gyXVtDQEhdKFtDSDJdMylONFMoPU8pKD1PKWM2W2NIXVtjSF1bY0hdczY=

>  <s_epik_cmdline>  (169) 
J2VwaWtfcHl0aG9uJywgJy1waHQnLCAnMi4wJywgJy1waCcsICc3LjAnLCAnLXRuJywgJzgnLCAnLW1hJywgJzIwMCcsICctaW1hZScsICc8aW5maWxlLm1hZT4nLCAnLW9tYWUnLCAnPG91dGZpbGUubWFlPic=

>  <r_lp_tautomer_probability>  (169) 
1

>  <r_epik_Ionization_Penalty>  (169) 
4.88345e-10

>  <r_epik_Ionization_Penalty_Charging>  (169) 
0

>  <r_epik_Ionization_Penalty_Neutral>  (169) 
4.88345e-10

>  <r_epik_State_Penalty>  (169) 
-0

>  <r_epik_Charging_Adjusted_Penalty>  (169) 
0

>  <i_epik_Tot_Q>  (169) 
0

>  <i_epik_Tot_abs_Q>  (169) 
0

>  <s_lp_Force_Field>  (169) 
OPLS3e

>  <r_lp_Energy>  (169) 
30.6836

>  <b_lp_Chiralities_Consistent>  (169) 
1

>  <s_lp_Variant>  (169) 
49:0-1

>  <s_i_glide_gridfile>  (169) 
pfpi4k_grid

>  <i_i_glide_lignum>  (169) 
30

>  <i_i_glide_rotatable_bonds>  (169) 
4

>  <r_i_docking_score>  (169) 
-2.33956

>  <r_i_glide_ligand_efficiency>  (169) 
-0.0688106

>  <r_i_glide_ligand_efficiency_sa>  (169) 
-0.22292

>  <r_i_glide_ligand_efficiency_ln>  (169) 
-0.516875

>  <r_i_glide_gscore>  (169) 
-2.33956

>  <r_i_glide_lipo>  (169) 
-0.240837

>  <r_i_glide_hbond>  (169) 
0

>  <r_i_glide_metal>  (169) 
-0

>  <r_i_glide_rewards>  (169) 
-0.0874273

>  <r_i_glide_evdw>  (169) 
-26.7298

>  <r_i_glide_ecoul>  (169) 
-4.33332

>  <r_i_glide_erotb>  (169) 
0.256534

>  <r_i_glide_esite>  (169) 
-0.281339

>  <r_i_glide_emodel>  (169) 
-34.0605

>  <r_i_glide_energy>  (169) 
-31.0632

>  <r_i_glide_einternal>  (169) 
3.85001

>  <r_i_glide_intrahb_reward>  (169) 
-0

>  <i_i_glide_confnum>  (169) 
1

>  <i_i_glide_posenum>  (169) 
40

>  <r_i_glide_eff_state_penalty>  (169) 
0

>  <ligand_id>  (169) 
49

>  <original_smiles>  (169) 
Cn1c2c(c3ccccc31)C1CC(=C(C#N)c3cnccn3)CC(C2)N1S(=O)(=O)c1cccs1

>  <smiles>  (169) 
[H]c1nc([H])c(C(C#N)=C2C([H])([H])C3([H])c4c(n(C([H])([H])[H])c5c([H])c([H])c([H])c([H])c45)C([H])([H])C([H])(N3S(=O)(=O)c3sc([H])c([H])c3[H])C2([H])[H])nc1[H]

$$$$
49:0:1
     RDKit          3D

 55 60  0  0  1  0  0  0  0  0999 V2000
    5.4184   -0.9749    6.0157 C   0  0  0  0  0  0  0  0  0  0  0  0
    4.4844   -1.5465    5.0575 N   0  0  0  0  0  0  0  0  0  0  0  0
    3.4504   -2.4329    5.3402 C   0  0  0  0  0  0  0  0  0  0  0  0
    2.7774   -2.7542    4.2029 C   0  0  0  0  0  0  0  0  0  0  0  0
    3.4207   -2.0607    3.1274 C   0  0  0  0  0  0  0  0  0  0  0  0
    3.2080   -1.9649    1.7356 C   0  0  0  0  0  0  0  0  0  0  0  0
    4.0281   -1.1520    0.9187 C   0  0  0  0  0  0  0  0  0  0  0  0
    5.0822   -0.4276    1.4870 C   0  0  0  0  0  0  0  0  0  0  0  0
    5.3177   -0.4994    2.8721 C   0  0  0  0  0  0  0  0  0  0  0  0
    4.4859   -1.3054    3.6888 C   0  0  0  0  0  0  0  0  0  0  0  0
    1.6254   -3.6999    4.2597 C   0  0  2  0  0  0  0  0  0  0  0  0
    0.2759   -2.9674    4.4041 C   0  0  0  0  0  0  0  0  0  0  0  0
    0.2234   -2.1686    5.7075 C   0  0  0  0  0  0  0  0  0  0  0  0
   -0.0617   -0.8512    5.8218 C   0  0  0  0  0  0  0  0  0  0  0  0
   -0.0755   -0.2580    7.1161 C   0  0  0  0  0  0  0  0  0  0  0  0
   -0.1383    0.2151    8.1695 N   0  0  0  0  0  0  0  0  0  0  0  0
   -0.2964    0.0892    4.7034 C   0  0  0  0  0  0  0  0  0  0  0  0
    0.4826    0.0783    3.5299 C   0  0  0  0  0  0  0  0  0  0  0  0
    0.2527    0.9154    2.4934 N   0  0  0  0  0  0  0  0  0  0  0  0
   -0.7415    1.8104    2.6558 C   0  0  0  0  0  0  0  0  0  0  0  0
   -1.4901    1.8753    3.8448 C   0  0  0  0  0  0  0  0  0  0  0  0
   -1.2844    1.0042    4.8678 N   0  0  0  0  0  0  0  0  0  0  0  0
    0.5257   -3.0912    6.8959 C   0  0  0  0  0  0  0  0  0  0  0  0
    1.8261   -3.9062    6.6830 C   0  0  2  0  0  0  0  0  0  0  0  0
    3.1059   -2.9982    6.6900 C   0  0  0  0  0  0  0  0  0  0  0  0
    1.7063   -4.6309    5.3950 N   0  0  0  0  0  0  0  0  0  0  0  0
    2.4326   -6.1767    5.1581 S   0  0  0  0  0  0  0  0  0  0  0  0
    3.5941   -6.0053    4.2735 O   0  0  0  0  0  0  0  0  0  0  0  0
    2.5509   -6.8319    6.4636 O   0  0  0  0  0  0  0  0  0  0  0  0
    1.1942   -7.0650    4.2485 C   0  0  0  0  0  0  0  0  0  0  0  0
    0.2093   -7.8582    4.7806 C   0  0  0  0  0  0  0  0  0  0  0  0
   -0.6445   -8.4165    3.7835 C   0  0  0  0  0  0  0  0  0  0  0  0
   -0.2974   -8.0472    2.5068 C   0  0  0  0  0  0  0  0  0  0  0  0
    1.1004   -7.0130    2.5014 S   0  0  0  0  0  0  0  0  0  0  0  0
    5.2675   -1.3753    7.0176 H   0  0  0  0  0  0  0  0  0  0  0  0
    5.3001    0.1087    6.0354 H   0  0  0  0  0  0  0  0  0  0  0  0
    6.4377   -1.1989    5.7081 H   0  0  0  0  0  0  0  0  0  0  0  0
    2.3913   -2.5125    1.2888 H   0  0  0  0  0  0  0  0  0  0  0  0
    3.8208   -1.0903   -0.1418 H   0  0  0  0  0  0  0  0  0  0  0  0
    5.7077    0.1987    0.8659 H   0  0  0  0  0  0  0  0  0  0  0  0
    6.1160    0.0570    3.3288 H   0  0  0  0  0  0  0  0  0  0  0  0
    1.6029   -4.2623    3.3301 H   0  0  0  0  0  0  0  0  0  0  0  0
    0.0551   -2.4064    3.4926 H   0  0  0  0  0  0  0  0  0  0  0  0
   -0.5246   -3.7104    4.4897 H   0  0  0  0  0  0  0  0  0  0  0  0
    1.3073   -0.5894    3.3839 H   0  0  0  0  0  0  0  0  0  0  0  0
   -0.9096    2.4927    1.8334 H   0  0  0  0  0  0  0  0  0  0  0  0
   -2.2506    2.6304    3.9844 H   0  0  0  0  0  0  0  0  0  0  0  0
    0.5870   -2.5509    7.8377 H   0  0  0  0  0  0  0  0  0  0  0  0
   -0.3033   -3.7938    6.9897 H   0  0  0  0  0  0  0  0  0  0  0  0
    1.8977   -4.6194    7.5123 H   0  0  0  0  0  0  0  0  0  0  0  0
    3.9588   -3.5828    7.0472 H   0  0  0  0  0  0  0  0  0  0  0  0
    2.9630   -2.1813    7.4032 H   0  0  0  0  0  0  0  0  0  0  0  0
    0.0883   -8.0643    5.8385 H   0  0  0  0  0  0  0  0  0  0  0  0
   -1.4578   -9.0806    4.0469 H   0  0  0  0  0  0  0  0  0  0  0  0
   -0.7504   -8.3584    1.5828 H   0  0  0  0  0  0  0  0  0  0  0  0
  1  2  1  0
  1 35  1  0
  1 36  1  0
  1 37  1  0
  2 10  1  0
  2  3  1  0
  3 25  1  0
  3  4  2  0
  4  5  1  0
  4 11  1  0
  5 10  2  0
  5  6  1  0
  6  7  2  0
  6 38  1  0
  7  8  1  0
  7 39  1  0
  8  9  2  0
  8 40  1  0
  9 10  1  0
  9 41  1  0
 11 26  1  0
 11 12  1  0
 11 42  1  6
 12 13  1  0
 12 43  1  0
 12 44  1  0
 13 14  2  3
 13 23  1  0
 14 15  1  0
 14 17  1  0
 15 16  3  0
 17 22  1  0
 17 18  2  0
 18 19  1  0
 18 45  1  0
 19 20  2  0
 20 21  1  0
 20 46  1  0
 21 22  2  0
 21 47  1  0
 23 24  1  0
 23 48  1  0
 23 49  1  0
 24 25  1  0
 24 26  1  0
 24 50  1  1
 25 51  1  0
 25 52  1  0
 26 27  1  0
 27 28  2  0
 27 29  2  0
 27 30  1  0
 30 34  1  0
 30 31  2  0
 31 32  1  0
 31 53  1  0
 32 33  2  0
 32 54  1  0
 33 34  1  0
 33 55  1  0
M  END
>  <i_m_ct_stereo_status>  (170) 
1

>  <s_m_source_file>  (170) 
/var/tmp/pbs.5076255.sched01/tmp3npnc3rz/42_8qtnw6u.sdf

>  <i_m_source_file_index>  (170) 
30

>  <i_lp_mmshare_version>  (170) 
48012

>  <i_f3d_flags>  (170) 
0

>  <s_epik_input>  (170) 
W2NIXTFbY0hdW2NIXVtjSF1jKG4yW0NIM10pYzFjKGMyMylbQ0hdNFtDSDJdL0MoPUMoL0MjTiljNVtjSF1uW2NIXVtjSF1uNSlbQ0gyXVtDQEhdKFtDSDJdMylONFMoPU8pKD1PKWM2W2NIXVtjSF1bY0hdczY=

>  <s_epik_cmdline>  (170) 
J2VwaWtfcHl0aG9uJywgJy1waHQnLCAnMi4wJywgJy1waCcsICc3LjAnLCAnLXRuJywgJzgnLCAnLW1hJywgJzIwMCcsICctaW1hZScsICc8aW5maWxlLm1hZT4nLCAnLW9tYWUnLCAnPG91dGZpbGUubWFlPic=

>  <r_lp_tautomer_probability>  (170) 
1

>  <r_epik_Ionization_Penalty>  (170) 
4.88345e-10

>  <r_epik_Ionization_Penalty_Charging>  (170) 
0

>  <r_epik_Ionization_Penalty_Neutral>  (170) 
4.88345e-10

>  <r_epik_State_Penalty>  (170) 
-0

>  <r_epik_Charging_Adjusted_Penalty>  (170) 
0

>  <i_epik_Tot_Q>  (170) 
0

>  <i_epik_Tot_abs_Q>  (170) 
0

>  <s_lp_Force_Field>  (170) 
OPLS3e

>  <r_lp_Energy>  (170) 
30.6836

>  <b_lp_Chiralities_Consistent>  (170) 
1

>  <s_lp_Variant>  (170) 
49:0-1

>  <s_i_glide_gridfile>  (170) 
pfpi4k_grid

>  <i_i_glide_lignum>  (170) 
30

>  <i_i_glide_rotatable_bonds>  (170) 
4

>  <r_i_docking_score>  (170) 
-2.09833

>  <r_i_glide_ligand_efficiency>  (170) 
-0.0617156

>  <r_i_glide_ligand_efficiency_sa>  (170) 
-0.199935

>  <r_i_glide_ligand_efficiency_ln>  (170) 
-0.46358

>  <r_i_glide_gscore>  (170) 
-2.09833

>  <r_i_glide_lipo>  (170) 
-0.400985

>  <r_i_glide_hbond>  (170) 
0

>  <r_i_glide_metal>  (170) 
-0

>  <r_i_glide_rewards>  (170) 
-0.103851

>  <r_i_glide_evdw>  (170) 
-28.2501

>  <r_i_glide_ecoul>  (170) 
-2.59724

>  <r_i_glide_erotb>  (170) 
0.256534

>  <r_i_glide_esite>  (170) 
-0.0479392

>  <r_i_glide_emodel>  (170) 
-33.3126

>  <r_i_glide_energy>  (170) 
-30.8473

>  <r_i_glide_einternal>  (170) 
3.8507

>  <r_i_glide_intrahb_reward>  (170) 
-0

>  <i_i_glide_confnum>  (170) 
4

>  <i_i_glide_posenum>  (170) 
8

>  <r_i_glide_eff_state_penalty>  (170) 
0

>  <ligand_id>  (170) 
49

>  <original_smiles>  (170) 
Cn1c2c(c3ccccc31)C1CC(=C(C#N)c3cnccn3)CC(C2)N1S(=O)(=O)c1cccs1

>  <smiles>  (170) 
[H]c1nc([H])c(C(C#N)=C2C([H])([H])C3([H])c4c(n(C([H])([H])[H])c5c([H])c([H])c([H])c([H])c45)C([H])([H])C([H])(N3S(=O)(=O)c3sc([H])c([H])c3[H])C2([H])[H])nc1[H]

$$$$
49:0:2
     RDKit          3D

 55 60  0  0  1  0  0  0  0  0999 V2000
    3.4772    1.3900    6.8905 C   0  0  0  0  0  0  0  0  0  0  0  0
    2.6869    0.7194    5.8718 N   0  0  0  0  0  0  0  0  0  0  0  0
    3.1381   -0.2549    4.9843 C   0  0  0  0  0  0  0  0  0  0  0  0
    2.1178   -0.6514    4.1670 C   0  0  0  0  0  0  0  0  0  0  0  0
    0.9623    0.1053    4.5411 C   0  0  0  0  0  0  0  0  0  0  0  0
   -0.3757    0.1589    4.0975 C   0  0  0  0  0  0  0  0  0  0  0  0
   -1.3102    1.0249    4.7000 C   0  0  0  0  0  0  0  0  0  0  0  0
   -0.9167    1.8641    5.7610 C   0  0  0  0  0  0  0  0  0  0  0  0
    0.4129    1.8295    6.2188 C   0  0  0  0  0  0  0  0  0  0  0  0
    1.3411    0.9573    5.6180 C   0  0  0  0  0  0  0  0  0  0  0  0
    2.3576   -1.6897    3.1093 C   0  0  2  0  0  0  0  0  0  0  0  0
    2.0164   -3.1131    3.6082 C   0  0  0  0  0  0  0  0  0  0  0  0
    2.9161   -3.5113    4.7855 C   0  0  0  0  0  0  0  0  0  0  0  0
    2.4887   -3.9615    5.9964 C   0  0  0  0  0  0  0  0  0  0  0  0
    3.4476   -4.2898    7.0011 C   0  0  0  0  0  0  0  0  0  0  0  0
    4.2006   -4.5382    7.8433 N   0  0  0  0  0  0  0  0  0  0  0  0
    1.0773   -4.0626    6.4235 C   0  0  0  0  0  0  0  0  0  0  0  0
    0.1192   -3.0547    6.1550 C   0  0  0  0  0  0  0  0  0  0  0  0
   -1.1722   -3.1524    6.5323 N   0  0  0  0  0  0  0  0  0  0  0  0
   -1.5173   -4.2621    7.2198 C   0  0  0  0  0  0  0  0  0  0  0  0
   -0.5667   -5.2557    7.5341 C   0  0  0  0  0  0  0  0  0  0  0  0
    0.7207   -5.1602    7.1335 N   0  0  0  0  0  0  0  0  0  0  0  0
    4.3926   -3.3392    4.4159 C   0  0  0  0  0  0  0  0  0  0  0  0
    4.6909   -1.9365    3.8270 C   0  0  2  0  0  0  0  0  0  0  0  0
    4.5443   -0.7947    4.8894 C   0  0  0  0  0  0  0  0  0  0  0  0
    3.7654   -1.6964    2.6915 N   0  0  0  0  0  0  0  0  0  0  0  0
    4.2557   -0.7971    1.2959 S   0  0  0  0  0  0  0  0  0  0  0  0
    3.1687    0.1129    0.9145 O   0  0  0  0  0  0  0  0  0  0  0  0
    5.6216   -0.3029    1.5148 O   0  0  0  0  0  0  0  0  0  0  0  0
    4.3812   -2.0449    0.0370 C   0  0  0  0  0  0  0  0  0  0  0  0
    4.8645   -3.3145    0.2175 C   0  0  0  0  0  0  0  0  0  0  0  0
    4.8351   -4.0822   -0.9798 C   0  0  0  0  0  0  0  0  0  0  0  0
    4.3179   -3.3918   -2.0456 C   0  0  0  0  0  0  0  0  0  0  0  0
    3.8528   -1.7716   -1.6019 S   0  0  0  0  0  0  0  0  0  0  0  0
    4.5243    1.0853    6.8557 H   0  0  0  0  0  0  0  0  0  0  0  0
    3.0724    1.1527    7.8740 H   0  0  0  0  0  0  0  0  0  0  0  0
    3.4226    2.4686    6.7402 H   0  0  0  0  0  0  0  0  0  0  0  0
   -0.6716   -0.4752    3.2806 H   0  0  0  0  0  0  0  0  0  0  0  0
   -2.3253    1.0482    4.3316 H   0  0  0  0  0  0  0  0  0  0  0  0
   -1.6281    2.5363    6.2183 H   0  0  0  0  0  0  0  0  0  0  0  0
    0.7315    2.4688    7.0259 H   0  0  0  0  0  0  0  0  0  0  0  0
    1.7256   -1.4785    2.2490 H   0  0  0  0  0  0  0  0  0  0  0  0
    0.9504   -3.1922    3.8069 H   0  0  0  0  0  0  0  0  0  0  0  0
    2.1963   -3.8295    2.8041 H   0  0  0  0  0  0  0  0  0  0  0  0
    0.3786   -2.1529    5.6327 H   0  0  0  0  0  0  0  0  0  0  0  0
   -2.5526   -4.3538    7.5202 H   0  0  0  0  0  0  0  0  0  0  0  0
   -0.8400   -6.1279    8.1074 H   0  0  0  0  0  0  0  0  0  0  0  0
    5.0573   -3.5272    5.2580 H   0  0  0  0  0  0  0  0  0  0  0  0
    4.6322   -4.0916    3.6638 H   0  0  0  0  0  0  0  0  0  0  0  0
    5.7214   -1.9538    3.4648 H   0  0  0  0  0  0  0  0  0  0  0  0
    5.2109    0.0261    4.6231 H   0  0  0  0  0  0  0  0  0  0  0  0
    4.8662   -1.1594    5.8669 H   0  0  0  0  0  0  0  0  0  0  0  0
    5.2335   -3.7061    1.1557 H   0  0  0  0  0  0  0  0  0  0  0  0
    5.1715   -5.1100   -1.0160 H   0  0  0  0  0  0  0  0  0  0  0  0
    4.1590   -3.7548   -3.0502 H   0  0  0  0  0  0  0  0  0  0  0  0
  1  2  1  0
  1 35  1  0
  1 36  1  0
  1 37  1  0
  2 10  1  0
  2  3  1  0
  3 25  1  0
  3  4  2  0
  4  5  1  0
  4 11  1  0
  5 10  2  0
  5  6  1  0
  6  7  2  0
  6 38  1  0
  7  8  1  0
  7 39  1  0
  8  9  2  0
  8 40  1  0
  9 10  1  0
  9 41  1  0
 11 26  1  0
 11 12  1  0
 11 42  1  6
 12 13  1  0
 12 43  1  0
 12 44  1  0
 13 14  2  3
 13 23  1  0
 14 15  1  0
 14 17  1  0
 15 16  3  0
 17 22  1  0
 17 18  2  0
 18 19  1  0
 18 45  1  0
 19 20  2  0
 20 21  1  0
 20 46  1  0
 21 22  2  0
 21 47  1  0
 23 24  1  0
 23 48  1  0
 23 49  1  0
 24 25  1  0
 24 26  1  0
 24 50  1  6
 25 51  1  0
 25 52  1  0
 26 27  1  0
 27 28  2  0
 27 29  2  0
 27 30  1  0
 30 34  1  0
 30 31  2  0
 31 32  1  0
 31 53  1  0
 32 33  2  0
 32 54  1  0
 33 34  1  0
 33 55  1  0
M  END
>  <i_m_ct_stereo_status>  (171) 
1

>  <s_m_source_file>  (171) 
/var/tmp/pbs.5076255.sched01/tmp3npnc3rz/42_8qtnw6u.sdf

>  <i_m_source_file_index>  (171) 
30

>  <i_lp_mmshare_version>  (171) 
48012

>  <i_f3d_flags>  (171) 
0

>  <s_epik_input>  (171) 
W2NIXTFbY0hdW2NIXVtjSF1jKG4yW0NIM10pYzFjKGMyMylbQ0hdNFtDSDJdL0MoPUMoL0MjTiljNVtjSF1uW2NIXVtjSF1uNSlbQ0gyXVtDQEhdKFtDSDJdMylONFMoPU8pKD1PKWM2W2NIXVtjSF1bY0hdczY=

>  <s_epik_cmdline>  (171) 
J2VwaWtfcHl0aG9uJywgJy1waHQnLCAnMi4wJywgJy1waCcsICc3LjAnLCAnLXRuJywgJzgnLCAnLW1hJywgJzIwMCcsICctaW1hZScsICc8aW5maWxlLm1hZT4nLCAnLW9tYWUnLCAnPG91dGZpbGUubWFlPic=

>  <r_lp_tautomer_probability>  (171) 
1

>  <r_epik_Ionization_Penalty>  (171) 
4.88345e-10

>  <r_epik_Ionization_Penalty_Charging>  (171) 
0

>  <r_epik_Ionization_Penalty_Neutral>  (171) 
4.88345e-10

>  <r_epik_State_Penalty>  (171) 
-0

>  <r_epik_Charging_Adjusted_Penalty>  (171) 
0

>  <i_epik_Tot_Q>  (171) 
0

>  <i_epik_Tot_abs_Q>  (171) 
0

>  <s_lp_Force_Field>  (171) 
OPLS3e

>  <r_lp_Energy>  (171) 
30.6836

>  <b_lp_Chiralities_Consistent>  (171) 
1

>  <s_lp_Variant>  (171) 
49:0-1

>  <s_i_glide_gridfile>  (171) 
pfpi4k_grid

>  <i_i_glide_lignum>  (171) 
30

>  <i_i_glide_rotatable_bonds>  (171) 
4

>  <r_i_docking_score>  (171) 
-1.93474

>  <r_i_glide_ligand_efficiency>  (171) 
-0.056904

>  <r_i_glide_ligand_efficiency_sa>  (171) 
-0.184347

>  <r_i_glide_ligand_efficiency_ln>  (171) 
-0.427437

>  <r_i_glide_gscore>  (171) 
-1.93474

>  <r_i_glide_lipo>  (171) 
-0.215002

>  <r_i_glide_hbond>  (171) 
0

>  <r_i_glide_metal>  (171) 
-0

>  <r_i_glide_rewards>  (171) 
-0.17096

>  <r_i_glide_evdw>  (171) 
-28.2856

>  <r_i_glide_ecoul>  (171) 
-2.50417

>  <r_i_glide_erotb>  (171) 
0.256534

>  <r_i_glide_esite>  (171) 
-0.0154017

>  <r_i_glide_emodel>  (171) 
-32.8388

>  <r_i_glide_energy>  (171) 
-30.7898

>  <r_i_glide_einternal>  (171) 
4.26474

>  <r_i_glide_intrahb_reward>  (171) 
-0

>  <i_i_glide_confnum>  (171) 
4

>  <i_i_glide_posenum>  (171) 
3

>  <r_i_glide_eff_state_penalty>  (171) 
0

>  <ligand_id>  (171) 
49

>  <original_smiles>  (171) 
Cn1c2c(c3ccccc31)C1CC(=C(C#N)c3cnccn3)CC(C2)N1S(=O)(=O)c1cccs1

>  <smiles>  (171) 
[H]c1nc([H])c(C(C#N)=C2C([H])([H])C3([H])c4c(n(C([H])([H])[H])c5c([H])c([H])c([H])c([H])c45)C([H])([H])C([H])(N3S(=O)(=O)c3sc([H])c([H])c3[H])C2([H])[H])nc1[H]

$$$$
49:1:0
     RDKit          3D

 55 60  0  0  1  0  0  0  0  0999 V2000
    7.8487   -5.9563    1.9962 C   0  0  0  0  0  0  0  0  0  0  0  0
    6.6788   -5.2151    1.5363 N   0  0  0  0  0  0  0  0  0  0  0  0
    5.3940   -5.3064    2.0481 C   0  0  0  0  0  0  0  0  0  0  0  0
    4.5461   -4.4643    1.3870 C   0  0  0  0  0  0  0  0  0  0  0  0
    5.3285   -3.7970    0.3984 C   0  0  0  0  0  0  0  0  0  0  0  0
    5.0574   -2.8225   -0.5826 C   0  0  0  0  0  0  0  0  0  0  0  0
    6.0717   -2.3500   -1.4288 C   0  0  0  0  0  0  0  0  0  0  0  0
    7.3882   -2.8435   -1.3071 C   0  0  0  0  0  0  0  0  0  0  0  0
    7.6841   -3.7967   -0.3225 C   0  0  0  0  0  0  0  0  0  0  0  0
    6.6681   -4.2770    0.5118 C   0  0  0  0  0  0  0  0  0  0  0  0
    3.0989   -4.3660    1.7854 C   0  0  2  0  0  0  0  0  0  0  0  0
    2.8848   -3.1717    2.7522 C   0  0  0  0  0  0  0  0  0  0  0  0
    3.6717   -3.3700    4.0547 C   0  0  0  0  0  0  0  0  0  0  0  0
    4.5462   -2.4512    4.5503 C   0  0  0  0  0  0  0  0  0  0  0  0
    4.7476   -1.2180    3.8429 C   0  0  0  0  0  0  0  0  0  0  0  0
    4.9430   -0.2124    3.2982 N   0  0  0  0  0  0  0  0  0  0  0  0
    5.4231   -2.6554    5.7174 C   0  0  0  0  0  0  0  0  0  0  0  0
    6.0736   -3.8897    5.9822 C   0  0  0  0  0  0  0  0  0  0  0  0
    6.8717   -4.0868    7.0481 N   0  0  0  0  0  0  0  0  0  0  0  0
    7.0648   -3.0312    7.8650 C   0  0  0  0  0  0  0  0  0  0  0  0
    6.4752   -1.7772    7.5865 C   0  0  0  0  0  0  0  0  0  0  0  0
    5.6533   -1.5899    6.5279 N   0  0  0  0  0  0  0  0  0  0  0  0
    3.3616   -4.7364    4.6767 C   0  0  0  0  0  0  0  0  0  0  0  0
    3.5189   -5.8958    3.6588 C   0  0  2  0  0  0  0  0  0  0  0  0
    4.9661   -6.1929    3.1667 C   0  0  0  0  0  0  0  0  0  0  0  0
    2.6280   -5.5761    2.5041 N   0  0  0  0  0  0  0  0  0  0  0  0
    1.8222   -6.8532    1.6567 S   0  0  0  0  0  0  0  0  0  0  0  0
    0.9927   -6.2541    0.5925 O   0  0  0  0  0  0  0  0  0  0  0  0
    2.8282   -7.8788    1.3427 O   0  0  0  0  0  0  0  0  0  0  0  0
    0.6928   -7.5384    2.8626 C   0  0  0  0  0  0  0  0  0  0  0  0
    0.9613   -7.8566    4.1719 C   0  0  0  0  0  0  0  0  0  0  0  0
   -0.1799   -8.3110    4.8694 C   0  0  0  0  0  0  0  0  0  0  0  0
   -1.3046   -8.3828    4.0957 C   0  0  0  0  0  0  0  0  0  0  0  0
   -0.9784   -7.8553    2.4625 S   0  0  0  0  0  0  0  0  0  0  0  0
    7.5749   -6.7560    2.6867 H   0  0  0  0  0  0  0  0  0  0  0  0
    8.5310   -5.2726    2.5029 H   0  0  0  0  0  0  0  0  0  0  0  0
    8.3638   -6.4028    1.1425 H   0  0  0  0  0  0  0  0  0  0  0  0
    4.0446   -2.4534   -0.6709 H   0  0  0  0  0  0  0  0  0  0  0  0
    5.8167   -1.6172   -2.1756 H   0  0  0  0  0  0  0  0  0  0  0  0
    8.1737   -2.5085   -1.9635 H   0  0  0  0  0  0  0  0  0  0  0  0
    8.6761   -4.2022   -0.2232 H   0  0  0  0  0  0  0  0  0  0  0  0
    2.4932   -4.2016    0.8907 H   0  0  0  0  0  0  0  0  0  0  0  0
    3.1191   -2.2269    2.2420 H   0  0  0  0  0  0  0  0  0  0  0  0
    1.8238   -3.1088    3.0130 H   0  0  0  0  0  0  0  0  0  0  0  0
    5.9905   -4.7382    5.3300 H   0  0  0  0  0  0  0  0  0  0  0  0
    7.7058   -3.1956    8.7202 H   0  0  0  0  0  0  0  0  0  0  0  0
    6.6690   -0.9253    8.2150 H   0  0  0  0  0  0  0  0  0  0  0  0
    3.9164   -4.9689    5.5764 H   0  0  0  0  0  0  0  0  0  0  0  0
    2.3141   -4.7010    4.9915 H   0  0  0  0  0  0  0  0  0  0  0  0
    3.2818   -6.8004    4.1507 H   0  0  0  0  0  0  0  0  0  0  0  0
    4.9998   -7.2246    2.8143 H   0  0  0  0  0  0  0  0  0  0  0  0
    5.6741   -6.1651    3.9857 H   0  0  0  0  0  0  0  0  0  0  0  0
    1.8877   -7.8266    4.7164 H   0  0  0  0  0  0  0  0  0  0  0  0
   -0.0852   -8.6014    5.9026 H   0  0  0  0  0  0  0  0  0  0  0  0
   -2.2583   -8.7928    4.3928 H   0  0  0  0  0  0  0  0  0  0  0  0
  1  2  1  0
  1 35  1  0
  1 36  1  0
  1 37  1  0
  2 10  1  0
  2  3  1  0
  3 25  1  0
  3  4  2  0
  4  5  1  0
  4 11  1  0
  5 10  2  0
  5  6  1  0
  6  7  2  0
  6 38  1  0
  7  8  1  0
  7 39  1  0
  8  9  2  0
  8 40  1  0
  9 10  1  0
  9 41  1  0
 11 26  1  0
 11 12  1  0
 11 42  1  6
 12 13  1  0
 12 43  1  0
 12 44  1  0
 13 14  2  3
 13 23  1  0
 14 15  1  0
 14 17  1  0
 15 16  3  0
 17 22  1  0
 17 18  2  0
 18 19  1  0
 18 45  1  0
 19 20  2  0
 20 21  1  0
 20 46  1  0
 21 22  2  0
 21 47  1  0
 23 24  1  0
 23 48  1  0
 23 49  1  0
 24 25  1  0
 24 26  1  0
 24 50  1  1
 25 51  1  0
 25 52  1  0
 26 27  1  0
 27 28  2  0
 27 29  2  0
 27 30  1  0
 30 34  1  0
 30 31  2  0
 31 32  1  0
 31 53  1  0
 32 33  2  0
 32 54  1  0
 33 34  1  0
 33 55  1  0
M  END
>  <i_m_ct_stereo_status>  (172) 
1

>  <s_m_source_file>  (172) 
/var/tmp/pbs.5076255.sched01/tmp3npnc3rz/42_8qtnw6u.sdf

>  <i_m_source_file_index>  (172) 
31

>  <i_lp_mmshare_version>  (172) 
48012

>  <i_f3d_flags>  (172) 
0

>  <s_epik_input>  (172) 
W2NIXTFbY0hdW2NIXVtjSF1jKG4yW0NIM10pYzFjKGMyMylbQ0hdNFtDSDJdL0MoPUMoL0MjTiljNVtjSF1uW2NIXVtjSF1uNSlbQ0gyXVtDQEhdKFtDSDJdMylONFMoPU8pKD1PKWM2W2NIXVtjSF1bY0hdczY=

>  <s_epik_cmdline>  (172) 
J2VwaWtfcHl0aG9uJywgJy1waHQnLCAnMi4wJywgJy1waCcsICc3LjAnLCAnLXRuJywgJzgnLCAnLW1hJywgJzIwMCcsICctaW1hZScsICc8aW5maWxlLm1hZT4nLCAnLW9tYWUnLCAnPG91dGZpbGUubWFlPic=

>  <r_lp_tautomer_probability>  (172) 
1

>  <r_epik_Ionization_Penalty>  (172) 
4.88345e-10

>  <r_epik_Ionization_Penalty_Charging>  (172) 
0

>  <r_epik_Ionization_Penalty_Neutral>  (172) 
4.88345e-10

>  <r_epik_State_Penalty>  (172) 
-0

>  <r_epik_Charging_Adjusted_Penalty>  (172) 
0

>  <i_epik_Tot_Q>  (172) 
0

>  <i_epik_Tot_abs_Q>  (172) 
0

>  <s_lp_Force_Field>  (172) 
OPLS3e

>  <r_lp_Energy>  (172) 
32.4912

>  <b_lp_Chiralities_Consistent>  (172) 
1

>  <s_lp_Variant>  (172) 
49:0-2

>  <s_i_glide_gridfile>  (172) 
pfpi4k_grid

>  <i_i_glide_lignum>  (172) 
31

>  <i_i_glide_rotatable_bonds>  (172) 
4

>  <r_i_docking_score>  (172) 
-2.83112

>  <r_i_glide_ligand_efficiency>  (172) 
-0.0832684

>  <r_i_glide_ligand_efficiency_sa>  (172) 
-0.269757

>  <r_i_glide_ligand_efficiency_ln>  (172) 
-0.625475

>  <r_i_glide_gscore>  (172) 
-2.83112

>  <r_i_glide_lipo>  (172) 
-0.453853

>  <r_i_glide_hbond>  (172) 
0

>  <r_i_glide_metal>  (172) 
-0

>  <r_i_glide_rewards>  (172) 
-0.269746

>  <r_i_glide_evdw>  (172) 
-32.7974

>  <r_i_glide_ecoul>  (172) 
-3.87379

>  <r_i_glide_erotb>  (172) 
0.256534

>  <r_i_glide_esite>  (172) 
-0.143121

>  <r_i_glide_emodel>  (172) 
-38.7079

>  <r_i_glide_energy>  (172) 
-36.6712

>  <r_i_glide_einternal>  (172) 
4.60361

>  <r_i_glide_intrahb_reward>  (172) 
-0

>  <i_i_glide_confnum>  (172) 
4

>  <i_i_glide_posenum>  (172) 
39

>  <r_i_glide_eff_state_penalty>  (172) 
0

>  <ligand_id>  (172) 
49

>  <original_smiles>  (172) 
Cn1c2c(c3ccccc31)C1CC(=C(C#N)c3cnccn3)CC(C2)N1S(=O)(=O)c1cccs1

>  <smiles>  (172) 
[H]c1nc([H])c(C(C#N)=C2C([H])([H])C3([H])c4c(n(C([H])([H])[H])c5c([H])c([H])c([H])c([H])c45)C([H])([H])C([H])(N3S(=O)(=O)c3sc([H])c([H])c3[H])C2([H])[H])nc1[H]

$$$$
49:1:1
     RDKit          3D

 55 60  0  0  1  0  0  0  0  0999 V2000
    7.4840   -5.0301    1.0216 C   0  0  0  0  0  0  0  0  0  0  0  0
    6.1782   -4.4597    1.3101 N   0  0  0  0  0  0  0  0  0  0  0  0
    5.1565   -5.0505    2.0452 C   0  0  0  0  0  0  0  0  0  0  0  0
    4.0780   -4.2192    2.1050 C   0  0  0  0  0  0  0  0  0  0  0  0
    4.4156   -3.0379    1.3881 C   0  0  0  0  0  0  0  0  0  0  0  0
    3.7532   -1.8250    1.0982 C   0  0  0  0  0  0  0  0  0  0  0  0
    4.3790   -0.8160    0.3473 C   0  0  0  0  0  0  0  0  0  0  0  0
    5.6805   -1.0134   -0.1421 C   0  0  0  0  0  0  0  0  0  0  0  0
    6.3642   -2.2085    0.1268 C   0  0  0  0  0  0  0  0  0  0  0  0
    5.7400   -3.2099    0.8892 C   0  0  0  0  0  0  0  0  0  0  0  0
    2.8528   -4.6263    2.8542 C   0  0  2  0  0  0  0  0  0  0  0  0
    2.8993   -4.0516    4.2873 C   0  0  0  0  0  0  0  0  0  0  0  0
    4.0911   -4.6143    5.0629 C   0  0  0  0  0  0  0  0  0  0  0  0
    5.0243   -3.8218    5.6666 C   0  0  0  0  0  0  0  0  0  0  0  0
    4.8597   -2.3955    5.6298 C   0  0  0  0  0  0  0  0  0  0  0  0
    4.7683   -1.2467    5.6344 N   0  0  0  0  0  0  0  0  0  0  0  0
    6.2714   -4.2801    6.3041 C   0  0  0  0  0  0  0  0  0  0  0  0
    6.7920   -3.6521    7.4706 C   0  0  0  0  0  0  0  0  0  0  0  0
    7.8814   -4.1234    8.1168 N   0  0  0  0  0  0  0  0  0  0  0  0
    8.4588   -5.2386    7.6279 C   0  0  0  0  0  0  0  0  0  0  0  0
    7.9640   -5.8472    6.4493 C   0  0  0  0  0  0  0  0  0  0  0  0
    6.9075   -5.3499    5.7649 N   0  0  0  0  0  0  0  0  0  0  0  0
    4.0512   -6.1542    5.0195 C   0  0  0  0  0  0  0  0  0  0  0  0
    3.9296   -6.6988    3.5789 C   0  0  2  0  0  0  0  0  0  0  0  0
    5.1862   -6.4115    2.6814 C   0  0  0  0  0  0  0  0  0  0  0  0
    2.7383   -6.0907    2.9560 N   0  0  0  0  0  0  0  0  0  0  0  0
    1.7582   -7.0015    1.8602 S   0  0  0  0  0  0  0  0  0  0  0  0
    1.3022   -6.1065    0.7724 O   0  0  0  0  0  0  0  0  0  0  0  0
    2.4146   -8.2773    1.5965 O   0  0  0  0  0  0  0  0  0  0  0  0
    0.3080   -7.3485    2.8107 C   0  0  0  0  0  0  0  0  0  0  0  0
   -0.1705   -6.6086    3.8566 C   0  0  0  0  0  0  0  0  0  0  0  0
   -1.3553   -7.1616    4.4156 C   0  0  0  0  0  0  0  0  0  0  0  0
   -1.7455   -8.3146    3.7929 C   0  0  0  0  0  0  0  0  0  0  0  0
   -0.6759   -8.7492    2.4932 S   0  0  0  0  0  0  0  0  0  0  0  0
    7.5270   -6.0891    1.2770 H   0  0  0  0  0  0  0  0  0  0  0  0
    8.2424   -4.4917    1.5885 H   0  0  0  0  0  0  0  0  0  0  0  0
    7.7058   -4.9163   -0.0396 H   0  0  0  0  0  0  0  0  0  0  0  0
    2.7453   -1.6752    1.4603 H   0  0  0  0  0  0  0  0  0  0  0  0
    3.8523    0.1071    0.1460 H   0  0  0  0  0  0  0  0  0  0  0  0
    6.1513   -0.2380   -0.7142 H   0  0  0  0  0  0  0  0  0  0  0  0
    7.3667   -2.3722   -0.2292 H   0  0  0  0  0  0  0  0  0  0  0  0
    1.9726   -4.2252    2.3542 H   0  0  0  0  0  0  0  0  0  0  0  0
    2.8791   -2.9615    4.2458 H   0  0  0  0  0  0  0  0  0  0  0  0
    1.9968   -4.3364    4.8269 H   0  0  0  0  0  0  0  0  0  0  0  0
    6.3187   -2.7817    7.8926 H   0  0  0  0  0  0  0  0  0  0  0  0
    9.2948   -5.6523    8.1613 H   0  0  0  0  0  0  0  0  0  0  0  0
    8.3680   -6.7801    6.0889 H   0  0  0  0  0  0  0  0  0  0  0  0
    4.8928   -6.6734    5.4831 H   0  0  0  0  0  0  0  0  0  0  0  0
    3.1819   -6.4616    5.6034 H   0  0  0  0  0  0  0  0  0  0  0  0
    3.8097   -7.7827    3.6797 H   0  0  0  0  0  0  0  0  0  0  0  0
    5.2283   -7.1538    1.8792 H   0  0  0  0  0  0  0  0  0  0  0  0
    6.1028   -6.5215    3.2600 H   0  0  0  0  0  0  0  0  0  0  0  0
    0.2871   -5.7075    4.2414 H   0  0  0  0  0  0  0  0  0  0  0  0
   -1.8351   -6.7015    5.2677 H   0  0  0  0  0  0  0  0  0  0  0  0
   -2.5574   -8.9792    4.0545 H   0  0  0  0  0  0  0  0  0  0  0  0
  1  2  1  0
  1 35  1  0
  1 36  1  0
  1 37  1  0
  2 10  1  0
  2  3  1  0
  3 25  1  0
  3  4  2  0
  4  5  1  0
  4 11  1  0
  5 10  2  0
  5  6  1  0
  6  7  2  0
  6 38  1  0
  7  8  1  0
  7 39  1  0
  8  9  2  0
  8 40  1  0
  9 10  1  0
  9 41  1  0
 11 26  1  0
 11 12  1  0
 11 42  1  6
 12 13  1  0
 12 43  1  0
 12 44  1  0
 13 14  2  3
 13 23  1  0
 14 15  1  0
 14 17  1  0
 15 16  3  0
 17 22  1  0
 17 18  2  0
 18 19  1  0
 18 45  1  0
 19 20  2  0
 20 21  1  0
 20 46  1  0
 21 22  2  0
 21 47  1  0
 23 24  1  0
 23 48  1  0
 23 49  1  0
 24 25  1  0
 24 26  1  0
 24 50  1  1
 25 51  1  0
 25 52  1  0
 26 27  1  0
 27 28  2  0
 27 29  2  0
 27 30  1  0
 30 34  1  0
 30 31  2  0
 31 32  1  0
 31 53  1  0
 32 33  2  0
 32 54  1  0
 33 34  1  0
 33 55  1  0
M  END
>  <i_m_ct_stereo_status>  (173) 
1

>  <s_m_source_file>  (173) 
/var/tmp/pbs.5076255.sched01/tmp3npnc3rz/42_8qtnw6u.sdf

>  <i_m_source_file_index>  (173) 
31

>  <i_lp_mmshare_version>  (173) 
48012

>  <i_f3d_flags>  (173) 
0

>  <s_epik_input>  (173) 
W2NIXTFbY0hdW2NIXVtjSF1jKG4yW0NIM10pYzFjKGMyMylbQ0hdNFtDSDJdL0MoPUMoL0MjTiljNVtjSF1uW2NIXVtjSF1uNSlbQ0gyXVtDQEhdKFtDSDJdMylONFMoPU8pKD1PKWM2W2NIXVtjSF1bY0hdczY=

>  <s_epik_cmdline>  (173) 
J2VwaWtfcHl0aG9uJywgJy1waHQnLCAnMi4wJywgJy1waCcsICc3LjAnLCAnLXRuJywgJzgnLCAnLW1hJywgJzIwMCcsICctaW1hZScsICc8aW5maWxlLm1hZT4nLCAnLW9tYWUnLCAnPG91dGZpbGUubWFlPic=

>  <r_lp_tautomer_probability>  (173) 
1

>  <r_epik_Ionization_Penalty>  (173) 
4.88345e-10

>  <r_epik_Ionization_Penalty_Charging>  (173) 
0

>  <r_epik_Ionization_Penalty_Neutral>  (173) 
4.88345e-10

>  <r_epik_State_Penalty>  (173) 
-0

>  <r_epik_Charging_Adjusted_Penalty>  (173) 
0

>  <i_epik_Tot_Q>  (173) 
0

>  <i_epik_Tot_abs_Q>  (173) 
0

>  <s_lp_Force_Field>  (173) 
OPLS3e

>  <r_lp_Energy>  (173) 
32.4912

>  <b_lp_Chiralities_Consistent>  (173) 
1

>  <s_lp_Variant>  (173) 
49:0-2

>  <s_i_glide_gridfile>  (173) 
pfpi4k_grid

>  <i_i_glide_lignum>  (173) 
31

>  <i_i_glide_rotatable_bonds>  (173) 
4

>  <r_i_docking_score>  (173) 
-2.30805

>  <r_i_glide_ligand_efficiency>  (173) 
-0.0678838

>  <r_i_glide_ligand_efficiency_sa>  (173) 
-0.219917

>  <r_i_glide_ligand_efficiency_ln>  (173) 
-0.509912

>  <r_i_glide_gscore>  (173) 
-2.30805

>  <r_i_glide_lipo>  (173) 
-0.366195

>  <r_i_glide_hbond>  (173) 
0

>  <r_i_glide_metal>  (173) 
-0

>  <r_i_glide_rewards>  (173) 
-0.222546

>  <r_i_glide_evdw>  (173) 
-30.3017

>  <r_i_glide_ecoul>  (173) 
-2.09583

>  <r_i_glide_erotb>  (173) 
0.256534

>  <r_i_glide_esite>  (173) 
-0.146381

>  <r_i_glide_emodel>  (173) 
-35.3908

>  <r_i_glide_energy>  (173) 
-32.3975

>  <r_i_glide_einternal>  (173) 
3.70941

>  <r_i_glide_intrahb_reward>  (173) 
-0

>  <i_i_glide_confnum>  (173) 
4

>  <i_i_glide_posenum>  (173) 
12

>  <r_i_glide_eff_state_penalty>  (173) 
0

>  <ligand_id>  (173) 
49

>  <original_smiles>  (173) 
Cn1c2c(c3ccccc31)C1CC(=C(C#N)c3cnccn3)CC(C2)N1S(=O)(=O)c1cccs1

>  <smiles>  (173) 
[H]c1nc([H])c(C(C#N)=C2C([H])([H])C3([H])c4c(n(C([H])([H])[H])c5c([H])c([H])c([H])c([H])c45)C([H])([H])C([H])(N3S(=O)(=O)c3sc([H])c([H])c3[H])C2([H])[H])nc1[H]

$$$$
49:1:2
     RDKit          3D

 55 60  0  0  1  0  0  0  0  0999 V2000
    4.9531   -0.0474    5.4787 C   0  0  0  0  0  0  0  0  0  0  0  0
    3.9412   -0.5356    4.5544 N   0  0  0  0  0  0  0  0  0  0  0  0
    3.6449   -1.8682    4.2835 C   0  0  0  0  0  0  0  0  0  0  0  0
    2.6348   -1.9417    3.3729 C   0  0  0  0  0  0  0  0  0  0  0  0
    2.2642   -0.6039    3.0333 C   0  0  0  0  0  0  0  0  0  0  0  0
    1.3166   -0.0126    2.1691 C   0  0  0  0  0  0  0  0  0  0  0  0
    1.1952    1.3796    2.0574 C   0  0  0  0  0  0  0  0  0  0  0  0
    2.0345    2.2275    2.8054 C   0  0  0  0  0  0  0  0  0  0  0  0
    2.9876    1.6661    3.6724 C   0  0  0  0  0  0  0  0  0  0  0  0
    3.1020    0.2707    3.7903 C   0  0  0  0  0  0  0  0  0  0  0  0
    2.1084   -3.2746    2.9374 C   0  0  2  0  0  0  0  0  0  0  0  0
    0.8604   -3.6481    3.7650 C   0  0  0  0  0  0  0  0  0  0  0  0
    1.1984   -3.7831    5.2440 C   0  0  0  0  0  0  0  0  0  0  0  0
    0.5284   -3.0959    6.2196 C   0  0  0  0  0  0  0  0  0  0  0  0
   -0.5739   -2.2537    5.8634 C   0  0  0  0  0  0  0  0  0  0  0  0
   -1.4812   -1.5597    5.6620 N   0  0  0  0  0  0  0  0  0  0  0  0
    0.8822   -3.0733    7.6527 C   0  0  0  0  0  0  0  0  0  0  0  0
    2.2347   -3.0164    8.0929 C   0  0  0  0  0  0  0  0  0  0  0  0
    2.5714   -3.0280    9.3928 N   0  0  0  0  0  0  0  0  0  0  0  0
    1.5729   -3.0644   10.2959 C   0  0  0  0  0  0  0  0  0  0  0  0
    0.2201   -3.0573    9.8765 C   0  0  0  0  0  0  0  0  0  0  0  0
   -0.1258   -3.0646    8.5690 N   0  0  0  0  0  0  0  0  0  0  0  0
    2.3662   -4.7675    5.4397 C   0  0  0  0  0  0  0  0  0  0  0  0
    3.5809   -4.4252    4.5264 C   0  0  2  0  0  0  0  0  0  0  0  0
    4.3240   -3.0808    4.8757 C   0  0  0  0  0  0  0  0  0  0  0  0
    3.0914   -4.3590    3.1263 N   0  0  0  0  0  0  0  0  0  0  0  0
    4.1239   -4.8626    1.8198 S   0  0  0  0  0  0  0  0  0  0  0  0
    3.6456   -4.2354    0.5811 O   0  0  0  0  0  0  0  0  0  0  0  0
    5.5205   -4.7532    2.2667 O   0  0  0  0  0  0  0  0  0  0  0  0
    3.7409   -6.5930    1.6755 C   0  0  0  0  0  0  0  0  0  0  0  0
    2.4996   -7.1593    1.8144 C   0  0  0  0  0  0  0  0  0  0  0  0
    2.5416   -8.5760    1.6708 C   0  0  0  0  0  0  0  0  0  0  0  0
    3.7949   -9.0552    1.4224 C   0  0  0  0  0  0  0  0  0  0  0  0
    4.9812   -7.7753    1.3528 S   0  0  0  0  0  0  0  0  0  0  0  0
    5.6051   -0.8522    5.8268 H   0  0  0  0  0  0  0  0  0  0  0  0
    4.4611    0.4059    6.3387 H   0  0  0  0  0  0  0  0  0  0  0  0
    5.5638    0.7081    4.9865 H   0  0  0  0  0  0  0  0  0  0  0  0
    0.6894   -0.6572    1.5767 H   0  0  0  0  0  0  0  0  0  0  0  0
    0.4681    1.7994    1.3771 H   0  0  0  0  0  0  0  0  0  0  0  0
    1.9474    3.2986    2.7006 H   0  0  0  0  0  0  0  0  0  0  0  0
    3.6477    2.2978    4.2411 H   0  0  0  0  0  0  0  0  0  0  0  0
    1.8200   -3.2116    1.8885 H   0  0  0  0  0  0  0  0  0  0  0  0
    0.0750   -2.9212    3.5714 H   0  0  0  0  0  0  0  0  0  0  0  0
    0.4931   -4.6113    3.4229 H   0  0  0  0  0  0  0  0  0  0  0  0
    3.0668   -2.9406    7.4123 H   0  0  0  0  0  0  0  0  0  0  0  0
    1.8662   -3.0656   11.3372 H   0  0  0  0  0  0  0  0  0  0  0  0
   -0.5743   -3.0305   10.6041 H   0  0  0  0  0  0  0  0  0  0  0  0
    2.6950   -4.8802    6.4671 H   0  0  0  0  0  0  0  0  0  0  0  0
    1.9796   -5.7544    5.1431 H   0  0  0  0  0  0  0  0  0  0  0  0
    4.2901   -5.2492    4.6314 H   0  0  0  0  0  0  0  0  0  0  0  0
    5.3415   -3.1141    4.4789 H   0  0  0  0  0  0  0  0  0  0  0  0
    4.4403   -2.9583    5.9478 H   0  0  0  0  0  0  0  0  0  0  0  0
    1.5951   -6.6144    2.0331 H   0  0  0  0  0  0  0  0  0  0  0  0
    1.6516   -9.1845    1.7610 H   0  0  0  0  0  0  0  0  0  0  0  0
    4.0962  -10.0823    1.2805 H   0  0  0  0  0  0  0  0  0  0  0  0
  1  2  1  0
  1 35  1  0
  1 36  1  0
  1 37  1  0
  2 10  1  0
  2  3  1  0
  3 25  1  0
  3  4  2  0
  4  5  1  0
  4 11  1  0
  5 10  2  0
  5  6  1  0
  6  7  2  0
  6 38  1  0
  7  8  1  0
  7 39  1  0
  8  9  2  0
  8 40  1  0
  9 10  1  0
  9 41  1  0
 11 26  1  0
 11 12  1  0
 11 42  1  6
 12 13  1  0
 12 43  1  0
 12 44  1  0
 13 14  2  3
 13 23  1  0
 14 15  1  0
 14 17  1  0
 15 16  3  0
 17 22  1  0
 17 18  2  0
 18 19  1  0
 18 45  1  0
 19 20  2  0
 20 21  1  0
 20 46  1  0
 21 22  2  0
 21 47  1  0
 23 24  1  0
 23 48  1  0
 23 49  1  0
 24 25  1  0
 24 26  1  0
 24 50  1  6
 25 51  1  0
 25 52  1  0
 26 27  1  0
 27 28  2  0
 27 29  2  0
 27 30  1  0
 30 34  1  0
 30 31  2  0
 31 32  1  0
 31 53  1  0
 32 33  2  0
 32 54  1  0
 33 34  1  0
 33 55  1  0
M  END
>  <i_m_ct_stereo_status>  (174) 
1

>  <s_m_source_file>  (174) 
/var/tmp/pbs.5076255.sched01/tmp3npnc3rz/42_8qtnw6u.sdf

>  <i_m_source_file_index>  (174) 
31

>  <i_lp_mmshare_version>  (174) 
48012

>  <i_f3d_flags>  (174) 
0

>  <s_epik_input>  (174) 
W2NIXTFbY0hdW2NIXVtjSF1jKG4yW0NIM10pYzFjKGMyMylbQ0hdNFtDSDJdL0MoPUMoL0MjTiljNVtjSF1uW2NIXVtjSF1uNSlbQ0gyXVtDQEhdKFtDSDJdMylONFMoPU8pKD1PKWM2W2NIXVtjSF1bY0hdczY=

>  <s_epik_cmdline>  (174) 
J2VwaWtfcHl0aG9uJywgJy1waHQnLCAnMi4wJywgJy1waCcsICc3LjAnLCAnLXRuJywgJzgnLCAnLW1hJywgJzIwMCcsICctaW1hZScsICc8aW5maWxlLm1hZT4nLCAnLW9tYWUnLCAnPG91dGZpbGUubWFlPic=

>  <r_lp_tautomer_probability>  (174) 
1

>  <r_epik_Ionization_Penalty>  (174) 
4.88345e-10

>  <r_epik_Ionization_Penalty_Charging>  (174) 
0

>  <r_epik_Ionization_Penalty_Neutral>  (174) 
4.88345e-10

>  <r_epik_State_Penalty>  (174) 
-0

>  <r_epik_Charging_Adjusted_Penalty>  (174) 
0

>  <i_epik_Tot_Q>  (174) 
0

>  <i_epik_Tot_abs_Q>  (174) 
0

>  <s_lp_Force_Field>  (174) 
OPLS3e

>  <r_lp_Energy>  (174) 
32.4912

>  <b_lp_Chiralities_Consistent>  (174) 
1

>  <s_lp_Variant>  (174) 
49:0-2

>  <s_i_glide_gridfile>  (174) 
pfpi4k_grid

>  <i_i_glide_lignum>  (174) 
31

>  <i_i_glide_rotatable_bonds>  (174) 
4

>  <r_i_docking_score>  (174) 
-2.29425

>  <r_i_glide_ligand_efficiency>  (174) 
-0.0674778

>  <r_i_glide_ligand_efficiency_sa>  (174) 
-0.218602

>  <r_i_glide_ligand_efficiency_ln>  (174) 
-0.506863

>  <r_i_glide_gscore>  (174) 
-2.29425

>  <r_i_glide_lipo>  (174) 
-0.178099

>  <r_i_glide_hbond>  (174) 
-0.103247

>  <r_i_glide_metal>  (174) 
-0

>  <r_i_glide_rewards>  (174) 
-0.100933

>  <r_i_glide_evdw>  (174) 
-27.2152

>  <r_i_glide_ecoul>  (174) 
-5.14893

>  <r_i_glide_erotb>  (174) 
0.256534

>  <r_i_glide_esite>  (174) 
-0.0354032

>  <r_i_glide_emodel>  (174) 
-35.2988

>  <r_i_glide_energy>  (174) 
-32.3641

>  <r_i_glide_einternal>  (174) 
3.91774

>  <r_i_glide_intrahb_reward>  (174) 
-0

>  <i_i_glide_confnum>  (174) 
3

>  <i_i_glide_posenum>  (174) 
33

>  <r_i_glide_eff_state_penalty>  (174) 
0

>  <ligand_id>  (174) 
49

>  <original_smiles>  (174) 
Cn1c2c(c3ccccc31)C1CC(=C(C#N)c3cnccn3)CC(C2)N1S(=O)(=O)c1cccs1

>  <smiles>  (174) 
[H]c1nc([H])c(C(C#N)=C2C([H])([H])C3([H])c4c(n(C([H])([H])[H])c5c([H])c([H])c([H])c([H])c45)C([H])([H])C([H])(N3S(=O)(=O)c3sc([H])c([H])c3[H])C2([H])[H])nc1[H]

$$$$
50:0:0
     RDKit          3D

 57 60  0  0  1  0  0  0  0  0999 V2000
    2.9206   -8.8538    6.1053 C   0  0  0  0  0  0  0  0  0  0  0  0
    3.1569   -8.8433    4.5766 C   0  0  2  0  0  0  0  0  0  0  0  0
    4.1483   -7.7104    4.1976 C   0  0  0  0  0  0  0  0  0  0  0  0
    3.6357   -7.1304    2.8765 C   0  0  2  0  0  0  0  0  0  0  0  0
    4.1219   -5.7248    2.4173 C   0  0  1  0  0  0  0  0  0  0  0  0
    5.6618   -5.6676    2.3843 C   0  0  0  0  0  0  0  0  0  0  0  0
    6.1652   -4.3862    1.7814 C   0  0  0  0  0  0  0  0  0  0  0  0
    5.4336   -3.5725    1.0015 C   0  0  0  0  0  0  0  0  0  0  0  0
    5.9449   -2.1905    0.6484 C   0  0  0  0  0  0  0  0  0  0  0  0
    4.9863   -1.1471    1.2215 C   0  0  0  0  0  0  0  0  0  0  0  0
    5.4164   -0.0228    1.4415 O   0  0  0  0  0  0  0  0  0  0  0  0
    3.5793   -1.5171    1.4561 C   0  0  0  0  0  0  0  0  0  0  0  0
    3.1221   -2.7503    1.1449 C   0  0  0  0  0  0  0  0  0  0  0  0
    3.9804   -3.8852    0.5669 C   0  0  1  0  0  0  0  0  0  0  0  0
    3.9135   -3.7452   -0.9780 C   0  0  0  0  0  0  0  0  0  0  0  0
    3.5205   -5.3370    1.0295 C   0  0  1  0  0  0  0  0  0  0  0  0
    4.0623   -6.2147    0.1786 F   0  0  0  0  0  0  0  0  0  0  0  0
    1.9719   -5.6260    1.0002 C   0  0  1  0  0  0  0  0  0  0  0  0
    1.4187   -5.5116   -0.2967 O   0  0  0  0  0  0  0  0  0  0  0  0
    1.5476   -7.0066    1.5673 C   0  0  0  0  0  0  0  0  0  0  0  0
    2.1051   -7.2522    2.9898 C   0  0  2  0  0  0  0  0  0  0  0  0
    1.4992   -6.1898    3.9572 C   0  0  0  0  0  0  0  0  0  0  0  0
    1.9326   -8.6920    3.5975 C   0  0  1  0  0  0  0  0  0  0  0  0
    2.1545   -9.6337    2.5636 O   0  0  0  0  0  0  0  0  0  0  0  0
    0.4944   -8.9602    4.1661 C   0  0  0  0  0  0  0  0  0  0  0  0
    0.1780   -8.6936    5.3331 O   0  0  0  0  0  0  0  0  0  0  0  0
   -0.5670   -9.5180    3.2163 C   0  0  0  0  0  0  0  0  0  0  0  0
   -1.8455   -9.0514    3.6099 O   0  0  0  0  0  0  0  0  0  0  0  0
    2.4269   -7.9439    6.4486 H   0  0  0  0  0  0  0  0  0  0  0  0
    3.8593   -8.9388    6.6613 H   0  0  0  0  0  0  0  0  0  0  0  0
    2.3099   -9.7049    6.4050 H   0  0  0  0  0  0  0  0  0  0  0  0
    3.6548   -9.7934    4.3618 H   0  0  0  0  0  0  0  0  0  0  0  0
    4.1669   -6.9339    4.9643 H   0  0  0  0  0  0  0  0  0  0  0  0
    5.1692   -8.0866    4.0994 H   0  0  0  0  0  0  0  0  0  0  0  0
    3.9724   -7.8277    2.1086 H   0  0  0  0  0  0  0  0  0  0  0  0
    3.8162   -4.9739    3.1465 H   0  0  0  0  0  0  0  0  0  0  0  0
    6.0454   -5.7240    3.4032 H   0  0  0  0  0  0  0  0  0  0  0  0
    6.0949   -6.4992    1.8273 H   0  0  0  0  0  0  0  0  0  0  0  0
    7.1733   -4.0994    2.0517 H   0  0  0  0  0  0  0  0  0  0  0  0
    6.9392   -2.0272    1.0768 H   0  0  0  0  0  0  0  0  0  0  0  0
    6.0395   -2.0545   -0.4296 H   0  0  0  0  0  0  0  0  0  0  0  0
    2.9230   -0.7517    1.8506 H   0  0  0  0  0  0  0  0  0  0  0  0
    2.0746   -2.9404    1.2904 H   0  0  0  0  0  0  0  0  0  0  0  0
    4.2068   -2.7517   -1.3203 H   0  0  0  0  0  0  0  0  0  0  0  0
    2.9041   -3.8739   -1.3606 H   0  0  0  0  0  0  0  0  0  0  0  0
    4.5666   -4.4608   -1.4844 H   0  0  0  0  0  0  0  0  0  0  0  0
    1.4719   -4.8901    1.6178 H   0  0  0  0  0  0  0  0  0  0  0  0
    2.0919   -5.7600   -0.9220 H   0  0  0  0  0  0  0  0  0  0  0  0
    0.4613   -7.0891    1.5683 H   0  0  0  0  0  0  0  0  0  0  0  0
    1.8997   -7.7866    0.8905 H   0  0  0  0  0  0  0  0  0  0  0  0
    0.4066   -6.2401    3.9695 H   0  0  0  0  0  0  0  0  0  0  0  0
    1.7473   -5.1637    3.6931 H   0  0  0  0  0  0  0  0  0  0  0  0
    1.8409   -6.3220    4.9850 H   0  0  0  0  0  0  0  0  0  0  0  0
    3.0589   -9.5523    2.2611 H   0  0  0  0  0  0  0  0  0  0  0  0
   -0.3652   -9.2542    2.1756 H   0  0  0  0  0  0  0  0  0  0  0  0
   -0.5578  -10.6098    3.2905 H   0  0  0  0  0  0  0  0  0  0  0  0
   -2.1083   -9.6544    4.3107 H   0  0  0  0  0  0  0  0  0  0  0  0
  1  2  1  0
  1 29  1  0
  1 30  1  0
  1 31  1  0
  2 23  1  0
  2  3  1  0
  2 32  1  6
  3  4  1  0
  3 33  1  0
  3 34  1  0
  4 21  1  0
  4  5  1  0
  4 35  1  6
  5 16  1  0
  5  6  1  0
  5 36  1  1
  6  7  1  0
  6 37  1  0
  6 38  1  0
  7  8  2  0
  7 39  1  0
  8 14  1  0
  8  9  1  0
  9 10  1  0
  9 40  1  0
  9 41  1  0
 10 11  2  0
 10 12  1  0
 12 13  2  0
 12 42  1  0
 13 14  1  0
 13 43  1  0
 14 15  1  6
 14 16  1  0
 15 44  1  0
 15 45  1  0
 15 46  1  0
 16 17  1  6
 16 18  1  0
 18 19  1  0
 18 20  1  0
 18 47  1  1
 19 48  1  0
 20 21  1  0
 20 49  1  0
 20 50  1  0
 21 22  1  1
 21 23  1  0
 22 51  1  0
 22 52  1  0
 22 53  1  0
 23 24  1  6
 23 25  1  0
 24 54  1  0
 25 26  2  0
 25 27  1  0
 27 28  1  0
 27 55  1  0
 27 56  1  0
 28 57  1  0
M  END
>  <i_m_ct_stereo_status>  (175) 
1

>  <s_m_source_file>  (175) 
/var/tmp/pbs.5076255.sched01/tmp3npnc3rz/42_8qtnw6u.sdf

>  <i_m_source_file_index>  (175) 
32

>  <i_lp_mmshare_version>  (175) 
48012

>  <i_f3d_flags>  (175) 
0

>  <s_epik_input>  (175) 
RltDQEBdMTJbQ0BASF0oW09IXSlbQ0gyXVtDQEBdKFtDSDNdKShbQ0BAXShbT0hdKShbQ0BIXShbQ0gzXSlbQ0gyXTMpQyg9TylbQ0gyXVtPSF0pW0NASF0zW0NASF0xW0NIMl1bQ0hdPUMoW0NAQF0yNFtDSDNdKVtDSDJdQyg9TylbQ0hdPVtDSF00

>  <s_epik_cmdline>  (175) 
J2VwaWtfcHl0aG9uJywgJy1waHQnLCAnMi4wJywgJy1waCcsICc3LjAnLCAnLXRuJywgJzgnLCAnLW1hJywgJzIwMCcsICctaW1hZScsICc8aW5maWxlLm1hZT4nLCAnLW9tYWUnLCAnPG91dGZpbGUubWFlPic=

>  <r_lp_tautomer_probability>  (175) 
1

>  <r_epik_Ionization_Penalty>  (175) 
7.77872e-06

>  <r_epik_Ionization_Penalty_Charging>  (175) 
0

>  <r_epik_Ionization_Penalty_Neutral>  (175) 
7.77872e-06

>  <r_epik_State_Penalty>  (175) 
-0

>  <r_epik_Charging_Adjusted_Penalty>  (175) 
0

>  <i_epik_Tot_Q>  (175) 
0

>  <i_epik_Tot_abs_Q>  (175) 
0

>  <s_lp_Force_Field>  (175) 
OPLS3e

>  <r_lp_Energy>  (175) 
68.6331

>  <b_lp_Chiralities_Consistent>  (175) 
1

>  <s_lp_Variant>  (175) 
50:0-1

>  <s_i_glide_gridfile>  (175) 
pfpi4k_grid

>  <i_i_glide_lignum>  (175) 
32

>  <i_i_glide_rotatable_bonds>  (175) 
5

>  <r_i_docking_score>  (175) 
-4.38686

>  <r_i_glide_ligand_efficiency>  (175) 
-0.156674

>  <r_i_glide_ligand_efficiency_sa>  (175) 
-0.475753

>  <r_i_glide_ligand_efficiency_ln>  (175) 
-1.01262

>  <r_i_glide_gscore>  (175) 
-4.38686

>  <r_i_glide_lipo>  (175) 
-0.218643

>  <r_i_glide_hbond>  (175) 
-0.748441

>  <r_i_glide_metal>  (175) 
-0

>  <r_i_glide_rewards>  (175) 
-0.946685

>  <r_i_glide_evdw>  (175) 
-18.8054

>  <r_i_glide_ecoul>  (175) 
-11.6651

>  <r_i_glide_erotb>  (175) 
0.253529

>  <r_i_glide_esite>  (175) 
-0.0365871

>  <r_i_glide_emodel>  (175) 
-37.5487

>  <r_i_glide_energy>  (175) 
-30.4705

>  <r_i_glide_einternal>  (175) 
3.56978

>  <r_i_glide_intrahb_reward>  (175) 
-0

>  <i_i_glide_confnum>  (175) 
4

>  <i_i_glide_posenum>  (175) 
1

>  <r_i_glide_eff_state_penalty>  (175) 
0

>  <ligand_id>  (175) 
50

>  <original_smiles>  (175) 
CC1CC2C3CC=C4CC(=O)C=CC4(C)C3(F)C(O)CC2(C)C1(O)C(=O)CO

>  <smiles>  (175) 
[H]OC([H])([H])C(=O)C1(O[H])C([H])(C([H])([H])[H])C([H])([H])C2([H])C3([H])C([H])([H])C([H])=C4C([H])([H])C(=O)C([H])=C([H])C4(C([H])([H])[H])C3(F)C([H])(O[H])C([H])([H])C12C([H])([H])[H]

$$$$
50:0:1
     RDKit          3D

 57 60  0  0  1  0  0  0  0  0999 V2000
    3.7751   -8.9742    6.3023 C   0  0  0  0  0  0  0  0  0  0  0  0
    3.6608   -9.0711    4.7608 C   0  0  2  0  0  0  0  0  0  0  0  0
    4.8011   -8.2403    4.1010 C   0  0  0  0  0  0  0  0  0  0  0  0
    4.1802   -7.5609    2.8758 C   0  0  2  0  0  0  0  0  0  0  0  0
    4.8983   -6.3281    2.2465 C   0  0  1  0  0  0  0  0  0  0  0  0
    6.3622   -6.6616    1.9106 C   0  0  0  0  0  0  0  0  0  0  0  0
    7.0364   -5.5412    1.1611 C   0  0  0  0  0  0  0  0  0  0  0  0
    6.3743   -4.5807    0.4934 C   0  0  0  0  0  0  0  0  0  0  0  0
    7.1296   -3.3795   -0.0551 C   0  0  0  0  0  0  0  0  0  0  0  0
    6.5936   -2.1194    0.6151 C   0  0  0  0  0  0  0  0  0  0  0  0
    7.3177   -1.1230    0.6128 O   0  0  0  0  0  0  0  0  0  0  0  0
    5.2278   -2.1155    1.1700 C   0  0  0  0  0  0  0  0  0  0  0  0
    4.4242   -3.1932    1.0385 C   0  0  0  0  0  0  0  0  0  0  0  0
    4.8388   -4.5115    0.3680 C   0  0  1  0  0  0  0  0  0  0  0  0
    4.4911   -4.3605   -1.1318 C   0  0  0  0  0  0  0  0  0  0  0  0
    4.1306   -5.7980    0.9900 C   0  0  1  0  0  0  0  0  0  0  0  0
    4.2466   -6.7848    0.0970 F   0  0  0  0  0  0  0  0  0  0  0  0
    2.5841   -5.6863    1.2767 C   0  0  1  0  0  0  0  0  0  0  0  0
    1.8297   -5.4635    0.0974 O   0  0  0  0  0  0  0  0  0  0  0  0
    1.9669   -6.9154    2.0026 C   0  0  0  0  0  0  0  0  0  0  0  0
    2.7307   -7.2712    3.3069 C   0  0  2  0  0  0  0  0  0  0  0  0
    2.6706   -6.0528    4.2959 C   0  0  0  0  0  0  0  0  0  0  0  0
    2.3285   -8.6233    4.0371 C   0  0  1  0  0  0  0  0  0  0  0  0
    2.1070   -9.6252    3.0551 O   0  0  0  0  0  0  0  0  0  0  0  0
    1.0135   -8.5751    4.8757 C   0  0  0  0  0  0  0  0  0  0  0  0
    0.2319   -7.6234    4.7716 O   0  0  0  0  0  0  0  0  0  0  0  0
    0.6005   -9.7989    5.7217 C   0  0  0  0  0  0  0  0  0  0  0  0
   -0.5852   -9.5016    6.4326 O   0  0  0  0  0  0  0  0  0  0  0  0
    3.5692   -7.9656    6.6650 H   0  0  0  0  0  0  0  0  0  0  0  0
    4.7955   -9.2304    6.6138 H   0  0  0  0  0  0  0  0  0  0  0  0
    3.1457   -9.6719    6.8340 H   0  0  0  0  0  0  0  0  0  0  0  0
    3.8554  -10.1169    4.5161 H   0  0  0  0  0  0  0  0  0  0  0  0
    5.1758   -7.4884    4.7928 H   0  0  0  0  0  0  0  0  0  0  0  0
    5.6501   -8.8670    3.8243 H   0  0  0  0  0  0  0  0  0  0  0  0
    4.1640   -8.3277    2.0978 H   0  0  0  0  0  0  0  0  0  0  0  0
    4.9498   -5.5207    2.9753 H   0  0  0  0  0  0  0  0  0  0  0  0
    6.9178   -6.8099    2.8352 H   0  0  0  0  0  0  0  0  0  0  0  0
    6.4521   -7.5777    1.3285 H   0  0  0  0  0  0  0  0  0  0  0  0
    8.1147   -5.5169    1.2296 H   0  0  0  0  0  0  0  0  0  0  0  0
    8.1947   -3.4694    0.1558 H   0  0  0  0  0  0  0  0  0  0  0  0
    7.0219   -3.2892   -1.1346 H   0  0  0  0  0  0  0  0  0  0  0  0
    4.8709   -1.2098    1.6445 H   0  0  0  0  0  0  0  0  0  0  0  0
    3.4120   -3.1156    1.4010 H   0  0  0  0  0  0  0  0  0  0  0  0
    4.9324   -3.4744   -1.5886 H   0  0  0  0  0  0  0  0  0  0  0  0
    3.4235   -4.2531   -1.3034 H   0  0  0  0  0  0  0  0  0  0  0  0
    4.8558   -5.2125   -1.7046 H   0  0  0  0  0  0  0  0  0  0  0  0
    2.3886   -4.8301    1.9124 H   0  0  0  0  0  0  0  0  0  0  0  0
    2.3269   -5.8109   -0.6338 H   0  0  0  0  0  0  0  0  0  0  0  0
    0.9192   -6.7219    2.2334 H   0  0  0  0  0  0  0  0  0  0  0  0
    1.9662   -7.7610    1.3132 H   0  0  0  0  0  0  0  0  0  0  0  0
    1.6535   -5.7294    4.5104 H   0  0  0  0  0  0  0  0  0  0  0  0
    3.1408   -5.1459    3.9198 H   0  0  0  0  0  0  0  0  0  0  0  0
    3.1455   -6.2769    5.2499 H   0  0  0  0  0  0  0  0  0  0  0  0
    2.9102   -9.8002    2.5964 H   0  0  0  0  0  0  0  0  0  0  0  0
    0.4323  -10.6655    5.0692 H   0  0  0  0  0  0  0  0  0  0  0  0
    1.2920  -10.0923    6.4873 H   0  0  0  0  0  0  0  0  0  0  0  0
   -1.2864   -9.9633    5.9730 H   0  0  0  0  0  0  0  0  0  0  0  0
  1  2  1  0
  1 29  1  0
  1 30  1  0
  1 31  1  0
  2 23  1  0
  2  3  1  0
  2 32  1  1
  3  4  1  0
  3 33  1  0
  3 34  1  0
  4 21  1  0
  4  5  1  0
  4 35  1  6
  5 16  1  0
  5  6  1  0
  5 36  1  1
  6  7  1  0
  6 37  1  0
  6 38  1  0
  7  8  2  0
  7 39  1  0
  8 14  1  0
  8  9  1  0
  9 10  1  0
  9 40  1  0
  9 41  1  0
 10 11  2  0
 10 12  1  0
 12 13  2  0
 12 42  1  0
 13 14  1  0
 13 43  1  0
 14 15  1  6
 14 16  1  0
 15 44  1  0
 15 45  1  0
 15 46  1  0
 16 17  1  6
 16 18  1  0
 18 19  1  0
 18 20  1  0
 18 47  1  1
 19 48  1  0
 20 21  1  0
 20 49  1  0
 20 50  1  0
 21 22  1  1
 21 23  1  0
 22 51  1  0
 22 52  1  0
 22 53  1  0
 23 24  1  6
 23 25  1  0
 24 54  1  0
 25 26  2  0
 25 27  1  0
 27 28  1  0
 27 55  1  0
 27 56  1  0
 28 57  1  0
M  END
>  <i_m_ct_stereo_status>  (176) 
1

>  <s_m_source_file>  (176) 
/var/tmp/pbs.5076255.sched01/tmp3npnc3rz/42_8qtnw6u.sdf

>  <i_m_source_file_index>  (176) 
32

>  <i_lp_mmshare_version>  (176) 
48012

>  <i_f3d_flags>  (176) 
0

>  <s_epik_input>  (176) 
RltDQEBdMTJbQ0BASF0oW09IXSlbQ0gyXVtDQEBdKFtDSDNdKShbQ0BAXShbT0hdKShbQ0BIXShbQ0gzXSlbQ0gyXTMpQyg9TylbQ0gyXVtPSF0pW0NASF0zW0NASF0xW0NIMl1bQ0hdPUMoW0NAQF0yNFtDSDNdKVtDSDJdQyg9TylbQ0hdPVtDSF00

>  <s_epik_cmdline>  (176) 
J2VwaWtfcHl0aG9uJywgJy1waHQnLCAnMi4wJywgJy1waCcsICc3LjAnLCAnLXRuJywgJzgnLCAnLW1hJywgJzIwMCcsICctaW1hZScsICc8aW5maWxlLm1hZT4nLCAnLW9tYWUnLCAnPG91dGZpbGUubWFlPic=

>  <r_lp_tautomer_probability>  (176) 
1

>  <r_epik_Ionization_Penalty>  (176) 
7.77872e-06

>  <r_epik_Ionization_Penalty_Charging>  (176) 
0

>  <r_epik_Ionization_Penalty_Neutral>  (176) 
7.77872e-06

>  <r_epik_State_Penalty>  (176) 
-0

>  <r_epik_Charging_Adjusted_Penalty>  (176) 
0

>  <i_epik_Tot_Q>  (176) 
0

>  <i_epik_Tot_abs_Q>  (176) 
0

>  <s_lp_Force_Field>  (176) 
OPLS3e

>  <r_lp_Energy>  (176) 
68.6331

>  <b_lp_Chiralities_Consistent>  (176) 
1

>  <s_lp_Variant>  (176) 
50:0-1

>  <s_i_glide_gridfile>  (176) 
pfpi4k_grid

>  <i_i_glide_lignum>  (176) 
32

>  <i_i_glide_rotatable_bonds>  (176) 
5

>  <r_i_docking_score>  (176) 
-4.02624

>  <r_i_glide_ligand_efficiency>  (176) 
-0.143794

>  <r_i_glide_ligand_efficiency_sa>  (176) 
-0.436644

>  <r_i_glide_ligand_efficiency_ln>  (176) 
-0.929375

>  <r_i_glide_gscore>  (176) 
-4.02624

>  <r_i_glide_lipo>  (176) 
-0.615834

>  <r_i_glide_hbond>  (176) 
-0.35864

>  <r_i_glide_metal>  (176) 
-0

>  <r_i_glide_rewards>  (176) 
-0.950739

>  <r_i_glide_evdw>  (176) 
-19.2125

>  <r_i_glide_ecoul>  (176) 
-9.14659

>  <r_i_glide_erotb>  (176) 
0.253529

>  <r_i_glide_esite>  (176) 
-0.0219437

>  <r_i_glide_emodel>  (176) 
-32.8634

>  <r_i_glide_energy>  (176) 
-28.3591

>  <r_i_glide_einternal>  (176) 
4.99247

>  <r_i_glide_intrahb_reward>  (176) 
-0

>  <i_i_glide_confnum>  (176) 
4

>  <i_i_glide_posenum>  (176) 
35

>  <r_i_glide_eff_state_penalty>  (176) 
0

>  <ligand_id>  (176) 
50

>  <original_smiles>  (176) 
CC1CC2C3CC=C4CC(=O)C=CC4(C)C3(F)C(O)CC2(C)C1(O)C(=O)CO

>  <smiles>  (176) 
[H]OC([H])([H])C(=O)C1(O[H])C([H])(C([H])([H])[H])C([H])([H])C2([H])C3([H])C([H])([H])C([H])=C4C([H])([H])C(=O)C([H])=C([H])C4(C([H])([H])[H])C3(F)C([H])(O[H])C([H])([H])C12C([H])([H])[H]

$$$$
50:0:2
     RDKit          3D

 57 60  0  0  1  0  0  0  0  0999 V2000
    3.5830   -3.8802   -0.6854 C   0  0  0  0  0  0  0  0  0  0  0  0
    3.9008   -3.5978    0.8031 C   0  0  2  0  0  0  0  0  0  0  0  0
    2.6006   -3.1978    1.5505 C   0  0  0  0  0  0  0  0  0  0  0  0
    2.9819   -2.0820    2.5291 C   0  0  2  0  0  0  0  0  0  0  0  0
    1.8605   -1.1658    3.1082 C   0  0  1  0  0  0  0  0  0  0  0  0
    0.7575   -2.0007    3.7711 C   0  0  0  0  0  0  0  0  0  0  0  0
   -0.2608   -1.1379    4.4813 C   0  0  0  0  0  0  0  0  0  0  0  0
   -0.0273    0.1268    4.8644 C   0  0  0  0  0  0  0  0  0  0  0  0
   -1.1873    0.9905    5.3593 C   0  0  0  0  0  0  0  0  0  0  0  0
   -1.3583    2.1826    4.4149 C   0  0  0  0  0  0  0  0  0  0  0  0
   -2.4552    2.7510    4.3727 O   0  0  0  0  0  0  0  0  0  0  0  0
   -0.1955    2.6398    3.6314 C   0  0  0  0  0  0  0  0  0  0  0  0
    1.0083    2.0578    3.7639 C   0  0  0  0  0  0  0  0  0  0  0  0
    1.3155    0.8561    4.6818 C   0  0  1  0  0  0  0  0  0  0  0  0
    1.7469    1.4406    6.0552 C   0  0  0  0  0  0  0  0  0  0  0  0
    2.4467   -0.1182    4.1097 C   0  0  1  0  0  0  0  0  0  0  0  0
    2.8828   -0.8641    5.1304 F   0  0  0  0  0  0  0  0  0  0  0  0
    3.7282    0.5655    3.5098 C   0  0  1  0  0  0  0  0  0  0  0  0
    4.4240    1.3315    4.4779 O   0  0  0  0  0  0  0  0  0  0  0  0
    4.7535   -0.4052    2.8524 C   0  0  0  0  0  0  0  0  0  0  0  0
    4.0822   -1.3104    1.7836 C   0  0  2  0  0  0  0  0  0  0  0  0
    3.4795   -0.4134    0.6462 C   0  0  0  0  0  0  0  0  0  0  0  0
    4.9590   -2.4932    1.1845 C   0  0  1  0  0  0  0  0  0  0  0  0
    5.7022   -3.0599    2.2562 O   0  0  0  0  0  0  0  0  0  0  0  0
    6.0131   -2.0747    0.1122 C   0  0  0  0  0  0  0  0  0  0  0  0
    6.2393   -0.8823   -0.0727 O   0  0  0  0  0  0  0  0  0  0  0  0
    6.8692   -3.1351   -0.6328 C   0  0  0  0  0  0  0  0  0  0  0  0
    7.8236   -2.5189   -1.5053 O   0  0  0  0  0  0  0  0  0  0  0  0
    3.2756   -2.9747   -1.2124 H   0  0  0  0  0  0  0  0  0  0  0  0
    2.7473   -4.5885   -0.7293 H   0  0  0  0  0  0  0  0  0  0  0  0
    4.4079   -4.3509   -1.2234 H   0  0  0  0  0  0  0  0  0  0  0  0
    4.2255   -4.5484    1.2308 H   0  0  0  0  0  0  0  0  0  0  0  0
    1.8622   -2.8184    0.8463 H   0  0  0  0  0  0  0  0  0  0  0  0
    2.1567   -4.0480    2.0716 H   0  0  0  0  0  0  0  0  0  0  0  0
    3.4358   -2.5917    3.3846 H   0  0  0  0  0  0  0  0  0  0  0  0
    1.3748   -0.6241    2.2977 H   0  0  0  0  0  0  0  0  0  0  0  0
    0.2292   -2.5590    3.0034 H   0  0  0  0  0  0  0  0  0  0  0  0
    1.1576   -2.7261    4.4760 H   0  0  0  0  0  0  0  0  0  0  0  0
   -1.2342   -1.5827    4.6080 H   0  0  0  0  0  0  0  0  0  0  0  0
   -2.1101    0.4146    5.3769 H   0  0  0  0  0  0  0  0  0  0  0  0
   -1.0085    1.3481    6.3701 H   0  0  0  0  0  0  0  0  0  0  0  0
   -0.3334    3.4837    2.9605 H   0  0  0  0  0  0  0  0  0  0  0  0
    1.8318    2.4714    3.1988 H   0  0  0  0  0  0  0  0  0  0  0  0
    1.0045    2.1289    6.4618 H   0  0  0  0  0  0  0  0  0  0  0  0
    2.6593    2.0254    5.9886 H   0  0  0  0  0  0  0  0  0  0  0  0
    1.9038    0.6599    6.8025 H   0  0  0  0  0  0  0  0  0  0  0  0
    3.4354    1.2771    2.7441 H   0  0  0  0  0  0  0  0  0  0  0  0
    4.9651    1.9357    4.0037 H   0  0  0  0  0  0  0  0  0  0  0  0
    5.5822    0.1381    2.4002 H   0  0  0  0  0  0  0  0  0  0  0  0
    5.2039   -1.0075    3.6439 H   0  0  0  0  0  0  0  0  0  0  0  0
    4.2131    0.2559    0.2002 H   0  0  0  0  0  0  0  0  0  0  0  0
    2.7005    0.2672    0.9825 H   0  0  0  0  0  0  0  0  0  0  0  0
    3.0500   -1.0132   -0.1554 H   0  0  0  0  0  0  0  0  0  0  0  0
    6.0853   -3.8668    1.9713 H   0  0  0  0  0  0  0  0  0  0  0  0
    7.3925   -3.7619    0.0952 H   0  0  0  0  0  0  0  0  0  0  0  0
    6.2715   -3.7761   -1.2804 H   0  0  0  0  0  0  0  0  0  0  0  0
    8.1924   -3.1555   -2.0772 H   0  0  0  0  0  0  0  0  0  0  0  0
  1  2  1  0
  1 29  1  0
  1 30  1  0
  1 31  1  0
  2 23  1  0
  2  3  1  0
  2 32  1  1
  3  4  1  0
  3 33  1  0
  3 34  1  0
  4 21  1  0
  4  5  1  0
  4 35  1  1
  5 16  1  0
  5  6  1  0
  5 36  1  6
  6  7  1  0
  6 37  1  0
  6 38  1  0
  7  8  2  0
  7 39  1  0
  8 14  1  0
  8  9  1  0
  9 10  1  0
  9 40  1  0
  9 41  1  0
 10 11  2  0
 10 12  1  0
 12 13  2  0
 12 42  1  0
 13 14  1  0
 13 43  1  0
 14 15  1  1
 14 16  1  0
 15 44  1  0
 15 45  1  0
 15 46  1  0
 16 17  1  1
 16 18  1  0
 18 19  1  0
 18 20  1  0
 18 47  1  6
 19 48  1  0
 20 21  1  0
 20 49  1  0
 20 50  1  0
 21 22  1  6
 21 23  1  0
 22 51  1  0
 22 52  1  0
 22 53  1  0
 23 24  1  1
 23 25  1  0
 24 54  1  0
 25 26  2  0
 25 27  1  0
 27 28  1  0
 27 55  1  0
 27 56  1  0
 28 57  1  0
M  END
>  <i_m_ct_stereo_status>  (177) 
1

>  <s_m_source_file>  (177) 
/var/tmp/pbs.5076255.sched01/tmp3npnc3rz/42_8qtnw6u.sdf

>  <i_m_source_file_index>  (177) 
32

>  <i_lp_mmshare_version>  (177) 
48012

>  <i_f3d_flags>  (177) 
0

>  <s_epik_input>  (177) 
RltDQEBdMTJbQ0BASF0oW09IXSlbQ0gyXVtDQEBdKFtDSDNdKShbQ0BAXShbT0hdKShbQ0BIXShbQ0gzXSlbQ0gyXTMpQyg9TylbQ0gyXVtPSF0pW0NASF0zW0NASF0xW0NIMl1bQ0hdPUMoW0NAQF0yNFtDSDNdKVtDSDJdQyg9TylbQ0hdPVtDSF00

>  <s_epik_cmdline>  (177) 
J2VwaWtfcHl0aG9uJywgJy1waHQnLCAnMi4wJywgJy1waCcsICc3LjAnLCAnLXRuJywgJzgnLCAnLW1hJywgJzIwMCcsICctaW1hZScsICc8aW5maWxlLm1hZT4nLCAnLW9tYWUnLCAnPG91dGZpbGUubWFlPic=

>  <r_lp_tautomer_probability>  (177) 
1

>  <r_epik_Ionization_Penalty>  (177) 
7.77872e-06

>  <r_epik_Ionization_Penalty_Charging>  (177) 
0

>  <r_epik_Ionization_Penalty_Neutral>  (177) 
7.77872e-06

>  <r_epik_State_Penalty>  (177) 
-0

>  <r_epik_Charging_Adjusted_Penalty>  (177) 
0

>  <i_epik_Tot_Q>  (177) 
0

>  <i_epik_Tot_abs_Q>  (177) 
0

>  <s_lp_Force_Field>  (177) 
OPLS3e

>  <r_lp_Energy>  (177) 
68.6331

>  <b_lp_Chiralities_Consistent>  (177) 
1

>  <s_lp_Variant>  (177) 
50:0-1

>  <s_i_glide_gridfile>  (177) 
pfpi4k_grid

>  <i_i_glide_lignum>  (177) 
32

>  <i_i_glide_rotatable_bonds>  (177) 
5

>  <r_i_docking_score>  (177) 
-3.23724

>  <r_i_glide_ligand_efficiency>  (177) 
-0.115616

>  <r_i_glide_ligand_efficiency_sa>  (177) 
-0.351077

>  <r_i_glide_ligand_efficiency_ln>  (177) 
-0.74725

>  <r_i_glide_gscore>  (177) 
-3.23724

>  <r_i_glide_lipo>  (177) 
-0.254708

>  <r_i_glide_hbond>  (177) 
-0.241211

>  <r_i_glide_metal>  (177) 
-0

>  <r_i_glide_rewards>  (177) 
-0.758563

>  <r_i_glide_evdw>  (177) 
-22.9828

>  <r_i_glide_ecoul>  (177) 
-7.10688

>  <r_i_glide_erotb>  (177) 
0.253529

>  <r_i_glide_esite>  (177) 
-0.0211147

>  <r_i_glide_emodel>  (177) 
-34.451

>  <r_i_glide_energy>  (177) 
-30.0897

>  <r_i_glide_einternal>  (177) 
3.63905

>  <r_i_glide_intrahb_reward>  (177) 
-0

>  <i_i_glide_confnum>  (177) 
5

>  <i_i_glide_posenum>  (177) 
31

>  <r_i_glide_eff_state_penalty>  (177) 
0

>  <ligand_id>  (177) 
50

>  <original_smiles>  (177) 
CC1CC2C3CC=C4CC(=O)C=CC4(C)C3(F)C(O)CC2(C)C1(O)C(=O)CO

>  <smiles>  (177) 
[H]OC([H])([H])C(=O)C1(O[H])C([H])(C([H])([H])[H])C([H])([H])C2([H])C3([H])C([H])([H])C([H])=C4C([H])([H])C(=O)C([H])=C([H])C4(C([H])([H])[H])C3(F)C([H])(O[H])C([H])([H])C12C([H])([H])[H]

$$$$
51:0:0
     RDKit          3D

 42 46  0  0  1  0  0  0  0  0999 V2000
    3.3486   -2.8806   -3.3560 C   0  0  0  0  0  0  0  0  0  0  0  0
    3.6939   -3.5598   -2.0912 N   0  0  2  0  0  0  0  0  0  0  0  0
    2.6447   -3.4536   -1.0600 C   0  0  0  0  0  0  0  0  0  0  0  0
    2.8835   -2.2457   -0.1547 C   0  0  0  0  0  0  0  0  0  0  0  0
    4.3085   -2.1861    0.4058 C   0  0  2  0  0  0  0  0  0  0  0  0
    4.5578   -3.4446    1.1853 C   0  0  0  0  0  0  0  0  0  0  0  0
    5.0045   -4.6792    0.6735 C   0  0  0  0  0  0  0  0  0  0  0  0
    5.0708   -5.7480    1.5804 C   0  0  0  0  0  0  0  0  0  0  0  0
    4.6900   -5.5417    2.9312 C   0  0  0  0  0  0  0  0  0  0  0  0
    4.3111   -4.2495    3.3937 C   0  0  0  0  0  0  0  0  0  0  0  0
    3.9896   -4.0562    4.7025 O   0  0  0  0  0  0  0  0  0  0  0  0
    4.2713   -3.1659    2.5014 C   0  0  0  0  0  0  0  0  0  0  0  0
    3.9959   -1.8460    2.7306 O   0  0  0  0  0  0  0  0  0  0  0  0
    4.3866   -1.1214    1.5407 C   0  0  1  0  0  0  0  0  0  0  0  0
    5.8082   -0.5286    1.6953 C   0  0  1  0  0  0  0  0  0  0  0  0
    6.1194   -0.3936    3.0675 O   0  0  0  0  0  0  0  0  0  0  0  0
    6.9141   -1.2040    0.8800 C   0  0  0  0  0  0  0  0  0  0  0  0
    6.6878   -1.8790   -0.2597 C   0  0  0  0  0  0  0  0  0  0  0  0
    5.2879   -2.0866   -0.7860 C   0  0  2  0  0  0  0  0  0  0  0  0
    5.0380   -1.0012   -1.6598 O   0  0  0  0  0  0  0  0  0  0  0  0
    5.0945   -3.3933   -1.6008 C   0  0  1  0  0  0  0  0  0  0  0  0
    5.4975   -4.6156   -0.7605 C   0  0  0  0  0  0  0  0  0  0  0  0
    3.1758   -1.8148   -3.1989 H   0  0  0  0  0  0  0  0  0  0  0  0
    2.4264   -3.3017   -3.7640 H   0  0  0  0  0  0  0  0  0  0  0  0
    4.1330   -3.0114   -4.1042 H   0  0  0  0  0  0  0  0  0  0  0  0
    1.6597   -3.3874   -1.5259 H   0  0  0  0  0  0  0  0  0  0  0  0
    2.6161   -4.3624   -0.4563 H   0  0  0  0  0  0  0  0  0  0  0  0
    2.7140   -1.3416   -0.7420 H   0  0  0  0  0  0  0  0  0  0  0  0
    2.1505   -2.2503    0.6560 H   0  0  0  0  0  0  0  0  0  0  0  0
    5.4239   -6.7186    1.2518 H   0  0  0  0  0  0  0  0  0  0  0  0
    4.7138   -6.3645    3.6205 H   0  0  0  0  0  0  0  0  0  0  0  0
    3.7950   -3.1474    4.8731 H   0  0  0  0  0  0  0  0  0  0  0  0
    3.6982   -0.2888    1.3777 H   0  0  0  0  0  0  0  0  0  0  0  0
    5.7790    0.4925    1.3212 H   0  0  0  0  0  0  0  0  0  0  0  0
    6.9858   -0.0285    3.1313 H   0  0  0  0  0  0  0  0  0  0  0  0
    7.9310   -1.0426    1.2027 H   0  0  0  0  0  0  0  0  0  0  0  0
    7.5052   -2.2818   -0.8359 H   0  0  0  0  0  0  0  0  0  0  0  0
    4.1037   -0.8609   -1.7128 H   0  0  0  0  0  0  0  0  0  0  0  0
    5.7471   -3.3834   -2.4740 H   0  0  0  0  0  0  0  0  0  0  0  0
    6.5781   -4.5804   -0.6768 H   0  0  0  0  0  0  0  0  0  0  0  0
    5.2142   -5.5420   -1.2544 H   0  0  0  0  0  0  0  0  0  0  0  0
    3.6297   -4.5445   -2.3375 H   0  0  0  0  0  0  0  0  0  0  0  0
  1  2  1  0
  1 23  1  0
  1 24  1  0
  1 25  1  0
  2 21  1  0
  2  3  1  0
  2 42  1  6
  3  4  1  0
  3 26  1  0
  3 27  1  0
  5  4  1  6
  4 28  1  0
  4 29  1  0
  5 14  1  0
  5 19  1  0
  5  6  1  0
  6 12  2  0
  6  7  1  0
  7 22  1  0
  7  8  2  0
  8  9  1  0
  8 30  1  0
  9 10  2  0
  9 31  1  0
 10 11  1  0
 10 12  1  0
 11 32  1  0
 12 13  1  0
 13 14  1  0
 14 15  1  0
 14 33  1  6
 15 16  1  0
 15 17  1  0
 15 34  1  6
 16 35  1  0
 17 18  2  0
 17 36  1  0
 18 19  1  0
 18 37  1  0
 19 20  1  6
 19 21  1  0
 20 38  1  0
 21 22  1  0
 21 39  1  6
 22 40  1  0
 22 41  1  0
M  CHG  1   2   1
M  END
>  <i_m_ct_stereo_status>  (178) 
1

>  <s_m_source_file>  (178) 
/var/tmp/pbs.5076255.sched01/tmp3npnc3rz/42_8qtnw6u.sdf

>  <i_m_source_file_index>  (178) 
33

>  <i_lp_mmshare_version>  (178) 
48012

>  <i_f3d_flags>  (178) 
0

>  <s_epik_input>  (178) 
W0NIMl0xW0NIMl1OKFtDSDNdKVtDQEhdKFtDSDJdMilbQ0BdMyhbT0hdKVtDSF09W0NIXVtDQEhdKFtPSF0pW0NAQEhdNE9jNWMoW09IXSlbY0hdW2NIXWMyYzVbQ0BdMTM0

>  <s_epik_cmdline>  (178) 
J2VwaWtfcHl0aG9uJywgJy1waHQnLCAnMi4wJywgJy1waCcsICc3LjAnLCAnLXRuJywgJzgnLCAnLW1hJywgJzIwMCcsICctaW1hZScsICc8aW5maWxlLm1hZT4nLCAnLW9tYWUnLCAnPG91dGZpbGUubWFlPic=

>  <r_lp_tautomer_probability>  (178) 
1

>  <r_epik_Ionization_Penalty>  (178) 
0.150507

>  <r_epik_Ionization_Penalty_Charging>  (178) 
0.139165

>  <r_epik_Ionization_Penalty_Neutral>  (178) 
0.0113417

>  <r_epik_State_Penalty>  (178) 
0.193535

>  <r_epik_Charging_Adjusted_Penalty>  (178) 
0.332699

>  <i_epik_Tot_Q>  (178) 
1

>  <i_epik_Tot_abs_Q>  (178) 
1

>  <s_lp_Force_Field>  (178) 
OPLS3e

>  <r_lp_Energy>  (178) 
62.0879

>  <b_lp_Chiralities_Consistent>  (178) 
1

>  <s_lp_Variant>  (178) 
51:0-1

>  <s_i_glide_gridfile>  (178) 
pfpi4k_grid

>  <i_i_glide_lignum>  (178) 
33

>  <i_i_glide_rotatable_bonds>  (178) 
3

>  <r_i_docking_score>  (178) 
-3.71311

>  <r_i_glide_ligand_efficiency>  (178) 
-0.168778

>  <r_i_glide_ligand_efficiency_sa>  (178) 
-0.472922

>  <r_i_glide_ligand_efficiency_ln>  (178) 
-0.90762

>  <r_i_glide_gscore>  (178) 
-3.71311

>  <r_i_glide_lipo>  (178) 
-0.470797

>  <r_i_glide_hbond>  (178) 
0

>  <r_i_glide_metal>  (178) 
-0

>  <r_i_glide_rewards>  (178) 
-1.34765

>  <r_i_glide_evdw>  (178) 
-14.2785

>  <r_i_glide_ecoul>  (178) 
-7.72172

>  <r_i_glide_erotb>  (178) 
0

>  <r_i_glide_esite>  (178) 
-0.0224846

>  <r_i_glide_emodel>  (178) 
-27.433

>  <r_i_glide_energy>  (178) 
-22.0002

>  <r_i_glide_einternal>  (178) 
0.632499

>  <r_i_glide_intrahb_reward>  (178) 
-0

>  <i_i_glide_confnum>  (178) 
1

>  <i_i_glide_posenum>  (178) 
8

>  <r_i_glide_eff_state_penalty>  (178) 
0

>  <ligand_id>  (178) 
51

>  <original_smiles>  (178) 
CN1CCC23c4c5ccc(O)c4OC2C(O)C=CC3(O)C1C5

>  <smiles>  (178) 
[H]Oc1c([H])c([H])c2c3c1OC1([H])C([H])(O[H])C([H])=C([H])C4(O[H])C31C([H])([H])C([H])([H])[N+]([H])(C([H])([H])[H])C4([H])C2([H])[H]

$$$$
51:0:1
     RDKit          3D

 42 46  0  0  1  0  0  0  0  0999 V2000
    3.8148   -2.9273   -3.7343 C   0  0  0  0  0  0  0  0  0  0  0  0
    3.8958   -3.5809   -2.4062 N   0  0  2  0  0  0  0  0  0  0  0  0
    2.7509   -3.2554   -1.5216 C   0  0  0  0  0  0  0  0  0  0  0  0
    3.0510   -2.0453   -0.6368 C   0  0  0  0  0  0  0  0  0  0  0  0
    4.3931   -2.1601    0.0926 C   0  0  2  0  0  0  0  0  0  0  0  0
    4.3560   -3.3988    0.9425 C   0  0  0  0  0  0  0  0  0  0  0  0
    4.6673   -4.7121    0.5436 C   0  0  0  0  0  0  0  0  0  0  0  0
    4.4803   -5.7328    1.4829 C   0  0  0  0  0  0  0  0  0  0  0  0
    3.9718   -5.4024    2.7604 C   0  0  0  0  0  0  0  0  0  0  0  0
    3.7239   -4.0555    3.1246 C   0  0  0  0  0  0  0  0  0  0  0  0
    3.2776   -3.7422    4.3720 O   0  0  0  0  0  0  0  0  0  0  0  0
    3.9575   -3.0184    2.2018 C   0  0  0  0  0  0  0  0  0  0  0  0
    3.8671   -1.6706    2.3499 O   0  0  0  0  0  0  0  0  0  0  0  0
    4.4971   -1.0678    1.1927 C   0  0  1  0  0  0  0  0  0  0  0  0
    5.9538   -0.6797    1.5193 C   0  0  1  0  0  0  0  0  0  0  0  0
    6.1683   -0.6216    2.9096 O   0  0  0  0  0  0  0  0  0  0  0  0
    7.0387   -1.4946    0.8391 C   0  0  0  0  0  0  0  0  0  0  0  0
    6.8578   -2.2056   -0.2845 C   0  0  0  0  0  0  0  0  0  0  0  0
    5.5116   -2.2624   -0.9653 C   0  0  2  0  0  0  0  0  0  0  0  0
    5.4905   -1.1831   -1.8832 O   0  0  0  0  0  0  0  0  0  0  0  0
    5.2432   -3.5823   -1.7437 C   0  0  1  0  0  0  0  0  0  0  0  0
    5.3421   -4.8088   -0.8079 C   0  0  0  0  0  0  0  0  0  0  0  0
    3.7826   -1.8393   -3.6367 H   0  0  0  0  0  0  0  0  0  0  0  0
    2.8979   -3.2398   -4.2480 H   0  0  0  0  0  0  0  0  0  0  0  0
    4.6664   -3.2152   -4.3595 H   0  0  0  0  0  0  0  0  0  0  0  0
    1.8551   -3.0975   -2.1191 H   0  0  0  0  0  0  0  0  0  0  0  0
    2.5274   -4.1233   -0.9027 H   0  0  0  0  0  0  0  0  0  0  0  0
    3.0175   -1.1466   -1.2491 H   0  0  0  0  0  0  0  0  0  0  0  0
    2.2699   -1.9571    0.1121 H   0  0  0  0  0  0  0  0  0  0  0  0
    4.7353   -6.7641    1.2401 H   0  0  0  0  0  0  0  0  0  0  0  0
    3.7926   -6.1805    3.4789 H   0  0  0  0  0  0  0  0  0  0  0  0
    3.1600   -2.8109    4.4851 H   0  0  0  0  0  0  0  0  0  0  0  0
    3.9572   -0.1587    0.9177 H   0  0  0  0  0  0  0  0  0  0  0  0
    6.1000    0.3218    1.1347 H   0  0  0  0  0  0  0  0  0  0  0  0
    5.9271   -1.4526    3.2924 H   0  0  0  0  0  0  0  0  0  0  0  0
    8.0297   -1.4090    1.2608 H   0  0  0  0  0  0  0  0  0  0  0  0
    7.6853   -2.7324   -0.7411 H   0  0  0  0  0  0  0  0  0  0  0  0
    4.5933   -0.9666   -2.0915 H   0  0  0  0  0  0  0  0  0  0  0  0
    5.9945   -3.7050   -2.5310 H   0  0  0  0  0  0  0  0  0  0  0  0
    6.3857   -4.9425   -0.5459 H   0  0  0  0  0  0  0  0  0  0  0  0
    4.9991   -5.7108   -1.3189 H   0  0  0  0  0  0  0  0  0  0  0  0
    3.7301   -4.5583   -2.6276 H   0  0  0  0  0  0  0  0  0  0  0  0
  1  2  1  0
  1 23  1  0
  1 24  1  0
  1 25  1  0
  2 21  1  0
  2  3  1  0
  2 42  1  6
  3  4  1  0
  3 26  1  0
  3 27  1  0
  5  4  1  6
  4 28  1  0
  4 29  1  0
  5 14  1  0
  5 19  1  0
  5  6  1  0
  6 12  2  0
  6  7  1  0
  7 22  1  0
  7  8  2  0
  8  9  1  0
  8 30  1  0
  9 10  2  0
  9 31  1  0
 10 11  1  0
 10 12  1  0
 11 32  1  0
 12 13  1  0
 13 14  1  0
 14 15  1  0
 14 33  1  6
 15 16  1  0
 15 17  1  0
 15 34  1  6
 16 35  1  0
 17 18  2  0
 17 36  1  0
 18 19  1  0
 18 37  1  0
 19 20  1  6
 19 21  1  0
 20 38  1  0
 21 22  1  0
 21 39  1  6
 22 40  1  0
 22 41  1  0
M  CHG  1   2   1
M  END
>  <i_m_ct_stereo_status>  (179) 
1

>  <s_m_source_file>  (179) 
/var/tmp/pbs.5076255.sched01/tmp3npnc3rz/42_8qtnw6u.sdf

>  <i_m_source_file_index>  (179) 
33

>  <i_lp_mmshare_version>  (179) 
48012

>  <i_f3d_flags>  (179) 
0

>  <s_epik_input>  (179) 
W0NIMl0xW0NIMl1OKFtDSDNdKVtDQEhdKFtDSDJdMilbQ0BdMyhbT0hdKVtDSF09W0NIXVtDQEhdKFtPSF0pW0NAQEhdNE9jNWMoW09IXSlbY0hdW2NIXWMyYzVbQ0BdMTM0

>  <s_epik_cmdline>  (179) 
J2VwaWtfcHl0aG9uJywgJy1waHQnLCAnMi4wJywgJy1waCcsICc3LjAnLCAnLXRuJywgJzgnLCAnLW1hJywgJzIwMCcsICctaW1hZScsICc8aW5maWxlLm1hZT4nLCAnLW9tYWUnLCAnPG91dGZpbGUubWFlPic=

>  <r_lp_tautomer_probability>  (179) 
1

>  <r_epik_Ionization_Penalty>  (179) 
0.150507

>  <r_epik_Ionization_Penalty_Charging>  (179) 
0.139165

>  <r_epik_Ionization_Penalty_Neutral>  (179) 
0.0113417

>  <r_epik_State_Penalty>  (179) 
0.193535

>  <r_epik_Charging_Adjusted_Penalty>  (179) 
0.332699

>  <i_epik_Tot_Q>  (179) 
1

>  <i_epik_Tot_abs_Q>  (179) 
1

>  <s_lp_Force_Field>  (179) 
OPLS3e

>  <r_lp_Energy>  (179) 
62.0879

>  <b_lp_Chiralities_Consistent>  (179) 
1

>  <s_lp_Variant>  (179) 
51:0-1

>  <s_i_glide_gridfile>  (179) 
pfpi4k_grid

>  <i_i_glide_lignum>  (179) 
33

>  <i_i_glide_rotatable_bonds>  (179) 
3

>  <r_i_docking_score>  (179) 
-3.69172

>  <r_i_glide_ligand_efficiency>  (179) 
-0.167805

>  <r_i_glide_ligand_efficiency_sa>  (179) 
-0.470197

>  <r_i_glide_ligand_efficiency_ln>  (179) 
-0.902391

>  <r_i_glide_gscore>  (179) 
-3.69172

>  <r_i_glide_lipo>  (179) 
-0.543771

>  <r_i_glide_hbond>  (179) 
-0.0161242

>  <r_i_glide_metal>  (179) 
-0

>  <r_i_glide_rewards>  (179) 
-1.34765

>  <r_i_glide_evdw>  (179) 
-14.7378

>  <r_i_glide_ecoul>  (179) 
-6.73118

>  <r_i_glide_erotb>  (179) 
0

>  <r_i_glide_esite>  (179) 
-0.037606

>  <r_i_glide_emodel>  (179) 
-27.0881

>  <r_i_glide_energy>  (179) 
-21.469

>  <r_i_glide_einternal>  (179) 
0.240805

>  <r_i_glide_intrahb_reward>  (179) 
-0

>  <i_i_glide_confnum>  (179) 
1

>  <i_i_glide_posenum>  (179) 
7

>  <r_i_glide_eff_state_penalty>  (179) 
0

>  <ligand_id>  (179) 
51

>  <original_smiles>  (179) 
CN1CCC23c4c5ccc(O)c4OC2C(O)C=CC3(O)C1C5

>  <smiles>  (179) 
[H]Oc1c([H])c([H])c2c3c1OC1([H])C([H])(O[H])C([H])=C([H])C4(O[H])C31C([H])([H])C([H])([H])[N+]([H])(C([H])([H])[H])C4([H])C2([H])[H]

$$$$
51:0:2
     RDKit          3D

 42 46  0  0  1  0  0  0  0  0999 V2000
    5.3542   -3.0356   -3.0818 C   0  0  0  0  0  0  0  0  0  0  0  0
    5.0167   -3.7005   -1.8030 N   0  0  2  0  0  0  0  0  0  0  0  0
    3.5529   -3.7462   -1.5670 C   0  0  0  0  0  0  0  0  0  0  0  0
    3.0396   -2.5220   -0.8066 C   0  0  0  0  0  0  0  0  0  0  0  0
    3.8601   -2.2489    0.4791 C   0  0  2  0  0  0  0  0  0  0  0  0
    3.8233   -3.4771    1.3541 C   0  0  0  0  0  0  0  0  0  0  0  0
    4.6803   -4.5947    1.2929 C   0  0  0  0  0  0  0  0  0  0  0  0
    4.3716   -5.6641    2.1530 C   0  0  0  0  0  0  0  0  0  0  0  0
    3.2555   -5.5649    3.0221 C   0  0  0  0  0  0  0  0  0  0  0  0
    2.4799   -4.3800    3.0855 C   0  0  0  0  0  0  0  0  0  0  0  0
    1.4395   -4.2877    3.9619 O   0  0  0  0  0  0  0  0  0  0  0  0
    2.7889   -3.2892    2.2479 C   0  0  0  0  0  0  0  0  0  0  0  0
    2.2405   -2.0388    2.1994 O   0  0  0  0  0  0  0  0  0  0  0  0
    3.1254   -1.2188    1.4043 C   0  0  1  0  0  0  0  0  0  0  0  0
    4.0853   -0.3954    2.3163 C   0  0  1  0  0  0  0  0  0  0  0  0
    3.6393   -0.3179    3.6525 O   0  0  0  0  0  0  0  0  0  0  0  0
    5.5474   -0.8099    2.2732 C   0  0  0  0  0  0  0  0  0  0  0  0
    6.1093   -1.4822    1.2507 C   0  0  0  0  0  0  0  0  0  0  0  0
    5.3131   -1.9584    0.0507 C   0  0  2  0  0  0  0  0  0  0  0  0
    5.4031   -0.9187   -0.9027 O   0  0  0  0  0  0  0  0  0  0  0  0
    5.8425   -3.2714   -0.6207 C   0  0  1  0  0  0  0  0  0  0  0  0
    5.9069   -4.4308    0.3972 C   0  0  0  0  0  0  0  0  0  0  0  0
    4.9583   -2.0216   -3.1133 H   0  0  0  0  0  0  0  0  0  0  0  0
    4.9111   -3.5808   -3.9158 H   0  0  0  0  0  0  0  0  0  0  0  0
    6.4322   -3.0072   -3.2377 H   0  0  0  0  0  0  0  0  0  0  0  0
    3.0172   -3.8247   -2.5131 H   0  0  0  0  0  0  0  0  0  0  0  0
    3.3043   -4.6455   -1.0075 H   0  0  0  0  0  0  0  0  0  0  0  0
    3.0386   -1.6517   -1.4736 H   0  0  0  0  0  0  0  0  0  0  0  0
    1.9981   -2.7087   -0.5512 H   0  0  0  0  0  0  0  0  0  0  0  0
    4.9936   -6.5487    2.1586 H   0  0  0  0  0  0  0  0  0  0  0  0
    3.0231   -6.4009    3.6611 H   0  0  0  0  0  0  0  0  0  0  0  0
    1.3913   -5.0271    4.5476 H   0  0  0  0  0  0  0  0  0  0  0  0
    2.5229   -0.5222    0.8185 H   0  0  0  0  0  0  0  0  0  0  0  0
    4.0722    0.6294    1.9544 H   0  0  0  0  0  0  0  0  0  0  0  0
    2.8291    0.1695    3.6726 H   0  0  0  0  0  0  0  0  0  0  0  0
    6.1616   -0.4816    3.1008 H   0  0  0  0  0  0  0  0  0  0  0  0
    7.1655   -1.7142    1.2659 H   0  0  0  0  0  0  0  0  0  0  0  0
    4.9978   -0.1387   -0.5446 H   0  0  0  0  0  0  0  0  0  0  0  0
    6.8601   -3.1155   -0.9768 H   0  0  0  0  0  0  0  0  0  0  0  0
    6.7570   -4.2703    1.0590 H   0  0  0  0  0  0  0  0  0  0  0  0
    6.1016   -5.3789   -0.1029 H   0  0  0  0  0  0  0  0  0  0  0  0
    5.2689   -4.6629   -1.9669 H   0  0  0  0  0  0  0  0  0  0  0  0
  1  2  1  0
  1 23  1  0
  1 24  1  0
  1 25  1  0
  2 21  1  0
  2  3  1  0
  2 42  1  6
  3  4  1  0
  3 26  1  0
  3 27  1  0
  5  4  1  6
  4 28  1  0
  4 29  1  0
  5 14  1  0
  5 19  1  0
  5  6  1  0
  6 12  2  0
  6  7  1  0
  7 22  1  0
  7  8  2  0
  8  9  1  0
  8 30  1  0
  9 10  2  0
  9 31  1  0
 10 11  1  0
 10 12  1  0
 11 32  1  0
 12 13  1  0
 13 14  1  0
 14 15  1  0
 14 33  1  6
 15 16  1  0
 15 17  1  0
 15 34  1  6
 16 35  1  0
 17 18  2  0
 17 36  1  0
 18 19  1  0
 18 37  1  0
 19 20  1  6
 19 21  1  0
 20 38  1  0
 21 22  1  0
 21 39  1  6
 22 40  1  0
 22 41  1  0
M  CHG  1   2   1
M  END
>  <i_m_ct_stereo_status>  (180) 
1

>  <s_m_source_file>  (180) 
/var/tmp/pbs.5076255.sched01/tmp3npnc3rz/42_8qtnw6u.sdf

>  <i_m_source_file_index>  (180) 
33

>  <i_lp_mmshare_version>  (180) 
48012

>  <i_f3d_flags>  (180) 
0

>  <s_epik_input>  (180) 
W0NIMl0xW0NIMl1OKFtDSDNdKVtDQEhdKFtDSDJdMilbQ0BdMyhbT0hdKVtDSF09W0NIXVtDQEhdKFtPSF0pW0NAQEhdNE9jNWMoW09IXSlbY0hdW2NIXWMyYzVbQ0BdMTM0

>  <s_epik_cmdline>  (180) 
J2VwaWtfcHl0aG9uJywgJy1waHQnLCAnMi4wJywgJy1waCcsICc3LjAnLCAnLXRuJywgJzgnLCAnLW1hJywgJzIwMCcsICctaW1hZScsICc8aW5maWxlLm1hZT4nLCAnLW9tYWUnLCAnPG91dGZpbGUubWFlPic=

>  <r_lp_tautomer_probability>  (180) 
1

>  <r_epik_Ionization_Penalty>  (180) 
0.150507

>  <r_epik_Ionization_Penalty_Charging>  (180) 
0.139165

>  <r_epik_Ionization_Penalty_Neutral>  (180) 
0.0113417

>  <r_epik_State_Penalty>  (180) 
0.193535

>  <r_epik_Charging_Adjusted_Penalty>  (180) 
0.332699

>  <i_epik_Tot_Q>  (180) 
1

>  <i_epik_Tot_abs_Q>  (180) 
1

>  <s_lp_Force_Field>  (180) 
OPLS3e

>  <r_lp_Energy>  (180) 
62.0879

>  <b_lp_Chiralities_Consistent>  (180) 
1

>  <s_lp_Variant>  (180) 
51:0-1

>  <s_i_glide_gridfile>  (180) 
pfpi4k_grid

>  <i_i_glide_lignum>  (180) 
33

>  <i_i_glide_rotatable_bonds>  (180) 
3

>  <r_i_docking_score>  (180) 
-3.63641

>  <r_i_glide_ligand_efficiency>  (180) 
-0.165291

>  <r_i_glide_ligand_efficiency_sa>  (180) 
-0.463152

>  <r_i_glide_ligand_efficiency_ln>  (180) 
-0.88887

>  <r_i_glide_gscore>  (180) 
-3.63641

>  <r_i_glide_lipo>  (180) 
-0.726265

>  <r_i_glide_hbond>  (180) 
-0.0681438

>  <r_i_glide_metal>  (180) 
-0

>  <r_i_glide_rewards>  (180) 
-1.34765

>  <r_i_glide_evdw>  (180) 
-18.0292

>  <r_i_glide_ecoul>  (180) 
-3.95259

>  <r_i_glide_erotb>  (180) 
0

>  <r_i_glide_esite>  (180) 
0

>  <r_i_glide_emodel>  (180) 
-27.4306

>  <r_i_glide_energy>  (180) 
-21.9818

>  <r_i_glide_einternal>  (180) 
0.570413

>  <r_i_glide_intrahb_reward>  (180) 
-0

>  <i_i_glide_confnum>  (180) 
1

>  <i_i_glide_posenum>  (180) 
34

>  <r_i_glide_eff_state_penalty>  (180) 
0

>  <ligand_id>  (180) 
51

>  <original_smiles>  (180) 
CN1CCC23c4c5ccc(O)c4OC2C(O)C=CC3(O)C1C5

>  <smiles>  (180) 
[H]Oc1c([H])c([H])c2c3c1OC1([H])C([H])(O[H])C([H])=C([H])C4(O[H])C31C([H])([H])C([H])([H])[N+]([H])(C([H])([H])[H])C4([H])C2([H])[H]

$$$$
51:1:0
     RDKit          3D

 41 45  0  0  1  0  0  0  0  0999 V2000
    5.9771   -3.0432   -2.7299 C   0  0  0  0  0  0  0  0  0  0  0  0
    5.4282   -3.6513   -1.5340 N   0  0  0  0  0  0  0  0  0  0  0  0
    3.9641   -3.7152   -1.5292 C   0  0  0  0  0  0  0  0  0  0  0  0
    3.2813   -2.4879   -0.9033 C   0  0  0  0  0  0  0  0  0  0  0  0
    3.8866   -2.1600    0.4874 C   0  0  2  0  0  0  0  0  0  0  0  0
    3.7361   -3.3508    1.4056 C   0  0  0  0  0  0  0  0  0  0  0  0
    4.6053   -4.4533    1.5202 C   0  0  0  0  0  0  0  0  0  0  0  0
    4.2068   -5.4775    2.4000 C   0  0  0  0  0  0  0  0  0  0  0  0
    2.9874   -5.3572    3.1140 C   0  0  0  0  0  0  0  0  0  0  0  0
    2.2005   -4.1847    3.0116 C   0  0  0  0  0  0  0  0  0  0  0  0
    1.0545   -4.0580    3.7415 O   0  0  0  0  0  0  0  0  0  0  0  0
    2.6036   -3.1347    2.1602 C   0  0  0  0  0  0  0  0  0  0  0  0
    2.0502   -1.8976    1.9890 O   0  0  0  0  0  0  0  0  0  0  0  0
    3.0182   -1.1037    1.2614 C   0  0  1  0  0  0  0  0  0  0  0  0
    3.8403   -0.2147    2.2467 C   0  0  1  0  0  0  0  0  0  0  0  0
    3.1705   -0.0014    3.4739 O   0  0  0  0  0  0  0  0  0  0  0  0
    5.2757   -0.6594    2.4880 C   0  0  0  0  0  0  0  0  0  0  0  0
    5.9845   -1.3755    1.5965 C   0  0  0  0  0  0  0  0  0  0  0  0
    5.3900   -1.8630    0.2908 C   0  0  2  0  0  0  0  0  0  0  0  0
    5.6241   -0.8305   -0.6476 O   0  0  0  0  0  0  0  0  0  0  0  0
    6.0200   -3.1914   -0.2579 C   0  0  1  0  0  0  0  0  0  0  0  0
    5.9312   -4.3294    0.7785 C   0  0  0  0  0  0  0  0  0  0  0  0
    5.6533   -3.5872   -3.6164 H   0  0  0  0  0  0  0  0  0  0  0  0
    7.0649   -3.0769   -2.7172 H   0  0  0  0  0  0  0  0  0  0  0  0
    5.6559   -2.0101   -2.8346 H   0  0  0  0  0  0  0  0  0  0  0  0
    3.5954   -3.8491   -2.5451 H   0  0  0  0  0  0  0  0  0  0  0  0
    3.6480   -4.6064   -0.9877 H   0  0  0  0  0  0  0  0  0  0  0  0
    3.3811   -1.6358   -1.5776 H   0  0  0  0  0  0  0  0  0  0  0  0
    2.2117   -2.6762   -0.8297 H   0  0  0  0  0  0  0  0  0  0  0  0
    4.8341   -6.3459    2.5403 H   0  0  0  0  0  0  0  0  0  0  0  0
    2.6753   -6.1532    3.7687 H   0  0  0  0  0  0  0  0  0  0  0  0
    0.6720   -3.2011    3.6270 H   0  0  0  0  0  0  0  0  0  0  0  0
    2.4964   -0.4417    0.5680 H   0  0  0  0  0  0  0  0  0  0  0  0
    3.9193    0.7723    1.7950 H   0  0  0  0  0  0  0  0  0  0  0  0
    2.4037    0.5267    3.3076 H   0  0  0  0  0  0  0  0  0  0  0  0
    5.7381   -0.3152    3.4018 H   0  0  0  0  0  0  0  0  0  0  0  0
    7.0145   -1.6281    1.7906 H   0  0  0  0  0  0  0  0  0  0  0  0
    5.0999   -0.0790   -0.4081 H   0  0  0  0  0  0  0  0  0  0  0  0
    7.0836   -3.0273   -0.4298 H   0  0  0  0  0  0  0  0  0  0  0  0
    6.7089   -4.1874    1.5235 H   0  0  0  0  0  0  0  0  0  0  0  0
    6.1477   -5.2837    0.2988 H   0  0  0  0  0  0  0  0  0  0  0  0
  1  2  1  0
  1 23  1  0
  1 24  1  0
  1 25  1  0
  2 21  1  0
  2  3  1  0
  3  4  1  0
  3 26  1  0
  3 27  1  0
  5  4  1  6
  4 28  1  0
  4 29  1  0
  5 14  1  0
  5 19  1  0
  5  6  1  0
  6 12  2  0
  6  7  1  0
  7 22  1  0
  7  8  2  0
  8  9  1  0
  8 30  1  0
  9 10  2  0
  9 31  1  0
 10 11  1  0
 10 12  1  0
 11 32  1  0
 12 13  1  0
 13 14  1  0
 14 15  1  0
 14 33  1  6
 15 16  1  0
 15 17  1  0
 15 34  1  6
 16 35  1  0
 17 18  2  0
 17 36  1  0
 18 19  1  0
 18 37  1  0
 19 20  1  6
 19 21  1  0
 20 38  1  0
 21 22  1  0
 21 39  1  6
 22 40  1  0
 22 41  1  0
M  END
>  <i_m_ct_stereo_status>  (181) 
1

>  <s_m_source_file>  (181) 
/var/tmp/pbs.5076255.sched01/tmp3npnc3rz/42_8qtnw6u.sdf

>  <i_m_source_file_index>  (181) 
34

>  <i_lp_mmshare_version>  (181) 
48012

>  <i_f3d_flags>  (181) 
0

>  <s_epik_input>  (181) 
W0NIMl0xW0NIMl1OKFtDSDNdKVtDQEhdKFtDSDJdMilbQ0BdMyhbT0hdKVtDSF09W0NIXVtDQEhdKFtPSF0pW0NAQEhdNE9jNWMoW09IXSlbY0hdW2NIXWMyYzVbQ0BdMTM0

>  <s_epik_cmdline>  (181) 
J2VwaWtfcHl0aG9uJywgJy1waHQnLCAnMi4wJywgJy1waCcsICc3LjAnLCAnLXRuJywgJzgnLCAnLW1hJywgJzIwMCcsICctaW1hZScsICc8aW5maWxlLm1hZT4nLCAnLW9tYWUnLCAnPG91dGZpbGUubWFlPic=

>  <r_lp_tautomer_probability>  (181) 
1

>  <r_epik_Ionization_Penalty>  (181) 
0.928525

>  <r_epik_Ionization_Penalty_Charging>  (181) 
0

>  <r_epik_Ionization_Penalty_Neutral>  (181) 
0.928525

>  <r_epik_State_Penalty>  (181) 
0.773942

>  <r_epik_Charging_Adjusted_Penalty>  (181) 
0.773942

>  <i_epik_Tot_Q>  (181) 
0

>  <i_epik_Tot_abs_Q>  (181) 
0

>  <s_lp_Force_Field>  (181) 
OPLS3e

>  <r_lp_Energy>  (181) 
59.0115

>  <b_lp_Chiralities_Consistent>  (181) 
1

>  <s_lp_Variant>  (181) 
51:0-2

>  <s_i_glide_gridfile>  (181) 
pfpi4k_grid

>  <i_i_glide_lignum>  (181) 
34

>  <i_i_glide_rotatable_bonds>  (181) 
3

>  <r_i_docking_score>  (181) 
-3.65299

>  <r_i_glide_ligand_efficiency>  (181) 
-0.166045

>  <r_i_glide_ligand_efficiency_sa>  (181) 
-0.465265

>  <r_i_glide_ligand_efficiency_ln>  (181) 
-0.892925

>  <r_i_glide_gscore>  (181) 
-3.65299

>  <r_i_glide_lipo>  (181) 
-0.741699

>  <r_i_glide_hbond>  (181) 
-0.0861733

>  <r_i_glide_metal>  (181) 
-0

>  <r_i_glide_rewards>  (181) 
-1.35452

>  <r_i_glide_evdw>  (181) 
-18.3183

>  <r_i_glide_ecoul>  (181) 
-3.69791

>  <r_i_glide_erotb>  (181) 
0

>  <r_i_glide_esite>  (181) 
0

>  <r_i_glide_emodel>  (181) 
-27.0658

>  <r_i_glide_energy>  (181) 
-22.0162

>  <r_i_glide_einternal>  (181) 
0.584003

>  <r_i_glide_intrahb_reward>  (181) 
-0

>  <i_i_glide_confnum>  (181) 
1

>  <i_i_glide_posenum>  (181) 
33

>  <r_i_glide_eff_state_penalty>  (181) 
0

>  <ligand_id>  (181) 
51

>  <original_smiles>  (181) 
CN1CCC23c4c5ccc(O)c4OC2C(O)C=CC3(O)C1C5

>  <smiles>  (181) 
[H]Oc1c([H])c([H])c2c3c1OC1([H])C([H])(O[H])C([H])=C([H])C4(O[H])C([H])(N(C([H])([H])[H])C([H])([H])C([H])([H])C314)C2([H])[H]

$$$$
51:1:1
     RDKit          3D

 41 45  0  0  1  0  0  0  0  0999 V2000
    5.0964   -3.0182   -3.2059 C   0  0  0  0  0  0  0  0  0  0  0  0
    4.7966   -3.6979   -1.9578 N   0  0  0  0  0  0  0  0  0  0  0  0
    3.3676   -3.7485   -1.6404 C   0  0  0  0  0  0  0  0  0  0  0  0
    2.8777   -2.5745   -0.7954 C   0  0  0  0  0  0  0  0  0  0  0  0
    3.7685   -2.3557    0.4516 C   0  0  2  0  0  0  0  0  0  0  0  0
    3.7687   -3.6100    1.2940 C   0  0  0  0  0  0  0  0  0  0  0  0
    4.6023   -4.7328    1.1416 C   0  0  0  0  0  0  0  0  0  0  0  0
    4.3674   -5.8166    2.0089 C   0  0  0  0  0  0  0  0  0  0  0  0
    3.3316   -5.7319    2.9747 C   0  0  0  0  0  0  0  0  0  0  0  0
    2.5795   -4.5438    3.1279 C   0  0  0  0  0  0  0  0  0  0  0  0
    1.6337   -4.4487    4.1081 O   0  0  0  0  0  0  0  0  0  0  0  0
    2.8245   -3.4403    2.2840 C   0  0  0  0  0  0  0  0  0  0  0  0
    2.2941   -2.1821    2.3251 O   0  0  0  0  0  0  0  0  0  0  0  0
    3.1083   -1.3486    1.4603 C   0  0  1  0  0  0  0  0  0  0  0  0
    4.1481   -0.5439    2.3037 C   0  0  1  0  0  0  0  0  0  0  0  0
    3.7619   -0.4361    3.6606 O   0  0  0  0  0  0  0  0  0  0  0  0
    5.5871   -1.0276    2.2024 C   0  0  0  0  0  0  0  0  0  0  0  0
    6.0774   -1.6925    1.1408 C   0  0  0  0  0  0  0  0  0  0  0  0
    5.2101   -2.0737   -0.0408 C   0  0  2  0  0  0  0  0  0  0  0  0
    5.2870   -0.9919   -0.9448 O   0  0  0  0  0  0  0  0  0  0  0  0
    5.6600   -3.3623   -0.8049 C   0  0  1  0  0  0  0  0  0  0  0  0
    5.7453   -4.5749    0.1442 C   0  0  0  0  0  0  0  0  0  0  0  0
    4.5693   -3.5003   -4.0288 H   0  0  0  0  0  0  0  0  0  0  0  0
    6.1612   -3.0784   -3.4279 H   0  0  0  0  0  0  0  0  0  0  0  0
    4.7969   -1.9715   -3.1948 H   0  0  0  0  0  0  0  0  0  0  0  0
    2.7766   -3.8178   -2.5523 H   0  0  0  0  0  0  0  0  0  0  0  0
    3.1491   -4.6561   -1.0889 H   0  0  0  0  0  0  0  0  0  0  0  0
    2.8469   -1.6776   -1.4158 H   0  0  0  0  0  0  0  0  0  0  0  0
    1.8518   -2.7839   -0.4914 H   0  0  0  0  0  0  0  0  0  0  0  0
    4.9849   -6.7027    1.9539 H   0  0  0  0  0  0  0  0  0  0  0  0
    3.1433   -6.5690    3.6262 H   0  0  0  0  0  0  0  0  0  0  0  0
    1.3060   -3.5655    4.1917 H   0  0  0  0  0  0  0  0  0  0  0  0
    2.4571   -0.6389    0.9423 H   0  0  0  0  0  0  0  0  0  0  0  0
    4.1630    0.4746    1.9220 H   0  0  0  0  0  0  0  0  0  0  0  0
    3.6279   -1.3090    4.0034 H   0  0  0  0  0  0  0  0  0  0  0  0
    6.2388   -0.7550    3.0188 H   0  0  0  0  0  0  0  0  0  0  0  0
    7.1147   -1.9843    1.1021 H   0  0  0  0  0  0  0  0  0  0  0  0
    4.5564   -1.0723   -1.5419 H   0  0  0  0  0  0  0  0  0  0  0  0
    6.6680   -3.2045   -1.1869 H   0  0  0  0  0  0  0  0  0  0  0  0
    6.6652   -4.4992    0.7151 H   0  0  0  0  0  0  0  0  0  0  0  0
    5.8140   -5.4928   -0.4365 H   0  0  0  0  0  0  0  0  0  0  0  0
  1  2  1  0
  1 23  1  0
  1 24  1  0
  1 25  1  0
  2 21  1  0
  2  3  1  0
  3  4  1  0
  3 26  1  0
  3 27  1  0
  5  4  1  6
  4 28  1  0
  4 29  1  0
  5 14  1  0
  5 19  1  0
  5  6  1  0
  6 12  2  0
  6  7  1  0
  7 22  1  0
  7  8  2  0
  8  9  1  0
  8 30  1  0
  9 10  2  0
  9 31  1  0
 10 11  1  0
 10 12  1  0
 11 32  1  0
 12 13  1  0
 13 14  1  0
 14 15  1  0
 14 33  1  6
 15 16  1  0
 15 17  1  0
 15 34  1  6
 16 35  1  0
 17 18  2  0
 17 36  1  0
 18 19  1  0
 18 37  1  0
 19 20  1  6
 19 21  1  0
 20 38  1  0
 21 22  1  0
 21 39  1  6
 22 40  1  0
 22 41  1  0
M  END
>  <i_m_ct_stereo_status>  (182) 
1

>  <s_m_source_file>  (182) 
/var/tmp/pbs.5076255.sched01/tmp3npnc3rz/42_8qtnw6u.sdf

>  <i_m_source_file_index>  (182) 
34

>  <i_lp_mmshare_version>  (182) 
48012

>  <i_f3d_flags>  (182) 
0

>  <s_epik_input>  (182) 
W0NIMl0xW0NIMl1OKFtDSDNdKVtDQEhdKFtDSDJdMilbQ0BdMyhbT0hdKVtDSF09W0NIXVtDQEhdKFtPSF0pW0NAQEhdNE9jNWMoW09IXSlbY0hdW2NIXWMyYzVbQ0BdMTM0

>  <s_epik_cmdline>  (182) 
J2VwaWtfcHl0aG9uJywgJy1waHQnLCAnMi4wJywgJy1waCcsICc3LjAnLCAnLXRuJywgJzgnLCAnLW1hJywgJzIwMCcsICctaW1hZScsICc8aW5maWxlLm1hZT4nLCAnLW9tYWUnLCAnPG91dGZpbGUubWFlPic=

>  <r_lp_tautomer_probability>  (182) 
1

>  <r_epik_Ionization_Penalty>  (182) 
0.928525

>  <r_epik_Ionization_Penalty_Charging>  (182) 
0

>  <r_epik_Ionization_Penalty_Neutral>  (182) 
0.928525

>  <r_epik_State_Penalty>  (182) 
0.773942

>  <r_epik_Charging_Adjusted_Penalty>  (182) 
0.773942

>  <i_epik_Tot_Q>  (182) 
0

>  <i_epik_Tot_abs_Q>  (182) 
0

>  <s_lp_Force_Field>  (182) 
OPLS3e

>  <r_lp_Energy>  (182) 
59.0115

>  <b_lp_Chiralities_Consistent>  (182) 
1

>  <s_lp_Variant>  (182) 
51:0-2

>  <s_i_glide_gridfile>  (182) 
pfpi4k_grid

>  <i_i_glide_lignum>  (182) 
34

>  <i_i_glide_rotatable_bonds>  (182) 
3

>  <r_i_docking_score>  (182) 
-3.03215

>  <r_i_glide_ligand_efficiency>  (182) 
-0.137825

>  <r_i_glide_ligand_efficiency_sa>  (182) 
-0.386191

>  <r_i_glide_ligand_efficiency_ln>  (182) 
-0.741167

>  <r_i_glide_gscore>  (182) 
-3.03215

>  <r_i_glide_lipo>  (182) 
-0.726293

>  <r_i_glide_hbond>  (182) 
0

>  <r_i_glide_metal>  (182) 
-0

>  <r_i_glide_rewards>  (182) 
-1.35452

>  <r_i_glide_evdw>  (182) 
-18.2051

>  <r_i_glide_ecoul>  (182) 
-0.273855

>  <r_i_glide_erotb>  (182) 
0

>  <r_i_glide_esite>  (182) 
0

>  <r_i_glide_emodel>  (182) 
-22.6274

>  <r_i_glide_energy>  (182) 
-18.479

>  <r_i_glide_einternal>  (182) 
0.341351

>  <r_i_glide_intrahb_reward>  (182) 
-0

>  <i_i_glide_confnum>  (182) 
1

>  <i_i_glide_posenum>  (182) 
1

>  <r_i_glide_eff_state_penalty>  (182) 
0

>  <ligand_id>  (182) 
51

>  <original_smiles>  (182) 
CN1CCC23c4c5ccc(O)c4OC2C(O)C=CC3(O)C1C5

>  <smiles>  (182) 
[H]Oc1c([H])c([H])c2c3c1OC1([H])C([H])(O[H])C([H])=C([H])C4(O[H])C([H])(N(C([H])([H])[H])C([H])([H])C([H])([H])C314)C2([H])[H]

$$$$
51:1:2
     RDKit          3D

 41 45  0  0  1  0  0  0  0  0999 V2000
    4.6651   -0.6457   -3.0581 C   0  0  0  0  0  0  0  0  0  0  0  0
    4.1033   -1.7048   -2.2784 N   0  0  0  0  0  0  0  0  0  0  0  0
    3.0768   -1.2615   -1.4267 C   0  0  0  0  0  0  0  0  0  0  0  0
    3.4879   -0.8322    0.0009 C   0  0  0  0  0  0  0  0  0  0  0  0
    4.2905   -1.9654    0.6386 C   0  0  2  0  0  0  0  0  0  0  0  0
    3.4720   -3.2283    0.7475 C   0  0  0  0  0  0  0  0  0  0  0  0
    3.3361   -4.1967   -0.2529 C   0  0  0  0  0  0  0  0  0  0  0  0
    2.4979   -5.2881    0.0753 C   0  0  0  0  0  0  0  0  0  0  0  0
    1.8903   -5.3809    1.3393 C   0  0  0  0  0  0  0  0  0  0  0  0
    2.1515   -4.3891    2.3234 C   0  0  0  0  0  0  0  0  0  0  0  0
    1.5052   -4.4699    3.5168 O   0  0  0  0  0  0  0  0  0  0  0  0
    2.9829   -3.2883    2.0374 C   0  0  0  0  0  0  0  0  0  0  0  0
    3.4069   -2.2804    2.8336 O   0  0  0  0  0  0  0  0  0  0  0  0
    4.5265   -1.6876    2.1390 C   0  0  1  0  0  0  0  0  0  0  0  0
    5.8114   -2.3621    2.6315 C   0  0  1  0  0  0  0  0  0  0  0  0
    5.5279   -2.9177    3.9173 O   0  0  0  0  0  0  0  0  0  0  0  0
    6.5449   -3.3200    1.6507 C   0  0  0  0  0  0  0  0  0  0  0  0
    6.4493   -3.2141    0.3273 C   0  0  0  0  0  0  0  0  0  0  0  0
    5.5145   -2.2229   -0.2709 C   0  0  2  0  0  0  0  0  0  0  0  0
    6.2426   -1.0514   -0.4135 O   0  0  0  0  0  0  0  0  0  0  0  0
    5.0013   -2.6713   -1.6453 C   0  0  1  0  0  0  0  0  0  0  0  0
    4.2380   -4.0016   -1.4841 C   0  0  0  0  0  0  0  0  0  0  0  0
    3.8947   -0.1040   -3.6297 H   0  0  0  0  0  0  0  0  0  0  0  0
    5.3052   -1.1673   -3.7448 H   0  0  0  0  0  0  0  0  0  0  0  0
    5.1896    0.0641   -2.4199 H   0  0  0  0  0  0  0  0  0  0  0  0
    2.5728   -0.4698   -1.9739 H   0  0  0  0  0  0  0  0  0  0  0  0
    2.3747   -2.1006   -1.3768 H   0  0  0  0  0  0  0  0  0  0  0  0
    4.1033    0.0712    0.0158 H   0  0  0  0  0  0  0  0  0  0  0  0
    2.6155   -0.6003    0.5997 H   0  0  0  0  0  0  0  0  0  0  0  0
    2.2684   -6.0618   -0.6445 H   0  0  0  0  0  0  0  0  0  0  0  0
    1.1737   -6.1679    1.5097 H   0  0  0  0  0  0  0  0  0  0  0  0
    1.8209   -3.7995    4.0888 H   0  0  0  0  0  0  0  0  0  0  0  0
    4.5635   -0.6232    2.3974 H   0  0  0  0  0  0  0  0  0  0  0  0
    6.5140   -1.5301    2.7247 H   0  0  0  0  0  0  0  0  0  0  0  0
    5.0493   -3.7269    3.8212 H   0  0  0  0  0  0  0  0  0  0  0  0
    7.2670   -4.0395    1.9731 H   0  0  0  0  0  0  0  0  0  0  0  0
    7.0315   -3.8564   -0.3284 H   0  0  0  0  0  0  0  0  0  0  0  0
    6.4274   -0.7135    0.4513 H   0  0  0  0  0  0  0  0  0  0  0  0
    5.8272   -2.8615   -2.3274 H   0  0  0  0  0  0  0  0  0  0  0  0
    4.9775   -4.7941   -1.4644 H   0  0  0  0  0  0  0  0  0  0  0  0
    3.7033   -4.1558   -2.4127 H   0  0  0  0  0  0  0  0  0  0  0  0
  1  2  1  0
  1 23  1  0
  1 24  1  0
  1 25  1  0
  2 21  1  0
  2  3  1  0
  3  4  1  0
  3 26  1  0
  3 27  1  0
  5  4  1  6
  4 28  1  0
  4 29  1  0
  5 14  1  0
  5 19  1  0
  5  6  1  0
  6 12  2  0
  6  7  1  0
  7 22  1  0
  7  8  2  0
  8  9  1  0
  8 30  1  0
  9 10  2  0
  9 31  1  0
 10 11  1  0
 10 12  1  0
 11 32  1  0
 12 13  1  0
 13 14  1  0
 14 15  1  0
 14 33  1  6
 15 16  1  0
 15 17  1  0
 15 34  1  1
 16 35  1  0
 17 18  2  0
 17 36  1  0
 18 19  1  0
 18 37  1  0
 19 20  1  6
 19 21  1  0
 20 38  1  0
 21 22  1  0
 21 39  1  6
 22 40  1  0
 22 41  1  0
M  END
>  <i_m_ct_stereo_status>  (183) 
1

>  <s_m_source_file>  (183) 
/var/tmp/pbs.5076255.sched01/tmp3npnc3rz/42_8qtnw6u.sdf

>  <i_m_source_file_index>  (183) 
34

>  <i_lp_mmshare_version>  (183) 
48012

>  <i_f3d_flags>  (183) 
0

>  <s_epik_input>  (183) 
W0NIMl0xW0NIMl1OKFtDSDNdKVtDQEhdKFtDSDJdMilbQ0BdMyhbT0hdKVtDSF09W0NIXVtDQEhdKFtPSF0pW0NAQEhdNE9jNWMoW09IXSlbY0hdW2NIXWMyYzVbQ0BdMTM0

>  <s_epik_cmdline>  (183) 
J2VwaWtfcHl0aG9uJywgJy1waHQnLCAnMi4wJywgJy1waCcsICc3LjAnLCAnLXRuJywgJzgnLCAnLW1hJywgJzIwMCcsICctaW1hZScsICc8aW5maWxlLm1hZT4nLCAnLW9tYWUnLCAnPG91dGZpbGUubWFlPic=

>  <r_lp_tautomer_probability>  (183) 
1

>  <r_epik_Ionization_Penalty>  (183) 
0.928525

>  <r_epik_Ionization_Penalty_Charging>  (183) 
0

>  <r_epik_Ionization_Penalty_Neutral>  (183) 
0.928525

>  <r_epik_State_Penalty>  (183) 
0.773942

>  <r_epik_Charging_Adjusted_Penalty>  (183) 
0.773942

>  <i_epik_Tot_Q>  (183) 
0

>  <i_epik_Tot_abs_Q>  (183) 
0

>  <s_lp_Force_Field>  (183) 
OPLS3e

>  <r_lp_Energy>  (183) 
59.0115

>  <b_lp_Chiralities_Consistent>  (183) 
1

>  <s_lp_Variant>  (183) 
51:0-2

>  <s_i_glide_gridfile>  (183) 
pfpi4k_grid

>  <i_i_glide_lignum>  (183) 
34

>  <i_i_glide_rotatable_bonds>  (183) 
3

>  <r_i_docking_score>  (183) 
-2.08917

>  <r_i_glide_ligand_efficiency>  (183) 
-0.0949621

>  <r_i_glide_ligand_efficiency_sa>  (183) 
-0.266087

>  <r_i_glide_ligand_efficiency_ln>  (183) 
-0.510668

>  <r_i_glide_gscore>  (183) 
-2.08917

>  <r_i_glide_lipo>  (183) 
-0.224326

>  <r_i_glide_hbond>  (183) 
-0.0757053

>  <r_i_glide_metal>  (183) 
-0

>  <r_i_glide_rewards>  (183) 
-1.35452

>  <r_i_glide_evdw>  (183) 
0.379118

>  <r_i_glide_ecoul>  (183) 
-3.0238

>  <r_i_glide_erotb>  (183) 
0

>  <r_i_glide_esite>  (183) 
0

>  <r_i_glide_emodel>  (183) 
-2.73706

>  <r_i_glide_energy>  (183) 
-2.64468

>  <r_i_glide_einternal>  (183) 
0.174408

>  <r_i_glide_intrahb_reward>  (183) 
-0

>  <i_i_glide_confnum>  (183) 
2

>  <i_i_glide_posenum>  (183) 
7

>  <r_i_glide_eff_state_penalty>  (183) 
0

>  <ligand_id>  (183) 
51

>  <original_smiles>  (183) 
CN1CCC23c4c5ccc(O)c4OC2C(O)C=CC3(O)C1C5

>  <smiles>  (183) 
[H]Oc1c([H])c([H])c2c3c1OC1([H])C([H])(O[H])C([H])=C([H])C4(O[H])C([H])(N(C([H])([H])[H])C([H])([H])C([H])([H])C314)C2([H])[H]

$$$$
53:0:0
     RDKit          3D

 20 21  0  0  1  0  0  0  0  0999 V2000
   -3.9485   -9.2176   -5.3648 C   0  0  0  0  0  0  0  0  0  0  0  0
   -5.0984   -8.3545   -5.8248 C   0  0  0  0  0  0  0  0  0  0  0  0
   -5.9303   -8.7583   -6.8868 C   0  0  0  0  0  0  0  0  0  0  0  0
   -6.9921   -7.9169   -7.2627 C   0  0  0  0  0  0  0  0  0  0  0  0
   -7.1821   -6.7112   -6.5600 C   0  0  0  0  0  0  0  0  0  0  0  0
   -8.2317   -5.8372   -6.9173 C   0  0  0  0  0  0  0  0  0  0  0  0
   -8.4152   -4.6349   -6.2117 C   0  0  0  0  0  0  0  0  0  0  0  0
   -7.5430   -4.3147   -5.1571 C   0  0  0  0  0  0  0  0  0  0  0  0
   -6.4920   -5.1807   -4.8063 C   0  0  0  0  0  0  0  0  0  0  0  0
   -6.2925   -6.3895   -5.4978 C   0  0  0  0  0  0  0  0  0  0  0  0
   -5.2672   -7.1989   -5.1510 N   0  0  0  0  0  0  0  0  0  0  0  0
   -3.8719  -10.1345   -5.9509 H   0  0  0  0  0  0  0  0  0  0  0  0
   -4.0863   -9.4773   -4.3213 H   0  0  0  0  0  0  0  0  0  0  0  0
   -3.0129   -8.6677   -5.4507 H   0  0  0  0  0  0  0  0  0  0  0  0
   -5.7621   -9.6904   -7.4042 H   0  0  0  0  0  0  0  0  0  0  0  0
   -7.6473   -8.1882   -8.0786 H   0  0  0  0  0  0  0  0  0  0  0  0
   -8.9001   -6.0882   -7.7264 H   0  0  0  0  0  0  0  0  0  0  0  0
   -9.2206   -3.9600   -6.4696 H   0  0  0  0  0  0  0  0  0  0  0  0
   -7.6720   -3.3978   -4.6147 H   0  0  0  0  0  0  0  0  0  0  0  0
   -5.8279   -4.9122   -3.9991 H   0  0  0  0  0  0  0  0  0  0  0  0
  1  2  1  0
  1 12  1  0
  1 13  1  0
  1 14  1  0
  2 11  2  0
  2  3  1  0
  3  4  2  0
  3 15  1  0
  4  5  1  0
  4 16  1  0
  5 10  2  0
  5  6  1  0
  6  7  2  0
  6 17  1  0
  7  8  1  0
  7 18  1  0
  8  9  2  0
  8 19  1  0
  9 10  1  0
  9 20  1  0
 10 11  1  0
M  END
>  <i_m_ct_stereo_status>  (184) 
1

>  <s_m_source_file>  (184) 
/var/tmp/pbs.5076255.sched01/tmp3npnc3rz/42_8qtnw6u.sdf

>  <i_m_source_file_index>  (184) 
36

>  <i_lp_mmshare_version>  (184) 
48012

>  <i_f3d_flags>  (184) 
0

>  <s_epik_input>  (184) 
W2NIXTFbY0hdYyhbQ0gzXSluYyhjMTIpW2NIXVtjSF1bY0hdW2NIXTI=

>  <s_epik_cmdline>  (184) 
J2VwaWtfcHl0aG9uJywgJy1waHQnLCAnMi4wJywgJy1waCcsICc3LjAnLCAnLXRuJywgJzgnLCAnLW1hJywgJzIwMCcsICctaW1hZScsICc8aW5maWxlLm1hZT4nLCAnLW9tYWUnLCAnPG91dGZpbGUubWFlPic=

>  <r_epik_Ionization_Penalty>  (184) 
0.0289745

>  <r_epik_Ionization_Penalty_Charging>  (184) 
0

>  <r_epik_Ionization_Penalty_Neutral>  (184) 
0.0289745

>  <r_epik_State_Penalty>  (184) 
0.0238078

>  <r_epik_Charging_Adjusted_Penalty>  (184) 
0.0238078

>  <i_epik_Tot_Q>  (184) 
0

>  <i_epik_Tot_abs_Q>  (184) 
0

>  <s_lp_Force_Field>  (184) 
OPLS3e

>  <r_lp_Energy>  (184) 
19.2916

>  <b_lp_Chiralities_Consistent>  (184) 
1

>  <s_lp_Variant>  (184) 
53:0-1

>  <s_i_glide_gridfile>  (184) 
pfpi4k_grid

>  <i_i_glide_lignum>  (184) 
36

>  <i_i_glide_rotatable_bonds>  (184) 
0

>  <r_i_docking_score>  (184) 
-6.79568

>  <r_i_glide_ligand_efficiency>  (184) 
-0.617789

>  <r_i_glide_ligand_efficiency_sa>  (184) 
-1.37395

>  <r_i_glide_ligand_efficiency_ln>  (184) 
-1.99997

>  <r_i_glide_gscore>  (184) 
-6.79568

>  <r_i_glide_lipo>  (184) 
-2.44156

>  <r_i_glide_hbond>  (184) 
0

>  <r_i_glide_metal>  (184) 
-0

>  <r_i_glide_rewards>  (184) 
-3.05833

>  <r_i_glide_evdw>  (184) 
-20.5836

>  <r_i_glide_ecoul>  (184) 
-1.77733

>  <r_i_glide_erotb>  (184) 
0

>  <r_i_glide_esite>  (184) 
0

>  <r_i_glide_emodel>  (184) 
-31.4436

>  <r_i_glide_energy>  (184) 
-22.3609

>  <r_i_glide_einternal>  (184) 
0

>  <r_i_glide_intrahb_reward>  (184) 
-0

>  <i_i_glide_confnum>  (184) 
2

>  <i_i_glide_posenum>  (184) 
24

>  <r_i_glide_eff_state_penalty>  (184) 
0

>  <ligand_id>  (184) 
53

>  <original_smiles>  (184) 
Cc1ccc2ccccc2n1

>  <smiles>  (184) 
[H]c1c([H])c([H])c2c([H])c([H])c(C([H])([H])[H])nc2c1[H]

$$$$
53:0:1
     RDKit          3D

 20 21  0  0  1  0  0  0  0  0999 V2000
   -5.3097   -9.3196   -6.6780 C   0  0  0  0  0  0  0  0  0  0  0  0
   -5.8736   -7.9929   -6.2152 C   0  0  0  0  0  0  0  0  0  0  0  0
   -5.3019   -7.2959   -5.1321 C   0  0  0  0  0  0  0  0  0  0  0  0
   -5.8779   -6.0688   -4.7523 C   0  0  0  0  0  0  0  0  0  0  0  0
   -6.9916   -5.5857   -5.4694 C   0  0  0  0  0  0  0  0  0  0  0  0
   -7.5941   -4.3595   -5.1188 C   0  0  0  0  0  0  0  0  0  0  0  0
   -8.7084   -3.8837   -5.8369 C   0  0  0  0  0  0  0  0  0  0  0  0
   -9.2153   -4.6372   -6.9118 C   0  0  0  0  0  0  0  0  0  0  0  0
   -8.6055   -5.8575   -7.2634 C   0  0  0  0  0  0  0  0  0  0  0  0
   -7.4960   -6.3561   -6.5509 C   0  0  0  0  0  0  0  0  0  0  0  0
   -6.9396   -7.5362   -6.9059 N   0  0  0  0  0  0  0  0  0  0  0  0
   -4.4529   -9.6163   -6.0732 H   0  0  0  0  0  0  0  0  0  0  0  0
   -4.9911   -9.2475   -7.7178 H   0  0  0  0  0  0  0  0  0  0  0  0
   -6.0690  -10.0973   -6.6033 H   0  0  0  0  0  0  0  0  0  0  0  0
   -4.4487   -7.7030   -4.6035 H   0  0  0  0  0  0  0  0  0  0  0  0
   -5.4702   -5.5091   -3.9248 H   0  0  0  0  0  0  0  0  0  0  0  0
   -7.2058   -3.7782   -4.2951 H   0  0  0  0  0  0  0  0  0  0  0  0
   -9.1760   -2.9437   -5.5643 H   0  0  0  0  0  0  0  0  0  0  0  0
  -10.0764   -4.2842   -7.4619 H   0  0  0  0  0  0  0  0  0  0  0  0
   -9.0055   -6.4373   -8.0812 H   0  0  0  0  0  0  0  0  0  0  0  0
  1  2  1  0
  1 12  1  0
  1 13  1  0
  1 14  1  0
  2 11  2  0
  2  3  1  0
  3  4  2  0
  3 15  1  0
  4  5  1  0
  4 16  1  0
  5 10  2  0
  5  6  1  0
  6  7  2  0
  6 17  1  0
  7  8  1  0
  7 18  1  0
  8  9  2  0
  8 19  1  0
  9 10  1  0
  9 20  1  0
 10 11  1  0
M  END
>  <i_m_ct_stereo_status>  (185) 
1

>  <s_m_source_file>  (185) 
/var/tmp/pbs.5076255.sched01/tmp3npnc3rz/42_8qtnw6u.sdf

>  <i_m_source_file_index>  (185) 
36

>  <i_lp_mmshare_version>  (185) 
48012

>  <i_f3d_flags>  (185) 
0

>  <s_epik_input>  (185) 
W2NIXTFbY0hdYyhbQ0gzXSluYyhjMTIpW2NIXVtjSF1bY0hdW2NIXTI=

>  <s_epik_cmdline>  (185) 
J2VwaWtfcHl0aG9uJywgJy1waHQnLCAnMi4wJywgJy1waCcsICc3LjAnLCAnLXRuJywgJzgnLCAnLW1hJywgJzIwMCcsICctaW1hZScsICc8aW5maWxlLm1hZT4nLCAnLW9tYWUnLCAnPG91dGZpbGUubWFlPic=

>  <r_epik_Ionization_Penalty>  (185) 
0.0289745

>  <r_epik_Ionization_Penalty_Charging>  (185) 
0

>  <r_epik_Ionization_Penalty_Neutral>  (185) 
0.0289745

>  <r_epik_State_Penalty>  (185) 
0.0238078

>  <r_epik_Charging_Adjusted_Penalty>  (185) 
0.0238078

>  <i_epik_Tot_Q>  (185) 
0

>  <i_epik_Tot_abs_Q>  (185) 
0

>  <s_lp_Force_Field>  (185) 
OPLS3e

>  <r_lp_Energy>  (185) 
19.2916

>  <b_lp_Chiralities_Consistent>  (185) 
1

>  <s_lp_Variant>  (185) 
53:0-1

>  <s_i_glide_gridfile>  (185) 
pfpi4k_grid

>  <i_i_glide_lignum>  (185) 
36

>  <i_i_glide_rotatable_bonds>  (185) 
0

>  <r_i_docking_score>  (185) 
-6.06192

>  <r_i_glide_ligand_efficiency>  (185) 
-0.551084

>  <r_i_glide_ligand_efficiency_sa>  (185) 
-1.2256

>  <r_i_glide_ligand_efficiency_ln>  (185) 
-1.78402

>  <r_i_glide_gscore>  (185) 
-6.06192

>  <r_i_glide_lipo>  (185) 
-2.71431

>  <r_i_glide_hbond>  (185) 
0

>  <r_i_glide_metal>  (185) 
-0

>  <r_i_glide_rewards>  (185) 
-2.25

>  <r_i_glide_evdw>  (185) 
-21.4997

>  <r_i_glide_ecoul>  (185) 
-0.150811

>  <r_i_glide_erotb>  (185) 
0

>  <r_i_glide_esite>  (185) 
0

>  <r_i_glide_emodel>  (185) 
-29.7552

>  <r_i_glide_energy>  (185) 
-21.6505

>  <r_i_glide_einternal>  (185) 
0

>  <r_i_glide_intrahb_reward>  (185) 
-0

>  <i_i_glide_confnum>  (185) 
1

>  <i_i_glide_posenum>  (185) 
2

>  <r_i_glide_eff_state_penalty>  (185) 
0

>  <ligand_id>  (185) 
53

>  <original_smiles>  (185) 
Cc1ccc2ccccc2n1

>  <smiles>  (185) 
[H]c1c([H])c([H])c2c([H])c([H])c(C([H])([H])[H])nc2c1[H]

$$$$
53:0:2
     RDKit          3D

 20 21  0  0  1  0  0  0  0  0999 V2000
  -10.1871   -4.4594   -7.2707 C   0  0  0  0  0  0  0  0  0  0  0  0
   -8.9366   -4.9486   -6.5726 C   0  0  0  0  0  0  0  0  0  0  0  0
   -8.4048   -4.2556   -5.4695 C   0  0  0  0  0  0  0  0  0  0  0  0
   -7.2460   -4.7617   -4.8527 C   0  0  0  0  0  0  0  0  0  0  0  0
   -6.6728   -5.9463   -5.3587 C   0  0  0  0  0  0  0  0  0  0  0  0
   -5.5119   -6.4875   -4.7673 C   0  0  0  0  0  0  0  0  0  0  0  0
   -4.9422   -7.6693   -5.2796 C   0  0  0  0  0  0  0  0  0  0  0  0
   -5.5408   -8.3104   -6.3806 C   0  0  0  0  0  0  0  0  0  0  0  0
   -6.7012   -7.7673   -6.9673 C   0  0  0  0  0  0  0  0  0  0  0  0
   -7.2821   -6.5809   -6.4750 C   0  0  0  0  0  0  0  0  0  0  0  0
   -8.3828   -6.0720   -7.0734 N   0  0  0  0  0  0  0  0  0  0  0  0
  -10.5657   -3.5451   -6.8117 H   0  0  0  0  0  0  0  0  0  0  0  0
  -10.9721   -5.2155   -7.2236 H   0  0  0  0  0  0  0  0  0  0  0  0
   -9.9651   -4.2612   -8.3184 H   0  0  0  0  0  0  0  0  0  0  0  0
   -8.8738   -3.3523   -5.1031 H   0  0  0  0  0  0  0  0  0  0  0  0
   -6.8114   -4.2466   -4.0068 H   0  0  0  0  0  0  0  0  0  0  0  0
   -5.0599   -5.9985   -3.9221 H   0  0  0  0  0  0  0  0  0  0  0  0
   -4.0511   -8.0880   -4.8279 H   0  0  0  0  0  0  0  0  0  0  0  0
   -5.1080   -9.2188   -6.7781 H   0  0  0  0  0  0  0  0  0  0  0  0
   -7.1555   -8.2592   -7.8133 H   0  0  0  0  0  0  0  0  0  0  0  0
  1  2  1  0
  1 12  1  0
  1 13  1  0
  1 14  1  0
  2 11  2  0
  2  3  1  0
  3  4  2  0
  3 15  1  0
  4  5  1  0
  4 16  1  0
  5 10  2  0
  5  6  1  0
  6  7  2  0
  6 17  1  0
  7  8  1  0
  7 18  1  0
  8  9  2  0
  8 19  1  0
  9 10  1  0
  9 20  1  0
 10 11  1  0
M  END
>  <i_m_ct_stereo_status>  (186) 
1

>  <s_m_source_file>  (186) 
/var/tmp/pbs.5076255.sched01/tmp3npnc3rz/42_8qtnw6u.sdf

>  <i_m_source_file_index>  (186) 
36

>  <i_lp_mmshare_version>  (186) 
48012

>  <i_f3d_flags>  (186) 
0

>  <s_epik_input>  (186) 
W2NIXTFbY0hdYyhbQ0gzXSluYyhjMTIpW2NIXVtjSF1bY0hdW2NIXTI=

>  <s_epik_cmdline>  (186) 
J2VwaWtfcHl0aG9uJywgJy1waHQnLCAnMi4wJywgJy1waCcsICc3LjAnLCAnLXRuJywgJzgnLCAnLW1hJywgJzIwMCcsICctaW1hZScsICc8aW5maWxlLm1hZT4nLCAnLW9tYWUnLCAnPG91dGZpbGUubWFlPic=

>  <r_epik_Ionization_Penalty>  (186) 
0.0289745

>  <r_epik_Ionization_Penalty_Charging>  (186) 
0

>  <r_epik_Ionization_Penalty_Neutral>  (186) 
0.0289745

>  <r_epik_State_Penalty>  (186) 
0.0238078

>  <r_epik_Charging_Adjusted_Penalty>  (186) 
0.0238078

>  <i_epik_Tot_Q>  (186) 
0

>  <i_epik_Tot_abs_Q>  (186) 
0

>  <s_lp_Force_Field>  (186) 
OPLS3e

>  <r_lp_Energy>  (186) 
19.2916

>  <b_lp_Chiralities_Consistent>  (186) 
1

>  <s_lp_Variant>  (186) 
53:0-1

>  <s_i_glide_gridfile>  (186) 
pfpi4k_grid

>  <i_i_glide_lignum>  (186) 
36

>  <i_i_glide_rotatable_bonds>  (186) 
0

>  <r_i_docking_score>  (186) 
-5.78378

>  <r_i_glide_ligand_efficiency>  (186) 
-0.525799

>  <r_i_glide_ligand_efficiency_sa>  (186) 
-1.16937

>  <r_i_glide_ligand_efficiency_ln>  (186) 
-1.70217

>  <r_i_glide_gscore>  (186) 
-5.78378

>  <r_i_glide_lipo>  (186) 
-2.45905

>  <r_i_glide_hbond>  (186) 
0

>  <r_i_glide_metal>  (186) 
-0

>  <r_i_glide_rewards>  (186) 
-2.25

>  <r_i_glide_evdw>  (186) 
-21.9919

>  <r_i_glide_ecoul>  (186) 
0.165752

>  <r_i_glide_erotb>  (186) 
0

>  <r_i_glide_esite>  (186) 
0

>  <r_i_glide_emodel>  (186) 
-29.5588

>  <r_i_glide_energy>  (186) 
-21.8261

>  <r_i_glide_einternal>  (186) 
0

>  <r_i_glide_intrahb_reward>  (186) 
-0

>  <i_i_glide_confnum>  (186) 
1

>  <i_i_glide_posenum>  (186) 
5

>  <r_i_glide_eff_state_penalty>  (186) 
0

>  <ligand_id>  (186) 
53

>  <original_smiles>  (186) 
Cc1ccc2ccccc2n1

>  <smiles>  (186) 
[H]c1c([H])c([H])c2c([H])c([H])c(C([H])([H])[H])nc2c1[H]

$$$$
53:1:0
     RDKit          3D

 21 22  0  0  1  0  0  0  0  0999 V2000
   -6.8264   -4.4665   -4.2080 C   0  0  0  0  0  0  0  0  0  0  0  0
   -6.7458   -5.6783   -5.1122 C   0  0  0  0  0  0  0  0  0  0  0  0
   -7.5499   -5.8119   -6.2657 C   0  0  0  0  0  0  0  0  0  0  0  0
   -7.4259   -6.9706   -7.0639 C   0  0  0  0  0  0  0  0  0  0  0  0
   -6.4983   -7.9684   -6.6915 C   0  0  0  0  0  0  0  0  0  0  0  0
   -6.3411   -9.1416   -7.4608 C   0  0  0  0  0  0  0  0  0  0  0  0
   -5.4135  -10.1267   -7.0639 C   0  0  0  0  0  0  0  0  0  0  0  0
   -4.6399   -9.9431   -5.8999 C   0  0  0  0  0  0  0  0  0  0  0  0
   -4.7888   -8.7706   -5.1325 C   0  0  0  0  0  0  0  0  0  0  0  0
   -5.7163   -7.7851   -5.5225 C   0  0  0  0  0  0  0  0  0  0  0  0
   -5.8739   -6.6589   -4.7891 N   0  0  0  0  0  0  0  0  0  0  0  0
   -7.5648   -3.7548   -4.5766 H   0  0  0  0  0  0  0  0  0  0  0  0
   -5.8624   -3.9590   -4.1600 H   0  0  0  0  0  0  0  0  0  0  0  0
   -7.1146   -4.7580   -3.1976 H   0  0  0  0  0  0  0  0  0  0  0  0
   -8.2553   -5.0376   -6.5379 H   0  0  0  0  0  0  0  0  0  0  0  0
   -8.0344   -7.0841   -7.9508 H   0  0  0  0  0  0  0  0  0  0  0  0
   -6.9298   -9.2956   -8.3545 H   0  0  0  0  0  0  0  0  0  0  0  0
   -5.2949  -11.0280   -7.6495 H   0  0  0  0  0  0  0  0  0  0  0  0
   -3.9300  -10.7004   -5.5939 H   0  0  0  0  0  0  0  0  0  0  0  0
   -4.1869   -8.6555   -4.2457 H   0  0  0  0  0  0  0  0  0  0  0  0
   -5.3215   -6.5512   -3.9403 H   0  0  0  0  0  0  0  0  0  0  0  0
  1  2  1  0
  1 12  1  0
  1 13  1  0
  1 14  1  0
  2 11  2  0
  2  3  1  0
  3  4  2  0
  3 15  1  0
  4  5  1  0
  4 16  1  0
  5 10  2  0
  5  6  1  0
  6  7  2  0
  6 17  1  0
  7  8  1  0
  7 18  1  0
  8  9  2  0
  8 19  1  0
  9 10  1  0
  9 20  1  0
 10 11  1  0
 11 21  1  0
M  CHG  1  11   1
M  END
>  <i_m_ct_stereo_status>  (187) 
1

>  <s_m_source_file>  (187) 
/var/tmp/pbs.5076255.sched01/tmp3npnc3rz/42_8qtnw6u.sdf

>  <i_m_source_file_index>  (187) 
37

>  <i_lp_mmshare_version>  (187) 
48012

>  <i_f3d_flags>  (187) 
0

>  <s_epik_input>  (187) 
W2NIXTFbY0hdYyhbQ0gzXSluYyhjMTIpW2NIXVtjSF1bY0hdW2NIXTI=

>  <s_epik_cmdline>  (187) 
J2VwaWtfcHl0aG9uJywgJy1waHQnLCAnMi4wJywgJy1waCcsICc3LjAnLCAnLXRuJywgJzgnLCAnLW1hJywgJzIwMCcsICctaW1hZScsICc8aW5maWxlLm1hZT4nLCAnLW9tYWUnLCAnPG91dGZpbGUubWFlPic=

>  <r_epik_Ionization_Penalty>  (187) 
1.8025

>  <r_epik_Ionization_Penalty_Charging>  (187) 
1.8025

>  <r_epik_Ionization_Penalty_Neutral>  (187) 
1.77735e-13

>  <r_epik_State_Penalty>  (187) 
1.9163

>  <r_epik_Charging_Adjusted_Penalty>  (187) 
3.7188

>  <i_epik_Tot_Q>  (187) 
1

>  <i_epik_Tot_abs_Q>  (187) 
1

>  <s_lp_Force_Field>  (187) 
OPLS3e

>  <r_lp_Energy>  (187) 
22.0877

>  <b_lp_Chiralities_Consistent>  (187) 
1

>  <s_lp_Variant>  (187) 
53:0-2

>  <s_i_glide_gridfile>  (187) 
pfpi4k_grid

>  <i_i_glide_lignum>  (187) 
37

>  <i_i_glide_rotatable_bonds>  (187) 
0

>  <r_i_docking_score>  (187) 
-6.26002

>  <r_i_glide_ligand_efficiency>  (187) 
-0.569093

>  <r_i_glide_ligand_efficiency_sa>  (187) 
-1.26565

>  <r_i_glide_ligand_efficiency_ln>  (187) 
-1.84232

>  <r_i_glide_gscore>  (187) 
-6.26002

>  <r_i_glide_lipo>  (187) 
-2.23022

>  <r_i_glide_hbond>  (187) 
0

>  <r_i_glide_metal>  (187) 
-0

>  <r_i_glide_rewards>  (187) 
-2.725

>  <r_i_glide_evdw>  (187) 
-20.0609

>  <r_i_glide_ecoul>  (187) 
-2.01174

>  <r_i_glide_erotb>  (187) 
0

>  <r_i_glide_esite>  (187) 
0

>  <r_i_glide_emodel>  (187) 
-30.4499

>  <r_i_glide_energy>  (187) 
-22.0726

>  <r_i_glide_einternal>  (187) 
0

>  <r_i_glide_intrahb_reward>  (187) 
-0

>  <i_i_glide_confnum>  (187) 
1

>  <i_i_glide_posenum>  (187) 
3

>  <r_i_glide_eff_state_penalty>  (187) 
0

>  <ligand_id>  (187) 
53

>  <original_smiles>  (187) 
Cc1ccc2ccccc2n1

>  <smiles>  (187) 
[H]c1c([H])c([H])c2c(c1[H])c([H])c([H])c(C([H])([H])[H])[n+]2[H]

$$$$
53:1:1
     RDKit          3D

 21 22  0  0  1  0  0  0  0  0999 V2000
   -4.1201  -10.6362   -5.7011 C   0  0  0  0  0  0  0  0  0  0  0  0
   -5.0948   -9.5516   -6.1146 C   0  0  0  0  0  0  0  0  0  0  0  0
   -5.8847   -9.6506   -7.2802 C   0  0  0  0  0  0  0  0  0  0  0  0
   -6.7732   -8.6045   -7.6029 C   0  0  0  0  0  0  0  0  0  0  0  0
   -6.8584   -7.4798   -6.7522 C   0  0  0  0  0  0  0  0  0  0  0  0
   -7.7392   -6.4110   -7.0363 C   0  0  0  0  0  0  0  0  0  0  0  0
   -7.7965   -5.2970   -6.1719 C   0  0  0  0  0  0  0  0  0  0  0  0
   -6.9841   -5.2472   -5.0235 C   0  0  0  0  0  0  0  0  0  0  0  0
   -6.1066   -6.3127   -4.7353 C   0  0  0  0  0  0  0  0  0  0  0  0
   -6.0388   -7.4279   -5.5949 C   0  0  0  0  0  0  0  0  0  0  0  0
   -5.1974   -8.4561   -5.3302 N   0  0  0  0  0  0  0  0  0  0  0  0
   -4.1221  -11.4630   -6.4115 H   0  0  0  0  0  0  0  0  0  0  0  0
   -4.3853  -11.0344   -4.7226 H   0  0  0  0  0  0  0  0  0  0  0  0
   -3.1073  -10.2393   -5.6478 H   0  0  0  0  0  0  0  0  0  0  0  0
   -5.8141  -10.5201   -7.9169 H   0  0  0  0  0  0  0  0  0  0  0  0
   -7.3820   -8.6741   -8.4939 H   0  0  0  0  0  0  0  0  0  0  0  0
   -8.3685   -6.4314   -7.9148 H   0  0  0  0  0  0  0  0  0  0  0  0
   -8.4664   -4.4777   -6.3879 H   0  0  0  0  0  0  0  0  0  0  0  0
   -7.0409   -4.3906   -4.3643 H   0  0  0  0  0  0  0  0  0  0  0  0
   -5.4982   -6.2600   -3.8499 H   0  0  0  0  0  0  0  0  0  0  0  0
   -4.6197   -8.4178   -4.4884 H   0  0  0  0  0  0  0  0  0  0  0  0
  1  2  1  0
  1 12  1  0
  1 13  1  0
  1 14  1  0
  2 11  2  0
  2  3  1  0
  3  4  2  0
  3 15  1  0
  4  5  1  0
  4 16  1  0
  5 10  2  0
  5  6  1  0
  6  7  2  0
  6 17  1  0
  7  8  1  0
  7 18  1  0
  8  9  2  0
  8 19  1  0
  9 10  1  0
  9 20  1  0
 10 11  1  0
 11 21  1  0
M  CHG  1  11   1
M  END
>  <i_m_ct_stereo_status>  (188) 
1

>  <s_m_source_file>  (188) 
/var/tmp/pbs.5076255.sched01/tmp3npnc3rz/42_8qtnw6u.sdf

>  <i_m_source_file_index>  (188) 
37

>  <i_lp_mmshare_version>  (188) 
48012

>  <i_f3d_flags>  (188) 
0

>  <s_epik_input>  (188) 
W2NIXTFbY0hdYyhbQ0gzXSluYyhjMTIpW2NIXVtjSF1bY0hdW2NIXTI=

>  <s_epik_cmdline>  (188) 
J2VwaWtfcHl0aG9uJywgJy1waHQnLCAnMi4wJywgJy1waCcsICc3LjAnLCAnLXRuJywgJzgnLCAnLW1hJywgJzIwMCcsICctaW1hZScsICc8aW5maWxlLm1hZT4nLCAnLW9tYWUnLCAnPG91dGZpbGUubWFlPic=

>  <r_epik_Ionization_Penalty>  (188) 
1.8025

>  <r_epik_Ionization_Penalty_Charging>  (188) 
1.8025

>  <r_epik_Ionization_Penalty_Neutral>  (188) 
1.77735e-13

>  <r_epik_State_Penalty>  (188) 
1.9163

>  <r_epik_Charging_Adjusted_Penalty>  (188) 
3.7188

>  <i_epik_Tot_Q>  (188) 
1

>  <i_epik_Tot_abs_Q>  (188) 
1

>  <s_lp_Force_Field>  (188) 
OPLS3e

>  <r_lp_Energy>  (188) 
22.0877

>  <b_lp_Chiralities_Consistent>  (188) 
1

>  <s_lp_Variant>  (188) 
53:0-2

>  <s_i_glide_gridfile>  (188) 
pfpi4k_grid

>  <i_i_glide_lignum>  (188) 
37

>  <i_i_glide_rotatable_bonds>  (188) 
0

>  <r_i_docking_score>  (188) 
-6.2071

>  <r_i_glide_ligand_efficiency>  (188) 
-0.564282

>  <r_i_glide_ligand_efficiency_sa>  (188) 
-1.25495

>  <r_i_glide_ligand_efficiency_ln>  (188) 
-1.82675

>  <r_i_glide_gscore>  (188) 
-6.2071

>  <r_i_glide_lipo>  (188) 
-2.30799

>  <r_i_glide_hbond>  (188) 
0

>  <r_i_glide_metal>  (188) 
-0

>  <r_i_glide_rewards>  (188) 
-2.675

>  <r_i_glide_evdw>  (188) 
-19.2483

>  <r_i_glide_ecoul>  (188) 
-1.74465

>  <r_i_glide_erotb>  (188) 
0

>  <r_i_glide_esite>  (188) 
0

>  <r_i_glide_emodel>  (188) 
-29.3005

>  <r_i_glide_energy>  (188) 
-20.993

>  <r_i_glide_einternal>  (188) 
0

>  <r_i_glide_intrahb_reward>  (188) 
-0

>  <i_i_glide_confnum>  (188) 
2

>  <i_i_glide_posenum>  (188) 
34

>  <r_i_glide_eff_state_penalty>  (188) 
0

>  <ligand_id>  (188) 
53

>  <original_smiles>  (188) 
Cc1ccc2ccccc2n1

>  <smiles>  (188) 
[H]c1c([H])c([H])c2c(c1[H])c([H])c([H])c(C([H])([H])[H])[n+]2[H]

$$$$
53:1:2
     RDKit          3D

 21 22  0  0  1  0  0  0  0  0999 V2000
  -10.2766   -4.5277   -7.4581 C   0  0  0  0  0  0  0  0  0  0  0  0
   -9.0647   -5.0424   -6.7165 C   0  0  0  0  0  0  0  0  0  0  0  0
   -8.5790   -4.4162   -5.5485 C   0  0  0  0  0  0  0  0  0  0  0  0
   -7.4463   -4.9542   -4.9012 C   0  0  0  0  0  0  0  0  0  0  0  0
   -6.8298   -6.1050   -5.4385 C   0  0  0  0  0  0  0  0  0  0  0  0
   -5.6998   -6.6785   -4.8220 C   0  0  0  0  0  0  0  0  0  0  0  0
   -5.0903   -7.8240   -5.3722 C   0  0  0  0  0  0  0  0  0  0  0  0
   -5.6197   -8.4079   -6.5396 C   0  0  0  0  0  0  0  0  0  0  0  0
   -6.7540   -7.8475   -7.1633 C   0  0  0  0  0  0  0  0  0  0  0  0
   -7.3574   -6.6960   -6.6153 C   0  0  0  0  0  0  0  0  0  0  0  0
   -8.4400   -6.1396   -7.2013 N   0  0  0  0  0  0  0  0  0  0  0  0
  -10.6936   -3.6418   -6.9751 H   0  0  0  0  0  0  0  0  0  0  0  0
  -11.0555   -5.2903   -7.5103 H   0  0  0  0  0  0  0  0  0  0  0  0
   -9.9913   -4.2652   -8.4746 H   0  0  0  0  0  0  0  0  0  0  0  0
   -9.0690   -3.5399   -5.1445 H   0  0  0  0  0  0  0  0  0  0  0  0
   -7.0659   -4.4899   -4.0008 H   0  0  0  0  0  0  0  0  0  0  0  0
   -5.3103   -6.2475   -3.9206 H   0  0  0  0  0  0  0  0  0  0  0  0
   -4.2235   -8.2646   -4.8937 H   0  0  0  0  0  0  0  0  0  0  0  0
   -5.1541   -9.2911   -6.9577 H   0  0  0  0  0  0  0  0  0  0  0  0
   -7.1448   -8.3033   -8.0592 H   0  0  0  0  0  0  0  0  0  0  0  0
   -8.8115   -6.5823   -8.0430 H   0  0  0  0  0  0  0  0  0  0  0  0
  1  2  1  0
  1 12  1  0
  1 13  1  0
  1 14  1  0
  2 11  2  0
  2  3  1  0
  3  4  2  0
  3 15  1  0
  4  5  1  0
  4 16  1  0
  5 10  2  0
  5  6  1  0
  6  7  2  0
  6 17  1  0
  7  8  1  0
  7 18  1  0
  8  9  2  0
  8 19  1  0
  9 10  1  0
  9 20  1  0
 10 11  1  0
 11 21  1  0
M  CHG  1  11   1
M  END
>  <i_m_ct_stereo_status>  (189) 
1

>  <s_m_source_file>  (189) 
/var/tmp/pbs.5076255.sched01/tmp3npnc3rz/42_8qtnw6u.sdf

>  <i_m_source_file_index>  (189) 
37

>  <i_lp_mmshare_version>  (189) 
48012

>  <i_f3d_flags>  (189) 
0

>  <s_epik_input>  (189) 
W2NIXTFbY0hdYyhbQ0gzXSluYyhjMTIpW2NIXVtjSF1bY0hdW2NIXTI=

>  <s_epik_cmdline>  (189) 
J2VwaWtfcHl0aG9uJywgJy1waHQnLCAnMi4wJywgJy1waCcsICc3LjAnLCAnLXRuJywgJzgnLCAnLW1hJywgJzIwMCcsICctaW1hZScsICc8aW5maWxlLm1hZT4nLCAnLW9tYWUnLCAnPG91dGZpbGUubWFlPic=

>  <r_epik_Ionization_Penalty>  (189) 
1.8025

>  <r_epik_Ionization_Penalty_Charging>  (189) 
1.8025

>  <r_epik_Ionization_Penalty_Neutral>  (189) 
1.77735e-13

>  <r_epik_State_Penalty>  (189) 
1.9163

>  <r_epik_Charging_Adjusted_Penalty>  (189) 
3.7188

>  <i_epik_Tot_Q>  (189) 
1

>  <i_epik_Tot_abs_Q>  (189) 
1

>  <s_lp_Force_Field>  (189) 
OPLS3e

>  <r_lp_Energy>  (189) 
22.0877

>  <b_lp_Chiralities_Consistent>  (189) 
1

>  <s_lp_Variant>  (189) 
53:0-2

>  <s_i_glide_gridfile>  (189) 
pfpi4k_grid

>  <i_i_glide_lignum>  (189) 
37

>  <i_i_glide_rotatable_bonds>  (189) 
0

>  <r_i_docking_score>  (189) 
-5.89641

>  <r_i_glide_ligand_efficiency>  (189) 
-0.536038

>  <r_i_glide_ligand_efficiency_sa>  (189) 
-1.19214

>  <r_i_glide_ligand_efficiency_ln>  (189) 
-1.73531

>  <r_i_glide_gscore>  (189) 
-5.89641

>  <r_i_glide_lipo>  (189) 
-2.50256

>  <r_i_glide_hbond>  (189) 
0

>  <r_i_glide_metal>  (189) 
-0

>  <r_i_glide_rewards>  (189) 
-2.25

>  <r_i_glide_evdw>  (189) 
-21.3292

>  <r_i_glide_ecoul>  (189) 
-0.515951

>  <r_i_glide_erotb>  (189) 
0

>  <r_i_glide_esite>  (189) 
0

>  <r_i_glide_emodel>  (189) 
-29.736

>  <r_i_glide_energy>  (189) 
-21.8452

>  <r_i_glide_einternal>  (189) 
0

>  <r_i_glide_intrahb_reward>  (189) 
-0

>  <i_i_glide_confnum>  (189) 
1

>  <i_i_glide_posenum>  (189) 
39

>  <r_i_glide_eff_state_penalty>  (189) 
0

>  <ligand_id>  (189) 
53

>  <original_smiles>  (189) 
Cc1ccc2ccccc2n1

>  <smiles>  (189) 
[H]c1c([H])c([H])c2c(c1[H])c([H])c([H])c(C([H])([H])[H])[n+]2[H]

$$$$
54:0:0
     RDKit          3D

 49 53  0  0  1  0  0  0  0  0999 V2000
    5.4460    0.0894    6.2513 C   0  0  0  0  0  0  0  0  0  0  0  0
    4.9981   -0.2596    4.8413 C   0  0  0  0  0  0  0  0  0  0  0  0
    5.7986   -0.2596    3.9062 O   0  0  0  0  0  0  0  0  0  0  0  0
    3.6737   -0.5365    4.7726 O   0  0  0  0  0  0  0  0  0  0  0  0
    3.0590   -0.8941    3.5350 C   0  0  2  0  0  0  0  0  0  0  0  0
    3.0863    0.2210    2.4633 C   0  0  0  0  0  0  0  0  0  0  0  0
    3.9439   -0.0848    1.2468 C   0  0  0  0  0  0  0  0  0  0  0  0
    2.4161    1.3985    2.5312 C   0  0  0  0  0  0  0  0  0  0  0  0
    1.5211    1.8637    3.6644 C   0  0  1  0  0  0  0  0  0  0  0  0
    2.4031    1.9944    4.9026 C   0  0  0  0  0  0  0  0  0  0  0  0
    1.9711    1.8352    6.1592 C   0  0  0  0  0  0  0  0  0  0  0  0
    0.5337    1.5575    6.4805 C   0  0  0  0  0  0  0  0  0  0  0  0
   -0.2635    1.0404    5.2456 C   0  0  2  0  0  0  0  0  0  0  0  0
   -1.5625    1.8604    5.1665 C   0  0  0  0  0  0  0  0  0  0  0  0
   -1.2613    3.3253    4.6687 C   0  0  0  0  0  0  0  0  0  0  0  0
   -2.1812    4.1116    4.4873 O   0  0  0  0  0  0  0  0  0  0  0  0
    0.0607    3.7155    4.5350 O   0  0  0  0  0  0  0  0  0  0  0  0
    0.9535    3.2989    3.4711 C   0  0  0  0  0  0  0  0  0  0  0  0
   -0.0901   -0.4917    5.2436 C   0  0  0  0  0  0  0  0  0  0  0  0
    0.1444   -1.4097    6.1989 C   0  0  0  0  0  0  0  0  0  0  0  0
    0.8992   -2.6390    5.8592 C   0  0  0  0  0  0  0  0  0  0  0  0
    0.9025   -3.6140    6.6025 O   0  0  0  0  0  0  0  0  0  0  0  0
    1.6071   -2.6286    4.6696 O   0  0  0  0  0  0  0  0  0  0  0  0
    1.6552   -1.5302    3.7426 C   0  0  1  0  0  0  0  0  0  0  0  0
    0.4314   -0.6345    3.8672 C   0  0  2  0  0  0  0  0  0  0  0  0
    0.3310    0.9049    3.7974 C   0  0  2  0  0  0  0  0  0  0  0  0
   -0.6083    1.1046    2.5500 C   0  0  0  0  0  0  0  0  0  0  0  0
    5.1651   -0.7073    6.9389 H   0  0  0  0  0  0  0  0  0  0  0  0
    4.9805    1.0192    6.5754 H   0  0  0  0  0  0  0  0  0  0  0  0
    6.5277    0.2158    6.2850 H   0  0  0  0  0  0  0  0  0  0  0  0
    3.6775   -1.7011    3.1357 H   0  0  0  0  0  0  0  0  0  0  0  0
    3.5939   -0.9821    0.7385 H   0  0  0  0  0  0  0  0  0  0  0  0
    4.9820   -0.2391    1.5311 H   0  0  0  0  0  0  0  0  0  0  0  0
    3.9304    0.7372    0.5333 H   0  0  0  0  0  0  0  0  0  0  0  0
    2.4967    2.1027    1.7146 H   0  0  0  0  0  0  0  0  0  0  0  0
    3.4406    2.2464    4.7256 H   0  0  0  0  0  0  0  0  0  0  0  0
    2.6337    1.9791    6.9977 H   0  0  0  0  0  0  0  0  0  0  0  0
    0.4775    0.8868    7.3353 H   0  0  0  0  0  0  0  0  0  0  0  0
    0.1277    2.4912    6.8646 H   0  0  0  0  0  0  0  0  0  0  0  0
   -2.2875    1.4134    4.4821 H   0  0  0  0  0  0  0  0  0  0  0  0
   -2.0564    1.9306    6.1376 H   0  0  0  0  0  0  0  0  0  0  0  0
    1.7917    3.9970    3.4672 H   0  0  0  0  0  0  0  0  0  0  0  0
    0.5041    3.4175    2.4896 H   0  0  0  0  0  0  0  0  0  0  0  0
   -0.0686   -1.2426    7.2412 H   0  0  0  0  0  0  0  0  0  0  0  0
    1.5122   -2.0386    2.7858 H   0  0  0  0  0  0  0  0  0  0  0  0
   -0.3397   -1.1021    3.2738 H   0  0  0  0  0  0  0  0  0  0  0  0
   -1.5271    0.5239    2.6400 H   0  0  0  0  0  0  0  0  0  0  0  0
   -0.1291    0.7672    1.6293 H   0  0  0  0  0  0  0  0  0  0  0  0
   -0.9780    2.1073    2.3546 H   0  0  0  0  0  0  0  0  0  0  0  0
  1  2  1  0
  1 28  1  0
  1 29  1  0
  1 30  1  0
  2  3  2  0
  2  4  1  0
  4  5  1  0
  5 24  1  0
  5  6  1  0
  5 31  1  6
  6  7  1  0
  6  8  2  0
  7 32  1  0
  7 33  1  0
  7 34  1  0
  8  9  1  0
  8 35  1  0
  9 18  1  6
  9 26  1  0
  9 10  1  0
 10 11  2  0
 10 36  1  0
 11 12  1  0
 11 37  1  0
 13 12  1  1
 12 38  1  0
 12 39  1  0
 13 26  1  0
 13 14  1  0
 13 19  1  0
 14 15  1  0
 14 40  1  0
 14 41  1  0
 15 16  2  0
 15 17  1  0
 17 18  1  0
 18 42  1  0
 18 43  1  0
 19 25  1  0
 19 20  2  0
 20 21  1  0
 20 44  1  0
 21 22  2  0
 21 23  1  0
 23 24  1  0
 24 25  1  0
 24 45  1  6
 25 26  1  0
 25 46  1  6
 26 27  1  6
 27 47  1  0
 27 48  1  0
 27 49  1  0
M  END
>  <i_m_ct_stereo_status>  (190) 
1

>  <s_m_source_file>  (190) 
/var/tmp/pbs.5076255.sched01/tmp3npnc3rz/42_8qtnw6u.sdf

>  <i_m_source_file_index>  (190) 
38

>  <i_lp_mmshare_version>  (190) 
48012

>  <i_f3d_flags>  (190) 
0

>  <s_epik_input>  (190) 
W0NIM11DKD1PKU9bQ0BIXShDKFtDSDNdKT1bQ0hdMSlbQ0BASF0oT0MoPU8pW0NIXTIpW0NASF0zQz0yW0NAXShbQ0BdMyhbQ0BdMTQ1KVtDSDNdKShbQ0gyXVtDSF09W0NIXTQpW0NIMl1DKD1PKU9bQ0gyXTU=

>  <s_epik_cmdline>  (190) 
J2VwaWtfcHl0aG9uJywgJy1waHQnLCAnMi4wJywgJy1waCcsICc3LjAnLCAnLXRuJywgJzgnLCAnLW1hJywgJzIwMCcsICctaW1hZScsICc8aW5maWxlLm1hZT4nLCAnLW9tYWUnLCAnPG91dGZpbGUubWFlPic=

>  <r_lp_tautomer_probability>  (190) 
1

>  <r_epik_Ionization_Penalty>  (190) 
1.04477e-10

>  <r_epik_Ionization_Penalty_Charging>  (190) 
0

>  <r_epik_Ionization_Penalty_Neutral>  (190) 
1.04477e-10

>  <r_epik_State_Penalty>  (190) 
-0

>  <r_epik_Charging_Adjusted_Penalty>  (190) 
0

>  <i_epik_Tot_Q>  (190) 
0

>  <i_epik_Tot_abs_Q>  (190) 
0

>  <s_epik_Chemistry_Notes>  (190) 
This compound has an ester and may undergo hydrolysis at high or low pH.

>  <s_lp_Force_Field>  (190) 
OPLS3e

>  <r_lp_Energy>  (190) 
88.0182

>  <b_lp_Chiralities_Consistent>  (190) 
1

>  <s_lp_Variant>  (190) 
54:0-1

>  <s_i_glide_gridfile>  (190) 
pfpi4k_grid

>  <i_i_glide_lignum>  (190) 
38

>  <i_i_glide_rotatable_bonds>  (190) 
2

>  <r_i_docking_score>  (190) 
-2.61419

>  <r_i_glide_ligand_efficiency>  (190) 
-0.096822

>  <r_i_glide_ligand_efficiency_sa>  (190) 
-0.290466

>  <r_i_glide_ligand_efficiency_ln>  (190) 
-0.608541

>  <r_i_glide_gscore>  (190) 
-2.61419

>  <r_i_glide_lipo>  (190) 
-0.139123

>  <r_i_glide_hbond>  (190) 
-0.0330883

>  <r_i_glide_metal>  (190) 
-0

>  <r_i_glide_rewards>  (190) 
-0.961816

>  <r_i_glide_evdw>  (190) 
-19.915

>  <r_i_glide_ecoul>  (190) 
-3.95906

>  <r_i_glide_erotb>  (190) 
0.140617

>  <r_i_glide_esite>  (190) 
-0.0311727

>  <r_i_glide_emodel>  (190) 
-27.8856

>  <r_i_glide_energy>  (190) 
-23.8741

>  <r_i_glide_einternal>  (190) 
0.487143

>  <r_i_glide_intrahb_reward>  (190) 
-0

>  <i_i_glide_confnum>  (190) 
2

>  <i_i_glide_posenum>  (190) 
20

>  <r_i_glide_eff_state_penalty>  (190) 
0

>  <ligand_id>  (190) 
54

>  <original_smiles>  (190) 
CC(=O)OC1C(C)=CC23C=CCC4(CC(=O)OC2)C2=CC(=O)OC1C2C34C

>  <smiles>  (190) 
[H]C1=C2C3([H])C([H])(OC1=O)C([H])(OC(=O)C([H])([H])[H])C(C([H])([H])[H])=C([H])C14C([H])=C([H])C([H])([H])C2(C([H])([H])C(=O)OC1([H])[H])C34C([H])([H])[H]

$$$$
54:0:1
     RDKit          3D

 49 53  0  0  1  0  0  0  0  0999 V2000
    0.3567   -1.0327    6.7791 C   0  0  0  0  0  0  0  0  0  0  0  0
   -0.6414   -0.3317    5.8655 C   0  0  0  0  0  0  0  0  0  0  0  0
   -1.7693   -0.7917    5.6777 O   0  0  0  0  0  0  0  0  0  0  0  0
   -0.1432    0.8011    5.3485 O   0  0  0  0  0  0  0  0  0  0  0  0
   -0.8691    1.5840    4.4076 C   0  0  2  0  0  0  0  0  0  0  0  0
   -0.0397    1.8693    3.1455 C   0  0  0  0  0  0  0  0  0  0  0  0
   -0.5710    1.2205    1.8864 C   0  0  0  0  0  0  0  0  0  0  0  0
    1.0763    2.6416    3.0770 C   0  0  0  0  0  0  0  0  0  0  0  0
    1.7405    3.3761    4.2230 C   0  0  1  0  0  0  0  0  0  0  0  0
    2.2290    2.2998    5.1908 C   0  0  0  0  0  0  0  0  0  0  0  0
    2.3482    2.4712    6.5112 C   0  0  0  0  0  0  0  0  0  0  0  0
    2.0578    3.7851    7.1713 C   0  0  0  0  0  0  0  0  0  0  0  0
    1.2006    4.7302    6.2757 C   0  0  2  0  0  0  0  0  0  0  0  0
    1.8865    6.1088    6.2871 C   0  0  0  0  0  0  0  0  0  0  0  0
    3.2036    6.0857    5.4282 C   0  0  0  0  0  0  0  0  0  0  0  0
    3.8567    7.1150    5.2981 O   0  0  0  0  0  0  0  0  0  0  0  0
    3.6491    4.8703    4.9204 O   0  0  0  0  0  0  0  0  0  0  0  0
    3.0417    4.1365    3.8257 C   0  0  0  0  0  0  0  0  0  0  0  0
   -0.2716    4.3852    6.5848 C   0  0  0  0  0  0  0  0  0  0  0  0
   -0.9091    3.8797    7.6541 C   0  0  0  0  0  0  0  0  0  0  0  0
   -2.1342    3.0627    7.4539 C   0  0  0  0  0  0  0  0  0  0  0  0
   -2.8930    2.7909    8.3751 O   0  0  0  0  0  0  0  0  0  0  0  0
   -2.3701    2.6043    6.1682 O   0  0  0  0  0  0  0  0  0  0  0  0
   -1.5246    2.8459    5.0333 C   0  0  1  0  0  0  0  0  0  0  0  0
   -0.7089    4.1194    5.1960 C   0  0  2  0  0  0  0  0  0  0  0  0
    0.7587    4.4031    4.8053 C   0  0  2  0  0  0  0  0  0  0  0  0
    0.5886    5.5725    3.7700 C   0  0  0  0  0  0  0  0  0  0  0  0
    0.7062   -0.3468    7.5505 H   0  0  0  0  0  0  0  0  0  0  0  0
    1.2192   -1.3740    6.2062 H   0  0  0  0  0  0  0  0  0  0  0  0
   -0.0975   -1.8979    7.2609 H   0  0  0  0  0  0  0  0  0  0  0  0
   -1.7062    0.9797    4.0493 H   0  0  0  0  0  0  0  0  0  0  0  0
   -1.5950    1.5415    1.6959 H   0  0  0  0  0  0  0  0  0  0  0  0
   -0.5568    0.1399    1.9889 H   0  0  0  0  0  0  0  0  0  0  0  0
    0.0362    1.4797    1.0165 H   0  0  0  0  0  0  0  0  0  0  0  0
    1.5481    2.7874    2.1151 H   0  0  0  0  0  0  0  0  0  0  0  0
    2.4857    1.3419    4.7559 H   0  0  0  0  0  0  0  0  0  0  0  0
    2.7298    1.6860    7.1429 H   0  0  0  0  0  0  0  0  0  0  0  0
    1.6111    3.6104    8.1472 H   0  0  0  0  0  0  0  0  0  0  0  0
    3.0283    4.2189    7.4098 H   0  0  0  0  0  0  0  0  0  0  0  0
    1.2412    6.8937    5.8865 H   0  0  0  0  0  0  0  0  0  0  0  0
    2.1561    6.4179    7.2993 H   0  0  0  0  0  0  0  0  0  0  0  0
    3.7693    3.3912    3.5082 H   0  0  0  0  0  0  0  0  0  0  0  0
    2.9151    4.7663    2.9462 H   0  0  0  0  0  0  0  0  0  0  0  0
   -0.5097    3.9261    8.6546 H   0  0  0  0  0  0  0  0  0  0  0  0
   -2.2591    3.0987    4.2654 H   0  0  0  0  0  0  0  0  0  0  0  0
   -1.3604    4.9334    4.8912 H   0  0  0  0  0  0  0  0  0  0  0  0
   -0.0168    6.3855    4.1696 H   0  0  0  0  0  0  0  0  0  0  0  0
    0.0687    5.2324    2.8804 H   0  0  0  0  0  0  0  0  0  0  0  0
    1.4847    6.0808    3.4314 H   0  0  0  0  0  0  0  0  0  0  0  0
  1  2  1  0
  1 28  1  0
  1 29  1  0
  1 30  1  0
  2  3  2  0
  2  4  1  0
  4  5  1  0
  5 24  1  0
  5  6  1  0
  5 31  1  6
  6  7  1  0
  6  8  2  0
  7 32  1  0
  7 33  1  0
  7 34  1  0
  8  9  1  0
  8 35  1  0
  9 18  1  6
  9 26  1  0
  9 10  1  0
 10 11  2  0
 10 36  1  0
 11 12  1  0
 11 37  1  0
 13 12  1  1
 12 38  1  0
 12 39  1  0
 13 26  1  0
 13 14  1  0
 13 19  1  0
 14 15  1  0
 14 40  1  0
 14 41  1  0
 15 16  2  0
 15 17  1  0
 17 18  1  0
 18 42  1  0
 18 43  1  0
 19 25  1  0
 19 20  2  0
 20 21  1  0
 20 44  1  0
 21 22  2  0
 21 23  1  0
 23 24  1  0
 24 25  1  0
 24 45  1  6
 25 26  1  0
 25 46  1  6
 26 27  1  6
 27 47  1  0
 27 48  1  0
 27 49  1  0
M  END
>  <i_m_ct_stereo_status>  (191) 
1

>  <s_m_source_file>  (191) 
/var/tmp/pbs.5076255.sched01/tmp3npnc3rz/42_8qtnw6u.sdf

>  <i_m_source_file_index>  (191) 
38

>  <i_lp_mmshare_version>  (191) 
48012

>  <i_f3d_flags>  (191) 
0

>  <s_epik_input>  (191) 
W0NIM11DKD1PKU9bQ0BIXShDKFtDSDNdKT1bQ0hdMSlbQ0BASF0oT0MoPU8pW0NIXTIpW0NASF0zQz0yW0NAXShbQ0BdMyhbQ0BdMTQ1KVtDSDNdKShbQ0gyXVtDSF09W0NIXTQpW0NIMl1DKD1PKU9bQ0gyXTU=

>  <s_epik_cmdline>  (191) 
J2VwaWtfcHl0aG9uJywgJy1waHQnLCAnMi4wJywgJy1waCcsICc3LjAnLCAnLXRuJywgJzgnLCAnLW1hJywgJzIwMCcsICctaW1hZScsICc8aW5maWxlLm1hZT4nLCAnLW9tYWUnLCAnPG91dGZpbGUubWFlPic=

>  <r_lp_tautomer_probability>  (191) 
1

>  <r_epik_Ionization_Penalty>  (191) 
1.04477e-10

>  <r_epik_Ionization_Penalty_Charging>  (191) 
0

>  <r_epik_Ionization_Penalty_Neutral>  (191) 
1.04477e-10

>  <r_epik_State_Penalty>  (191) 
-0

>  <r_epik_Charging_Adjusted_Penalty>  (191) 
0

>  <i_epik_Tot_Q>  (191) 
0

>  <i_epik_Tot_abs_Q>  (191) 
0

>  <s_epik_Chemistry_Notes>  (191) 
This compound has an ester and may undergo hydrolysis at high or low pH.

>  <s_lp_Force_Field>  (191) 
OPLS3e

>  <r_lp_Energy>  (191) 
88.0182

>  <b_lp_Chiralities_Consistent>  (191) 
1

>  <s_lp_Variant>  (191) 
54:0-1

>  <s_i_glide_gridfile>  (191) 
pfpi4k_grid

>  <i_i_glide_lignum>  (191) 
38

>  <i_i_glide_rotatable_bonds>  (191) 
2

>  <r_i_docking_score>  (191) 
-2.48855

>  <r_i_glide_ligand_efficiency>  (191) 
-0.0921685

>  <r_i_glide_ligand_efficiency_sa>  (191) 
-0.276505

>  <r_i_glide_ligand_efficiency_ln>  (191) 
-0.579293

>  <r_i_glide_gscore>  (191) 
-2.48855

>  <r_i_glide_lipo>  (191) 
0

>  <r_i_glide_hbond>  (191) 
-0.0366759

>  <r_i_glide_metal>  (191) 
-0

>  <r_i_glide_rewards>  (191) 
-0.980878

>  <r_i_glide_evdw>  (191) 
-23.0819

>  <r_i_glide_ecoul>  (191) 
-2.76414

>  <r_i_glide_erotb>  (191) 
0.140617

>  <r_i_glide_esite>  (191) 
-0.0428953

>  <r_i_glide_emodel>  (191) 
-30.0078

>  <r_i_glide_energy>  (191) 
-25.846

>  <r_i_glide_einternal>  (191) 
0.116484

>  <r_i_glide_intrahb_reward>  (191) 
-0

>  <i_i_glide_confnum>  (191) 
2

>  <i_i_glide_posenum>  (191) 
4

>  <r_i_glide_eff_state_penalty>  (191) 
0

>  <ligand_id>  (191) 
54

>  <original_smiles>  (191) 
CC(=O)OC1C(C)=CC23C=CCC4(CC(=O)OC2)C2=CC(=O)OC1C2C34C

>  <smiles>  (191) 
[H]C1=C2C3([H])C([H])(OC1=O)C([H])(OC(=O)C([H])([H])[H])C(C([H])([H])[H])=C([H])C14C([H])=C([H])C([H])([H])C2(C([H])([H])C(=O)OC1([H])[H])C34C([H])([H])[H]

$$$$
54:0:2
     RDKit          3D

 49 53  0  0  1  0  0  0  0  0999 V2000
    0.2144   -1.4548    4.0827 C   0  0  0  0  0  0  0  0  0  0  0  0
   -0.8607   -0.5566    4.6840 C   0  0  0  0  0  0  0  0  0  0  0  0
   -1.8232   -1.0244    5.2964 O   0  0  0  0  0  0  0  0  0  0  0  0
   -0.6105    0.7457    4.4720 O   0  0  0  0  0  0  0  0  0  0  0  0
   -1.4774    1.7679    4.9505 C   0  0  2  0  0  0  0  0  0  0  0  0
   -1.5925    2.9417    3.9609 C   0  0  0  0  0  0  0  0  0  0  0  0
   -2.9573    3.1143    3.3227 C   0  0  0  0  0  0  0  0  0  0  0  0
   -0.5966    3.8027    3.6302 C   0  0  0  0  0  0  0  0  0  0  0  0
    0.8325    3.7822    4.1318 C   0  0  1  0  0  0  0  0  0  0  0  0
    1.4443    2.4670    3.6524 C   0  0  0  0  0  0  0  0  0  0  0  0
    2.4115    1.8081    4.2986 C   0  0  0  0  0  0  0  0  0  0  0  0
    3.0340    2.3392    5.5543 C   0  0  0  0  0  0  0  0  0  0  0  0
    2.1612    3.4344    6.2392 C   0  0  2  0  0  0  0  0  0  0  0  0
    3.0919    4.6145    6.5675 C   0  0  0  0  0  0  0  0  0  0  0  0
    3.4900    5.3945    5.2603 C   0  0  0  0  0  0  0  0  0  0  0  0
    4.1958    6.3913    5.3492 O   0  0  0  0  0  0  0  0  0  0  0  0
    3.1058    4.8765    4.0273 O   0  0  0  0  0  0  0  0  0  0  0  0
    1.7562    4.8668    3.4919 C   0  0  0  0  0  0  0  0  0  0  0  0
    1.1951    2.6835    7.1772 C   0  0  0  0  0  0  0  0  0  0  0  0
    1.2494    1.5094    7.8297 C   0  0  0  0  0  0  0  0  0  0  0  0
   -0.0080    0.7656    8.0956 C   0  0  0  0  0  0  0  0  0  0  0  0
   -0.0575   -0.1772    8.8755 O   0  0  0  0  0  0  0  0  0  0  0  0
   -1.1329    1.1687    7.3905 O   0  0  0  0  0  0  0  0  0  0  0  0
   -1.1574    2.2143    6.4066 C   0  0  1  0  0  0  0  0  0  0  0  0
   -0.0709    3.2486    6.6591 C   0  0  2  0  0  0  0  0  0  0  0  0
    0.8238    4.0024    5.6478 C   0  0  2  0  0  0  0  0  0  0  0  0
    0.4215    5.4957    5.9269 C   0  0  0  0  0  0  0  0  0  0  0  0
    1.1973   -1.1529    4.4434 H   0  0  0  0  0  0  0  0  0  0  0  0
    0.2137   -1.3765    2.9958 H   0  0  0  0  0  0  0  0  0  0  0  0
    0.0512   -2.4969    4.3568 H   0  0  0  0  0  0  0  0  0  0  0  0
   -2.4788    1.3346    4.9763 H   0  0  0  0  0  0  0  0  0  0  0  0
   -3.7259    3.2679    4.0797 H   0  0  0  0  0  0  0  0  0  0  0  0
   -3.2077    2.2302    2.7407 H   0  0  0  0  0  0  0  0  0  0  0  0
   -2.9758    3.9623    2.6358 H   0  0  0  0  0  0  0  0  0  0  0  0
   -0.7958    4.5821    2.9077 H   0  0  0  0  0  0  0  0  0  0  0  0
    1.0563    2.0668    2.7241 H   0  0  0  0  0  0  0  0  0  0  0  0
    2.8355    0.9037    3.8949 H   0  0  0  0  0  0  0  0  0  0  0  0
    3.2704    1.5146    6.2214 H   0  0  0  0  0  0  0  0  0  0  0  0
    4.0132    2.7195    5.2637 H   0  0  0  0  0  0  0  0  0  0  0  0
    2.6260    5.3258    7.2542 H   0  0  0  0  0  0  0  0  0  0  0  0
    4.0134    4.2804    7.0489 H   0  0  0  0  0  0  0  0  0  0  0  0
    1.8397    4.6466    2.4283 H   0  0  0  0  0  0  0  0  0  0  0  0
    1.3183    5.8634    3.5120 H   0  0  0  0  0  0  0  0  0  0  0  0
    2.1749    1.0107    8.0643 H   0  0  0  0  0  0  0  0  0  0  0  0
   -2.0830    2.7314    6.6664 H   0  0  0  0  0  0  0  0  0  0  0  0
   -0.4678    3.9210    7.4158 H   0  0  0  0  0  0  0  0  0  0  0  0
    0.4925    5.7395    6.9891 H   0  0  0  0  0  0  0  0  0  0  0  0
   -0.6139    5.6842    5.6470 H   0  0  0  0  0  0  0  0  0  0  0  0
    1.0179    6.2706    5.4541 H   0  0  0  0  0  0  0  0  0  0  0  0
  1  2  1  0
  1 28  1  0
  1 29  1  0
  1 30  1  0
  2  3  2  0
  2  4  1  0
  4  5  1  0
  5 24  1  0
  5  6  1  0
  5 31  1  1
  6  7  1  0
  6  8  2  0
  7 32  1  0
  7 33  1  0
  7 34  1  0
  8  9  1  0
  8 35  1  0
  9 18  1  6
  9 26  1  0
  9 10  1  0
 10 11  2  0
 10 36  1  0
 11 12  1  0
 11 37  1  0
 13 12  1  6
 12 38  1  0
 12 39  1  0
 13 26  1  0
 13 14  1  0
 13 19  1  0
 14 15  1  0
 14 40  1  0
 14 41  1  0
 15 16  2  0
 15 17  1  0
 17 18  1  0
 18 42  1  0
 18 43  1  0
 19 25  1  0
 19 20  2  0
 20 21  1  0
 20 44  1  0
 21 22  2  0
 21 23  1  0
 23 24  1  0
 24 25  1  0
 24 45  1  1
 25 26  1  0
 25 46  1  1
 26 27  1  6
 27 47  1  0
 27 48  1  0
 27 49  1  0
M  END
>  <i_m_ct_stereo_status>  (192) 
1

>  <s_m_source_file>  (192) 
/var/tmp/pbs.5076255.sched01/tmp3npnc3rz/42_8qtnw6u.sdf

>  <i_m_source_file_index>  (192) 
38

>  <i_lp_mmshare_version>  (192) 
48012

>  <i_f3d_flags>  (192) 
0

>  <s_epik_input>  (192) 
W0NIM11DKD1PKU9bQ0BIXShDKFtDSDNdKT1bQ0hdMSlbQ0BASF0oT0MoPU8pW0NIXTIpW0NASF0zQz0yW0NAXShbQ0BdMyhbQ0BdMTQ1KVtDSDNdKShbQ0gyXVtDSF09W0NIXTQpW0NIMl1DKD1PKU9bQ0gyXTU=

>  <s_epik_cmdline>  (192) 
J2VwaWtfcHl0aG9uJywgJy1waHQnLCAnMi4wJywgJy1waCcsICc3LjAnLCAnLXRuJywgJzgnLCAnLW1hJywgJzIwMCcsICctaW1hZScsICc8aW5maWxlLm1hZT4nLCAnLW9tYWUnLCAnPG91dGZpbGUubWFlPic=

>  <r_lp_tautomer_probability>  (192) 
1

>  <r_epik_Ionization_Penalty>  (192) 
1.04477e-10

>  <r_epik_Ionization_Penalty_Charging>  (192) 
0

>  <r_epik_Ionization_Penalty_Neutral>  (192) 
1.04477e-10

>  <r_epik_State_Penalty>  (192) 
-0

>  <r_epik_Charging_Adjusted_Penalty>  (192) 
0

>  <i_epik_Tot_Q>  (192) 
0

>  <i_epik_Tot_abs_Q>  (192) 
0

>  <s_epik_Chemistry_Notes>  (192) 
This compound has an ester and may undergo hydrolysis at high or low pH.

>  <s_lp_Force_Field>  (192) 
OPLS3e

>  <r_lp_Energy>  (192) 
88.0182

>  <b_lp_Chiralities_Consistent>  (192) 
1

>  <s_lp_Variant>  (192) 
54:0-1

>  <s_i_glide_gridfile>  (192) 
pfpi4k_grid

>  <i_i_glide_lignum>  (192) 
38

>  <i_i_glide_rotatable_bonds>  (192) 
2

>  <r_i_docking_score>  (192) 
-2.48565

>  <r_i_glide_ligand_efficiency>  (192) 
-0.0920612

>  <r_i_glide_ligand_efficiency_sa>  (192) 
-0.276184

>  <r_i_glide_ligand_efficiency_ln>  (192) 
-0.578619

>  <r_i_glide_gscore>  (192) 
-2.48565

>  <r_i_glide_lipo>  (192) 
0

>  <r_i_glide_hbond>  (192) 
-0.0339629

>  <r_i_glide_metal>  (192) 
-0

>  <r_i_glide_rewards>  (192) 
-0.883665

>  <r_i_glide_evdw>  (192) 
-20.4247

>  <r_i_glide_ecoul>  (192) 
-4.21016

>  <r_i_glide_erotb>  (192) 
0.140617

>  <r_i_glide_esite>  (192) 
-0.0558832

>  <r_i_glide_emodel>  (192) 
-28.8016

>  <r_i_glide_energy>  (192) 
-24.6348

>  <r_i_glide_einternal>  (192) 
0.064387

>  <r_i_glide_intrahb_reward>  (192) 
-0

>  <i_i_glide_confnum>  (192) 
1

>  <i_i_glide_posenum>  (192) 
18

>  <r_i_glide_eff_state_penalty>  (192) 
0

>  <ligand_id>  (192) 
54

>  <original_smiles>  (192) 
CC(=O)OC1C(C)=CC23C=CCC4(CC(=O)OC2)C2=CC(=O)OC1C2C34C

>  <smiles>  (192) 
[H]C1=C2C3([H])C([H])(OC1=O)C([H])(OC(=O)C([H])([H])[H])C(C([H])([H])[H])=C([H])C14C([H])=C([H])C([H])([H])C2(C([H])([H])C(=O)OC1([H])[H])C34C([H])([H])[H]

$$$$
55:0:0
     RDKit          3D

 81 87  0  0  1  0  0  0  0  0999 V2000
    2.4445  -11.4397    3.9879 C   0  0  0  0  0  0  0  0  0  0  0  0
    2.9352   -9.9608    3.8422 C   0  0  2  0  0  0  0  0  0  0  0  0
    4.2132   -9.9598    4.7472 C   0  0  0  0  0  0  0  0  0  0  0  0
    4.3276   -8.8998    5.8297 C   0  0  0  0  0  0  0  0  0  0  0  0
    3.5966   -7.5541    5.6147 C   0  0  2  0  0  0  0  0  0  0  0  0
    3.6565   -6.9743    7.0713 C   0  0  0  0  0  0  0  0  0  0  0  0
    2.1743   -7.8932    5.1729 C   0  0  0  0  0  0  0  0  0  0  0  0
    1.8373   -8.9312    4.3295 C   0  0  0  0  0  0  0  0  0  0  0  0
    0.4256   -8.9073    3.6178 C   0  0  1  0  0  0  0  0  0  0  0  0
   -0.0432  -10.2125    2.9352 C   0  0  0  0  0  0  0  0  0  0  0  0
   -0.5973   -8.7532    4.5909 O   0  0  0  0  0  0  0  0  0  0  0  0
    0.2929   -7.7265    2.5717 C   0  0  1  0  0  0  0  0  0  0  0  0
   -0.9460   -7.7680    1.8941 O   0  0  0  0  0  0  0  0  0  0  0  0
    0.4043   -6.2716    3.0705 C   0  0  0  0  0  0  0  0  0  0  0  0
    1.6537   -5.9029    3.9081 C   0  0  1  0  0  0  0  0  0  0  0  0
    1.3724   -6.6151    5.2371 C   0  0  0  0  0  0  0  0  0  0  0  0
    3.1106   -6.2687    3.3302 C   0  0  1  0  0  0  0  0  0  0  0  0
    3.6422   -5.4554    2.0870 C   0  0  1  0  0  0  0  0  0  0  0  0
    2.5341   -4.7399    1.2510 C   0  0  0  0  0  0  0  0  0  0  0  0
    3.0393   -3.9527    0.0171 C   0  0  0  0  0  0  0  0  0  0  0  0
    4.4317   -3.3189    0.1184 C   0  0  0  0  0  0  0  0  0  0  0  0
    4.8984   -2.7392   -0.8644 O   0  0  0  0  0  0  0  0  0  0  0  0
    5.2609   -3.4282    1.4201 C   0  0  0  0  0  0  0  0  0  0  0  0
    6.6127   -4.1059    1.0866 C   0  0  0  0  0  0  0  0  0  0  0  0
    5.5416   -1.9697    1.8640 C   0  0  0  0  0  0  0  0  0  0  0  0
    4.4798   -4.1883    2.5477 C   0  0  2  0  0  0  0  0  0  0  0  0
    5.1590   -4.2023    3.9453 C   0  0  0  0  0  0  0  0  0  0  0  0
    4.4515   -5.0627    5.0200 C   0  0  0  0  0  0  0  0  0  0  0  0
    4.1778   -6.5078    4.5193 C   0  0  1  0  0  0  0  0  0  0  0  0
    5.6145   -6.9854    4.1497 C   0  0  0  0  0  0  0  0  0  0  0  0
    4.1464   -6.5251    1.0126 C   0  0  0  0  0  0  0  0  0  0  0  0
    5.0226   -7.7217    1.3651 C   0  0  2  0  0  0  0  0  0  0  0  0
    4.7667   -8.8232    0.4918 O   0  0  0  0  0  0  0  0  0  0  0  0
    4.6636   -9.1314    1.8869 C   0  0  2  0  0  0  0  0  0  0  0  0
    3.3025   -9.7185    2.3074 C   0  0  0  0  0  0  0  0  0  0  0  0
    3.2696  -12.1558    4.0089 H   0  0  0  0  0  0  0  0  0  0  0  0
    1.8583  -11.8116    3.1510 H   0  0  0  0  0  0  0  0  0  0  0  0
    1.8729  -11.5771    4.9123 H   0  0  0  0  0  0  0  0  0  0  0  0
    4.2854  -10.8877    5.3163 H   0  0  0  0  0  0  0  0  0  0  0  0
    5.1368  -10.0275    4.1915 H   0  0  0  0  0  0  0  0  0  0  0  0
    3.8851   -9.3681    6.7091 H   0  0  0  0  0  0  0  0  0  0  0  0
    5.3713   -8.7609    6.1043 H   0  0  0  0  0  0  0  0  0  0  0  0
    4.6759   -6.9982    7.4612 H   0  0  0  0  0  0  0  0  0  0  0  0
    3.0411   -7.5610    7.7576 H   0  0  0  0  0  0  0  0  0  0  0  0
    3.3361   -5.9404    7.1906 H   0  0  0  0  0  0  0  0  0  0  0  0
    0.5708  -10.4847    2.0787 H   0  0  0  0  0  0  0  0  0  0  0  0
   -1.0649  -10.1416    2.5581 H   0  0  0  0  0  0  0  0  0  0  0  0
   -0.0879  -11.0370    3.6475 H   0  0  0  0  0  0  0  0  0  0  0  0
   -0.9471   -9.6129    4.8209 H   0  0  0  0  0  0  0  0  0  0  0  0
    1.0150   -7.8427    1.7732 H   0  0  0  0  0  0  0  0  0  0  0  0
   -0.9761   -8.5878    1.4159 H   0  0  0  0  0  0  0  0  0  0  0  0
    0.2848   -5.5968    2.2332 H   0  0  0  0  0  0  0  0  0  0  0  0
   -0.4867   -6.0585    3.6667 H   0  0  0  0  0  0  0  0  0  0  0  0
    1.6051   -4.8278    4.0897 H   0  0  0  0  0  0  0  0  0  0  0  0
    0.3270   -6.7787    5.4633 H   0  0  0  0  0  0  0  0  0  0  0  0
    1.6502   -5.9534    6.0432 H   0  0  0  0  0  0  0  0  0  0  0  0
    2.9610   -7.2383    2.8943 H   0  0  0  0  0  0  0  0  0  0  0  0
    1.8175   -5.4599    0.8611 H   0  0  0  0  0  0  0  0  0  0  0  0
    1.9588   -4.0477    1.8685 H   0  0  0  0  0  0  0  0  0  0  0  0
    3.0831   -4.6371   -0.8296 H   0  0  0  0  0  0  0  0  0  0  0  0
    2.3215   -3.1800   -0.2612 H   0  0  0  0  0  0  0  0  0  0  0  0
    7.3130   -4.0616    1.9182 H   0  0  0  0  0  0  0  0  0  0  0  0
    7.1098   -3.6271    0.2416 H   0  0  0  0  0  0  0  0  0  0  0  0
    6.5018   -5.1567    0.8272 H   0  0  0  0  0  0  0  0  0  0  0  0
    6.2134   -1.9224    2.7140 H   0  0  0  0  0  0  0  0  0  0  0  0
    4.6193   -1.4623    2.1519 H   0  0  0  0  0  0  0  0  0  0  0  0
    5.9940   -1.3761    1.0667 H   0  0  0  0  0  0  0  0  0  0  0  0
    3.7079   -3.4612    2.8202 H   0  0  0  0  0  0  0  0  0  0  0  0
    6.2039   -4.4666    3.8762 H   0  0  0  0  0  0  0  0  0  0  0  0
    5.1776   -3.1872    4.3374 H   0  0  0  0  0  0  0  0  0  0  0  0
    5.0771   -5.0676    5.9178 H   0  0  0  0  0  0  0  0  0  0  0  0
    3.5276   -4.5689    5.3134 H   0  0  0  0  0  0  0  0  0  0  0  0
    6.0637   -6.4461    3.3218 H   0  0  0  0  0  0  0  0  0  0  0  0
    5.6884   -8.0223    3.8708 H   0  0  0  0  0  0  0  0  0  0  0  0
    6.2953   -6.8665    4.9972 H   0  0  0  0  0  0  0  0  0  0  0  0
    3.2581   -7.0003    0.5951 H   0  0  0  0  0  0  0  0  0  0  0  0
    4.6082   -6.0633    0.1436 H   0  0  0  0  0  0  0  0  0  0  0  0
    6.0785   -7.4636    1.4057 H   0  0  0  0  0  0  0  0  0  0  0  0
    5.5092   -9.7420    2.1932 H   0  0  0  0  0  0  0  0  0  0  0  0
    3.2594  -10.6657    1.7857 H   0  0  0  0  0  0  0  0  0  0  0  0
    2.5455   -9.1490    1.7927 H   0  0  0  0  0  0  0  0  0  0  0  0
  2  1  1  6
  1 36  1  0
  1 37  1  0
  1 38  1  0
  2  8  1  0
  2 35  1  0
  2  3  1  0
  3  4  1  0
  3 39  1  0
  3 40  1  0
  4  5  1  0
  4 41  1  0
  4 42  1  0
  5 29  1  0
  5  6  1  1
  5  7  1  0
  6 43  1  0
  6 44  1  0
  6 45  1  0
  7 16  1  0
  7  8  2  0
  8  9  1  0
  9 10  1  0
  9 11  1  1
  9 12  1  0
 10 46  1  0
 10 47  1  0
 10 48  1  0
 11 49  1  0
 12 13  1  0
 12 14  1  0
 12 50  1  6
 13 51  1  0
 14 15  1  0
 14 52  1  0
 14 53  1  0
 15 16  1  0
 15 17  1  0
 15 54  1  1
 16 55  1  0
 16 56  1  0
 17 29  1  0
 17 18  1  0
 17 57  1  6
 18 26  1  0
 18 19  1  6
 18 31  1  0
 19 20  1  0
 19 58  1  0
 19 59  1  0
 20 21  1  0
 20 60  1  0
 20 61  1  0
 21 22  2  0
 21 23  1  0
 23 24  1  0
 23 25  1  0
 23 26  1  0
 24 62  1  0
 24 63  1  0
 24 64  1  0
 25 65  1  0
 25 66  1  0
 25 67  1  0
 26 27  1  0
 26 68  1  1
 27 28  1  0
 27 69  1  0
 27 70  1  0
 28 29  1  0
 28 71  1  0
 28 72  1  0
 29 30  1  6
 30 73  1  0
 30 74  1  0
 30 75  1  0
 31 32  1  0
 31 76  1  0
 31 77  1  0
 32 34  1  0
 32 33  1  0
 32 78  1  1
 33 34  1  0
 34 35  1  0
 34 79  1  1
 35 80  1  0
 35 81  1  0
M  END
>  <i_m_ct_stereo_status>  (193) 
1

>  <s_m_source_file>  (193) 
/var/tmp/pbs.5076255.sched01/tmp3npnc3rz/42_8qtnw6u.sdf

>  <i_m_source_file_index>  (193) 
39

>  <i_lp_mmshare_version>  (193) 
48012

>  <i_f3d_flags>  (193) 
0

>  <s_epik_input>  (193) 
W0NIMl0xW0NIMl1DKD1PKUMoW0NIM10pKFtDSDNdKVtDQEBIXTJbQ0gyXVtDSDJdW0NAQF0zKFtDSDNdKVtDQF0oW0NIM10pKFtDSDJdW0NIMl1bQ0BdNChbQ0gzXSlbQ0gyXVtDQEBIXTVbQ0BASF0oTzUpW0NIMl02KUMoW0NIMl03KT1DNFtDQEBdKFtDSDNdKShbT0hdKVtDQEBIXShbT0hdKVtDSDJdW0NAQEhdN1tDQEhdM1tDQEBdMTI2

>  <s_epik_cmdline>  (193) 
J2VwaWtfcHl0aG9uJywgJy1waHQnLCAnMi4wJywgJy1waCcsICc3LjAnLCAnLXRuJywgJzgnLCAnLW1hJywgJzIwMCcsICctaW1hZScsICc8aW5maWxlLm1hZT4nLCAnLW9tYWUnLCAnPG91dGZpbGUubWFlPic=

>  <r_lp_tautomer_probability>  (193) 
1

>  <r_epik_Ionization_Penalty>  (193) 
8.15385e-07

>  <r_epik_Ionization_Penalty_Charging>  (193) 
0

>  <r_epik_Ionization_Penalty_Neutral>  (193) 
8.15385e-07

>  <r_epik_State_Penalty>  (193) 
-0

>  <r_epik_Charging_Adjusted_Penalty>  (193) 
0

>  <i_epik_Tot_Q>  (193) 
0

>  <i_epik_Tot_abs_Q>  (193) 
0

>  <s_lp_Force_Field>  (193) 
OPLS3e

>  <r_lp_Energy>  (193) 
189.598

>  <b_lp_Chiralities_Consistent>  (193) 
1

>  <s_lp_Variant>  (193) 
55:0-1

>  <s_i_glide_gridfile>  (193) 
pfpi4k_grid

>  <i_i_glide_lignum>  (193) 
39

>  <i_i_glide_rotatable_bonds>  (193) 
2

>  <r_i_docking_score>  (193) 
-3.19208

>  <r_i_glide_ligand_efficiency>  (193) 
-0.0912022

>  <r_i_glide_ligand_efficiency_sa>  (193) 
-0.298328

>  <r_i_glide_ligand_efficiency_ln>  (193) 
-0.700732

>  <r_i_glide_gscore>  (193) 
-3.19208

>  <r_i_glide_lipo>  (193) 
-0.437893

>  <r_i_glide_hbond>  (193) 
0

>  <r_i_glide_metal>  (193) 
-0

>  <r_i_glide_rewards>  (193) 
-0.15817

>  <r_i_glide_evdw>  (193) 
-30.9796

>  <r_i_glide_ecoul>  (193) 
-6.98021

>  <r_i_glide_erotb>  (193) 
0

>  <r_i_glide_esite>  (193) 
0

>  <r_i_glide_emodel>  (193) 
-45.5011

>  <r_i_glide_energy>  (193) 
-37.9598

>  <r_i_glide_einternal>  (193) 
0.806445

>  <r_i_glide_intrahb_reward>  (193) 
-0

>  <i_i_glide_confnum>  (193) 
1

>  <i_i_glide_posenum>  (193) 
7

>  <r_i_glide_eff_state_penalty>  (193) 
0

>  <ligand_id>  (193) 
55

>  <original_smiles>  (193) 
CC12CCC3(C)C4=C1C(C)(O)C(O)CC(C4)C1C4(CCC(=O)C(C)(C)C4CCC13C)CC1OC1C2

>  <smiles>  (193) 
[H]OC1([H])C([H])([H])C2([H])C([H])([H])C3=C(C1(O[H])C([H])([H])[H])C1(C([H])([H])[H])C([H])([H])C([H])([H])C3(C([H])([H])[H])C3(C([H])([H])[H])C([H])([H])C([H])([H])C4([H])C(C([H])([H])[H])(C([H])([H])[H])C(=O)C([H])([H])C([H])([H])C4(C([H])([H])C4([H])OC4([H])C1([H])[H])C23[H]

$$$$
55:0:1
     RDKit          3D

 81 87  0  0  1  0  0  0  0  0999 V2000
    3.5467   -9.3581    6.6202 C   0  0  0  0  0  0  0  0  0  0  0  0
    3.3998   -7.9985    5.8683 C   0  0  2  0  0  0  0  0  0  0  0  0
    3.1936   -6.9964    7.0564 C   0  0  0  0  0  0  0  0  0  0  0  0
    1.9831   -6.0777    7.0276 C   0  0  0  0  0  0  0  0  0  0  0  0
    1.3976   -5.6808    5.6530 C   0  0  2  0  0  0  0  0  0  0  0  0
    0.0102   -5.0977    6.1014 C   0  0  0  0  0  0  0  0  0  0  0  0
    1.2642   -6.9770    4.8496 C   0  0  0  0  0  0  0  0  0  0  0  0
    2.1711   -8.0181    4.8662 C   0  0  0  0  0  0  0  0  0  0  0  0
    2.1406   -9.0788    3.6919 C   0  0  1  0  0  0  0  0  0  0  0  0
    2.9275  -10.3954    3.9045 C   0  0  0  0  0  0  0  0  0  0  0  0
    0.8324   -9.6090    3.5677 O   0  0  0  0  0  0  0  0  0  0  0  0
    2.5667   -8.4574    2.2975 C   0  0  1  0  0  0  0  0  0  0  0  0
    2.6191   -9.4385    1.2792 O   0  0  0  0  0  0  0  0  0  0  0  0
    1.7142   -7.3157    1.6979 C   0  0  0  0  0  0  0  0  0  0  0  0
    1.4365   -6.0924    2.6103 C   0  0  1  0  0  0  0  0  0  0  0  0
    0.4369   -6.6570    3.6286 C   0  0  0  0  0  0  0  0  0  0  0  0
    2.6727   -5.3561    3.3315 C   0  0  1  0  0  0  0  0  0  0  0  0
    3.6740   -4.5320    2.4306 C   0  0  1  0  0  0  0  0  0  0  0  0
    3.6490   -4.9020    0.9099 C   0  0  0  0  0  0  0  0  0  0  0  0
    4.6474   -4.1104    0.0293 C   0  0  0  0  0  0  0  0  0  0  0  0
    4.9550   -2.6623    0.4440 C   0  0  0  0  0  0  0  0  0  0  0  0
    5.7897   -2.0268   -0.2020 O   0  0  0  0  0  0  0  0  0  0  0  0
    4.2600   -2.0228    1.6737 C   0  0  0  0  0  0  0  0  0  0  0  0
    5.3458   -1.5563    2.6734 C   0  0  0  0  0  0  0  0  0  0  0  0
    3.5313   -0.7612    1.1477 C   0  0  0  0  0  0  0  0  0  0  0  0
    3.2324   -3.0047    2.3371 C   0  0  2  0  0  0  0  0  0  0  0  0
    2.3639   -2.3906    3.4776 C   0  0  0  0  0  0  0  0  0  0  0  0
    1.4434   -3.3957    4.2138 C   0  0  0  0  0  0  0  0  0  0  0  0
    2.2205   -4.6446    4.7130 C   0  0  1  0  0  0  0  0  0  0  0  0
    3.3161   -3.9892    5.6087 C   0  0  0  0  0  0  0  0  0  0  0  0
    5.1499   -5.0203    2.8159 C   0  0  0  0  0  0  0  0  0  0  0  0
    5.6357   -5.1889    4.2538 C   0  0  2  0  0  0  0  0  0  0  0  0
    6.6311   -6.2136    4.3610 O   0  0  0  0  0  0  0  0  0  0  0  0
    5.5158   -6.3740    5.2435 C   0  0  2  0  0  0  0  0  0  0  0  0
    4.7736   -7.7209    5.0977 C   0  0  0  0  0  0  0  0  0  0  0  0
    4.1250   -9.2644    7.5423 H   0  0  0  0  0  0  0  0  0  0  0  0
    4.1145  -10.1115    6.0804 H   0  0  0  0  0  0  0  0  0  0  0  0
    2.5705   -9.7715    6.8841 H   0  0  0  0  0  0  0  0  0  0  0  0
    3.0555   -7.5318    7.9951 H   0  0  0  0  0  0  0  0  0  0  0  0
    4.0828   -6.4339    7.3081 H   0  0  0  0  0  0  0  0  0  0  0  0
    1.2075   -6.6337    7.5584 H   0  0  0  0  0  0  0  0  0  0  0  0
    2.1600   -5.2083    7.6618 H   0  0  0  0  0  0  0  0  0  0  0  0
    0.1375   -4.3506    6.8883 H   0  0  0  0  0  0  0  0  0  0  0  0
   -0.6381   -5.8781    6.5056 H   0  0  0  0  0  0  0  0  0  0  0  0
   -0.5679   -4.5937    5.3293 H   0  0  0  0  0  0  0  0  0  0  0  0
    4.0018  -10.2238    3.9510 H   0  0  0  0  0  0  0  0  0  0  0  0
    2.7754  -11.1058    3.0906 H   0  0  0  0  0  0  0  0  0  0  0  0
    2.5920  -10.9368    4.7894 H   0  0  0  0  0  0  0  0  0  0  0  0
    0.6466  -10.1565    4.3213 H   0  0  0  0  0  0  0  0  0  0  0  0
    3.5834   -8.0873    2.3475 H   0  0  0  0  0  0  0  0  0  0  0  0
    3.1820  -10.1524    1.5495 H   0  0  0  0  0  0  0  0  0  0  0  0
    2.1347   -7.0026    0.7505 H   0  0  0  0  0  0  0  0  0  0  0  0
    0.7616   -7.7455    1.3769 H   0  0  0  0  0  0  0  0  0  0  0  0
    0.9129   -5.3579    2.0044 H   0  0  0  0  0  0  0  0  0  0  0  0
   -0.1548   -7.4948    3.2724 H   0  0  0  0  0  0  0  0  0  0  0  0
   -0.3373   -5.9200    3.7962 H   0  0  0  0  0  0  0  0  0  0  0  0
    3.2965   -6.1757    3.6381 H   0  0  0  0  0  0  0  0  0  0  0  0
    3.8981   -5.9510    0.7601 H   0  0  0  0  0  0  0  0  0  0  0  0
    2.6534   -4.7716    0.4831 H   0  0  0  0  0  0  0  0  0  0  0  0
    5.6028   -4.6370    0.0339 H   0  0  0  0  0  0  0  0  0  0  0  0
    4.3097   -4.1161   -1.0066 H   0  0  0  0  0  0  0  0  0  0  0  0
    4.9344   -0.9373    3.4701 H   0  0  0  0  0  0  0  0  0  0  0  0
    6.1186   -0.9583    2.1882 H   0  0  0  0  0  0  0  0  0  0  0  0
    5.8432   -2.3962    3.1492 H   0  0  0  0  0  0  0  0  0  0  0  0
    3.1137   -0.1573    1.9541 H   0  0  0  0  0  0  0  0  0  0  0  0
    2.7094   -1.0366    0.4820 H   0  0  0  0  0  0  0  0  0  0  0  0
    4.1969   -0.1075    0.5796 H   0  0  0  0  0  0  0  0  0  0  0  0
    2.4298   -3.0230    1.6004 H   0  0  0  0  0  0  0  0  0  0  0  0
    2.9663   -1.8185    4.1805 H   0  0  0  0  0  0  0  0  0  0  0  0
    1.7033   -1.6378    3.0441 H   0  0  0  0  0  0  0  0  0  0  0  0
    0.9638   -2.8692    5.0417 H   0  0  0  0  0  0  0  0  0  0  0  0
    0.6319   -3.6802    3.5449 H   0  0  0  0  0  0  0  0  0  0  0  0
    4.0217   -3.3719    5.0636 H   0  0  0  0  0  0  0  0  0  0  0  0
    3.9255   -4.6857    6.1563 H   0  0  0  0  0  0  0  0  0  0  0  0
    2.8626   -3.3427    6.3646 H   0  0  0  0  0  0  0  0  0  0  0  0
    5.2718   -6.0222    2.3997 H   0  0  0  0  0  0  0  0  0  0  0  0
    5.9189   -4.4457    2.3076 H   0  0  0  0  0  0  0  0  0  0  0  0
    5.9640   -4.2513    4.6944 H   0  0  0  0  0  0  0  0  0  0  0  0
    5.8227   -6.1562    6.2626 H   0  0  0  0  0  0  0  0  0  0  0  0
    5.5064   -8.4648    5.4101 H   0  0  0  0  0  0  0  0  0  0  0  0
    4.6807   -7.9078    4.0382 H   0  0  0  0  0  0  0  0  0  0  0  0
  2  1  1  1
  1 36  1  0
  1 37  1  0
  1 38  1  0
  2  8  1  0
  2 35  1  0
  2  3  1  0
  3  4  1  0
  3 39  1  0
  3 40  1  0
  4  5  1  0
  4 41  1  0
  4 42  1  0
  5 29  1  0
  5  6  1  1
  5  7  1  0
  6 43  1  0
  6 44  1  0
  6 45  1  0
  7 16  1  0
  7  8  2  0
  8  9  1  0
  9 10  1  0
  9 11  1  6
  9 12  1  0
 10 46  1  0
 10 47  1  0
 10 48  1  0
 11 49  1  0
 12 13  1  0
 12 14  1  0
 12 50  1  1
 13 51  1  0
 14 15  1  0
 14 52  1  0
 14 53  1  0
 15 16  1  0
 15 17  1  0
 15 54  1  6
 16 55  1  0
 16 56  1  0
 17 29  1  0
 17 18  1  0
 17 57  1  1
 18 26  1  0
 18 19  1  6
 18 31  1  0
 19 20  1  0
 19 58  1  0
 19 59  1  0
 20 21  1  0
 20 60  1  0
 20 61  1  0
 21 22  2  0
 21 23  1  0
 23 24  1  0
 23 25  1  0
 23 26  1  0
 24 62  1  0
 24 63  1  0
 24 64  1  0
 25 65  1  0
 25 66  1  0
 25 67  1  0
 26 27  1  0
 26 68  1  6
 27 28  1  0
 27 69  1  0
 27 70  1  0
 28 29  1  0
 28 71  1  0
 28 72  1  0
 29 30  1  1
 30 73  1  0
 30 74  1  0
 30 75  1  0
 31 32  1  0
 31 76  1  0
 31 77  1  0
 32 34  1  0
 32 33  1  0
 32 78  1  1
 33 34  1  0
 34 35  1  0
 34 79  1  1
 35 80  1  0
 35 81  1  0
M  END
>  <i_m_ct_stereo_status>  (194) 
1

>  <s_m_source_file>  (194) 
/var/tmp/pbs.5076255.sched01/tmp3npnc3rz/42_8qtnw6u.sdf

>  <i_m_source_file_index>  (194) 
39

>  <i_lp_mmshare_version>  (194) 
48012

>  <i_f3d_flags>  (194) 
0

>  <s_epik_input>  (194) 
W0NIMl0xW0NIMl1DKD1PKUMoW0NIM10pKFtDSDNdKVtDQEBIXTJbQ0gyXVtDSDJdW0NAQF0zKFtDSDNdKVtDQF0oW0NIM10pKFtDSDJdW0NIMl1bQ0BdNChbQ0gzXSlbQ0gyXVtDQEBIXTVbQ0BASF0oTzUpW0NIMl02KUMoW0NIMl03KT1DNFtDQEBdKFtDSDNdKShbT0hdKVtDQEBIXShbT0hdKVtDSDJdW0NAQEhdN1tDQEhdM1tDQEBdMTI2

>  <s_epik_cmdline>  (194) 
J2VwaWtfcHl0aG9uJywgJy1waHQnLCAnMi4wJywgJy1waCcsICc3LjAnLCAnLXRuJywgJzgnLCAnLW1hJywgJzIwMCcsICctaW1hZScsICc8aW5maWxlLm1hZT4nLCAnLW9tYWUnLCAnPG91dGZpbGUubWFlPic=

>  <r_lp_tautomer_probability>  (194) 
1

>  <r_epik_Ionization_Penalty>  (194) 
8.15385e-07

>  <r_epik_Ionization_Penalty_Charging>  (194) 
0

>  <r_epik_Ionization_Penalty_Neutral>  (194) 
8.15385e-07

>  <r_epik_State_Penalty>  (194) 
-0

>  <r_epik_Charging_Adjusted_Penalty>  (194) 
0

>  <i_epik_Tot_Q>  (194) 
0

>  <i_epik_Tot_abs_Q>  (194) 
0

>  <s_lp_Force_Field>  (194) 
OPLS3e

>  <r_lp_Energy>  (194) 
189.598

>  <b_lp_Chiralities_Consistent>  (194) 
1

>  <s_lp_Variant>  (194) 
55:0-1

>  <s_i_glide_gridfile>  (194) 
pfpi4k_grid

>  <i_i_glide_lignum>  (194) 
39

>  <i_i_glide_rotatable_bonds>  (194) 
2

>  <r_i_docking_score>  (194) 
-1.98565

>  <r_i_glide_ligand_efficiency>  (194) 
-0.0567328

>  <r_i_glide_ligand_efficiency_sa>  (194) 
-0.185577

>  <r_i_glide_ligand_efficiency_ln>  (194) 
-0.435893

>  <r_i_glide_gscore>  (194) 
-1.98565

>  <r_i_glide_lipo>  (194) 
-0.15116

>  <r_i_glide_hbond>  (194) 
0

>  <r_i_glide_metal>  (194) 
-0

>  <r_i_glide_rewards>  (194) 
-0.146136

>  <r_i_glide_evdw>  (194) 
-28.764

>  <r_i_glide_ecoul>  (194) 
-1.66767

>  <r_i_glide_erotb>  (194) 
0

>  <r_i_glide_esite>  (194) 
0

>  <r_i_glide_emodel>  (194) 
-35.1855

>  <r_i_glide_energy>  (194) 
-30.4317

>  <r_i_glide_einternal>  (194) 
0.369576

>  <r_i_glide_intrahb_reward>  (194) 
-0

>  <i_i_glide_confnum>  (194) 
1

>  <i_i_glide_posenum>  (194) 
31

>  <r_i_glide_eff_state_penalty>  (194) 
0

>  <ligand_id>  (194) 
55

>  <original_smiles>  (194) 
CC12CCC3(C)C4=C1C(C)(O)C(O)CC(C4)C1C4(CCC(=O)C(C)(C)C4CCC13C)CC1OC1C2

>  <smiles>  (194) 
[H]OC1([H])C([H])([H])C2([H])C([H])([H])C3=C(C1(O[H])C([H])([H])[H])C1(C([H])([H])[H])C([H])([H])C([H])([H])C3(C([H])([H])[H])C3(C([H])([H])[H])C([H])([H])C([H])([H])C4([H])C(C([H])([H])[H])(C([H])([H])[H])C(=O)C([H])([H])C([H])([H])C4(C([H])([H])C4([H])OC4([H])C1([H])[H])C23[H]

$$$$
55:0:2
     RDKit          3D

 81 87  0  0  1  0  0  0  0  0999 V2000
    6.1006   -9.8455    5.1017 C   0  0  0  0  0  0  0  0  0  0  0  0
    5.6996   -8.4231    4.5989 C   0  0  2  0  0  0  0  0  0  0  0  0
    6.1877   -7.5184    5.7810 C   0  0  0  0  0  0  0  0  0  0  0  0
    5.1928   -6.5571    6.4148 C   0  0  0  0  0  0  0  0  0  0  0  0
    4.0290   -6.0251    5.5443 C   0  0  2  0  0  0  0  0  0  0  0  0
    3.0972   -5.4284    6.6563 C   0  0  0  0  0  0  0  0  0  0  0  0
    3.4195   -7.2393    4.8470 C   0  0  0  0  0  0  0  0  0  0  0  0
    4.1375   -8.3100    4.3528 C   0  0  0  0  0  0  0  0  0  0  0  0
    3.4499   -9.2624    3.2983 C   0  0  1  0  0  0  0  0  0  0  0  0
    4.1341  -10.6225    3.0301 C   0  0  0  0  0  0  0  0  0  0  0  0
    2.2190   -9.7339    3.8177 O   0  0  0  0  0  0  0  0  0  0  0  0
    3.1729   -8.5441    1.9176 C   0  0  1  0  0  0  0  0  0  0  0  0
    2.6293   -9.4476    0.9868 O   0  0  0  0  0  0  0  0  0  0  0  0
    2.2167   -7.3310    1.8776 C   0  0  0  0  0  0  0  0  0  0  0  0
    2.5148   -6.1741    2.8667 C   0  0  1  0  0  0  0  0  0  0  0  0
    2.1195   -6.7858    4.2194 C   0  0  0  0  0  0  0  0  0  0  0  0
    3.9999   -5.5552    2.9136 C   0  0  1  0  0  0  0  0  0  0  0  0
    4.4848   -4.6983    1.6801 C   0  0  1  0  0  0  0  0  0  0  0  0
    3.6825   -4.9347    0.3611 C   0  0  0  0  0  0  0  0  0  0  0  0
    4.1741   -4.1076   -0.8514 C   0  0  0  0  0  0  0  0  0  0  0  0
    4.7567   -2.7151   -0.5740 C   0  0  0  0  0  0  0  0  0  0  0  0
    5.2183   -2.0643   -1.5110 O   0  0  0  0  0  0  0  0  0  0  0  0
    4.8051   -2.1567    0.8687 C   0  0  0  0  0  0  0  0  0  0  0  0
    6.2766   -1.8178    1.2063 C   0  0  0  0  0  0  0  0  0  0  0  0
    4.0023   -0.8307    0.8404 C   0  0  0  0  0  0  0  0  0  0  0  0
    4.1727   -3.1523    1.9029 C   0  0  2  0  0  0  0  0  0  0  0  0
    4.0345   -2.6041    3.3546 C   0  0  0  0  0  0  0  0  0  0  0  0
    3.5265   -3.6304    4.3988 C   0  0  0  0  0  0  0  0  0  0  0  0
    4.3450   -4.9501    4.3750 C   0  0  1  0  0  0  0  0  0  0  0  0
    5.7790   -4.4271    4.6398 C   0  0  0  0  0  0  0  0  0  0  0  0
    5.9107   -5.2785    1.2387 C   0  0  0  0  0  0  0  0  0  0  0  0
    7.0343   -5.5838    2.2198 C   0  0  2  0  0  0  0  0  0  0  0  0
    7.8604   -6.6571    1.7580 O   0  0  0  0  0  0  0  0  0  0  0  0
    7.3360   -6.8384    3.0771 C   0  0  2  0  0  0  0  0  0  0  0  0
    6.5257   -8.1380    3.2579 C   0  0  0  0  0  0  0  0  0  0  0  0
    7.0646   -9.8520    5.6140 H   0  0  0  0  0  0  0  0  0  0  0  0
    6.2662  -10.5724    4.3119 H   0  0  0  0  0  0  0  0  0  0  0  0
    5.3549  -10.2386    5.7962 H   0  0  0  0  0  0  0  0  0  0  0  0
    6.4949   -8.1253    6.6327 H   0  0  0  0  0  0  0  0  0  0  0  0
    7.1240   -7.0138    5.5811 H   0  0  0  0  0  0  0  0  0  0  0  0
    4.7465   -7.1261    7.2322 H   0  0  0  0  0  0  0  0  0  0  0  0
    5.7254   -5.7519    6.9192 H   0  0  0  0  0  0  0  0  0  0  0  0
    3.6562   -4.7546    7.3086 H   0  0  0  0  0  0  0  0  0  0  0  0
    2.6821   -6.2164    7.2888 H   0  0  0  0  0  0  0  0  0  0  0  0
    2.2503   -4.8420    6.3044 H   0  0  0  0  0  0  0  0  0  0  0  0
    5.0935  -10.5072    2.5270 H   0  0  0  0  0  0  0  0  0  0  0  0
    3.5354  -11.2638    2.3846 H   0  0  0  0  0  0  0  0  0  0  0  0
    4.2438  -11.2171    3.9364 H   0  0  0  0  0  0  0  0  0  0  0  0
    1.9120  -10.4439    3.2689 H   0  0  0  0  0  0  0  0  0  0  0  0
    4.1010   -8.2281    1.4575 H   0  0  0  0  0  0  0  0  0  0  0  0
    3.2164  -10.1944    0.9020 H   0  0  0  0  0  0  0  0  0  0  0  0
    2.1267   -6.9643    0.8625 H   0  0  0  0  0  0  0  0  0  0  0  0
    1.2040   -7.6984    2.0598 H   0  0  0  0  0  0  0  0  0  0  0  0
    1.8100   -5.3712    2.6463 H   0  0  0  0  0  0  0  0  0  0  0  0
    1.3695   -7.5679    4.1664 H   0  0  0  0  0  0  0  0  0  0  0  0
    1.5852   -6.0357    4.7902 H   0  0  0  0  0  0  0  0  0  0  0  0
    4.6302   -6.4203    2.8215 H   0  0  0  0  0  0  0  0  0  0  0  0
    3.7425   -5.9756    0.0490 H   0  0  0  0  0  0  0  0  0  0  0  0
    2.6199   -4.7308    0.4983 H   0  0  0  0  0  0  0  0  0  0  0  0
    4.9568   -4.6728   -1.3602 H   0  0  0  0  0  0  0  0  0  0  0  0
    3.3648   -4.0064   -1.5738 H   0  0  0  0  0  0  0  0  0  0  0  0
    6.3639   -1.2562    2.1350 H   0  0  0  0  0  0  0  0  0  0  0  0
    6.7407   -1.2039    0.4337 H   0  0  0  0  0  0  0  0  0  0  0  0
    6.8918   -2.7096    1.3065 H   0  0  0  0  0  0  0  0  0  0  0  0
    4.0821   -0.2812    1.7780 H   0  0  0  0  0  0  0  0  0  0  0  0
    2.9426   -1.0188    0.6499 H   0  0  0  0  0  0  0  0  0  0  0  0
    4.3481   -0.1580    0.0529 H   0  0  0  0  0  0  0  0  0  0  0  0
    3.1106   -3.0778    1.6661 H   0  0  0  0  0  0  0  0  0  0  0  0
    4.9481   -2.1158    3.6896 H   0  0  0  0  0  0  0  0  0  0  0  0
    3.3055   -1.7922    3.3495 H   0  0  0  0  0  0  0  0  0  0  0  0
    3.5644   -3.1569    5.3819 H   0  0  0  0  0  0  0  0  0  0  0  0
    2.4715   -3.8248    4.2109 H   0  0  0  0  0  0  0  0  0  0  0  0
    6.1354   -3.8110    3.8290 H   0  0  0  0  0  0  0  0  0  0  0  0
    6.5348   -5.1820    4.7610 H   0  0  0  0  0  0  0  0  0  0  0  0
    5.8186   -3.8179    5.5470 H   0  0  0  0  0  0  0  0  0  0  0  0
    5.7325   -6.2449    0.7631 H   0  0  0  0  0  0  0  0  0  0  0  0
    6.3660   -4.6922    0.4460 H   0  0  0  0  0  0  0  0  0  0  0  0
    7.6136   -4.7020    2.4642 H   0  0  0  0  0  0  0  0  0  0  0  0
    8.1273   -6.7130    3.8103 H   0  0  0  0  0  0  0  0  0  0  0  0
    7.2588   -8.9332    3.1201 H   0  0  0  0  0  0  0  0  0  0  0  0
    5.9025   -8.2329    2.3813 H   0  0  0  0  0  0  0  0  0  0  0  0
  2  1  1  1
  1 36  1  0
  1 37  1  0
  1 38  1  0
  2  8  1  0
  2 35  1  0
  2  3  1  0
  3  4  1  0
  3 39  1  0
  3 40  1  0
  4  5  1  0
  4 41  1  0
  4 42  1  0
  5 29  1  0
  5  6  1  1
  5  7  1  0
  6 43  1  0
  6 44  1  0
  6 45  1  0
  7 16  1  0
  7  8  2  0
  8  9  1  0
  9 10  1  0
  9 11  1  1
  9 12  1  0
 10 46  1  0
 10 47  1  0
 10 48  1  0
 11 49  1  0
 12 13  1  0
 12 14  1  0
 12 50  1  6
 13 51  1  0
 14 15  1  0
 14 52  1  0
 14 53  1  0
 15 16  1  0
 15 17  1  0
 15 54  1  6
 16 55  1  0
 16 56  1  0
 17 29  1  0
 17 18  1  0
 17 57  1  6
 18 26  1  0
 18 19  1  6
 18 31  1  0
 19 20  1  0
 19 58  1  0
 19 59  1  0
 20 21  1  0
 20 60  1  0
 20 61  1  0
 21 22  2  0
 21 23  1  0
 23 24  1  0
 23 25  1  0
 23 26  1  0
 24 62  1  0
 24 63  1  0
 24 64  1  0
 25 65  1  0
 25 66  1  0
 25 67  1  0
 26 27  1  0
 26 68  1  6
 27 28  1  0
 27 69  1  0
 27 70  1  0
 28 29  1  0
 28 71  1  0
 28 72  1  0
 29 30  1  6
 30 73  1  0
 30 74  1  0
 30 75  1  0
 31 32  1  0
 31 76  1  0
 31 77  1  0
 32 34  1  0
 32 33  1  0
 32 78  1  1
 33 34  1  0
 34 35  1  0
 34 79  1  1
 35 80  1  0
 35 81  1  0
M  END
>  <i_m_ct_stereo_status>  (195) 
1

>  <s_m_source_file>  (195) 
/var/tmp/pbs.5076255.sched01/tmp3npnc3rz/42_8qtnw6u.sdf

>  <i_m_source_file_index>  (195) 
39

>  <i_lp_mmshare_version>  (195) 
48012

>  <i_f3d_flags>  (195) 
0

>  <s_epik_input>  (195) 
W0NIMl0xW0NIMl1DKD1PKUMoW0NIM10pKFtDSDNdKVtDQEBIXTJbQ0gyXVtDSDJdW0NAQF0zKFtDSDNdKVtDQF0oW0NIM10pKFtDSDJdW0NIMl1bQ0BdNChbQ0gzXSlbQ0gyXVtDQEBIXTVbQ0BASF0oTzUpW0NIMl02KUMoW0NIMl03KT1DNFtDQEBdKFtDSDNdKShbT0hdKVtDQEBIXShbT0hdKVtDSDJdW0NAQEhdN1tDQEhdM1tDQEBdMTI2

>  <s_epik_cmdline>  (195) 
J2VwaWtfcHl0aG9uJywgJy1waHQnLCAnMi4wJywgJy1waCcsICc3LjAnLCAnLXRuJywgJzgnLCAnLW1hJywgJzIwMCcsICctaW1hZScsICc8aW5maWxlLm1hZT4nLCAnLW9tYWUnLCAnPG91dGZpbGUubWFlPic=

>  <r_lp_tautomer_probability>  (195) 
1

>  <r_epik_Ionization_Penalty>  (195) 
8.15385e-07

>  <r_epik_Ionization_Penalty_Charging>  (195) 
0

>  <r_epik_Ionization_Penalty_Neutral>  (195) 
8.15385e-07

>  <r_epik_State_Penalty>  (195) 
-0

>  <r_epik_Charging_Adjusted_Penalty>  (195) 
0

>  <i_epik_Tot_Q>  (195) 
0

>  <i_epik_Tot_abs_Q>  (195) 
0

>  <s_lp_Force_Field>  (195) 
OPLS3e

>  <r_lp_Energy>  (195) 
189.598

>  <b_lp_Chiralities_Consistent>  (195) 
1

>  <s_lp_Variant>  (195) 
55:0-1

>  <s_i_glide_gridfile>  (195) 
pfpi4k_grid

>  <i_i_glide_lignum>  (195) 
39

>  <i_i_glide_rotatable_bonds>  (195) 
2

>  <r_i_docking_score>  (195) 
-1.95006

>  <r_i_glide_ligand_efficiency>  (195) 
-0.055716

>  <r_i_glide_ligand_efficiency_sa>  (195) 
-0.182251

>  <r_i_glide_ligand_efficiency_ln>  (195) 
-0.428081

>  <r_i_glide_gscore>  (195) 
-1.95006

>  <r_i_glide_lipo>  (195) 
-0.32739

>  <r_i_glide_hbond>  (195) 
0

>  <r_i_glide_metal>  (195) 
-0

>  <r_i_glide_rewards>  (195) 
-0.117992

>  <r_i_glide_evdw>  (195) 
-24.226

>  <r_i_glide_ecoul>  (195) 
-1.93081

>  <r_i_glide_erotb>  (195) 
0

>  <r_i_glide_esite>  (195) 
-0.003758

>  <r_i_glide_emodel>  (195) 
-30.6184

>  <r_i_glide_energy>  (195) 
-26.1568

>  <r_i_glide_einternal>  (195) 
0.596006

>  <r_i_glide_intrahb_reward>  (195) 
-0

>  <i_i_glide_confnum>  (195) 
1

>  <i_i_glide_posenum>  (195) 
6

>  <r_i_glide_eff_state_penalty>  (195) 
0

>  <ligand_id>  (195) 
55

>  <original_smiles>  (195) 
CC12CCC3(C)C4=C1C(C)(O)C(O)CC(C4)C1C4(CCC(=O)C(C)(C)C4CCC13C)CC1OC1C2

>  <smiles>  (195) 
[H]OC1([H])C([H])([H])C2([H])C([H])([H])C3=C(C1(O[H])C([H])([H])[H])C1(C([H])([H])[H])C([H])([H])C([H])([H])C3(C([H])([H])[H])C3(C([H])([H])[H])C([H])([H])C([H])([H])C4([H])C(C([H])([H])[H])(C([H])([H])[H])C(=O)C([H])([H])C([H])([H])C4(C([H])([H])C4([H])OC4([H])C1([H])[H])C23[H]

$$$$
56:0:0
     RDKit          3D

 17 17  0  0  1  0  0  0  0  0999 V2000
    4.8492   -4.6061   -0.7593 C   0  0  0  0  0  0  0  0  0  0  0  0
    6.0117   -3.6065   -0.8656 C   0  0  0  0  0  0  0  0  0  0  0  0
    6.2110   -3.0541   -2.2913 C   0  0  0  0  0  0  0  0  0  0  0  0
    5.0117   -2.4114   -2.7971 N   0  0  0  0  0  0  0  0  0  0  0  0
    4.1723   -3.0280   -3.6713 N   0  0  0  0  0  0  0  0  0  0  0  0
    3.1699   -2.1893   -3.7374 C   0  0  0  0  0  0  0  0  0  0  0  0
    3.4443   -1.0528   -2.9376 C   0  0  0  0  0  0  0  0  0  0  0  0
    4.6105   -1.1911   -2.3533 N   0  0  0  0  0  0  0  0  0  0  0  0
    4.7307   -4.9759    0.2582 H   0  0  0  0  0  0  0  0  0  0  0  0
    5.0167   -5.4602   -1.4152 H   0  0  0  0  0  0  0  0  0  0  0  0
    3.8998   -4.1542   -1.0494 H   0  0  0  0  0  0  0  0  0  0  0  0
    5.8279   -2.7756   -0.1838 H   0  0  0  0  0  0  0  0  0  0  0  0
    6.9334   -4.0775   -0.5208 H   0  0  0  0  0  0  0  0  0  0  0  0
    7.0242   -2.3288   -2.3053 H   0  0  0  0  0  0  0  0  0  0  0  0
    6.4934   -3.8543   -2.9718 H   0  0  0  0  0  0  0  0  0  0  0  0
    2.2894   -2.4199   -4.3215 H   0  0  0  0  0  0  0  0  0  0  0  0
    2.8350   -0.1799   -2.7541 H   0  0  0  0  0  0  0  0  0  0  0  0
  1  2  1  0
  1  9  1  0
  1 10  1  0
  1 11  1  0
  2  3  1  0
  2 12  1  0
  2 13  1  0
  3  4  1  0
  3 14  1  0
  3 15  1  0
  4  8  1  0
  4  5  1  0
  5  6  2  0
  6  7  1  0
  6 16  1  0
  7  8  2  0
  7 17  1  0
M  END
>  <i_m_ct_stereo_status>  (196) 
1

>  <s_m_source_file>  (196) 
/var/tmp/pbs.5076255.sched01/tmp3npnc3rz/42_8qtnw6u.sdf

>  <i_m_source_file_index>  (196) 
40

>  <i_lp_mmshare_version>  (196) 
48012

>  <i_f3d_flags>  (196) 
0

>  <s_epik_input>  (196) 
W0NIM11bQ0gyXVtDSDJdbjFuW2NIXVtjSF1uMQ==

>  <s_epik_cmdline>  (196) 
J2VwaWtfcHl0aG9uJywgJy1waHQnLCAnMi4wJywgJy1waCcsICc3LjAnLCAnLXRuJywgJzgnLCAnLW1hJywgJzIwMCcsICctaW1hZScsICc8aW5maWxlLm1hZT4nLCAnLW9tYWUnLCAnPG91dGZpbGUubWFlPic=

>  <r_lp_tautomer_probability>  (196) 
1

>  <r_epik_Ionization_Penalty>  (196) 
2.0356e-12

>  <r_epik_Ionization_Penalty_Charging>  (196) 
0

>  <r_epik_Ionization_Penalty_Neutral>  (196) 
2.0356e-12

>  <r_epik_State_Penalty>  (196) 
-0

>  <r_epik_Charging_Adjusted_Penalty>  (196) 
0

>  <i_epik_Tot_Q>  (196) 
0

>  <i_epik_Tot_abs_Q>  (196) 
0

>  <s_lp_Force_Field>  (196) 
OPLS3e

>  <r_lp_Energy>  (196) 
3.00663

>  <b_lp_Chiralities_Consistent>  (196) 
1

>  <s_lp_Variant>  (196) 
56:0-1

>  <s_i_glide_gridfile>  (196) 
pfpi4k_grid

>  <i_i_glide_lignum>  (196) 
40

>  <i_i_glide_rotatable_bonds>  (196) 
2

>  <r_i_docking_score>  (196) 
-3.90765

>  <r_i_glide_ligand_efficiency>  (196) 
-0.488456

>  <r_i_glide_ligand_efficiency_sa>  (196) 
-0.976912

>  <r_i_glide_ligand_efficiency_ln>  (196) 
-1.26895

>  <r_i_glide_gscore>  (196) 
-3.90765

>  <r_i_glide_lipo>  (196) 
-0.412927

>  <r_i_glide_hbond>  (196) 
0

>  <r_i_glide_metal>  (196) 
-0

>  <r_i_glide_rewards>  (196) 
-2.43656

>  <r_i_glide_evdw>  (196) 
-16.7928

>  <r_i_glide_ecoul>  (196) 
-1.45683

>  <r_i_glide_erotb>  (196) 
0

>  <r_i_glide_esite>  (196) 
0

>  <r_i_glide_emodel>  (196) 
-22.4245

>  <r_i_glide_energy>  (196) 
-18.2496

>  <r_i_glide_einternal>  (196) 
0.368581

>  <r_i_glide_intrahb_reward>  (196) 
-0

>  <i_i_glide_confnum>  (196) 
2

>  <i_i_glide_posenum>  (196) 
36

>  <r_i_glide_eff_state_penalty>  (196) 
0

>  <ligand_id>  (196) 
56

>  <original_smiles>  (196) 
CCCn1nccn1

>  <smiles>  (196) 
[H]c1nn(C([H])([H])C([H])([H])C([H])([H])[H])nc1[H]

$$$$
56:0:1
     RDKit          3D

 17 17  0  0  1  0  0  0  0  0999 V2000
   -0.5502   -5.2171    6.2323 C   0  0  0  0  0  0  0  0  0  0  0  0
    0.3707   -4.7016    5.1127 C   0  0  0  0  0  0  0  0  0  0  0  0
    1.0361   -5.7887    4.2376 C   0  0  0  0  0  0  0  0  0  0  0  0
    0.0969   -6.7551    3.6896 N   0  0  0  0  0  0  0  0  0  0  0  0
   -0.1580   -6.8627    2.3575 N   0  0  0  0  0  0  0  0  0  0  0  0
   -0.9976   -7.8688    2.3084 C   0  0  0  0  0  0  0  0  0  0  0  0
   -1.2758   -8.3147    3.6157 C   0  0  0  0  0  0  0  0  0  0  0  0
   -0.5559   -7.6441    4.4721 N   0  0  0  0  0  0  0  0  0  0  0  0
   -0.9203   -4.4078    6.8550 H   0  0  0  0  0  0  0  0  0  0  0  0
   -0.0125   -5.9070    6.8831 H   0  0  0  0  0  0  0  0  0  0  0  0
   -1.4014   -5.7598    5.8220 H   0  0  0  0  0  0  0  0  0  0  0  0
   -0.1859   -4.0157    4.4769 H   0  0  0  0  0  0  0  0  0  0  0  0
    1.1609   -4.0983    5.5604 H   0  0  0  0  0  0  0  0  0  0  0  0
    1.5817   -5.3184    3.4144 H   0  0  0  0  0  0  0  0  0  0  0  0
    1.7887   -6.3330    4.8225 H   0  0  0  0  0  0  0  0  0  0  0  0
   -1.3863   -8.2354    1.3624 H   0  0  0  0  0  0  0  0  0  0  0  0
   -1.9607   -9.0765    3.9456 H   0  0  0  0  0  0  0  0  0  0  0  0
  1  2  1  0
  1  9  1  0
  1 10  1  0
  1 11  1  0
  2  3  1  0
  2 12  1  0
  2 13  1  0
  3  4  1  0
  3 14  1  0
  3 15  1  0
  4  8  1  0
  4  5  1  0
  5  6  2  0
  6  7  1  0
  6 16  1  0
  7  8  2  0
  7 17  1  0
M  END
>  <i_m_ct_stereo_status>  (197) 
1

>  <s_m_source_file>  (197) 
/var/tmp/pbs.5076255.sched01/tmp3npnc3rz/42_8qtnw6u.sdf

>  <i_m_source_file_index>  (197) 
40

>  <i_lp_mmshare_version>  (197) 
48012

>  <i_f3d_flags>  (197) 
0

>  <s_epik_input>  (197) 
W0NIM11bQ0gyXVtDSDJdbjFuW2NIXVtjSF1uMQ==

>  <s_epik_cmdline>  (197) 
J2VwaWtfcHl0aG9uJywgJy1waHQnLCAnMi4wJywgJy1waCcsICc3LjAnLCAnLXRuJywgJzgnLCAnLW1hJywgJzIwMCcsICctaW1hZScsICc8aW5maWxlLm1hZT4nLCAnLW9tYWUnLCAnPG91dGZpbGUubWFlPic=

>  <r_lp_tautomer_probability>  (197) 
1

>  <r_epik_Ionization_Penalty>  (197) 
2.0356e-12

>  <r_epik_Ionization_Penalty_Charging>  (197) 
0

>  <r_epik_Ionization_Penalty_Neutral>  (197) 
2.0356e-12

>  <r_epik_State_Penalty>  (197) 
-0

>  <r_epik_Charging_Adjusted_Penalty>  (197) 
0

>  <i_epik_Tot_Q>  (197) 
0

>  <i_epik_Tot_abs_Q>  (197) 
0

>  <s_lp_Force_Field>  (197) 
OPLS3e

>  <r_lp_Energy>  (197) 
3.00663

>  <b_lp_Chiralities_Consistent>  (197) 
1

>  <s_lp_Variant>  (197) 
56:0-1

>  <s_i_glide_gridfile>  (197) 
pfpi4k_grid

>  <i_i_glide_lignum>  (197) 
40

>  <i_i_glide_rotatable_bonds>  (197) 
2

>  <r_i_docking_score>  (197) 
-3.39727

>  <r_i_glide_ligand_efficiency>  (197) 
-0.424659

>  <r_i_glide_ligand_efficiency_sa>  (197) 
-0.849318

>  <r_i_glide_ligand_efficiency_ln>  (197) 
-1.10321

>  <r_i_glide_gscore>  (197) 
-3.39727

>  <r_i_glide_lipo>  (197) 
-0.0469068

>  <r_i_glide_hbond>  (197) 
-0.122428

>  <r_i_glide_metal>  (197) 
-0

>  <r_i_glide_rewards>  (197) 
-2.25

>  <r_i_glide_evdw>  (197) 
-10.9751

>  <r_i_glide_ecoul>  (197) 
-2.54306

>  <r_i_glide_erotb>  (197) 
0

>  <r_i_glide_esite>  (197) 
-0.0477225

>  <r_i_glide_emodel>  (197) 
-16.7337

>  <r_i_glide_energy>  (197) 
-13.5182

>  <r_i_glide_einternal>  (197) 
0.659257

>  <r_i_glide_intrahb_reward>  (197) 
-0

>  <i_i_glide_confnum>  (197) 
1

>  <i_i_glide_posenum>  (197) 
32

>  <r_i_glide_eff_state_penalty>  (197) 
0

>  <ligand_id>  (197) 
56

>  <original_smiles>  (197) 
CCCn1nccn1

>  <smiles>  (197) 
[H]c1nn(C([H])([H])C([H])([H])C([H])([H])[H])nc1[H]

$$$$
56:0:2
     RDKit          3D

 17 17  0  0  1  0  0  0  0  0999 V2000
    2.8402   -3.7702   -3.9763 C   0  0  0  0  0  0  0  0  0  0  0  0
    3.2092   -3.2760   -2.5726 C   0  0  0  0  0  0  0  0  0  0  0  0
    4.0890   -2.0138   -2.5693 C   0  0  0  0  0  0  0  0  0  0  0  0
    3.6956   -1.0327   -3.5525 N   0  0  0  0  0  0  0  0  0  0  0  0
    2.6159   -0.2559   -3.4356 N   0  0  0  0  0  0  0  0  0  0  0  0
    2.6177    0.4528   -4.5426 C   0  0  0  0  0  0  0  0  0  0  0  0
    3.7194    0.0983   -5.3045 C   0  0  0  0  0  0  0  0  0  0  0  0
    4.3305   -0.9100   -4.7212 N   0  0  0  0  0  0  0  0  0  0  0  0
    2.2160   -4.6559   -3.9406 H   0  0  0  0  0  0  0  0  0  0  0  0
    3.7416   -4.0024   -4.5446 H   0  0  0  0  0  0  0  0  0  0  0  0
    2.2671   -3.0264   -4.5277 H   0  0  0  0  0  0  0  0  0  0  0  0
    2.2901   -3.0748   -2.0204 H   0  0  0  0  0  0  0  0  0  0  0  0
    3.7284   -4.0633   -2.0227 H   0  0  0  0  0  0  0  0  0  0  0  0
    4.0624   -1.5276   -1.5953 H   0  0  0  0  0  0  0  0  0  0  0  0
    5.1278   -2.2921   -2.7646 H   0  0  0  0  0  0  0  0  0  0  0  0
    1.9022    1.2458   -4.7126 H   0  0  0  0  0  0  0  0  0  0  0  0
    4.0359    0.5370   -6.2427 H   0  0  0  0  0  0  0  0  0  0  0  0
  1  2  1  0
  1  9  1  0
  1 10  1  0
  1 11  1  0
  2  3  1  0
  2 12  1  0
  2 13  1  0
  3  4  1  0
  3 14  1  0
  3 15  1  0
  4  8  1  0
  4  5  1  0
  5  6  2  0
  6  7  1  0
  6 16  1  0
  7  8  2  0
  7 17  1  0
M  END
>  <i_m_ct_stereo_status>  (198) 
1

>  <s_m_source_file>  (198) 
/var/tmp/pbs.5076255.sched01/tmp3npnc3rz/42_8qtnw6u.sdf

>  <i_m_source_file_index>  (198) 
40

>  <i_lp_mmshare_version>  (198) 
48012

>  <i_f3d_flags>  (198) 
0

>  <s_epik_input>  (198) 
W0NIM11bQ0gyXVtDSDJdbjFuW2NIXVtjSF1uMQ==

>  <s_epik_cmdline>  (198) 
J2VwaWtfcHl0aG9uJywgJy1waHQnLCAnMi4wJywgJy1waCcsICc3LjAnLCAnLXRuJywgJzgnLCAnLW1hJywgJzIwMCcsICctaW1hZScsICc8aW5maWxlLm1hZT4nLCAnLW9tYWUnLCAnPG91dGZpbGUubWFlPic=

>  <r_lp_tautomer_probability>  (198) 
1

>  <r_epik_Ionization_Penalty>  (198) 
2.0356e-12

>  <r_epik_Ionization_Penalty_Charging>  (198) 
0

>  <r_epik_Ionization_Penalty_Neutral>  (198) 
2.0356e-12

>  <r_epik_State_Penalty>  (198) 
-0

>  <r_epik_Charging_Adjusted_Penalty>  (198) 
0

>  <i_epik_Tot_Q>  (198) 
0

>  <i_epik_Tot_abs_Q>  (198) 
0

>  <s_lp_Force_Field>  (198) 
OPLS3e

>  <r_lp_Energy>  (198) 
3.00663

>  <b_lp_Chiralities_Consistent>  (198) 
1

>  <s_lp_Variant>  (198) 
56:0-1

>  <s_i_glide_gridfile>  (198) 
pfpi4k_grid

>  <i_i_glide_lignum>  (198) 
40

>  <i_i_glide_rotatable_bonds>  (198) 
2

>  <r_i_docking_score>  (198) 
-3.15534

>  <r_i_glide_ligand_efficiency>  (198) 
-0.394418

>  <r_i_glide_ligand_efficiency_sa>  (198) 
-0.788836

>  <r_i_glide_ligand_efficiency_ln>  (198) 
-1.02465

>  <r_i_glide_gscore>  (198) 
-3.15534

>  <r_i_glide_lipo>  (198) 
-0.139068

>  <r_i_glide_hbond>  (198) 
-0.294048

>  <r_i_glide_metal>  (198) 
-0

>  <r_i_glide_rewards>  (198) 
-2.55122

>  <r_i_glide_evdw>  (198) 
0.936058

>  <r_i_glide_ecoul>  (198) 
-1.4521

>  <r_i_glide_erotb>  (198) 
0

>  <r_i_glide_esite>  (198) 
0

>  <r_i_glide_emodel>  (198) 
-3.42558

>  <r_i_glide_energy>  (198) 
-0.516041

>  <r_i_glide_einternal>  (198) 
1.1306

>  <r_i_glide_intrahb_reward>  (198) 
-0

>  <i_i_glide_confnum>  (198) 
2

>  <i_i_glide_posenum>  (198) 
2

>  <r_i_glide_eff_state_penalty>  (198) 
0

>  <ligand_id>  (198) 
56

>  <original_smiles>  (198) 
CCCn1nccn1

>  <smiles>  (198) 
[H]c1nn(C([H])([H])C([H])([H])C([H])([H])[H])nc1[H]

$$$$
57:0:0
     RDKit          3D

 75 82  0  0  1  0  0  0  0  0999 V2000
    0.1302    0.5044    3.7236 C   0  0  0  0  0  0  0  0  0  0  0  0
    0.2611    0.4877    2.1917 C   0  0  0  0  0  0  0  0  0  0  0  0
    0.9408   -0.7261    1.6892 N   0  0  0  0  0  0  0  0  0  0  0  0
    2.3903   -0.8501    1.9456 C   0  0  0  0  0  0  0  0  0  0  0  0
    2.9198   -2.2510    1.5124 C   0  0  2  0  0  0  0  0  0  0  0  0
    2.7318   -3.2332    2.5969 N   0  0  0  0  0  0  0  0  0  0  0  0
    2.0917   -4.4837    2.1836 C   0  0  0  0  0  0  0  0  0  0  0  0
    2.9101   -5.8005    1.9374 C   0  0  1  0  0  0  0  0  0  0  0  0
    2.0121   -7.0377    2.2767 C   0  0  1  0  0  0  0  0  0  0  0  0
    0.6028   -7.0189    1.6335 C   0  0  0  0  0  0  0  0  0  0  0  0
   -0.3564   -7.1985    2.5822 C   0  0  0  0  0  0  0  0  0  0  0  0
    0.4084   -7.8152    3.7024 C   0  0  1  0  0  0  0  0  0  0  0  0
    0.6672   -7.7044    5.1923 C   0  0  0  0  0  0  0  0  0  0  0  0
    1.9473   -7.9931    5.5680 C   0  0  0  0  0  0  0  0  0  0  0  0
    3.0791   -8.3006    4.5267 C   0  0  0  0  0  0  0  0  0  0  0  0
    4.2352   -8.4825    4.8492 O   0  0  0  0  0  0  0  0  0  0  0  0
    2.7582   -8.3255    2.9290 C   0  0  1  0  0  0  0  0  0  0  0  0
    1.9136   -9.5507    2.5877 C   0  0  1  0  0  0  0  0  0  0  0  0
    2.5521  -10.9060    2.9289 C   0  0  0  0  0  0  0  0  0  0  0  0
    0.5950   -9.3327    3.3296 C   0  0  0  0  0  0  0  0  0  0  0  0
    1.4165   -6.8148    3.4670 O   0  0  0  0  0  0  0  0  0  0  0  0
    3.4753   -6.0156    0.4919 C   0  0  0  0  0  0  0  0  0  0  0  0
    4.3914   -5.0198   -0.3088 C   0  0  1  0  0  0  0  0  0  0  0  0
    3.7092   -3.8767   -1.0956 C   0  0  1  0  0  0  0  0  0  0  0  0
    2.3013   -3.8573   -1.0917 O   0  0  0  0  0  0  0  0  0  0  0  0
    4.4811   -2.6238   -0.6420 C   0  0  2  0  0  0  0  0  0  0  0  0
    5.9094   -3.2229   -0.7263 C   0  0  0  0  0  0  0  0  0  0  0  0
    5.6301   -4.3074    0.3147 C   0  0  2  0  0  0  0  0  0  0  0  0
    6.6450   -5.2809    0.5736 O   0  0  0  0  0  0  0  0  0  0  0  0
    7.9927   -4.8225    0.6405 C   0  0  0  0  0  0  0  0  0  0  0  0
    5.1760   -3.4513    1.4754 C   0  0  2  0  0  0  0  0  0  0  0  0
    6.0967   -2.9483    2.4403 O   0  0  0  0  0  0  0  0  0  0  0  0
    5.1019   -3.8644    2.9129 C   0  0  1  0  0  0  0  0  0  0  0  0
    3.8458   -3.3619    3.5672 C   0  0  0  0  0  0  0  0  0  0  0  0
    4.3525   -2.3220    0.8741 C   0  0  2  0  0  0  0  0  0  0  0  0
    5.0209   -1.0784    1.0662 O   0  0  0  0  0  0  0  0  0  0  0  0
   -0.3677    1.4132    4.0586 H   0  0  0  0  0  0  0  0  0  0  0  0
    1.1030    0.4939    4.2109 H   0  0  0  0  0  0  0  0  0  0  0  0
   -0.4439   -0.3479    4.0921 H   0  0  0  0  0  0  0  0  0  0  0  0
   -0.7446    0.5291    1.7718 H   0  0  0  0  0  0  0  0  0  0  0  0
    0.7470    1.3855    1.8160 H   0  0  0  0  0  0  0  0  0  0  0  0
    0.4730   -1.5231    2.1050 H   0  0  0  0  0  0  0  0  0  0  0  0
    2.8345   -0.0173    1.4082 H   0  0  0  0  0  0  0  0  0  0  0  0
    2.6053   -0.7092    3.0024 H   0  0  0  0  0  0  0  0  0  0  0  0
    2.2335   -2.4897    0.7114 H   0  0  0  0  0  0  0  0  0  0  0  0
    1.3777   -4.6339    2.9863 H   0  0  0  0  0  0  0  0  0  0  0  0
    1.4562   -4.3261    1.3255 H   0  0  0  0  0  0  0  0  0  0  0  0
    3.7112   -5.8926    2.6616 H   0  0  0  0  0  0  0  0  0  0  0  0
    0.4379   -6.7268    0.6092 H   0  0  0  0  0  0  0  0  0  0  0  0
   -1.4267   -7.1717    2.4586 H   0  0  0  0  0  0  0  0  0  0  0  0
   -0.1521   -7.4754    5.8695 H   0  0  0  0  0  0  0  0  0  0  0  0
    2.2204   -7.9776    6.6277 H   0  0  0  0  0  0  0  0  0  0  0  0
    3.7178   -8.4146    2.4317 H   0  0  0  0  0  0  0  0  0  0  0  0
    1.7431   -9.5270    1.5048 H   0  0  0  0  0  0  0  0  0  0  0  0
    2.7203  -11.0622    3.9945 H   0  0  0  0  0  0  0  0  0  0  0  0
    3.5016  -11.0334    2.4164 H   0  0  0  0  0  0  0  0  0  0  0  0
    1.9031  -11.7111    2.6026 H   0  0  0  0  0  0  0  0  0  0  0  0
    0.5091   -9.9775    4.2129 H   0  0  0  0  0  0  0  0  0  0  0  0
   -0.2193   -9.6566    2.6831 H   0  0  0  0  0  0  0  0  0  0  0  0
    4.0248   -6.9550    0.5387 H   0  0  0  0  0  0  0  0  0  0  0  0
    2.6323   -6.2449   -0.1595 H   0  0  0  0  0  0  0  0  0  0  0  0
    4.8047   -5.6587   -1.0948 H   0  0  0  0  0  0  0  0  0  0  0  0
    3.9502   -4.0054   -2.1519 H   0  0  0  0  0  0  0  0  0  0  0  0
    2.0371   -4.4982   -1.7242 H   0  0  0  0  0  0  0  0  0  0  0  0
    4.3107   -1.7518   -1.2753 H   0  0  0  0  0  0  0  0  0  0  0  0
    6.1608   -3.6199   -1.7122 H   0  0  0  0  0  0  0  0  0  0  0  0
    6.6971   -2.5300   -0.4224 H   0  0  0  0  0  0  0  0  0  0  0  0
    8.6547   -5.6556    0.8849 H   0  0  0  0  0  0  0  0  0  0  0  0
    8.1381   -4.0671    1.4105 H   0  0  0  0  0  0  0  0  0  0  0  0
    8.3407   -4.4175   -0.3108 H   0  0  0  0  0  0  0  0  0  0  0  0
    5.4940   -4.8425    3.1931 H   0  0  0  0  0  0  0  0  0  0  0  0
    4.0933   -2.3928    4.0030 H   0  0  0  0  0  0  0  0  0  0  0  0
    3.5814   -4.0396    4.3792 H   0  0  0  0  0  0  0  0  0  0  0  0
    5.9493   -1.1904    0.9335 H   0  0  0  0  0  0  0  0  0  0  0  0
    0.8039   -0.7565    0.6607 H   0  0  0  0  0  0  0  0  0  0  0  0
  1  2  1  0
  1 37  1  0
  1 38  1  0
  1 39  1  0
  2  3  1  0
  2 40  1  0
  2 41  1  0
  3  4  1  0
  3 42  1  0
  3 75  1  0
  4  5  1  0
  4 43  1  0
  4 44  1  0
  5 35  1  0
  5  6  1  0
  5 45  1  6
  6 34  1  0
  6  7  1  0
  7  8  1  0
  7 46  1  0
  7 47  1  0
  8  9  1  0
  8 22  1  0
  8 48  1  1
  9 17  1  0
  9 21  1  0
  9 10  1  6
 10 11  2  0
 10 49  1  0
 12 11  1  1
 11 50  1  0
 12 20  1  0
 12 13  1  0
 12 21  1  0
 13 14  2  0
 13 51  1  0
 14 15  1  0
 14 52  1  0
 15 16  2  0
 15 17  1  0
 17 18  1  0
 17 53  1  6
 18 19  1  0
 18 20  1  0
 18 54  1  6
 19 55  1  0
 19 56  1  0
 19 57  1  0
 20 58  1  0
 20 59  1  0
 22 23  1  0
 22 60  1  0
 22 61  1  0
 23 28  1  0
 23 24  1  0
 23 62  1  6
 24 25  1  0
 24 26  1  0
 24 63  1  6
 25 64  1  0
 26 35  1  0
 26 27  1  0
 26 65  1  6
 27 28  1  0
 27 66  1  0
 27 67  1  0
 28 29  1  1
 28 31  1  0
 29 30  1  0
 30 68  1  0
 30 69  1  0
 30 70  1  0
 31 33  1  0
 31 32  1  1
 31 35  1  0
 32 33  1  0
 33 34  1  0
 33 71  1  6
 34 72  1  0
 34 73  1  0
 35 36  1  6
 36 74  1  0
M  CHG  1   3   1
M  END
>  <i_m_ct_stereo_status>  (199) 
1

>  <s_m_source_file>  (199) 
/var/tmp/pbs.5076255.sched01/tmp3npnc3rz/42_8qtnw6u.sdf

>  <i_m_source_file_index>  (199) 
41

>  <i_lp_mmshare_version>  (199) 
48012

>  <i_f3d_flags>  (199) 
0

>  <s_epik_input>  (199) 
W0NIM11bQ0gyXVtOSF1bQ0gyXVtDQEBIXShbQ0BdMShbT0hdKVtDQEBIXShbQ0gyXTIpW0NAQEhdM1tPSF0pTihbQ0gyXVtDQEBIXTRPNSlbQ0gyXVtDQEBIXShbQ0BAXShPNikoW0NIXT1bQ0hdW0NAQF02NzgpW0NASF0oW0NAQEhdKFtDSDNdKVtDSDJdOClDKD1PKVtDSF09W0NIXTcpW0NIMl1bQ0BASF0zW0NAQF0yKFtDQEBdMTQ1KU9bQ0gzXQ==

>  <s_epik_cmdline>  (199) 
J2VwaWtfcHl0aG9uJywgJy1waHQnLCAnMi4wJywgJy1waCcsICc3LjAnLCAnLXRuJywgJzgnLCAnLW1hJywgJzIwMCcsICctaW1hZScsICc8aW5maWxlLm1hZT4nLCAnLW9tYWUnLCAnPG91dGZpbGUubWFlPic=

>  <r_epik_Ionization_Penalty>  (199) 
0.0386381

>  <r_epik_Ionization_Penalty_Charging>  (199) 
0.000237109

>  <r_epik_Ionization_Penalty_Neutral>  (199) 
0.038401

>  <r_epik_State_Penalty>  (199) 
0.0537862

>  <r_epik_Charging_Adjusted_Penalty>  (199) 
0.0540233

>  <i_epik_Tot_Q>  (199) 
1

>  <i_epik_Tot_abs_Q>  (199) 
1

>  <s_lp_Force_Field>  (199) 
OPLS3e

>  <r_lp_Energy>  (199) 
207.256

>  <b_lp_Chiralities_Consistent>  (199) 
1

>  <s_lp_Variant>  (199) 
57:0-1

>  <s_i_glide_gridfile>  (199) 
pfpi4k_grid

>  <i_i_glide_lignum>  (199) 
41

>  <i_i_glide_rotatable_bonds>  (199) 
7

>  <r_i_docking_score>  (199) 
-3.57121

>  <r_i_glide_ligand_efficiency>  (199) 
-0.0992003

>  <r_i_glide_ligand_efficiency_sa>  (199) 
-0.327552

>  <r_i_glide_ligand_efficiency_ln>  (199) 
-0.779141

>  <r_i_glide_gscore>  (199) 
-3.57121

>  <r_i_glide_lipo>  (199) 
-0.428738

>  <r_i_glide_hbond>  (199) 
-0.376277

>  <r_i_glide_metal>  (199) 
-0

>  <r_i_glide_rewards>  (199) 
-0.00259732

>  <r_i_glide_evdw>  (199) 
-23.8387

>  <r_i_glide_ecoul>  (199) 
-11.4454

>  <r_i_glide_erotb>  (199) 
0.245343

>  <r_i_glide_esite>  (199) 
-0.100199

>  <r_i_glide_emodel>  (199) 
-41.9964

>  <r_i_glide_energy>  (199) 
-35.2841

>  <r_i_glide_einternal>  (199) 
5.56882

>  <r_i_glide_intrahb_reward>  (199) 
-0

>  <i_i_glide_confnum>  (199) 
3

>  <i_i_glide_posenum>  (199) 
28

>  <r_i_glide_eff_state_penalty>  (199) 
0

>  <ligand_id>  (199) 
57

>  <original_smiles>  (199) 
CCNCC1N2CC(C34C=CC5(C=CC(=O)C3C(C)C5)O4)CC3C(O)C4CC3(OC)C3(OC3C2)C41O

>  <smiles>  (199) 
[H]OC1([H])C2([H])C([H])([H])C([H])(C34OC5(C([H])=C([H])C(=O)C3([H])C([H])(C([H])([H])[H])C5([H])[H])C([H])=C4[H])C([H])([H])N3C([H])([H])C4([H])OC45C2(OC([H])([H])[H])C([H])([H])C1([H])C5(O[H])C3([H])C([H])([H])[N+]([H])([H])C([H])([H])C([H])([H])[H]

$$$$
57:0:1
     RDKit          3D

 75 82  0  0  1  0  0  0  0  0999 V2000
   -1.0726    1.0404    2.2177 C   0  0  0  0  0  0  0  0  0  0  0  0
    0.4524    1.1857    2.0690 C   0  0  0  0  0  0  0  0  0  0  0  0
    1.1162   -0.0841    1.7543 N   0  0  0  0  0  0  0  0  0  0  0  0
    2.5916   -0.0778    1.6774 C   0  0  0  0  0  0  0  0  0  0  0  0
    3.1626   -1.4824    1.2900 C   0  0  2  0  0  0  0  0  0  0  0  0
    3.2375   -2.3557    2.4683 N   0  0  0  0  0  0  0  0  0  0  0  0
    2.6063   -3.6687    2.3087 C   0  0  0  0  0  0  0  0  0  0  0  0
    3.4328   -4.9736    2.0421 C   0  0  1  0  0  0  0  0  0  0  0  0
    2.7444   -6.2101    2.7470 C   0  0  1  0  0  0  0  0  0  0  0  0
    2.3529   -7.4016    1.8305 C   0  0  0  0  0  0  0  0  0  0  0  0
    1.0509   -7.7267    2.0058 C   0  0  0  0  0  0  0  0  0  0  0  0
    0.7864   -7.1851    3.3629 C   0  0  1  0  0  0  0  0  0  0  0  0
   -0.1832   -6.3631    4.1611 C   0  0  0  0  0  0  0  0  0  0  0  0
    0.3961   -5.5689    5.1264 C   0  0  0  0  0  0  0  0  0  0  0  0
    1.9412   -5.4648    5.2837 C   0  0  0  0  0  0  0  0  0  0  0  0
    2.4440   -4.7144    6.1254 O   0  0  0  0  0  0  0  0  0  0  0  0
    2.9548   -6.3033    4.3587 C   0  0  1  0  0  0  0  0  0  0  0  0
    2.8791   -7.7869    4.7245 C   0  0  1  0  0  0  0  0  0  0  0  0
    3.2520   -8.1452    6.1759 C   0  0  0  0  0  0  0  0  0  0  0  0
    1.4508   -8.1999    4.3695 C   0  0  0  0  0  0  0  0  0  0  0  0
    1.4155   -5.9707    2.9105 O   0  0  0  0  0  0  0  0  0  0  0  0
    3.7752   -5.2949    0.5389 C   0  0  0  0  0  0  0  0  0  0  0  0
    4.4795   -4.3710   -0.4972 C   0  0  1  0  0  0  0  0  0  0  0  0
    3.5934   -3.3780   -1.2730 C   0  0  1  0  0  0  0  0  0  0  0  0
    2.2136   -3.4017   -0.9576 O   0  0  0  0  0  0  0  0  0  0  0  0
    4.3531   -2.0482   -1.0887 C   0  0  2  0  0  0  0  0  0  0  0  0
    5.7831   -2.5908   -1.3587 C   0  0  0  0  0  0  0  0  0  0  0  0
    5.7570   -3.5447   -0.1622 C   0  0  2  0  0  0  0  0  0  0  0  0
    6.8587   -4.4302    0.0792 O   0  0  0  0  0  0  0  0  0  0  0  0
    8.1633   -3.9243   -0.1971 C   0  0  0  0  0  0  0  0  0  0  0  0
    5.4604   -2.5896    0.9535 C   0  0  2  0  0  0  0  0  0  0  0  0
    6.5415   -1.9516    1.6841 O   0  0  0  0  0  0  0  0  0  0  0  0
    5.6563   -2.8455    2.4059 C   0  0  1  0  0  0  0  0  0  0  0  0
    4.5108   -2.3149    3.2226 C   0  0  0  0  0  0  0  0  0  0  0  0
    4.4592   -1.5767    0.4020 C   0  0  2  0  0  0  0  0  0  0  0  0
    5.1158   -0.3067    0.3666 O   0  0  0  0  0  0  0  0  0  0  0  0
   -1.5272    1.9888    2.4960 H   0  0  0  0  0  0  0  0  0  0  0  0
   -1.3351    0.3173    2.9931 H   0  0  0  0  0  0  0  0  0  0  0  0
   -1.5521    0.7318    1.2859 H   0  0  0  0  0  0  0  0  0  0  0  0
    0.6646    1.9368    1.3039 H   0  0  0  0  0  0  0  0  0  0  0  0
    0.8565    1.5810    3.0052 H   0  0  0  0  0  0  0  0  0  0  0  0
    0.8086   -0.8105    2.3864 H   0  0  0  0  0  0  0  0  0  0  0  0
    2.8615    0.6834    0.9485 H   0  0  0  0  0  0  0  0  0  0  0  0
    2.9954    0.2468    2.6398 H   0  0  0  0  0  0  0  0  0  0  0  0
    2.3654   -1.8421    0.6609 H   0  0  0  0  0  0  0  0  0  0  0  0
    2.0797   -3.7852    3.2499 H   0  0  0  0  0  0  0  0  0  0  0  0
    1.8130   -3.6154    1.5735 H   0  0  0  0  0  0  0  0  0  0  0  0
    4.3733   -4.9368    2.5760 H   0  0  0  0  0  0  0  0  0  0  0  0
    2.9661   -7.7815    1.0260 H   0  0  0  0  0  0  0  0  0  0  0  0
    0.4632   -8.4304    1.4453 H   0  0  0  0  0  0  0  0  0  0  0  0
   -1.2498   -6.4667    4.0092 H   0  0  0  0  0  0  0  0  0  0  0  0
   -0.2268   -4.9724    5.7787 H   0  0  0  0  0  0  0  0  0  0  0  0
    3.9572   -5.9464    4.5860 H   0  0  0  0  0  0  0  0  0  0  0  0
    3.5870   -8.3095    4.0764 H   0  0  0  0  0  0  0  0  0  0  0  0
    2.5731   -7.7177    6.9139 H   0  0  0  0  0  0  0  0  0  0  0  0
    4.2625   -7.8199    6.4182 H   0  0  0  0  0  0  0  0  0  0  0  0
    3.2220   -9.2268    6.3044 H   0  0  0  0  0  0  0  0  0  0  0  0
    0.8374   -8.3297    5.2651 H   0  0  0  0  0  0  0  0  0  0  0  0
    1.4855   -9.1955    3.9254 H   0  0  0  0  0  0  0  0  0  0  0  0
    4.4414   -6.1532    0.5833 H   0  0  0  0  0  0  0  0  0  0  0  0
    2.8686   -5.6354    0.0379 H   0  0  0  0  0  0  0  0  0  0  0  0
    4.7920   -5.0858   -1.2622 H   0  0  0  0  0  0  0  0  0  0  0  0
    3.6375   -3.6411   -2.3335 H   0  0  0  0  0  0  0  0  0  0  0  0
    1.8256   -2.5869   -1.2551 H   0  0  0  0  0  0  0  0  0  0  0  0
    4.0254   -1.2678   -1.7737 H   0  0  0  0  0  0  0  0  0  0  0  0
    5.8858   -3.0973   -2.3209 H   0  0  0  0  0  0  0  0  0  0  0  0
    6.5633   -1.8375   -1.2752 H   0  0  0  0  0  0  0  0  0  0  0  0
    8.9015   -4.7030    0.0000 H   0  0  0  0  0  0  0  0  0  0  0  0
    8.4089   -3.0803    0.4429 H   0  0  0  0  0  0  0  0  0  0  0  0
    8.3013   -3.6241   -1.2379 H   0  0  0  0  0  0  0  0  0  0  0  0
    6.1424   -3.7742    2.7095 H   0  0  0  0  0  0  0  0  0  0  0  0
    4.7605   -1.2915    3.5056 H   0  0  0  0  0  0  0  0  0  0  0  0
    4.4343   -2.9034    4.1385 H   0  0  0  0  0  0  0  0  0  0  0  0
    4.5913    0.3136   -0.0950 H   0  0  0  0  0  0  0  0  0  0  0  0
    0.8003   -0.3380    0.7855 H   0  0  0  0  0  0  0  0  0  0  0  0
  1  2  1  0
  1 37  1  0
  1 38  1  0
  1 39  1  0
  2  3  1  0
  2 40  1  0
  2 41  1  0
  3  4  1  0
  3 42  1  0
  3 75  1  0
  4  5  1  0
  4 43  1  0
  4 44  1  0
  5 35  1  0
  5  6  1  0
  5 45  1  6
  6 34  1  0
  6  7  1  0
  7  8  1  0
  7 46  1  0
  7 47  1  0
  8  9  1  0
  8 22  1  0
  8 48  1  1
  9 17  1  0
  9 21  1  0
  9 10  1  6
 10 11  2  0
 10 49  1  0
 12 11  1  6
 11 50  1  0
 12 20  1  0
 12 13  1  0
 12 21  1  0
 13 14  2  0
 13 51  1  0
 14 15  1  0
 14 52  1  0
 15 16  2  0
 15 17  1  0
 17 18  1  0
 17 53  1  6
 18 19  1  0
 18 20  1  0
 18 54  1  6
 19 55  1  0
 19 56  1  0
 19 57  1  0
 20 58  1  0
 20 59  1  0
 22 23  1  0
 22 60  1  0
 22 61  1  0
 23 28  1  0
 23 24  1  0
 23 62  1  6
 24 25  1  0
 24 26  1  0
 24 63  1  6
 25 64  1  0
 26 35  1  0
 26 27  1  0
 26 65  1  6
 27 28  1  0
 27 66  1  0
 27 67  1  0
 28 29  1  1
 28 31  1  0
 29 30  1  0
 30 68  1  0
 30 69  1  0
 30 70  1  0
 31 33  1  0
 31 32  1  6
 31 35  1  0
 32 33  1  0
 33 34  1  0
 33 71  1  6
 34 72  1  0
 34 73  1  0
 35 36  1  6
 36 74  1  0
M  CHG  1   3   1
M  END
>  <i_m_ct_stereo_status>  (200) 
1

>  <s_m_source_file>  (200) 
/var/tmp/pbs.5076255.sched01/tmp3npnc3rz/42_8qtnw6u.sdf

>  <i_m_source_file_index>  (200) 
41

>  <i_lp_mmshare_version>  (200) 
48012

>  <i_f3d_flags>  (200) 
0

>  <s_epik_input>  (200) 
W0NIM11bQ0gyXVtOSF1bQ0gyXVtDQEBIXShbQ0BdMShbT0hdKVtDQEBIXShbQ0gyXTIpW0NAQEhdM1tPSF0pTihbQ0gyXVtDQEBIXTRPNSlbQ0gyXVtDQEBIXShbQ0BAXShPNikoW0NIXT1bQ0hdW0NAQF02NzgpW0NASF0oW0NAQEhdKFtDSDNdKVtDSDJdOClDKD1PKVtDSF09W0NIXTcpW0NIMl1bQ0BASF0zW0NAQF0yKFtDQEBdMTQ1KU9bQ0gzXQ==

>  <s_epik_cmdline>  (200) 
J2VwaWtfcHl0aG9uJywgJy1waHQnLCAnMi4wJywgJy1waCcsICc3LjAnLCAnLXRuJywgJzgnLCAnLW1hJywgJzIwMCcsICctaW1hZScsICc8aW5maWxlLm1hZT4nLCAnLW9tYWUnLCAnPG91dGZpbGUubWFlPic=

>  <r_epik_Ionization_Penalty>  (200) 
0.0386381

>  <r_epik_Ionization_Penalty_Charging>  (200) 
0.000237109

>  <r_epik_Ionization_Penalty_Neutral>  (200) 
0.038401

>  <r_epik_State_Penalty>  (200) 
0.0537862

>  <r_epik_Charging_Adjusted_Penalty>  (200) 
0.0540233

>  <i_epik_Tot_Q>  (200) 
1

>  <i_epik_Tot_abs_Q>  (200) 
1

>  <s_lp_Force_Field>  (200) 
OPLS3e

>  <r_lp_Energy>  (200) 
207.256

>  <b_lp_Chiralities_Consistent>  (200) 
1

>  <s_lp_Variant>  (200) 
57:0-1

>  <s_i_glide_gridfile>  (200) 
pfpi4k_grid

>  <i_i_glide_lignum>  (200) 
41

>  <i_i_glide_rotatable_bonds>  (200) 
7

>  <r_i_docking_score>  (200) 
-3.3739

>  <r_i_glide_ligand_efficiency>  (200) 
-0.0937194

>  <r_i_glide_ligand_efficiency_sa>  (200) 
-0.309455

>  <r_i_glide_ligand_efficiency_ln>  (200) 
-0.736094

>  <r_i_glide_gscore>  (200) 
-3.3739

>  <r_i_glide_lipo>  (200) 
-0.351274

>  <r_i_glide_hbond>  (200) 
-0.353067

>  <r_i_glide_metal>  (200) 
-0

>  <r_i_glide_rewards>  (200) 
-0.00259732

>  <r_i_glide_evdw>  (200) 
-26.9533

>  <r_i_glide_ecoul>  (200) 
-9.76361

>  <r_i_glide_erotb>  (200) 
0.245343

>  <r_i_glide_esite>  (200) 
-0.100098

>  <r_i_glide_emodel>  (200) 
-41.8645

>  <r_i_glide_energy>  (200) 
-36.7169

>  <r_i_glide_einternal>  (200) 
8.1134

>  <r_i_glide_intrahb_reward>  (200) 
-0

>  <i_i_glide_confnum>  (200) 
2

>  <i_i_glide_posenum>  (200) 
12

>  <r_i_glide_eff_state_penalty>  (200) 
0

>  <ligand_id>  (200) 
57

>  <original_smiles>  (200) 
CCNCC1N2CC(C34C=CC5(C=CC(=O)C3C(C)C5)O4)CC3C(O)C4CC3(OC)C3(OC3C2)C41O

>  <smiles>  (200) 
[H]OC1([H])C2([H])C([H])([H])C([H])(C34OC5(C([H])=C([H])C(=O)C3([H])C([H])(C([H])([H])[H])C5([H])[H])C([H])=C4[H])C([H])([H])N3C([H])([H])C4([H])OC45C2(OC([H])([H])[H])C([H])([H])C1([H])C5(O[H])C3([H])C([H])([H])[N+]([H])([H])C([H])([H])C([H])([H])[H]

$$$$
57:0:2
     RDKit          3D

 75 82  0  0  1  0  0  0  0  0999 V2000
    0.5359    2.1063    2.1143 C   0  0  0  0  0  0  0  0  0  0  0  0
    0.4076    0.7591    2.8257 C   0  0  0  0  0  0  0  0  0  0  0  0
    1.0642   -0.3428    2.0822 N   0  0  0  0  0  0  0  0  0  0  0  0
    2.5492   -0.2579    1.9643 C   0  0  0  0  0  0  0  0  0  0  0  0
    3.1355   -1.5843    1.4049 C   0  0  2  0  0  0  0  0  0  0  0  0
    3.2514   -2.5911    2.4656 N   0  0  0  0  0  0  0  0  0  0  0  0
    2.6504   -3.8914    2.1507 C   0  0  0  0  0  0  0  0  0  0  0  0
    3.5323   -5.1226    1.7271 C   0  0  1  0  0  0  0  0  0  0  0  0
    2.8482   -6.4315    2.2313 C   0  0  1  0  0  0  0  0  0  0  0  0
    1.3272   -6.5111    1.9366 C   0  0  0  0  0  0  0  0  0  0  0  0
    0.6464   -6.7844    3.0820 C   0  0  0  0  0  0  0  0  0  0  0  0
    1.7039   -7.3800    3.9468 C   0  0  1  0  0  0  0  0  0  0  0  0
    2.3153   -7.3129    5.3215 C   0  0  0  0  0  0  0  0  0  0  0  0
    3.6791   -7.5238    5.3435 C   0  0  0  0  0  0  0  0  0  0  0  0
    4.5183   -7.6884    4.0435 C   0  0  0  0  0  0  0  0  0  0  0  0
    5.7403   -7.8210    4.0879 O   0  0  0  0  0  0  0  0  0  0  0  0
    3.8283   -7.6811    2.5750 C   0  0  1  0  0  0  0  0  0  0  0  0
    2.9926   -8.9545    2.4011 C   0  0  1  0  0  0  0  0  0  0  0  0
    3.7746  -10.2748    2.4791 C   0  0  0  0  0  0  0  0  0  0  0  0
    1.8836   -8.8649    3.4474 C   0  0  0  0  0  0  0  0  0  0  0  0
    2.5594   -6.2889    3.5449 O   0  0  0  0  0  0  0  0  0  0  0  0
    3.8491   -5.2862    0.1985 C   0  0  0  0  0  0  0  0  0  0  0  0
    4.5009   -4.2001   -0.7350 C   0  0  1  0  0  0  0  0  0  0  0  0
    3.5768   -3.1416   -1.3660 C   0  0  1  0  0  0  0  0  0  0  0  0
    2.2124   -3.2349   -1.0223 O   0  0  0  0  0  0  0  0  0  0  0  0
    4.2927   -1.8157   -1.0342 C   0  0  2  0  0  0  0  0  0  0  0  0
    5.7344   -2.2605   -1.3907 C   0  0  0  0  0  0  0  0  0  0  0  0
    5.7631   -3.3702   -0.3334 C   0  0  2  0  0  0  0  0  0  0  0  0
    6.9028   -4.2282   -0.2621 O   0  0  0  0  0  0  0  0  0  0  0  0
    8.1823   -3.6396   -0.4879 C   0  0  0  0  0  0  0  0  0  0  0  0
    5.4671   -2.5619    0.9027 C   0  0  2  0  0  0  0  0  0  0  0  0
    6.5286   -1.9964    1.6778 O   0  0  0  0  0  0  0  0  0  0  0  0
    5.6991   -2.9893    2.3054 C   0  0  1  0  0  0  0  0  0  0  0  0
    4.5382   -2.5965    3.1996 C   0  0  0  0  0  0  0  0  0  0  0  0
    4.4224   -1.5295    0.4986 C   0  0  2  0  0  0  0  0  0  0  0  0
    5.0333   -0.2592    0.6069 O   0  0  0  0  0  0  0  0  0  0  0  0
    0.0401    2.8901    2.6868 H   0  0  0  0  0  0  0  0  0  0  0  0
    0.0700    2.0735    1.1251 H   0  0  0  0  0  0  0  0  0  0  0  0
    1.5789    2.4142    1.9913 H   0  0  0  0  0  0  0  0  0  0  0  0
    0.8177    0.8130    3.8318 H   0  0  0  0  0  0  0  0  0  0  0  0
   -0.6540    0.5261    2.9366 H   0  0  0  0  0  0  0  0  0  0  0  0
    0.8313   -1.2173    2.5362 H   0  0  0  0  0  0  0  0  0  0  0  0
    2.7551    0.5713    1.2982 H   0  0  0  0  0  0  0  0  0  0  0  0
    2.9737   -0.0289    2.9354 H   0  0  0  0  0  0  0  0  0  0  0  0
    2.3304   -1.8782    0.7566 H   0  0  0  0  0  0  0  0  0  0  0  0
    2.1338   -4.1391    3.0744 H   0  0  0  0  0  0  0  0  0  0  0  0
    1.8312   -3.7721    1.4468 H   0  0  0  0  0  0  0  0  0  0  0  0
    4.4635   -5.1253    2.2798 H   0  0  0  0  0  0  0  0  0  0  0  0
    0.8997   -6.1900    1.0002 H   0  0  0  0  0  0  0  0  0  0  0  0
   -0.4133   -6.8351    3.2488 H   0  0  0  0  0  0  0  0  0  0  0  0
    1.6976   -7.1798    6.1982 H   0  0  0  0  0  0  0  0  0  0  0  0
    4.2021   -7.5317    6.2973 H   0  0  0  0  0  0  0  0  0  0  0  0
    4.6368   -7.6919    1.8486 H   0  0  0  0  0  0  0  0  0  0  0  0
    2.5493   -8.9092    1.4022 H   0  0  0  0  0  0  0  0  0  0  0  0
    4.2128  -10.4553    3.4618 H   0  0  0  0  0  0  0  0  0  0  0  0
    4.5758  -10.2924    1.7404 H   0  0  0  0  0  0  0  0  0  0  0  0
    3.1029  -11.1076    2.2689 H   0  0  0  0  0  0  0  0  0  0  0  0
    2.0770   -9.5436    4.2794 H   0  0  0  0  0  0  0  0  0  0  0  0
    0.9575   -9.2362    3.0097 H   0  0  0  0  0  0  0  0  0  0  0  0
    4.4963   -6.1579    0.1296 H   0  0  0  0  0  0  0  0  0  0  0  0
    2.9339   -5.6188   -0.2919 H   0  0  0  0  0  0  0  0  0  0  0  0
    4.8295   -4.7968   -1.5891 H   0  0  0  0  0  0  0  0  0  0  0  0
    3.6057   -3.2553   -2.4495 H   0  0  0  0  0  0  0  0  0  0  0  0
    1.7912   -2.3999   -1.1789 H   0  0  0  0  0  0  0  0  0  0  0  0
    3.9340   -0.9599   -1.6092 H   0  0  0  0  0  0  0  0  0  0  0  0
    5.8425   -2.6294   -2.4104 H   0  0  0  0  0  0  0  0  0  0  0  0
    6.4854   -1.4894   -1.2168 H   0  0  0  0  0  0  0  0  0  0  0  0
    8.9490   -4.4082   -0.3866 H   0  0  0  0  0  0  0  0  0  0  0  0
    8.4086   -2.8585    0.2355 H   0  0  0  0  0  0  0  0  0  0  0  0
    8.2834   -3.2302   -1.4942 H   0  0  0  0  0  0  0  0  0  0  0  0
    6.2104   -3.9296    2.4957 H   0  0  0  0  0  0  0  0  0  0  0  0
    4.7573   -1.6114    3.6110 H   0  0  0  0  0  0  0  0  0  0  0  0
    4.4976   -3.2951    4.0393 H   0  0  0  0  0  0  0  0  0  0  0  0
    4.4722    0.3973    0.2290 H   0  0  0  0  0  0  0  0  0  0  0  0
    0.6888   -0.3692    1.1288 H   0  0  0  0  0  0  0  0  0  0  0  0
  1  2  1  0
  1 37  1  0
  1 38  1  0
  1 39  1  0
  2  3  1  0
  2 40  1  0
  2 41  1  0
  3  4  1  0
  3 42  1  0
  3 75  1  0
  4  5  1  0
  4 43  1  0
  4 44  1  0
  5 35  1  0
  5  6  1  0
  5 45  1  6
  6 34  1  0
  6  7  1  0
  7  8  1  0
  7 46  1  0
  7 47  1  0
  8  9  1  0
  8 22  1  0
  8 48  1  1
  9 17  1  0
  9 21  1  0
  9 10  1  6
 10 11  2  0
 10 49  1  0
 12 11  1  1
 11 50  1  0
 12 20  1  0
 12 13  1  0
 12 21  1  0
 13 14  2  0
 13 51  1  0
 14 15  1  0
 14 52  1  0
 15 16  2  0
 15 17  1  0
 17 18  1  0
 17 53  1  6
 18 19  1  0
 18 20  1  0
 18 54  1  6
 19 55  1  0
 19 56  1  0
 19 57  1  0
 20 58  1  0
 20 59  1  0
 22 23  1  0
 22 60  1  0
 22 61  1  0
 23 28  1  0
 23 24  1  0
 23 62  1  6
 24 25  1  0
 24 26  1  0
 24 63  1  6
 25 64  1  0
 26 35  1  0
 26 27  1  0
 26 65  1  6
 27 28  1  0
 27 66  1  0
 27 67  1  0
 28 29  1  1
 28 31  1  0
 29 30  1  0
 30 68  1  0
 30 69  1  0
 30 70  1  0
 31 33  1  0
 31 32  1  6
 31 35  1  0
 32 33  1  0
 33 34  1  0
 33 71  1  6
 34 72  1  0
 34 73  1  0
 35 36  1  6
 36 74  1  0
M  CHG  1   3   1
M  END
>  <i_m_ct_stereo_status>  (201) 
1

>  <s_m_source_file>  (201) 
/var/tmp/pbs.5076255.sched01/tmp3npnc3rz/42_8qtnw6u.sdf

>  <i_m_source_file_index>  (201) 
41

>  <i_lp_mmshare_version>  (201) 
48012

>  <i_f3d_flags>  (201) 
0

>  <s_epik_input>  (201) 
W0NIM11bQ0gyXVtOSF1bQ0gyXVtDQEBIXShbQ0BdMShbT0hdKVtDQEBIXShbQ0gyXTIpW0NAQEhdM1tPSF0pTihbQ0gyXVtDQEBIXTRPNSlbQ0gyXVtDQEBIXShbQ0BAXShPNikoW0NIXT1bQ0hdW0NAQF02NzgpW0NASF0oW0NAQEhdKFtDSDNdKVtDSDJdOClDKD1PKVtDSF09W0NIXTcpW0NIMl1bQ0BASF0zW0NAQF0yKFtDQEBdMTQ1KU9bQ0gzXQ==

>  <s_epik_cmdline>  (201) 
J2VwaWtfcHl0aG9uJywgJy1waHQnLCAnMi4wJywgJy1waCcsICc3LjAnLCAnLXRuJywgJzgnLCAnLW1hJywgJzIwMCcsICctaW1hZScsICc8aW5maWxlLm1hZT4nLCAnLW9tYWUnLCAnPG91dGZpbGUubWFlPic=

>  <r_epik_Ionization_Penalty>  (201) 
0.0386381

>  <r_epik_Ionization_Penalty_Charging>  (201) 
0.000237109

>  <r_epik_Ionization_Penalty_Neutral>  (201) 
0.038401

>  <r_epik_State_Penalty>  (201) 
0.0537862

>  <r_epik_Charging_Adjusted_Penalty>  (201) 
0.0540233

>  <i_epik_Tot_Q>  (201) 
1

>  <i_epik_Tot_abs_Q>  (201) 
1

>  <s_lp_Force_Field>  (201) 
OPLS3e

>  <r_lp_Energy>  (201) 
207.256

>  <b_lp_Chiralities_Consistent>  (201) 
1

>  <s_lp_Variant>  (201) 
57:0-1

>  <s_i_glide_gridfile>  (201) 
pfpi4k_grid

>  <i_i_glide_lignum>  (201) 
41

>  <i_i_glide_rotatable_bonds>  (201) 
7

>  <r_i_docking_score>  (201) 
-3.07585

>  <r_i_glide_ligand_efficiency>  (201) 
-0.0854404

>  <r_i_glide_ligand_efficiency_sa>  (201) 
-0.282118

>  <r_i_glide_ligand_efficiency_ln>  (201) 
-0.671068

>  <r_i_glide_gscore>  (201) 
-3.07585

>  <r_i_glide_lipo>  (201) 
-0.332087

>  <r_i_glide_hbond>  (201) 
-0.36

>  <r_i_glide_metal>  (201) 
-0

>  <r_i_glide_rewards>  (201) 
-0.00259732

>  <r_i_glide_evdw>  (201) 
-26.1825

>  <r_i_glide_ecoul>  (201) 
-8.23456

>  <r_i_glide_erotb>  (201) 
0.245343

>  <r_i_glide_esite>  (201) 
-0.0822033

>  <r_i_glide_emodel>  (201) 
-40.3772

>  <r_i_glide_energy>  (201) 
-34.4171

>  <r_i_glide_einternal>  (201) 
4.97325

>  <r_i_glide_intrahb_reward>  (201) 
-0

>  <i_i_glide_confnum>  (201) 
3

>  <i_i_glide_posenum>  (201) 
14

>  <r_i_glide_eff_state_penalty>  (201) 
0

>  <ligand_id>  (201) 
57

>  <original_smiles>  (201) 
CCNCC1N2CC(C34C=CC5(C=CC(=O)C3C(C)C5)O4)CC3C(O)C4CC3(OC)C3(OC3C2)C41O

>  <smiles>  (201) 
[H]OC1([H])C2([H])C([H])([H])C([H])(C34OC5(C([H])=C([H])C(=O)C3([H])C([H])(C([H])([H])[H])C5([H])[H])C([H])=C4[H])C([H])([H])N3C([H])([H])C4([H])OC45C2(OC([H])([H])[H])C([H])([H])C1([H])C5(O[H])C3([H])C([H])([H])[N+]([H])([H])C([H])([H])C([H])([H])[H]

$$$$
57:1:0
     RDKit          3D

 76 83  0  0  1  0  0  0  0  0999 V2000
    0.3472    2.1395    2.0176 C   0  0  0  0  0  0  0  0  0  0  0  0
    0.3576    0.7430    2.6144 C   0  0  0  0  0  0  0  0  0  0  0  0
    1.0125   -0.2333    1.7524 N   0  0  0  0  0  0  0  0  0  0  0  0
    2.4677   -0.0489    1.4690 C   0  0  0  0  0  0  0  0  0  0  0  0
    3.1469   -1.3621    0.9708 C   0  0  2  0  0  0  0  0  0  0  0  0
    2.8609   -2.4062    2.0056 N   0  0  1  0  0  0  0  0  0  0  0  0
    2.4000   -3.7190    1.4850 C   0  0  0  0  0  0  0  0  0  0  0  0
    3.3813   -4.9253    1.5338 C   0  0  1  0  0  0  0  0  0  0  0  0
    2.6251   -6.2637    1.7687 C   0  0  1  0  0  0  0  0  0  0  0  0
    1.3658   -6.4809    0.8992 C   0  0  0  0  0  0  0  0  0  0  0  0
    0.3178   -6.8397    1.6775 C   0  0  0  0  0  0  0  0  0  0  0  0
    0.9873   -7.3121    2.9286 C   0  0  1  0  0  0  0  0  0  0  0  0
    0.9920   -7.1630    4.4216 C   0  0  0  0  0  0  0  0  0  0  0  0
    2.2526   -7.2204    4.9991 C   0  0  0  0  0  0  0  0  0  0  0  0
    3.5366   -7.3102    4.1350 C   0  0  0  0  0  0  0  0  0  0  0  0
    4.6638   -7.2625    4.6440 O   0  0  0  0  0  0  0  0  0  0  0  0
    3.4847   -7.4146    2.5266 C   0  0  1  0  0  0  0  0  0  0  0  0
    2.9246   -8.7750    2.1072 C   0  0  1  0  0  0  0  0  0  0  0  0
    3.7263  -10.0023    2.5837 C   0  0  0  0  0  0  0  0  0  0  0  0
    1.4919   -8.7750    2.6260 C   0  0  0  0  0  0  0  0  0  0  0  0
    1.8163   -6.1329    2.8412 O   0  0  0  0  0  0  0  0  0  0  0  0
    4.3142   -5.1368    0.3044 C   0  0  0  0  0  0  0  0  0  0  0  0
    5.2353   -4.0648   -0.3654 C   0  0  1  0  0  0  0  0  0  0  0  0
    4.6241   -3.0514   -1.3455 C   0  0  1  0  0  0  0  0  0  0  0  0
    3.2404   -3.1810   -1.5523 O   0  0  0  0  0  0  0  0  0  0  0  0
    5.1605   -1.6951   -0.8371 C   0  0  2  0  0  0  0  0  0  0  0  0
    6.6283   -2.1328   -0.5720 C   0  0  0  0  0  0  0  0  0  0  0  0
    6.2412   -3.1955    0.4524 C   0  0  2  0  0  0  0  0  0  0  0  0
    7.2970   -3.9050    1.1068 O   0  0  0  0  0  0  0  0  0  0  0  0
    8.0538   -4.8446    0.3455 C   0  0  0  0  0  0  0  0  0  0  0  0
    5.4654   -2.3252    1.4226 C   0  0  2  0  0  0  0  0  0  0  0  0
    6.0972   -1.6882    2.5526 O   0  0  0  0  0  0  0  0  0  0  0  0
    5.1328   -2.7260    2.8136 C   0  0  1  0  0  0  0  0  0  0  0  0
    3.7386   -2.3640    3.2009 C   0  0  0  0  0  0  0  0  0  0  0  0
    4.6718   -1.3216    0.5990 C   0  0  2  0  0  0  0  0  0  0  0  0
    5.1799   -0.0215    0.8767 O   0  0  0  0  0  0  0  0  0  0  0  0
   -0.1546    2.8442    2.6763 H   0  0  0  0  0  0  0  0  0  0  0  0
   -0.1842    2.1355    1.0600 H   0  0  0  0  0  0  0  0  0  0  0  0
    1.3575    2.5101    1.8314 H   0  0  0  0  0  0  0  0  0  0  0  0
    0.8373    0.7363    3.5960 H   0  0  0  0  0  0  0  0  0  0  0  0
   -0.6727    0.4172    2.7820 H   0  0  0  0  0  0  0  0  0  0  0  0
    0.7895   -1.1270    2.1345 H   0  0  0  0  0  0  0  0  0  0  0  0
    2.5277    0.7015    0.6960 H   0  0  0  0  0  0  0  0  0  0  0  0
    2.9696    0.3906    2.3337 H   0  0  0  0  0  0  0  0  0  0  0  0
    2.6140   -1.5781    0.0628 H   0  0  0  0  0  0  0  0  0  0  0  0
    1.5529   -3.9189    2.1390 H   0  0  0  0  0  0  0  0  0  0  0  0
    1.9440   -3.6158    0.5035 H   0  0  0  0  0  0  0  0  0  0  0  0
    3.9798   -4.8555    2.4304 H   0  0  0  0  0  0  0  0  0  0  0  0
    1.3325   -6.2209   -0.1508 H   0  0  0  0  0  0  0  0  0  0  0  0
   -0.6979   -7.0471    1.3790 H   0  0  0  0  0  0  0  0  0  0  0  0
    0.0665   -7.0955    4.9746 H   0  0  0  0  0  0  0  0  0  0  0  0
    2.3488   -7.1605    6.0754 H   0  0  0  0  0  0  0  0  0  0  0  0
    4.5082   -7.3558    2.1809 H   0  0  0  0  0  0  0  0  0  0  0  0
    2.9193   -8.8037    1.0123 H   0  0  0  0  0  0  0  0  0  0  0  0
    3.7592  -10.1116    3.6692 H   0  0  0  0  0  0  0  0  0  0  0  0
    4.7514   -9.9787    2.2183 H   0  0  0  0  0  0  0  0  0  0  0  0
    3.2757  -10.9119    2.1923 H   0  0  0  0  0  0  0  0  0  0  0  0
    1.3897   -9.4261    3.5020 H   0  0  0  0  0  0  0  0  0  0  0  0
    0.8608   -9.2517    1.8808 H   0  0  0  0  0  0  0  0  0  0  0  0
    4.9795   -5.9453    0.5965 H   0  0  0  0  0  0  0  0  0  0  0  0
    3.7171   -5.5739   -0.4930 H   0  0  0  0  0  0  0  0  0  0  0  0
    5.8156   -4.6803   -1.0417 H   0  0  0  0  0  0  0  0  0  0  0  0
    5.0744   -3.2191   -2.3287 H   0  0  0  0  0  0  0  0  0  0  0  0
    3.0910   -3.9910   -2.0247 H   0  0  0  0  0  0  0  0  0  0  0  0
    5.0553   -0.8843   -1.5585 H   0  0  0  0  0  0  0  0  0  0  0  0
    7.1344   -2.5470   -1.4461 H   0  0  0  0  0  0  0  0  0  0  0  0
    7.2601   -1.3650   -0.1266 H   0  0  0  0  0  0  0  0  0  0  0  0
    8.9017   -5.2102    0.9240 H   0  0  0  0  0  0  0  0  0  0  0  0
    8.4501   -4.4186   -0.5781 H   0  0  0  0  0  0  0  0  0  0  0  0
    7.4581   -5.7262    0.1047 H   0  0  0  0  0  0  0  0  0  0  0  0
    5.5495   -3.6406    3.2260 H   0  0  0  0  0  0  0  0  0  0  0  0
    3.7690   -1.3657    3.6307 H   0  0  0  0  0  0  0  0  0  0  0  0
    3.3640   -3.0386    3.9680 H   0  0  0  0  0  0  0  0  0  0  0  0
    4.9898    0.5777    0.1701 H   0  0  0  0  0  0  0  0  0  0  0  0
    0.5943   -0.2074    0.7926 H   0  0  0  0  0  0  0  0  0  0  0  0
    2.0259   -2.0652    2.4166 H   0  0  0  0  0  0  0  0  0  0  0  0
  1  2  1  0
  1 37  1  0
  1 38  1  0
  1 39  1  0
  2  3  1  0
  2 40  1  0
  2 41  1  0
  3  4  1  0
  3 42  1  0
  3 75  1  0
  4  5  1  0
  4 43  1  0
  4 44  1  0
  5 35  1  0
  5  6  1  0
  5 45  1  6
  6 34  1  0
  6  7  1  0
  6 76  1  1
  7  8  1  0
  7 46  1  0
  7 47  1  0
  8  9  1  0
  8 22  1  0
  8 48  1  1
  9 17  1  0
  9 21  1  0
  9 10  1  6
 10 11  2  0
 10 49  1  0
 12 11  1  6
 11 50  1  0
 12 20  1  0
 12 13  1  0
 12 21  1  0
 13 14  2  0
 13 51  1  0
 14 15  1  0
 14 52  1  0
 15 16  2  0
 15 17  1  0
 17 18  1  0
 17 53  1  6
 18 19  1  0
 18 20  1  0
 18 54  1  6
 19 55  1  0
 19 56  1  0
 19 57  1  0
 20 58  1  0
 20 59  1  0
 22 23  1  0
 22 60  1  0
 22 61  1  0
 23 28  1  0
 23 24  1  0
 23 62  1  6
 24 25  1  0
 24 26  1  0
 24 63  1  6
 25 64  1  0
 26 35  1  0
 26 27  1  0
 26 65  1  6
 27 28  1  0
 27 66  1  0
 27 67  1  0
 28 29  1  1
 28 31  1  0
 29 30  1  0
 30 68  1  0
 30 69  1  0
 30 70  1  0
 31 33  1  0
 31 32  1  1
 31 35  1  0
 32 33  1  0
 33 34  1  0
 33 71  1  6
 34 72  1  0
 34 73  1  0
 35 36  1  1
 36 74  1  0
M  CHG  2   3   1   6   1
M  END
>  <i_m_ct_stereo_status>  (202) 
1

>  <s_m_source_file>  (202) 
/var/tmp/pbs.5076255.sched01/tmp3npnc3rz/42_8qtnw6u.sdf

>  <i_m_source_file_index>  (202) 
42

>  <i_lp_mmshare_version>  (202) 
48012

>  <i_f3d_flags>  (202) 
0

>  <s_epik_input>  (202) 
W0NIM11bQ0gyXVtOSF1bQ0gyXVtDQEBIXShbQ0BdMShbT0hdKVtDQEBIXShbQ0gyXTIpW0NAQEhdM1tPSF0pTihbQ0gyXVtDQEBIXTRPNSlbQ0gyXVtDQEBIXShbQ0BAXShPNikoW0NIXT1bQ0hdW0NAQF02NzgpW0NASF0oW0NAQEhdKFtDSDNdKVtDSDJdOClDKD1PKVtDSF09W0NIXTcpW0NIMl1bQ0BASF0zW0NAQF0yKFtDQEBdMTQ1KU9bQ0gzXQ==

>  <s_epik_cmdline>  (202) 
J2VwaWtfcHl0aG9uJywgJy1waHQnLCAnMi4wJywgJy1waCcsICc3LjAnLCAnLXRuJywgJzgnLCAnLW1hJywgJzIwMCcsICctaW1hZScsICc8aW5maWxlLm1hZT4nLCAnLW9tYWUnLCAnPG91dGZpbGUubWFlPic=

>  <r_epik_Ionization_Penalty>  (202) 
1.96067

>  <r_epik_Ionization_Penalty_Charging>  (202) 
1.96066

>  <r_epik_Ionization_Penalty_Neutral>  (202) 
6.88199e-06

>  <r_epik_State_Penalty>  (202) 
1.76314

>  <r_epik_Charging_Adjusted_Penalty>  (202) 
3.7238

>  <i_epik_Tot_Q>  (202) 
2

>  <i_epik_Tot_abs_Q>  (202) 
2

>  <s_lp_Force_Field>  (202) 
OPLS3e

>  <r_lp_Energy>  (202) 
220.118

>  <b_lp_Chiralities_Consistent>  (202) 
1

>  <s_lp_Variant>  (202) 
57:0-2

>  <s_i_glide_gridfile>  (202) 
pfpi4k_grid

>  <i_i_glide_lignum>  (202) 
42

>  <i_i_glide_rotatable_bonds>  (202) 
7

>  <r_i_docking_score>  (202) 
-4.00858

>  <r_i_glide_ligand_efficiency>  (202) 
-0.111349

>  <r_i_glide_ligand_efficiency_sa>  (202) 
-0.367668

>  <r_i_glide_ligand_efficiency_ln>  (202) 
-0.874563

>  <r_i_glide_gscore>  (202) 
-4.00858

>  <r_i_glide_lipo>  (202) 
-0.481247

>  <r_i_glide_hbond>  (202) 
-0.380564

>  <r_i_glide_metal>  (202) 
-0

>  <r_i_glide_rewards>  (202) 
0

>  <r_i_glide_evdw>  (202) 
-24.9736

>  <r_i_glide_ecoul>  (202) 
-13.5473

>  <r_i_glide_erotb>  (202) 
0.244438

>  <r_i_glide_esite>  (202) 
-0.110433

>  <r_i_glide_emodel>  (202) 
-49.2366

>  <r_i_glide_energy>  (202) 
-38.5209

>  <r_i_glide_einternal>  (202) 
3.25858

>  <r_i_glide_intrahb_reward>  (202) 
-0

>  <i_i_glide_confnum>  (202) 
1

>  <i_i_glide_posenum>  (202) 
25

>  <r_i_glide_eff_state_penalty>  (202) 
0

>  <ligand_id>  (202) 
57

>  <original_smiles>  (202) 
CCNCC1N2CC(C34C=CC5(C=CC(=O)C3C(C)C5)O4)CC3C(O)C4CC3(OC)C3(OC3C2)C41O

>  <smiles>  (202) 
[H]OC1([H])C2([H])C([H])([H])C([H])(C34OC5(C([H])=C([H])C(=O)C3([H])C([H])(C([H])([H])[H])C5([H])[H])C([H])=C4[H])C([H])([H])[N+]3([H])C([H])([H])C4([H])OC45C2(OC([H])([H])[H])C([H])([H])C1([H])C5(O[H])C3([H])C([H])([H])[N+]([H])([H])C([H])([H])C([H])([H])[H]

$$$$
57:1:1
     RDKit          3D

 76 83  0  0  1  0  0  0  0  0999 V2000
    1.3956    1.5594    3.2541 C   0  0  0  0  0  0  0  0  0  0  0  0
    0.8940    0.8041    2.0078 C   0  0  0  0  0  0  0  0  0  0  0  0
    1.7204   -0.3775    1.6759 N   0  0  0  0  0  0  0  0  0  0  0  0
    1.6994   -1.4608    2.7038 C   0  0  0  0  0  0  0  0  0  0  0  0
    2.3698   -2.8123    2.2836 C   0  0  2  0  0  0  0  0  0  0  0  0
    2.0305   -3.8565    3.3279 N   0  0  1  0  0  0  0  0  0  0  0  0
    1.6084   -5.1906    2.7858 C   0  0  0  0  0  0  0  0  0  0  0  0
    2.6163   -6.3920    2.8090 C   0  0  1  0  0  0  0  0  0  0  0  0
    1.8669   -7.7487    3.0037 C   0  0  1  0  0  0  0  0  0  0  0  0
    0.5682   -7.9236    2.1806 C   0  0  0  0  0  0  0  0  0  0  0  0
   -0.4445   -8.3094    2.9920 C   0  0  0  0  0  0  0  0  0  0  0  0
    0.2749   -8.8436    4.1866 C   0  0  1  0  0  0  0  0  0  0  0  0
    0.3548   -8.7796    5.6842 C   0  0  0  0  0  0  0  0  0  0  0  0
    1.6239   -8.8699    6.1947 C   0  0  0  0  0  0  0  0  0  0  0  0
    2.8848   -8.9141    5.2769 C   0  0  0  0  0  0  0  0  0  0  0  0
    4.0282   -8.8838    5.7416 O   0  0  0  0  0  0  0  0  0  0  0  0
    2.7600   -8.9398    3.6671 C   0  0  1  0  0  0  0  0  0  0  0  0
    2.1706  -10.2739    3.2074 C   0  0  1  0  0  0  0  0  0  0  0  0
    2.9965  -11.5171    3.5796 C   0  0  0  0  0  0  0  0  0  0  0  0
    0.7590  -10.2975    3.7844 C   0  0  0  0  0  0  0  0  0  0  0  0
    1.0944   -7.6550    4.1098 O   0  0  0  0  0  0  0  0  0  0  0  0
    3.5491   -6.5685    1.5679 C   0  0  0  0  0  0  0  0  0  0  0  0
    4.4769   -5.4816    0.9337 C   0  0  1  0  0  0  0  0  0  0  0  0
    3.8559   -4.4453   -0.0220 C   0  0  1  0  0  0  0  0  0  0  0  0
    2.4793   -4.5608   -0.3016 O   0  0  0  0  0  0  0  0  0  0  0  0
    4.3851   -3.1035    0.5262 C   0  0  2  0  0  0  0  0  0  0  0  0
    5.8501   -3.5303    0.7817 C   0  0  0  0  0  0  0  0  0  0  0  0
    5.4755   -4.6243    1.7870 C   0  0  2  0  0  0  0  0  0  0  0  0
    6.5284   -5.3559    2.4079 O   0  0  0  0  0  0  0  0  0  0  0  0
    7.4532   -6.0385    1.5604 C   0  0  0  0  0  0  0  0  0  0  0  0
    4.7029   -3.7723    2.7767 C   0  0  2  0  0  0  0  0  0  0  0  0
    5.3093   -3.1986    3.9616 O   0  0  0  0  0  0  0  0  0  0  0  0
    4.3305   -4.2356    4.1517 C   0  0  1  0  0  0  0  0  0  0  0  0
    2.9222   -3.8604    4.5309 C   0  0  0  0  0  0  0  0  0  0  0  0
    3.9060   -2.7631    1.9694 C   0  0  2  0  0  0  0  0  0  0  0  0
    4.3988   -1.4433    2.2175 O   0  0  0  0  0  0  0  0  0  0  0  0
    0.7771    2.4440    3.4219 H   0  0  0  0  0  0  0  0  0  0  0  0
    2.4267    1.8967    3.1219 H   0  0  0  0  0  0  0  0  0  0  0  0
    1.3362    0.9573    4.1629 H   0  0  0  0  0  0  0  0  0  0  0  0
   -0.1581    0.5231    2.1310 H   0  0  0  0  0  0  0  0  0  0  0  0
    0.9103    1.4858    1.1569 H   0  0  0  0  0  0  0  0  0  0  0  0
    1.3793   -0.6996    0.7605 H   0  0  0  0  0  0  0  0  0  0  0  0
    2.1452   -1.1028    3.6400 H   0  0  0  0  0  0  0  0  0  0  0  0
    0.6517   -1.6660    2.9328 H   0  0  0  0  0  0  0  0  0  0  0  0
    1.8316   -3.0425    1.3741 H   0  0  0  0  0  0  0  0  0  0  0  0
    0.7594   -5.4309    3.4311 H   0  0  0  0  0  0  0  0  0  0  0  0
    1.1662   -5.0935    1.7963 H   0  0  0  0  0  0  0  0  0  0  0  0
    3.2181   -6.3520    3.7081 H   0  0  0  0  0  0  0  0  0  0  0  0
    0.4760   -7.6253    1.1417 H   0  0  0  0  0  0  0  0  0  0  0  0
   -1.4720   -8.5037    2.7324 H   0  0  0  0  0  0  0  0  0  0  0  0
   -0.5667   -8.7462    6.2708 H   0  0  0  0  0  0  0  0  0  0  0  0
    1.7717   -8.8697    7.2718 H   0  0  0  0  0  0  0  0  0  0  0  0
    3.7722   -8.8718    3.2792 H   0  0  0  0  0  0  0  0  0  0  0  0
    2.1099  -10.2437    2.1150 H   0  0  0  0  0  0  0  0  0  0  0  0
    3.0624  -11.6802    4.6576 H   0  0  0  0  0  0  0  0  0  0  0  0
    4.0075  -11.4646    3.1777 H   0  0  0  0  0  0  0  0  0  0  0  0
    2.5324  -12.3979    3.1479 H   0  0  0  0  0  0  0  0  0  0  0  0
    0.6991  -10.9905    4.6347 H   0  0  0  0  0  0  0  0  0  0  0  0
    0.0881  -10.7325    3.0448 H   0  0  0  0  0  0  0  0  0  0  0  0
    4.2259   -7.3747    1.8387 H   0  0  0  0  0  0  0  0  0  0  0  0
    2.9498   -6.9882    0.7594 H   0  0  0  0  0  0  0  0  0  0  0  0
    5.0894   -6.0802    0.2604 H   0  0  0  0  0  0  0  0  0  0  0  0
    4.3133   -4.5821   -1.0050 H   0  0  0  0  0  0  0  0  0  0  0  0
    2.4160   -4.9517   -1.1665 H   0  0  0  0  0  0  0  0  0  0  0  0
    4.2648   -2.2727   -0.1688 H   0  0  0  0  0  0  0  0  0  0  0  0
    6.3436   -3.9049   -0.1147 H   0  0  0  0  0  0  0  0  0  0  0  0
    6.4708   -2.7505    1.2199 H   0  0  0  0  0  0  0  0  0  0  0  0
    8.2646   -6.4389    2.1667 H   0  0  0  0  0  0  0  0  0  0  0  0
    7.9080   -5.3829    0.8162 H   0  0  0  0  0  0  0  0  0  0  0  0
    6.9962   -6.8869    1.0502 H   0  0  0  0  0  0  0  0  0  0  0  0
    4.7419   -5.1596    4.5499 H   0  0  0  0  0  0  0  0  0  0  0  0
    2.9573   -2.8720    4.9960 H   0  0  0  0  0  0  0  0  0  0  0  0
    2.5512   -4.5690    5.2798 H   0  0  0  0  0  0  0  0  0  0  0  0
    4.2946   -1.2603    3.1401 H   0  0  0  0  0  0  0  0  0  0  0  0
    2.6760   -0.0877    1.5348 H   0  0  0  0  0  0  0  0  0  0  0  0
    1.1720   -3.5082    3.6987 H   0  0  0  0  0  0  0  0  0  0  0  0
  1  2  1  0
  1 37  1  0
  1 38  1  0
  1 39  1  0
  2  3  1  0
  2 40  1  0
  2 41  1  0
  3  4  1  0
  3 42  1  0
  3 75  1  0
  4  5  1  0
  4 43  1  0
  4 44  1  0
  5 35  1  0
  5  6  1  0
  5 45  1  6
  6 34  1  0
  6  7  1  0
  6 76  1  1
  7  8  1  0
  7 46  1  0
  7 47  1  0
  8  9  1  0
  8 22  1  0
  8 48  1  1
  9 17  1  0
  9 21  1  0
  9 10  1  6
 10 11  2  0
 10 49  1  0
 12 11  1  1
 11 50  1  0
 12 20  1  0
 12 13  1  0
 12 21  1  0
 13 14  2  0
 13 51  1  0
 14 15  1  0
 14 52  1  0
 15 16  2  0
 15 17  1  0
 17 18  1  0
 17 53  1  6
 18 19  1  0
 18 20  1  0
 18 54  1  6
 19 55  1  0
 19 56  1  0
 19 57  1  0
 20 58  1  0
 20 59  1  0
 22 23  1  0
 22 60  1  0
 22 61  1  0
 23 28  1  0
 23 24  1  0
 23 62  1  6
 24 25  1  0
 24 26  1  0
 24 63  1  6
 25 64  1  0
 26 35  1  0
 26 27  1  0
 26 65  1  6
 27 28  1  0
 27 66  1  0
 27 67  1  0
 28 29  1  1
 28 31  1  0
 29 30  1  0
 30 68  1  0
 30 69  1  0
 30 70  1  0
 31 33  1  0
 31 32  1  1
 31 35  1  0
 32 33  1  0
 33 34  1  0
 33 71  1  6
 34 72  1  0
 34 73  1  0
 35 36  1  1
 36 74  1  0
M  CHG  2   3   1   6   1
M  END
>  <i_m_ct_stereo_status>  (203) 
1

>  <s_m_source_file>  (203) 
/var/tmp/pbs.5076255.sched01/tmp3npnc3rz/42_8qtnw6u.sdf

>  <i_m_source_file_index>  (203) 
42

>  <i_lp_mmshare_version>  (203) 
48012

>  <i_f3d_flags>  (203) 
0

>  <s_epik_input>  (203) 
W0NIM11bQ0gyXVtOSF1bQ0gyXVtDQEBIXShbQ0BdMShbT0hdKVtDQEBIXShbQ0gyXTIpW0NAQEhdM1tPSF0pTihbQ0gyXVtDQEBIXTRPNSlbQ0gyXVtDQEBIXShbQ0BAXShPNikoW0NIXT1bQ0hdW0NAQF02NzgpW0NASF0oW0NAQEhdKFtDSDNdKVtDSDJdOClDKD1PKVtDSF09W0NIXTcpW0NIMl1bQ0BASF0zW0NAQF0yKFtDQEBdMTQ1KU9bQ0gzXQ==

>  <s_epik_cmdline>  (203) 
J2VwaWtfcHl0aG9uJywgJy1waHQnLCAnMi4wJywgJy1waCcsICc3LjAnLCAnLXRuJywgJzgnLCAnLW1hJywgJzIwMCcsICctaW1hZScsICc8aW5maWxlLm1hZT4nLCAnLW9tYWUnLCAnPG91dGZpbGUubWFlPic=

>  <r_epik_Ionization_Penalty>  (203) 
1.96067

>  <r_epik_Ionization_Penalty_Charging>  (203) 
1.96066

>  <r_epik_Ionization_Penalty_Neutral>  (203) 
6.88199e-06

>  <r_epik_State_Penalty>  (203) 
1.76314

>  <r_epik_Charging_Adjusted_Penalty>  (203) 
3.7238

>  <i_epik_Tot_Q>  (203) 
2

>  <i_epik_Tot_abs_Q>  (203) 
2

>  <s_lp_Force_Field>  (203) 
OPLS3e

>  <r_lp_Energy>  (203) 
220.118

>  <b_lp_Chiralities_Consistent>  (203) 
1

>  <s_lp_Variant>  (203) 
57:0-2

>  <s_i_glide_gridfile>  (203) 
pfpi4k_grid

>  <i_i_glide_lignum>  (203) 
42

>  <i_i_glide_rotatable_bonds>  (203) 
7

>  <r_i_docking_score>  (203) 
-3.94167

>  <r_i_glide_ligand_efficiency>  (203) 
-0.109491

>  <r_i_glide_ligand_efficiency_sa>  (203) 
-0.361531

>  <r_i_glide_ligand_efficiency_ln>  (203) 
-0.859967

>  <r_i_glide_gscore>  (203) 
-3.94167

>  <r_i_glide_lipo>  (203) 
-0.331101

>  <r_i_glide_hbond>  (203) 
-0.52

>  <r_i_glide_metal>  (203) 
-0

>  <r_i_glide_rewards>  (203) 
0

>  <r_i_glide_evdw>  (203) 
-25.2988

>  <r_i_glide_ecoul>  (203) 
-13.0686

>  <r_i_glide_erotb>  (203) 
0.244438

>  <r_i_glide_esite>  (203) 
-0.109775

>  <r_i_glide_emodel>  (203) 
-47.9246

>  <r_i_glide_energy>  (203) 
-38.3674

>  <r_i_glide_einternal>  (203) 
4.96702

>  <r_i_glide_intrahb_reward>  (203) 
-0

>  <i_i_glide_confnum>  (203) 
4

>  <i_i_glide_posenum>  (203) 
14

>  <r_i_glide_eff_state_penalty>  (203) 
0

>  <ligand_id>  (203) 
57

>  <original_smiles>  (203) 
CCNCC1N2CC(C34C=CC5(C=CC(=O)C3C(C)C5)O4)CC3C(O)C4CC3(OC)C3(OC3C2)C41O

>  <smiles>  (203) 
[H]OC1([H])C2([H])C([H])([H])C([H])(C34OC5(C([H])=C([H])C(=O)C3([H])C([H])(C([H])([H])[H])C5([H])[H])C([H])=C4[H])C([H])([H])[N+]3([H])C([H])([H])C4([H])OC45C2(OC([H])([H])[H])C([H])([H])C1([H])C5(O[H])C3([H])C([H])([H])[N+]([H])([H])C([H])([H])C([H])([H])[H]

$$$$
57:1:2
     RDKit          3D

 76 83  0  0  1  0  0  0  0  0999 V2000
    0.7902    1.9152    3.3343 C   0  0  0  0  0  0  0  0  0  0  0  0
    0.3925    1.3349    1.9729 C   0  0  0  0  0  0  0  0  0  0  0  0
    1.1091    0.0760    1.6814 N   0  0  0  0  0  0  0  0  0  0  0  0
    2.5898    0.1695    1.5344 C   0  0  0  0  0  0  0  0  0  0  0  0
    3.1987   -1.1619    0.9836 C   0  0  2  0  0  0  0  0  0  0  0  0
    2.9581   -2.2267    2.0128 N   0  0  1  0  0  0  0  0  0  0  0  0
    2.4080   -3.5083    1.4877 C   0  0  0  0  0  0  0  0  0  0  0  0
    3.3487   -4.7608    1.3914 C   0  0  1  0  0  0  0  0  0  0  0  0
    2.5770   -6.0902    1.6588 C   0  0  1  0  0  0  0  0  0  0  0  0
    1.3102   -6.3159    0.8013 C   0  0  0  0  0  0  0  0  0  0  0  0
    0.2630   -6.6537    1.5843 C   0  0  0  0  0  0  0  0  0  0  0  0
    0.9283   -7.1088    2.8403 C   0  0  1  0  0  0  0  0  0  0  0  0
    0.9498   -6.9298    4.3364 C   0  0  0  0  0  0  0  0  0  0  0  0
    2.2034   -6.9895    4.8979 C   0  0  0  0  0  0  0  0  0  0  0  0
    3.4959   -7.1083    4.0417 C   0  0  0  0  0  0  0  0  0  0  0  0
    4.6127   -7.0634    4.5525 O   0  0  0  0  0  0  0  0  0  0  0  0
    3.4317   -7.2386    2.4319 C   0  0  1  0  0  0  0  0  0  0  0  0
    2.8528   -8.6017    2.0436 C   0  0  1  0  0  0  0  0  0  0  0  0
    3.6369   -9.8342    2.5332 C   0  0  0  0  0  0  0  0  0  0  0  0
    1.4176   -8.5809    2.5607 C   0  0  0  0  0  0  0  0  0  0  0  0
    1.7553   -5.9322    2.7209 O   0  0  0  0  0  0  0  0  0  0  0  0
    4.1628   -4.9543    0.0709 C   0  0  0  0  0  0  0  0  0  0  0  0
    5.0561   -3.8912   -0.6563 C   0  0  1  0  0  0  0  0  0  0  0  0
    4.3549   -2.8185   -1.5228 C   0  0  1  0  0  0  0  0  0  0  0  0
    2.9459   -2.9079   -1.6059 O   0  0  0  0  0  0  0  0  0  0  0  0
    4.9848   -1.4915   -1.0271 C   0  0  2  0  0  0  0  0  0  0  0  0
    6.4466   -1.9815   -0.9411 C   0  0  0  0  0  0  0  0  0  0  0  0
    6.1558   -3.0705    0.0837 C   0  0  2  0  0  0  0  0  0  0  0  0
    7.2351   -3.8902    0.5482 O   0  0  0  0  0  0  0  0  0  0  0  0
    8.5182   -3.7039   -0.0582 C   0  0  0  0  0  0  0  0  0  0  0  0
    5.5094   -2.2295    1.1630 C   0  0  2  0  0  0  0  0  0  0  0  0
    6.2265   -1.6753    2.2691 O   0  0  0  0  0  0  0  0  0  0  0  0
    5.2861   -2.6954    2.5643 C   0  0  1  0  0  0  0  0  0  0  0  0
    3.9617   -2.2910    3.1145 C   0  0  0  0  0  0  0  0  0  0  0  0
    4.6829   -1.1618    0.4716 C   0  0  2  0  0  0  0  0  0  0  0  0
    5.2535    0.1047    0.7663 O   0  0  0  0  0  0  0  0  0  0  0  0
    0.2422    2.8374    3.5261 H   0  0  0  0  0  0  0  0  0  0  0  0
    1.8513    2.1682    3.3614 H   0  0  0  0  0  0  0  0  0  0  0  0
    0.5807    1.2136    4.1452 H   0  0  0  0  0  0  0  0  0  0  0  0
   -0.6812    1.1243    1.9664 H   0  0  0  0  0  0  0  0  0  0  0  0
    0.5537    2.0576    1.1752 H   0  0  0  0  0  0  0  0  0  0  0  0
    0.8447   -0.5759    2.4133 H   0  0  0  0  0  0  0  0  0  0  0  0
    2.8031    0.9922    0.8655 H   0  0  0  0  0  0  0  0  0  0  0  0
    3.0392    0.4437    2.4885 H   0  0  0  0  0  0  0  0  0  0  0  0
    2.6100   -1.3382    0.1056 H   0  0  0  0  0  0  0  0  0  0  0  0
    1.6238   -3.6987    2.2193 H   0  0  0  0  0  0  0  0  0  0  0  0
    1.8544   -3.3505    0.5630 H   0  0  0  0  0  0  0  0  0  0  0  0
    4.0342   -4.7445    2.2262 H   0  0  0  0  0  0  0  0  0  0  0  0
    1.2788   -6.0728   -0.2549 H   0  0  0  0  0  0  0  0  0  0  0  0
   -0.7602   -6.8523    1.2936 H   0  0  0  0  0  0  0  0  0  0  0  0
    0.0222   -6.8327    4.8937 H   0  0  0  0  0  0  0  0  0  0  0  0
    2.3137   -6.9047    5.9748 H   0  0  0  0  0  0  0  0  0  0  0  0
    4.4560   -7.1908    2.0693 H   0  0  0  0  0  0  0  0  0  0  0  0
    2.8425   -8.6488    0.9521 H   0  0  0  0  0  0  0  0  0  0  0  0
    3.6707   -9.9249    3.6197 H   0  0  0  0  0  0  0  0  0  0  0  0
    4.6608   -9.8268    2.1647 H   0  0  0  0  0  0  0  0  0  0  0  0
    3.1718  -10.7429    2.1546 H   0  0  0  0  0  0  0  0  0  0  0  0
    1.3084   -9.2077    3.4526 H   0  0  0  0  0  0  0  0  0  0  0  0
    0.7759   -9.0660    1.8228 H   0  0  0  0  0  0  0  0  0  0  0  0
    4.8049   -5.8119    0.2608 H   0  0  0  0  0  0  0  0  0  0  0  0
    3.4715   -5.3133   -0.6855 H   0  0  0  0  0  0  0  0  0  0  0  0
    5.5954   -4.5084   -1.3794 H   0  0  0  0  0  0  0  0  0  0  0  0
    4.6955   -2.9616   -2.5497 H   0  0  0  0  0  0  0  0  0  0  0  0
    2.5327   -2.1054   -1.3159 H   0  0  0  0  0  0  0  0  0  0  0  0
    4.8368   -0.6500   -1.7057 H   0  0  0  0  0  0  0  0  0  0  0  0
    6.8416   -2.3651   -1.8864 H   0  0  0  0  0  0  0  0  0  0  0  0
    7.1286   -1.2494   -0.5165 H   0  0  0  0  0  0  0  0  0  0  0  0
    9.2721   -4.2855    0.4723 H   0  0  0  0  0  0  0  0  0  0  0  0
    8.8583   -2.6686   -0.0227 H   0  0  0  0  0  0  0  0  0  0  0  0
    8.5212   -4.0306   -1.0983 H   0  0  0  0  0  0  0  0  0  0  0  0
    5.7318   -3.6301    2.8926 H   0  0  0  0  0  0  0  0  0  0  0  0
    4.0902   -1.3099    3.5782 H   0  0  0  0  0  0  0  0  0  0  0  0
    3.6452   -2.9901    3.8953 H   0  0  0  0  0  0  0  0  0  0  0  0
    5.0732    0.7124    0.0606 H   0  0  0  0  0  0  0  0  0  0  0  0
    0.7526   -0.2433    0.7748 H   0  0  0  0  0  0  0  0  0  0  0  0
    2.1644   -1.8638    2.5092 H   0  0  0  0  0  0  0  0  0  0  0  0
  1  2  1  0
  1 37  1  0
  1 38  1  0
  1 39  1  0
  2  3  1  0
  2 40  1  0
  2 41  1  0
  3  4  1  0
  3 42  1  0
  3 75  1  0
  4  5  1  0
  4 43  1  0
  4 44  1  0
  5 35  1  0
  5  6  1  0
  5 45  1  6
  6 34  1  0
  6  7  1  0
  6 76  1  1
  7  8  1  0
  7 46  1  0
  7 47  1  0
  8  9  1  0
  8 22  1  0
  8 48  1  1
  9 17  1  0
  9 21  1  0
  9 10  1  6
 10 11  2  0
 10 49  1  0
 12 11  1  6
 11 50  1  0
 12 20  1  0
 12 13  1  0
 12 21  1  0
 13 14  2  0
 13 51  1  0
 14 15  1  0
 14 52  1  0
 15 16  2  0
 15 17  1  0
 17 18  1  0
 17 53  1  6
 18 19  1  0
 18 20  1  0
 18 54  1  6
 19 55  1  0
 19 56  1  0
 19 57  1  0
 20 58  1  0
 20 59  1  0
 22 23  1  0
 22 60  1  0
 22 61  1  0
 23 28  1  0
 23 24  1  0
 23 62  1  6
 24 25  1  0
 24 26  1  0
 24 63  1  6
 25 64  1  0
 26 35  1  0
 26 27  1  0
 26 65  1  6
 27 28  1  0
 27 66  1  0
 27 67  1  0
 28 29  1  1
 28 31  1  0
 29 30  1  0
 30 68  1  0
 30 69  1  0
 30 70  1  0
 31 33  1  0
 31 32  1  1
 31 35  1  0
 32 33  1  0
 33 34  1  0
 33 71  1  6
 34 72  1  0
 34 73  1  0
 35 36  1  1
 36 74  1  0
M  CHG  2   3   1   6   1
M  END
>  <i_m_ct_stereo_status>  (204) 
1

>  <s_m_source_file>  (204) 
/var/tmp/pbs.5076255.sched01/tmp3npnc3rz/42_8qtnw6u.sdf

>  <i_m_source_file_index>  (204) 
42

>  <i_lp_mmshare_version>  (204) 
48012

>  <i_f3d_flags>  (204) 
0

>  <s_epik_input>  (204) 
W0NIM11bQ0gyXVtOSF1bQ0gyXVtDQEBIXShbQ0BdMShbT0hdKVtDQEBIXShbQ0gyXTIpW0NAQEhdM1tPSF0pTihbQ0gyXVtDQEBIXTRPNSlbQ0gyXVtDQEBIXShbQ0BAXShPNikoW0NIXT1bQ0hdW0NAQF02NzgpW0NASF0oW0NAQEhdKFtDSDNdKVtDSDJdOClDKD1PKVtDSF09W0NIXTcpW0NIMl1bQ0BASF0zW0NAQF0yKFtDQEBdMTQ1KU9bQ0gzXQ==

>  <s_epik_cmdline>  (204) 
J2VwaWtfcHl0aG9uJywgJy1waHQnLCAnMi4wJywgJy1waCcsICc3LjAnLCAnLXRuJywgJzgnLCAnLW1hJywgJzIwMCcsICctaW1hZScsICc8aW5maWxlLm1hZT4nLCAnLW9tYWUnLCAnPG91dGZpbGUubWFlPic=

>  <r_epik_Ionization_Penalty>  (204) 
1.96067

>  <r_epik_Ionization_Penalty_Charging>  (204) 
1.96066

>  <r_epik_Ionization_Penalty_Neutral>  (204) 
6.88199e-06

>  <r_epik_State_Penalty>  (204) 
1.76314

>  <r_epik_Charging_Adjusted_Penalty>  (204) 
3.7238

>  <i_epik_Tot_Q>  (204) 
2

>  <i_epik_Tot_abs_Q>  (204) 
2

>  <s_lp_Force_Field>  (204) 
OPLS3e

>  <r_lp_Energy>  (204) 
220.118

>  <b_lp_Chiralities_Consistent>  (204) 
1

>  <s_lp_Variant>  (204) 
57:0-2

>  <s_i_glide_gridfile>  (204) 
pfpi4k_grid

>  <i_i_glide_lignum>  (204) 
42

>  <i_i_glide_rotatable_bonds>  (204) 
7

>  <r_i_docking_score>  (204) 
-3.82533

>  <r_i_glide_ligand_efficiency>  (204) 
-0.106259

>  <r_i_glide_ligand_efficiency_sa>  (204) 
-0.35086

>  <r_i_glide_ligand_efficiency_ln>  (204) 
-0.834584

>  <r_i_glide_gscore>  (204) 
-3.82533

>  <r_i_glide_lipo>  (204) 
-0.364232

>  <r_i_glide_hbond>  (204) 
-0.296892

>  <r_i_glide_metal>  (204) 
-0

>  <r_i_glide_rewards>  (204) 
0

>  <r_i_glide_evdw>  (204) 
-25.1638

>  <r_i_glide_ecoul>  (204) 
-13.6008

>  <r_i_glide_erotb>  (204) 
0.244438

>  <r_i_glide_esite>  (204) 
-0.110337

>  <r_i_glide_emodel>  (204) 
-47.2183

>  <r_i_glide_energy>  (204) 
-38.7646

>  <r_i_glide_einternal>  (204) 
5.97198

>  <r_i_glide_intrahb_reward>  (204) 
-0

>  <i_i_glide_confnum>  (204) 
1

>  <i_i_glide_posenum>  (204) 
18

>  <r_i_glide_eff_state_penalty>  (204) 
0

>  <ligand_id>  (204) 
57

>  <original_smiles>  (204) 
CCNCC1N2CC(C34C=CC5(C=CC(=O)C3C(C)C5)O4)CC3C(O)C4CC3(OC)C3(OC3C2)C41O

>  <smiles>  (204) 
[H]OC1([H])C2([H])C([H])([H])C([H])(C34OC5(C([H])=C([H])C(=O)C3([H])C([H])(C([H])([H])[H])C5([H])[H])C([H])=C4[H])C([H])([H])[N+]3([H])C([H])([H])C4([H])OC45C2(OC([H])([H])[H])C([H])([H])C1([H])C5(O[H])C3([H])C([H])([H])[N+]([H])([H])C([H])([H])C([H])([H])[H]

$$$$
57:2:0
     RDKit          3D

 75 82  0  0  1  0  0  0  0  0999 V2000
    1.9264    2.4776    2.7980 C   0  0  0  0  0  0  0  0  0  0  0  0
    1.0347    1.5164    2.0041 C   0  0  0  0  0  0  0  0  0  0  0  0
    1.8241    0.5322    1.2807 N   0  0  0  0  0  0  0  0  0  0  0  0
    2.4805   -0.4103    2.1759 C   0  0  0  0  0  0  0  0  0  0  0  0
    3.0135   -1.6804    1.4473 C   0  0  2  0  0  0  0  0  0  0  0  0
    3.2414   -2.7212    2.4863 N   0  0  1  0  0  0  0  0  0  0  0  0
    2.7128   -4.0651    2.1422 C   0  0  0  0  0  0  0  0  0  0  0  0
    3.6944   -5.2191    1.7387 C   0  0  1  0  0  0  0  0  0  0  0  0
    3.2419   -6.5982    2.3534 C   0  0  1  0  0  0  0  0  0  0  0  0
    3.9329   -7.8392    1.7226 C   0  0  0  0  0  0  0  0  0  0  0  0
    3.0013   -8.7522    1.3711 C   0  0  0  0  0  0  0  0  0  0  0  0
    1.8541   -8.3683    2.2360 C   0  0  1  0  0  0  0  0  0  0  0  0
    0.3771   -8.0982    2.2493 C   0  0  0  0  0  0  0  0  0  0  0  0
   -0.0105   -7.1165    3.1323 C   0  0  0  0  0  0  0  0  0  0  0  0
    1.0110   -6.2997    3.9554 C   0  0  0  0  0  0  0  0  0  0  0  0
    0.6355   -5.3772    4.6881 O   0  0  0  0  0  0  0  0  0  0  0  0
    2.6114   -6.5661    3.8595 C   0  0  1  0  0  0  0  0  0  0  0  0
    2.9317   -7.9000    4.5280 C   0  0  1  0  0  0  0  0  0  0  0  0
    2.5817   -7.9923    6.0268 C   0  0  0  0  0  0  0  0  0  0  0  0
    2.2099   -8.9386    3.6699 C   0  0  0  0  0  0  0  0  0  0  0  0
    2.0703   -6.9961    1.8143 O   0  0  0  0  0  0  0  0  0  0  0  0
    3.9877   -5.3525    0.1927 C   0  0  0  0  0  0  0  0  0  0  0  0
    4.5063   -4.2063   -0.7446 C   0  0  1  0  0  0  0  0  0  0  0  0
    3.4571   -3.2427   -1.3325 C   0  0  1  0  0  0  0  0  0  0  0  0
    2.1196   -3.4380   -0.9401 O   0  0  0  0  0  0  0  0  0  0  0  0
    4.0677   -1.8563   -1.0289 C   0  0  2  0  0  0  0  0  0  0  0  0
    5.5217   -2.1677   -1.4412 C   0  0  0  0  0  0  0  0  0  0  0  0
    5.7059   -3.2596   -0.3825 C   0  0  2  0  0  0  0  0  0  0  0  0
    6.9523   -3.9503   -0.3190 O   0  0  0  0  0  0  0  0  0  0  0  0
    8.1114   -3.2003   -0.6977 C   0  0  0  0  0  0  0  0  0  0  0  0
    5.3897   -2.4746    0.8628 C   0  0  2  0  0  0  0  0  0  0  0  0
    6.4118   -1.8475    1.6560 O   0  0  0  0  0  0  0  0  0  0  0  0
    5.6856   -2.9257    2.2507 C   0  0  1  0  0  0  0  0  0  0  0  0
    4.5533   -2.6442    3.1985 C   0  0  0  0  0  0  0  0  0  0  0  0
    4.2469   -1.5445    0.4911 C   0  0  2  0  0  0  0  0  0  0  0  0
    4.7508   -0.2278    0.5528 O   0  0  0  0  0  0  0  0  0  0  0  0
    1.3263    3.2251    3.3194 H   0  0  0  0  0  0  0  0  0  0  0  0
    2.6115    3.0088    2.1377 H   0  0  0  0  0  0  0  0  0  0  0  0
    2.5173    1.9648    3.5569 H   0  0  0  0  0  0  0  0  0  0  0  0
    0.3052    1.0293    2.6543 H   0  0  0  0  0  0  0  0  0  0  0  0
    0.4504    2.0898    1.2802 H   0  0  0  0  0  0  0  0  0  0  0  0
    3.2638    0.0643    2.7612 H   0  0  0  0  0  0  0  0  0  0  0  0
    1.7145   -0.7420    2.8825 H   0  0  0  0  0  0  0  0  0  0  0  0
    2.1451   -1.9789    0.8783 H   0  0  0  0  0  0  0  0  0  0  0  0
    2.2953   -4.2378    3.1166 H   0  0  0  0  0  0  0  0  0  0  0  0
    1.8371   -4.0422    1.4902 H   0  0  0  0  0  0  0  0  0  0  0  0
    4.6463   -5.1143    2.2381 H   0  0  0  0  0  0  0  0  0  0  0  0
    4.9731   -7.8447    1.4251 H   0  0  0  0  0  0  0  0  0  0  0  0
    3.1300   -9.6789    0.8326 H   0  0  0  0  0  0  0  0  0  0  0  0
   -0.3075   -8.6786    1.6453 H   0  0  0  0  0  0  0  0  0  0  0  0
   -1.0606   -6.8720    3.2384 H   0  0  0  0  0  0  0  0  0  0  0  0
    3.1199   -5.7899    4.4319 H   0  0  0  0  0  0  0  0  0  0  0  0
    4.0120   -8.0458    4.4480 H   0  0  0  0  0  0  0  0  0  0  0  0
    1.5125   -7.8963    6.2204 H   0  0  0  0  0  0  0  0  0  0  0  0
    3.0934   -7.2194    6.6010 H   0  0  0  0  0  0  0  0  0  0  0  0
    2.8939   -8.9580    6.4270 H   0  0  0  0  0  0  0  0  0  0  0  0
    1.3146   -9.3046    4.1815 H   0  0  0  0  0  0  0  0  0  0  0  0
    2.8460   -9.8240    3.5905 H   0  0  0  0  0  0  0  0  0  0  0  0
    4.7509   -6.1171    0.0580 H   0  0  0  0  0  0  0  0  0  0  0  0
    3.0999   -5.7816   -0.2813 H   0  0  0  0  0  0  0  0  0  0  0  0
    4.8546   -4.7622   -1.6196 H   0  0  0  0  0  0  0  0  0  0  0  0
    3.4404   -3.3585   -2.4183 H   0  0  0  0  0  0  0  0  0  0  0  0
    1.6493   -2.6295   -1.1468 H   0  0  0  0  0  0  0  0  0  0  0  0
    3.6025   -1.0457   -1.5926 H   0  0  0  0  0  0  0  0  0  0  0  0
    5.6268   -2.5357   -2.4632 H   0  0  0  0  0  0  0  0  0  0  0  0
    6.1906   -1.3216   -1.3000 H   0  0  0  0  0  0  0  0  0  0  0  0
    9.0124   -3.7892   -0.5311 H   0  0  0  0  0  0  0  0  0  0  0  0
    8.2126   -2.2795   -0.1222 H   0  0  0  0  0  0  0  0  0  0  0  0
    8.0958   -2.9416   -1.7589 H   0  0  0  0  0  0  0  0  0  0  0  0
    6.2872   -3.8181    2.4109 H   0  0  0  0  0  0  0  0  0  0  0  0
    4.7063   -1.6472    3.6186 H   0  0  0  0  0  0  0  0  0  0  0  0
    4.5917   -3.3562    4.0274 H   0  0  0  0  0  0  0  0  0  0  0  0
    4.0588    0.3663    0.2999 H   0  0  0  0  0  0  0  0  0  0  0  0
    1.2254    0.0379    0.5971 H   0  0  0  0  0  0  0  0  0  0  0  0
    2.5988   -2.4413    3.2004 H   0  0  0  0  0  0  0  0  0  0  0  0
  1  2  1  0
  1 37  1  0
  1 38  1  0
  1 39  1  0
  2  3  1  0
  2 40  1  0
  2 41  1  0
  3  4  1  0
  3 74  1  0
  4  5  1  0
  4 42  1  0
  4 43  1  0
  5 35  1  0
  5  6  1  0
  5 44  1  6
  6 34  1  0
  6  7  1  0
  6 75  1  1
  7  8  1  0
  7 45  1  0
  7 46  1  0
  8  9  1  0
  8 22  1  0
  8 47  1  1
  9 17  1  0
  9 21  1  0
  9 10  1  1
 10 11  2  0
 10 48  1  0
 12 11  1  6
 11 49  1  0
 12 20  1  0
 12 13  1  0
 12 21  1  0
 13 14  2  0
 13 50  1  0
 14 15  1  0
 14 51  1  0
 15 16  2  0
 15 17  1  0
 17 18  1  0
 17 52  1  1
 18 19  1  0
 18 20  1  0
 18 53  1  1
 19 54  1  0
 19 55  1  0
 19 56  1  0
 20 57  1  0
 20 58  1  0
 22 23  1  0
 22 59  1  0
 22 60  1  0
 23 28  1  0
 23 24  1  0
 23 61  1  6
 24 25  1  0
 24 26  1  0
 24 62  1  6
 25 63  1  0
 26 35  1  0
 26 27  1  0
 26 64  1  6
 27 28  1  0
 27 65  1  0
 27 66  1  0
 28 29  1  1
 28 31  1  0
 29 30  1  0
 30 67  1  0
 30 68  1  0
 30 69  1  0
 31 33  1  0
 31 32  1  6
 31 35  1  0
 32 33  1  0
 33 34  1  0
 33 70  1  6
 34 71  1  0
 34 72  1  0
 35 36  1  6
 36 73  1  0
M  CHG  1   6   1
M  END
>  <i_m_ct_stereo_status>  (205) 
1

>  <s_m_source_file>  (205) 
/var/tmp/pbs.5076255.sched01/tmptyawoosb/846vw0lfia.sdf

>  <i_m_source_file_index>  (205) 
1

>  <i_lp_mmshare_version>  (205) 
48012

>  <i_f3d_flags>  (205) 
0

>  <s_epik_input>  (205) 
W0NIM11bQ0gyXVtOSF1bQ0gyXVtDQEBIXShbQ0BdMShbT0hdKVtDQEBIXShbQ0gyXTIpW0NAQEhdM1tPSF0pTihbQ0gyXVtDQEBIXTRPNSlbQ0gyXVtDQEBIXShbQ0BAXShPNikoW0NIXT1bQ0hdW0NAQF02NzgpW0NASF0oW0NAQEhdKFtDSDNdKVtDSDJdOClDKD1PKVtDSF09W0NIXTcpW0NIMl1bQ0BASF0zW0NAQF0yKFtDQEBdMTQ1KU9bQ0gzXQ==

>  <s_epik_cmdline>  (205) 
J2VwaWtfcHl0aG9uJywgJy1waHQnLCAnMi4wJywgJy1waCcsICc3LjAnLCAnLXRuJywgJzgnLCAnLW1hJywgJzIwMCcsICctaW1hZScsICc8aW5maWxlLm1hZT4nLCAnLW9tYWUnLCAnPG91dGZpbGUubWFlPic=

>  <r_epik_Ionization_Penalty>  (205) 
1.81985

>  <r_epik_Ionization_Penalty_Charging>  (205) 
1.30257

>  <r_epik_Ionization_Penalty_Neutral>  (205) 
0.517277

>  <r_epik_State_Penalty>  (205) 
1.97325

>  <r_epik_Charging_Adjusted_Penalty>  (205) 
3.27582

>  <i_epik_Tot_Q>  (205) 
1

>  <i_epik_Tot_abs_Q>  (205) 
1

>  <s_lp_Force_Field>  (205) 
OPLS3e

>  <r_lp_Energy>  (205) 
213.964

>  <b_lp_Chiralities_Consistent>  (205) 
1

>  <s_lp_Variant>  (205) 
57:0-3

>  <s_i_glide_gridfile>  (205) 
pfpi4k_grid

>  <i_i_glide_lignum>  (205) 
1

>  <i_i_glide_rotatable_bonds>  (205) 
7

>  <r_i_docking_score>  (205) 
-3.2635

>  <r_i_glide_ligand_efficiency>  (205) 
-0.0906528

>  <r_i_glide_ligand_efficiency_sa>  (205) 
-0.299329

>  <r_i_glide_ligand_efficiency_ln>  (205) 
-0.712008

>  <r_i_glide_gscore>  (205) 
-3.2635

>  <r_i_glide_lipo>  (205) 
-0.346531

>  <r_i_glide_hbond>  (205) 
-0.309833

>  <r_i_glide_metal>  (205) 
-0

>  <r_i_glide_rewards>  (205) 
-0.00259732

>  <r_i_glide_evdw>  (205) 
-29.1691

>  <r_i_glide_ecoul>  (205) 
-8.67521

>  <r_i_glide_erotb>  (205) 
0.17174

>  <r_i_glide_esite>  (205) 
-0.0165416

>  <r_i_glide_emodel>  (205) 
-39.9776

>  <r_i_glide_energy>  (205) 
-37.8444

>  <r_i_glide_einternal>  (205) 
12.2515

>  <r_i_glide_intrahb_reward>  (205) 
-0

>  <i_i_glide_confnum>  (205) 
2

>  <i_i_glide_posenum>  (205) 
13

>  <r_i_glide_eff_state_penalty>  (205) 
0

>  <ligand_id>  (205) 
57

>  <original_smiles>  (205) 
CCNCC1N2CC(C34C=CC5(C=CC(=O)C3C(C)C5)O4)CC3C(O)C4CC3(OC)C3(OC3C2)C41O

>  <smiles>  (205) 
[H]OC1([H])C2([H])C([H])([H])C([H])(C34OC5(C([H])=C([H])C(=O)C3([H])C([H])(C([H])([H])[H])C5([H])[H])C([H])=C4[H])C([H])([H])[N+]3([H])C([H])([H])C4([H])OC45C2(OC([H])([H])[H])C([H])([H])C1([H])C5(O[H])C3([H])C([H])([H])N([H])C([H])([H])C([H])([H])[H]

$$$$
57:2:1
     RDKit          3D

 75 82  0  0  1  0  0  0  0  0999 V2000
    6.3792   -3.1494   -1.9263 C   0  0  0  0  0  0  0  0  0  0  0  0
    5.1575   -3.3120   -1.0157 C   0  0  0  0  0  0  0  0  0  0  0  0
    5.0715   -4.6535   -0.4588 N   0  0  0  0  0  0  0  0  0  0  0  0
    6.1592   -4.9412    0.4844 C   0  0  0  0  0  0  0  0  0  0  0  0
    5.7836   -6.1667    1.3622 C   0  0  2  0  0  0  0  0  0  0  0  0
    4.7429   -5.6917    2.3142 N   0  0  1  0  0  0  0  0  0  0  0  0
    3.5547   -6.5851    2.4535 C   0  0  0  0  0  0  0  0  0  0  0  0
    3.4313   -7.4901    3.7162 C   0  0  1  0  0  0  0  0  0  0  0  0
    1.9244   -7.5317    4.1233 C   0  0  1  0  0  0  0  0  0  0  0  0
    1.4696   -6.2392    4.8522 C   0  0  0  0  0  0  0  0  0  0  0  0
    0.8204   -6.5624    6.0035 C   0  0  0  0  0  0  0  0  0  0  0  0
    0.4222   -7.9725    5.7481 C   0  0  1  0  0  0  0  0  0  0  0  0
    0.4282   -9.3528    6.3363 C   0  0  0  0  0  0  0  0  0  0  0  0
    0.6259  -10.3535    5.4062 C   0  0  0  0  0  0  0  0  0  0  0  0
    0.9006  -10.0721    3.9128 C   0  0  0  0  0  0  0  0  0  0  0  0
    1.1030  -10.9989    3.1243 O   0  0  0  0  0  0  0  0  0  0  0  0
    0.9587   -8.5721    3.3225 C   0  0  1  0  0  0  0  0  0  0  0  0
   -0.4494   -7.9714    3.3271 C   0  0  1  0  0  0  0  0  0  0  0  0
   -1.4948   -8.7019    2.4644 C   0  0  0  0  0  0  0  0  0  0  0  0
   -0.8409   -7.8893    4.8008 C   0  0  0  0  0  0  0  0  0  0  0  0
    1.7777   -8.1886    5.2954 O   0  0  0  0  0  0  0  0  0  0  0  0
    4.0332   -8.9373    3.6269 C   0  0  0  0  0  0  0  0  0  0  0  0
    5.5466   -9.2515    3.3365 C   0  0  1  0  0  0  0  0  0  0  0  0
    5.9542   -9.3423    1.8490 C   0  0  1  0  0  0  0  0  0  0  0  0
    4.9289   -9.1493    0.8987 O   0  0  0  0  0  0  0  0  0  0  0  0
    7.2001   -8.4324    1.7646 C   0  0  2  0  0  0  0  0  0  0  0  0
    7.8852   -8.9140    3.0703 C   0  0  0  0  0  0  0  0  0  0  0  0
    6.7434   -8.4681    3.9925 C   0  0  2  0  0  0  0  0  0  0  0  0
    7.0021   -8.7520    5.3772 O   0  0  0  0  0  0  0  0  0  0  0  0
    5.9059   -8.7951    6.2951 C   0  0  0  0  0  0  0  0  0  0  0  0
    6.7307   -6.9994    3.6147 C   0  0  2  0  0  0  0  0  0  0  0  0
    7.4736   -5.9981    4.3342 O   0  0  0  0  0  0  0  0  0  0  0  0
    6.0403   -5.9231    4.4014 C   0  0  1  0  0  0  0  0  0  0  0  0
    5.2678   -4.9841    3.5219 C   0  0  0  0  0  0  0  0  0  0  0  0
    6.9559   -6.9247    2.0988 C   0  0  2  0  0  0  0  0  0  0  0  0
    8.1930   -6.2709    1.8114 O   0  0  0  0  0  0  0  0  0  0  0  0
    6.4163   -2.1385   -2.3211 H   0  0  0  0  0  0  0  0  0  0  0  0
    6.3362   -3.8431   -2.7671 H   0  0  0  0  0  0  0  0  0  0  0  0
    7.3153   -3.3173   -1.3951 H   0  0  0  0  0  0  0  0  0  0  0  0
    5.1610   -2.5712   -0.2145 H   0  0  0  0  0  0  0  0  0  0  0  0
    4.2520   -3.1304   -1.5976 H   0  0  0  0  0  0  0  0  0  0  0  0
    7.0600   -5.1526   -0.0891 H   0  0  0  0  0  0  0  0  0  0  0  0
    6.3796   -4.0634    1.0993 H   0  0  0  0  0  0  0  0  0  0  0  0
    5.3562   -6.8572    0.6431 H   0  0  0  0  0  0  0  0  0  0  0  0
    2.7215   -5.8841    2.4625 H   0  0  0  0  0  0  0  0  0  0  0  0
    3.3835   -7.1802    1.5550 H   0  0  0  0  0  0  0  0  0  0  0  0
    3.8782   -7.0124    4.5796 H   0  0  0  0  0  0  0  0  0  0  0  0
    1.8211   -5.2534    4.5853 H   0  0  0  0  0  0  0  0  0  0  0  0
    0.4510   -5.9147    6.7758 H   0  0  0  0  0  0  0  0  0  0  0  0
    0.2318   -9.5227    7.3895 H   0  0  0  0  0  0  0  0  0  0  0  0
    0.5871  -11.3908    5.7046 H   0  0  0  0  0  0  0  0  0  0  0  0
    1.3127   -8.6444    2.2913 H   0  0  0  0  0  0  0  0  0  0  0  0
   -0.3556   -6.9625    2.9296 H   0  0  0  0  0  0  0  0  0  0  0  0
   -1.6857   -9.7206    2.8065 H   0  0  0  0  0  0  0  0  0  0  0  0
   -1.1759   -8.7494    1.4241 H   0  0  0  0  0  0  0  0  0  0  0  0
   -2.4433   -8.1673    2.4915 H   0  0  0  0  0  0  0  0  0  0  0  0
   -1.5648   -8.6693    5.0456 H   0  0  0  0  0  0  0  0  0  0  0  0
   -1.3941   -6.9608    4.9634 H   0  0  0  0  0  0  0  0  0  0  0  0
    3.7972   -9.4054    4.5834 H   0  0  0  0  0  0  0  0  0  0  0  0
    3.4515   -9.5255    2.9095 H   0  0  0  0  0  0  0  0  0  0  0  0
    5.6589  -10.2772    3.6927 H   0  0  0  0  0  0  0  0  0  0  0  0
    6.2953  -10.3586    1.6380 H   0  0  0  0  0  0  0  0  0  0  0  0
    4.4735   -9.9804    0.8045 H   0  0  0  0  0  0  0  0  0  0  0  0
    7.7832   -8.5840    0.8521 H   0  0  0  0  0  0  0  0  0  0  0  0
    8.0669   -9.9909    3.0975 H   0  0  0  0  0  0  0  0  0  0  0  0
    8.8372   -8.4124    3.2697 H   0  0  0  0  0  0  0  0  0  0  0  0
    6.2935   -8.9428    7.3073 H   0  0  0  0  0  0  0  0  0  0  0  0
    5.2492   -9.6340    6.0834 H   0  0  0  0  0  0  0  0  0  0  0  0
    5.3216   -7.8827    6.3078 H   0  0  0  0  0  0  0  0  0  0  0  0
    5.6767   -6.0546    5.4170 H   0  0  0  0  0  0  0  0  0  0  0  0
    5.9278   -4.1554    3.2435 H   0  0  0  0  0  0  0  0  0  0  0  0
    4.4436   -4.5723    4.1061 H   0  0  0  0  0  0  0  0  0  0  0  0
    8.9115   -6.8502    2.0305 H   0  0  0  0  0  0  0  0  0  0  0  0
    4.1413   -4.7903   -0.0876 H   0  0  0  0  0  0  0  0  0  0  0  0
    4.3584   -4.9249    1.7868 H   0  0  0  0  0  0  0  0  0  0  0  0
  1  2  1  0
  1 37  1  0
  1 38  1  0
  1 39  1  0
  2  3  1  0
  2 40  1  0
  2 41  1  0
  3  4  1  0
  3 74  1  0
  4  5  1  0
  4 42  1  0
  4 43  1  0
  5 35  1  0
  5  6  1  0
  5 44  1  6
  6 34  1  0
  6  7  1  0
  6 75  1  6
  7  8  1  0
  7 45  1  0
  7 46  1  0
  8  9  1  0
  8 22  1  0
  8 47  1  1
  9 17  1  0
  9 21  1  0
  9 10  1  1
 10 11  2  0
 10 48  1  0
 12 11  1  1
 11 49  1  0
 12 20  1  0
 12 13  1  0
 12 21  1  0
 13 14  2  0
 13 50  1  0
 14 15  1  0
 14 51  1  0
 15 16  2  0
 15 17  1  0
 17 18  1  0
 17 52  1  6
 18 19  1  0
 18 20  1  0
 18 53  1  6
 19 54  1  0
 19 55  1  0
 19 56  1  0
 20 57  1  0
 20 58  1  0
 22 23  1  0
 22 59  1  0
 22 60  1  0
 23 28  1  0
 23 24  1  0
 23 61  1  1
 24 25  1  0
 24 26  1  0
 24 62  1  1
 25 63  1  0
 26 35  1  0
 26 27  1  0
 26 64  1  6
 27 28  1  0
 27 65  1  0
 27 66  1  0
 28 29  1  1
 28 31  1  0
 29 30  1  0
 30 67  1  0
 30 68  1  0
 30 69  1  0
 31 33  1  0
 31 32  1  1
 31 35  1  0
 32 33  1  0
 33 34  1  0
 33 70  1  1
 34 71  1  0
 34 72  1  0
 35 36  1  1
 36 73  1  0
M  CHG  1   6   1
M  END
>  <i_m_ct_stereo_status>  (206) 
1

>  <s_m_source_file>  (206) 
/var/tmp/pbs.5076255.sched01/tmptyawoosb/846vw0lfia.sdf

>  <i_m_source_file_index>  (206) 
1

>  <i_lp_mmshare_version>  (206) 
48012

>  <i_f3d_flags>  (206) 
0

>  <s_epik_input>  (206) 
W0NIM11bQ0gyXVtOSF1bQ0gyXVtDQEBIXShbQ0BdMShbT0hdKVtDQEBIXShbQ0gyXTIpW0NAQEhdM1tPSF0pTihbQ0gyXVtDQEBIXTRPNSlbQ0gyXVtDQEBIXShbQ0BAXShPNikoW0NIXT1bQ0hdW0NAQF02NzgpW0NASF0oW0NAQEhdKFtDSDNdKVtDSDJdOClDKD1PKVtDSF09W0NIXTcpW0NIMl1bQ0BASF0zW0NAQF0yKFtDQEBdMTQ1KU9bQ0gzXQ==

>  <s_epik_cmdline>  (206) 
J2VwaWtfcHl0aG9uJywgJy1waHQnLCAnMi4wJywgJy1waCcsICc3LjAnLCAnLXRuJywgJzgnLCAnLW1hJywgJzIwMCcsICctaW1hZScsICc8aW5maWxlLm1hZT4nLCAnLW9tYWUnLCAnPG91dGZpbGUubWFlPic=

>  <r_epik_Ionization_Penalty>  (206) 
1.81985

>  <r_epik_Ionization_Penalty_Charging>  (206) 
1.30257

>  <r_epik_Ionization_Penalty_Neutral>  (206) 
0.517277

>  <r_epik_State_Penalty>  (206) 
1.97325

>  <r_epik_Charging_Adjusted_Penalty>  (206) 
3.27582

>  <i_epik_Tot_Q>  (206) 
1

>  <i_epik_Tot_abs_Q>  (206) 
1

>  <s_lp_Force_Field>  (206) 
OPLS3e

>  <r_lp_Energy>  (206) 
213.964

>  <b_lp_Chiralities_Consistent>  (206) 
1

>  <s_lp_Variant>  (206) 
57:0-3

>  <s_i_glide_gridfile>  (206) 
pfpi4k_grid

>  <i_i_glide_lignum>  (206) 
1

>  <i_i_glide_rotatable_bonds>  (206) 
7

>  <r_i_docking_score>  (206) 
-2.46402

>  <r_i_glide_ligand_efficiency>  (206) 
-0.0684449

>  <r_i_glide_ligand_efficiency_sa>  (206) 
-0.226

>  <r_i_glide_ligand_efficiency_ln>  (206) 
-0.537582

>  <r_i_glide_gscore>  (206) 
-2.46402

>  <r_i_glide_lipo>  (206) 
-0.692754

>  <r_i_glide_hbond>  (206) 
-0.0902294

>  <r_i_glide_metal>  (206) 
-0

>  <r_i_glide_rewards>  (206) 
-0.00259732

>  <r_i_glide_evdw>  (206) 
-28.5256

>  <r_i_glide_ecoul>  (206) 
-3.20619

>  <r_i_glide_erotb>  (206) 
0.245343

>  <r_i_glide_esite>  (206) 
-0.0165722

>  <r_i_glide_emodel>  (206) 
-35.456

>  <r_i_glide_energy>  (206) 
-31.7317

>  <r_i_glide_einternal>  (206) 
4.62262

>  <r_i_glide_intrahb_reward>  (206) 
-0

>  <i_i_glide_confnum>  (206) 
1

>  <i_i_glide_posenum>  (206) 
1

>  <r_i_glide_eff_state_penalty>  (206) 
0

>  <ligand_id>  (206) 
57

>  <original_smiles>  (206) 
CCNCC1N2CC(C34C=CC5(C=CC(=O)C3C(C)C5)O4)CC3C(O)C4CC3(OC)C3(OC3C2)C41O

>  <smiles>  (206) 
[H]OC1([H])C2([H])C([H])([H])C([H])(C34OC5(C([H])=C([H])C(=O)C3([H])C([H])(C([H])([H])[H])C5([H])[H])C([H])=C4[H])C([H])([H])[N+]3([H])C([H])([H])C4([H])OC45C2(OC([H])([H])[H])C([H])([H])C1([H])C5(O[H])C3([H])C([H])([H])N([H])C([H])([H])C([H])([H])[H]

$$$$
57:2:2
     RDKit          3D

 75 82  0  0  1  0  0  0  0  0999 V2000
    0.3529    1.6328    1.9741 C   0  0  0  0  0  0  0  0  0  0  0  0
    0.7260    0.6874    3.1239 C   0  0  0  0  0  0  0  0  0  0  0  0
    1.3010   -0.5600    2.6432 N   0  0  0  0  0  0  0  0  0  0  0  0
    2.6514   -0.3783    2.0951 C   0  0  0  0  0  0  0  0  0  0  0  0
    3.1154   -1.6854    1.3981 C   0  0  2  0  0  0  0  0  0  0  0  0
    3.3051   -2.7080    2.4601 N   0  0  1  0  0  0  0  0  0  0  0  0
    2.7010   -4.0363    2.1707 C   0  0  0  0  0  0  0  0  0  0  0  0
    3.6368   -5.2293    1.7650 C   0  0  1  0  0  0  0  0  0  0  0  0
    3.0695   -6.5652    2.3420 C   0  0  1  0  0  0  0  0  0  0  0  0
    1.5444   -6.7519    2.1433 C   0  0  0  0  0  0  0  0  0  0  0  0
    0.9550   -7.0277    3.3390 C   0  0  0  0  0  0  0  0  0  0  0  0
    2.1028   -7.5241    4.1506 C   0  0  1  0  0  0  0  0  0  0  0  0
    2.7994   -7.3753    5.4768 C   0  0  0  0  0  0  0  0  0  0  0  0
    4.1713   -7.4940    5.4144 C   0  0  0  0  0  0  0  0  0  0  0  0
    4.9357   -7.6455    4.0726 C   0  0  0  0  0  0  0  0  0  0  0  0
    6.1672   -7.6908    4.0465 O   0  0  0  0  0  0  0  0  0  0  0  0
    4.1584   -7.7392    2.6536 C   0  0  1  0  0  0  0  0  0  0  0  0
    3.4068   -9.0732    2.5731 C   0  0  1  0  0  0  0  0  0  0  0  0
    4.2773  -10.3401    2.6366 C   0  0  0  0  0  0  0  0  0  0  0  0
    2.3548   -9.0100    3.6805 C   0  0  0  0  0  0  0  0  0  0  0  0
    2.8468   -6.3898    3.6658 O   0  0  0  0  0  0  0  0  0  0  0  0
    3.9226   -5.4230    0.2348 C   0  0  0  0  0  0  0  0  0  0  0  0
    4.4999   -4.3243   -0.7351 C   0  0  1  0  0  0  0  0  0  0  0  0
    3.4993   -3.3219   -1.3526 C   0  0  1  0  0  0  0  0  0  0  0  0
    2.1526   -3.4468   -0.9593 O   0  0  0  0  0  0  0  0  0  0  0  0
    4.1747   -1.9550   -1.0861 C   0  0  2  0  0  0  0  0  0  0  0  0
    5.6112   -2.3505   -1.4880 C   0  0  0  0  0  0  0  0  0  0  0  0
    5.7394   -3.4194   -0.3995 C   0  0  2  0  0  0  0  0  0  0  0  0
    6.9510   -4.1667   -0.3165 O   0  0  0  0  0  0  0  0  0  0  0  0
    8.1440   -3.4819   -0.7054 C   0  0  0  0  0  0  0  0  0  0  0  0
    5.4597   -2.5818    0.8199 C   0  0  2  0  0  0  0  0  0  0  0  0
    6.5156   -1.9847    1.5920 O   0  0  0  0  0  0  0  0  0  0  0  0
    5.7381   -3.0130    2.2196 C   0  0  1  0  0  0  0  0  0  0  0  0
    4.6197   -2.6603    3.1636 C   0  0  0  0  0  0  0  0  0  0  0  0
    4.3595   -1.6026    0.4314 C   0  0  2  0  0  0  0  0  0  0  0  0
    4.9151   -0.2956    0.4746 O   0  0  0  0  0  0  0  0  0  0  0  0
   -0.1156    2.5372    2.3630 H   0  0  0  0  0  0  0  0  0  0  0  0
   -0.3535    1.1624    1.2881 H   0  0  0  0  0  0  0  0  0  0  0  0
    1.2187    1.9529    1.3958 H   0  0  0  0  0  0  0  0  0  0  0  0
    1.3994    1.1642    3.8365 H   0  0  0  0  0  0  0  0  0  0  0  0
   -0.1802    0.4446    3.6806 H   0  0  0  0  0  0  0  0  0  0  0  0
    2.6385    0.4061    1.3394 H   0  0  0  0  0  0  0  0  0  0  0  0
    3.3354   -0.0612    2.8856 H   0  0  0  0  0  0  0  0  0  0  0  0
    2.2448   -1.9290    0.8025 H   0  0  0  0  0  0  0  0  0  0  0  0
    2.2278   -4.2421    3.1294 H   0  0  0  0  0  0  0  0  0  0  0  0
    1.8520   -3.9593    1.4931 H   0  0  0  0  0  0  0  0  0  0  0  0
    4.5865   -5.1615    2.2766 H   0  0  0  0  0  0  0  0  0  0  0  0
    1.0383   -6.4895    1.2279 H   0  0  0  0  0  0  0  0  0  0  0  0
   -0.0876   -7.1427    3.5725 H   0  0  0  0  0  0  0  0  0  0  0  0
    2.2361   -7.2575    6.3952 H   0  0  0  0  0  0  0  0  0  0  0  0
    4.7561   -7.4413    6.3258 H   0  0  0  0  0  0  0  0  0  0  0  0
    4.9197   -7.7179    1.8725 H   0  0  0  0  0  0  0  0  0  0  0  0
    2.9022   -9.0887    1.6064 H   0  0  0  0  0  0  0  0  0  0  0  0
    4.7965  -10.4534    3.5885 H   0  0  0  0  0  0  0  0  0  0  0  0
    5.0211  -10.3475    1.8396 H   0  0  0  0  0  0  0  0  0  0  0  0
    3.6506  -11.2221    2.5020 H   0  0  0  0  0  0  0  0  0  0  0  0
    2.6473   -9.6459    4.5211 H   0  0  0  0  0  0  0  0  0  0  0  0
    1.4314   -9.4693    3.3162 H   0  0  0  0  0  0  0  0  0  0  0  0
    4.6136   -6.2634    0.1652 H   0  0  0  0  0  0  0  0  0  0  0  0
    3.0102   -5.8107   -0.2258 H   0  0  0  0  0  0  0  0  0  0  0  0
    4.8235   -4.9226   -1.5895 H   0  0  0  0  0  0  0  0  0  0  0  0
    3.4785   -3.4653   -2.4356 H   0  0  0  0  0  0  0  0  0  0  0  0
    1.7168   -2.6168   -1.1552 H   0  0  0  0  0  0  0  0  0  0  0  0
    3.7532   -1.1427   -1.6802 H   0  0  0  0  0  0  0  0  0  0  0  0
    5.7015   -2.7507   -2.4982 H   0  0  0  0  0  0  0  0  0  0  0  0
    6.3234   -1.5370   -1.3712 H   0  0  0  0  0  0  0  0  0  0  0  0
    9.0146   -4.1126   -0.5205 H   0  0  0  0  0  0  0  0  0  0  0  0
    8.2916   -2.5505   -0.1542 H   0  0  0  0  0  0  0  0  0  0  0  0
    8.1440   -3.2524   -1.7761 H   0  0  0  0  0  0  0  0  0  0  0  0
    6.2985   -3.9278    2.4019 H   0  0  0  0  0  0  0  0  0  0  0  0
    4.8141   -1.6556    3.5495 H   0  0  0  0  0  0  0  0  0  0  0  0
    4.6259   -3.3487    4.0148 H   0  0  0  0  0  0  0  0  0  0  0  0
    4.3188    0.3136    0.0678 H   0  0  0  0  0  0  0  0  0  0  0  0
    1.2814   -1.2059    3.4204 H   0  0  0  0  0  0  0  0  0  0  0  0
    2.6756   -2.3517    3.1536 H   0  0  0  0  0  0  0  0  0  0  0  0
  1  2  1  0
  1 37  1  0
  1 38  1  0
  1 39  1  0
  2  3  1  0
  2 40  1  0
  2 41  1  0
  3  4  1  0
  3 74  1  0
  4  5  1  0
  4 42  1  0
  4 43  1  0
  5 35  1  0
  5  6  1  0
  5 44  1  6
  6 34  1  0
  6  7  1  0
  6 75  1  1
  7  8  1  0
  7 45  1  0
  7 46  1  0
  8  9  1  0
  8 22  1  0
  8 47  1  1
  9 17  1  0
  9 21  1  0
  9 10  1  6
 10 11  2  0
 10 48  1  0
 12 11  1  1
 11 49  1  0
 12 20  1  0
 12 13  1  0
 12 21  1  0
 13 14  2  0
 13 50  1  0
 14 15  1  0
 14 51  1  0
 15 16  2  0
 15 17  1  0
 17 18  1  0
 17 52  1  6
 18 19  1  0
 18 20  1  0
 18 53  1  6
 19 54  1  0
 19 55  1  0
 19 56  1  0
 20 57  1  0
 20 58  1  0
 22 23  1  0
 22 59  1  0
 22 60  1  0
 23 28  1  0
 23 24  1  0
 23 61  1  6
 24 25  1  0
 24 26  1  0
 24 62  1  6
 25 63  1  0
 26 35  1  0
 26 27  1  0
 26 64  1  6
 27 28  1  0
 27 65  1  0
 27 66  1  0
 28 29  1  1
 28 31  1  0
 29 30  1  0
 30 67  1  0
 30 68  1  0
 30 69  1  0
 31 33  1  0
 31 32  1  6
 31 35  1  0
 32 33  1  0
 33 34  1  0
 33 70  1  6
 34 71  1  0
 34 72  1  0
 35 36  1  6
 36 73  1  0
M  CHG  1   6   1
M  END
>  <i_m_ct_stereo_status>  (207) 
1

>  <s_m_source_file>  (207) 
/var/tmp/pbs.5076255.sched01/tmptyawoosb/846vw0lfia.sdf

>  <i_m_source_file_index>  (207) 
1

>  <i_lp_mmshare_version>  (207) 
48012

>  <i_f3d_flags>  (207) 
0

>  <s_epik_input>  (207) 
W0NIM11bQ0gyXVtOSF1bQ0gyXVtDQEBIXShbQ0BdMShbT0hdKVtDQEBIXShbQ0gyXTIpW0NAQEhdM1tPSF0pTihbQ0gyXVtDQEBIXTRPNSlbQ0gyXVtDQEBIXShbQ0BAXShPNikoW0NIXT1bQ0hdW0NAQF02NzgpW0NASF0oW0NAQEhdKFtDSDNdKVtDSDJdOClDKD1PKVtDSF09W0NIXTcpW0NIMl1bQ0BASF0zW0NAQF0yKFtDQEBdMTQ1KU9bQ0gzXQ==

>  <s_epik_cmdline>  (207) 
J2VwaWtfcHl0aG9uJywgJy1waHQnLCAnMi4wJywgJy1waCcsICc3LjAnLCAnLXRuJywgJzgnLCAnLW1hJywgJzIwMCcsICctaW1hZScsICc8aW5maWxlLm1hZT4nLCAnLW9tYWUnLCAnPG91dGZpbGUubWFlPic=

>  <r_epik_Ionization_Penalty>  (207) 
1.81985

>  <r_epik_Ionization_Penalty_Charging>  (207) 
1.30257

>  <r_epik_Ionization_Penalty_Neutral>  (207) 
0.517277

>  <r_epik_State_Penalty>  (207) 
1.97325

>  <r_epik_Charging_Adjusted_Penalty>  (207) 
3.27582

>  <i_epik_Tot_Q>  (207) 
1

>  <i_epik_Tot_abs_Q>  (207) 
1

>  <s_lp_Force_Field>  (207) 
OPLS3e

>  <r_lp_Energy>  (207) 
213.964

>  <b_lp_Chiralities_Consistent>  (207) 
1

>  <s_lp_Variant>  (207) 
57:0-3

>  <s_i_glide_gridfile>  (207) 
pfpi4k_grid

>  <i_i_glide_lignum>  (207) 
1

>  <i_i_glide_rotatable_bonds>  (207) 
7

>  <r_i_docking_score>  (207) 
-2.31513

>  <r_i_glide_ligand_efficiency>  (207) 
-0.0643092

>  <r_i_glide_ligand_efficiency_sa>  (207) 
-0.212344

>  <r_i_glide_ligand_efficiency_ln>  (207) 
-0.505099

>  <r_i_glide_gscore>  (207) 
-2.31513

>  <r_i_glide_lipo>  (207) 
-0.39219

>  <r_i_glide_hbond>  (207) 
-0.160264

>  <r_i_glide_metal>  (207) 
-0

>  <r_i_glide_rewards>  (207) 
-0.00259732

>  <r_i_glide_evdw>  (207) 
-26.9235

>  <r_i_glide_ecoul>  (207) 
-4.39497

>  <r_i_glide_erotb>  (207) 
0.245343

>  <r_i_glide_esite>  (207) 
0

>  <r_i_glide_emodel>  (207) 
-34.3003

>  <r_i_glide_energy>  (207) 
-31.3185

>  <r_i_glide_einternal>  (207) 
5.75978

>  <r_i_glide_intrahb_reward>  (207) 
-0

>  <i_i_glide_confnum>  (207) 
2

>  <i_i_glide_posenum>  (207) 
2

>  <r_i_glide_eff_state_penalty>  (207) 
0

>  <ligand_id>  (207) 
57

>  <original_smiles>  (207) 
CCNCC1N2CC(C34C=CC5(C=CC(=O)C3C(C)C5)O4)CC3C(O)C4CC3(OC)C3(OC3C2)C41O

>  <smiles>  (207) 
[H]OC1([H])C2([H])C([H])([H])C([H])(C34OC5(C([H])=C([H])C(=O)C3([H])C([H])(C([H])([H])[H])C5([H])[H])C([H])=C4[H])C([H])([H])[N+]3([H])C([H])([H])C4([H])OC45C2(OC([H])([H])[H])C([H])([H])C1([H])C5(O[H])C3([H])C([H])([H])N([H])C([H])([H])C([H])([H])[H]

$$$$
58:0:0
     RDKit          3D

 56 60  0  0  1  0  0  0  0  0999 V2000
    2.6911   -7.8499    5.9265 C   0  0  0  0  0  0  0  0  0  0  0  0
    1.9112   -7.6844    4.5919 C   0  0  2  0  0  0  0  0  0  0  0  0
    0.6772   -8.6243    4.4832 C   0  0  2  0  0  0  0  0  0  0  0  0
    1.0046  -10.1160    4.6474 C   0  0  0  0  0  0  0  0  0  0  0  0
    0.6134  -10.6769    5.6604 O   0  0  0  0  0  0  0  0  0  0  0  0
    1.8279  -10.8660    3.5811 C   0  0  0  0  0  0  0  0  0  0  0  0
    3.2423  -10.3654    3.5862 C   0  0  0  0  0  0  0  0  0  0  0  0
    3.6107   -9.0752    3.4672 C   0  0  0  0  0  0  0  0  0  0  0  0
    5.0437   -8.7480    3.8007 C   0  0  0  0  0  0  0  0  0  0  0  0
    5.8896   -9.6038    4.0453 O   0  0  0  0  0  0  0  0  0  0  0  0
    5.3927   -7.4129    3.8568 O   0  0  0  0  0  0  0  0  0  0  0  0
    4.5378   -6.3099    3.5341 C   0  0  0  0  0  0  0  0  0  0  0  0
    3.4556   -6.7449    2.5592 C   0  0  2  0  0  0  0  0  0  0  0  0
    4.1662   -7.1634    1.2126 C   0  0  0  0  0  0  0  0  0  0  0  0
    2.3668   -5.7067    2.2316 C   0  0  1  0  0  0  0  0  0  0  0  0
    2.7673   -4.6619    1.3492 O   0  0  0  0  0  0  0  0  0  0  0  0
    3.3788   -3.5597    1.8503 C   0  0  0  0  0  0  0  0  0  0  0  0
    3.4998   -3.3335    3.0550 O   0  0  0  0  0  0  0  0  0  0  0  0
    3.9374   -2.6665    0.7983 C   0  0  0  0  0  0  0  0  0  0  0  0
    4.7279   -1.5470    1.1427 C   0  0  0  0  0  0  0  0  0  0  0  0
    5.2547   -0.7394    0.1171 C   0  0  0  0  0  0  0  0  0  0  0  0
    4.9561   -1.0767   -1.2178 C   0  0  0  0  0  0  0  0  0  0  0  0
    4.2197   -2.1486   -1.5650 N   0  0  0  0  0  0  0  0  0  0  0  0
    3.7140   -2.9121   -0.5760 C   0  0  0  0  0  0  0  0  0  0  0  0
    1.3390   -6.6259    1.5952 C   0  0  0  0  0  0  0  0  0  0  0  0
    0.5781   -6.2974    0.6768 O   0  0  0  0  0  0  0  0  0  0  0  0
    1.3699   -8.0108    2.2642 C   0  0  2  0  0  0  0  0  0  0  0  0
    0.0663   -8.2718    3.1209 C   0  0  0  0  0  0  0  0  0  0  0  0
   -0.8903   -9.3170    2.4834 C   0  0  0  0  0  0  0  0  0  0  0  0
   -0.8712   -7.0536    3.3813 C   0  0  0  0  0  0  0  0  0  0  0  0
    2.6416   -7.9019    3.2208 C   0  0  2  0  0  0  0  0  0  0  0  0
    3.1076   -8.8489    6.0744 H   0  0  0  0  0  0  0  0  0  0  0  0
    2.0312   -7.6627    6.7761 H   0  0  0  0  0  0  0  0  0  0  0  0
    3.5132   -7.1381    6.0078 H   0  0  0  0  0  0  0  0  0  0  0  0
    1.5349   -6.6655    4.6467 H   0  0  0  0  0  0  0  0  0  0  0  0
   -0.0239   -8.4005    5.2835 H   0  0  0  0  0  0  0  0  0  0  0  0
    1.8490  -11.9283    3.8381 H   0  0  0  0  0  0  0  0  0  0  0  0
    1.4328  -10.8007    2.5705 H   0  0  0  0  0  0  0  0  0  0  0  0
    3.9754  -11.1286    3.7987 H   0  0  0  0  0  0  0  0  0  0  0  0
    4.0934   -5.8540    4.4185 H   0  0  0  0  0  0  0  0  0  0  0  0
    5.1458   -5.5354    3.0664 H   0  0  0  0  0  0  0  0  0  0  0  0
    3.5116   -7.6729    0.5051 H   0  0  0  0  0  0  0  0  0  0  0  0
    5.0123   -7.8364    1.3464 H   0  0  0  0  0  0  0  0  0  0  0  0
    4.5725   -6.2940    0.6899 H   0  0  0  0  0  0  0  0  0  0  0  0
    1.9104   -5.2775    3.1279 H   0  0  0  0  0  0  0  0  0  0  0  0
    4.9504   -1.3048    2.1757 H   0  0  0  0  0  0  0  0  0  0  0  0
    5.8622    0.1318    0.3353 H   0  0  0  0  0  0  0  0  0  0  0  0
    5.3201   -0.4797   -2.0377 H   0  0  0  0  0  0  0  0  0  0  0  0
    3.1281   -3.7525   -0.9133 H   0  0  0  0  0  0  0  0  0  0  0  0
    1.5135   -8.7895    1.5102 H   0  0  0  0  0  0  0  0  0  0  0  0
   -1.3982   -8.8940    1.6158 H   0  0  0  0  0  0  0  0  0  0  0  0
   -1.6625   -9.6304    3.1888 H   0  0  0  0  0  0  0  0  0  0  0  0
   -0.4061  -10.2180    2.1192 H   0  0  0  0  0  0  0  0  0  0  0  0
   -1.3845   -6.7472    2.4692 H   0  0  0  0  0  0  0  0  0  0  0  0
   -0.3690   -6.1842    3.8032 H   0  0  0  0  0  0  0  0  0  0  0  0
   -1.6562   -7.3278    4.0890 H   0  0  0  0  0  0  0  0  0  0  0  0
  1  2  1  0
  1 32  1  0
  1 33  1  0
  1 34  1  0
  2 31  1  0
  2  3  1  0
  2 35  1  6
  3 28  1  0
  3  4  1  0
  3 36  1  1
  4  5  2  0
  4  6  1  0
  6  7  1  0
  6 37  1  0
  6 38  1  0
  7  8  2  0
  7 39  1  0
 31  8  1  1
  8  9  1  0
  9 10  2  0
  9 11  1  0
 11 12  1  0
 12 13  1  0
 12 40  1  0
 12 41  1  0
 13 31  1  0
 13 14  1  6
 13 15  1  0
 14 42  1  0
 14 43  1  0
 14 44  1  0
 15 16  1  0
 15 25  1  0
 15 45  1  1
 16 17  1  0
 17 18  2  0
 17 19  1  0
 19 24  1  0
 19 20  2  0
 20 21  1  0
 20 46  1  0
 21 22  2  0
 21 47  1  0
 22 23  1  0
 22 48  1  0
 23 24  2  0
 24 49  1  0
 25 26  2  0
 25 27  1  0
 27 28  1  0
 27 31  1  0
 27 50  1  6
 28 29  1  0
 28 30  1  0
 29 51  1  0
 29 52  1  0
 29 53  1  0
 30 54  1  0
 30 55  1  0
 30 56  1  0
M  END
>  <i_m_ct_stereo_status>  (208) 
1

>  <s_m_source_file>  (208) 
/var/tmp/pbs.5076255.sched01/tmptyawoosb/846vw0lfia.sdf

>  <i_m_source_file_index>  (208) 
2

>  <i_lp_mmshare_version>  (208) 
48012

>  <i_f3d_flags>  (208) 
0

>  <s_epik_input>  (208) 
W0NAXTEyM0M0PVtDSF1bQ0gyXUMoPU8pW0NAQEhdKFtDQEhdMVtDSDNdKUMoW0NIM10pKFtDSDNdKVtDQEhdM0MoPU8pW0NAQEhdKFtDQEBdMihbQ0gzXSlbQ0gyXU9DND1PKU9DKD1PKWM1W2NIXVtjSF1bY0hdbltjSF01

>  <s_epik_cmdline>  (208) 
J2VwaWtfcHl0aG9uJywgJy1waHQnLCAnMi4wJywgJy1waCcsICc3LjAnLCAnLXRuJywgJzgnLCAnLW1hJywgJzIwMCcsICctaW1hZScsICc8aW5maWxlLm1hZT4nLCAnLW9tYWUnLCAnPG91dGZpbGUubWFlPic=

>  <r_lp_tautomer_probability>  (208) 
1

>  <r_epik_Ionization_Penalty>  (208) 
9.06945e-05

>  <r_epik_Ionization_Penalty_Charging>  (208) 
0

>  <r_epik_Ionization_Penalty_Neutral>  (208) 
9.06945e-05

>  <r_epik_State_Penalty>  (208) 
-0

>  <r_epik_Charging_Adjusted_Penalty>  (208) 
0

>  <i_epik_Tot_Q>  (208) 
0

>  <i_epik_Tot_abs_Q>  (208) 
0

>  <s_epik_Chemistry_Notes>  (208) 
This compound has an ester and may undergo hydrolysis at high or low pH.

>  <s_lp_Force_Field>  (208) 
OPLS3e

>  <r_lp_Energy>  (208) 
65.4113

>  <b_lp_Chiralities_Consistent>  (208) 
1

>  <s_lp_Variant>  (208) 
58:0-1

>  <s_i_glide_gridfile>  (208) 
pfpi4k_grid

>  <i_i_glide_lignum>  (208) 
2

>  <i_i_glide_rotatable_bonds>  (208) 
3

>  <r_i_docking_score>  (208) 
-3.03596

>  <r_i_glide_ligand_efficiency>  (208) 
-0.0979343

>  <r_i_glide_ligand_efficiency_sa>  (208) 
-0.307649

>  <r_i_glide_ligand_efficiency_ln>  (208) 
-0.684703

>  <r_i_glide_gscore>  (208) 
-3.03596

>  <r_i_glide_lipo>  (208) 
-0.478716

>  <r_i_glide_hbond>  (208) 
-0.16

>  <r_i_glide_metal>  (208) 
-0

>  <r_i_glide_rewards>  (208) 
-0.524899

>  <r_i_glide_evdw>  (208) 
-33.3641

>  <r_i_glide_ecoul>  (208) 
-2.89744

>  <r_i_glide_erotb>  (208) 
0.331585

>  <r_i_glide_esite>  (208) 
-0.101113

>  <r_i_glide_emodel>  (208) 
-43.285

>  <r_i_glide_energy>  (208) 
-36.2615

>  <r_i_glide_einternal>  (208) 
0.69439

>  <r_i_glide_intrahb_reward>  (208) 
-0

>  <i_i_glide_confnum>  (208) 
5

>  <i_i_glide_posenum>  (208) 
31

>  <r_i_glide_eff_state_penalty>  (208) 
0

>  <ligand_id>  (208) 
58

>  <original_smiles>  (208) 
CC1C2C(=O)CC=C3C(=O)OCC4(C)C(OC(=O)c5cccnc5)C(=O)C(C2(C)C)C314

>  <smiles>  (208) 
[H]C1=C2C(=O)OC([H])([H])C3(C([H])([H])[H])C([H])(OC(=O)c4c([H])nc([H])c([H])c4[H])C(=O)C4([H])C23C([H])(C([H])([H])[H])C([H])(C(=O)C1([H])[H])C4(C([H])([H])[H])C([H])([H])[H]

$$$$
58:0:1
     RDKit          3D

 56 60  0  0  1  0  0  0  0  0999 V2000
    3.5634   -8.5711    5.9690 C   0  0  0  0  0  0  0  0  0  0  0  0
    2.7539   -8.0145    4.7644 C   0  0  2  0  0  0  0  0  0  0  0  0
    1.2114   -8.0982    4.9805 C   0  0  2  0  0  0  0  0  0  0  0  0
    0.6756   -9.5164    5.2768 C   0  0  0  0  0  0  0  0  0  0  0  0
    0.2110   -9.7606    6.3863 O   0  0  0  0  0  0  0  0  0  0  0  0
    0.7368  -10.5998    4.1817 C   0  0  0  0  0  0  0  0  0  0  0  0
    2.1578  -10.9804    3.9001 C   0  0  0  0  0  0  0  0  0  0  0  0
    3.1447  -10.1352    3.5708 C   0  0  0  0  0  0  0  0  0  0  0  0
    4.5751  -10.6589    3.6270 C   0  0  0  0  0  0  0  0  0  0  0  0
    4.8108  -11.8394    3.8540 O   0  0  0  0  0  0  0  0  0  0  0  0
    5.5753   -9.7445    3.4524 O   0  0  0  0  0  0  0  0  0  0  0  0
    5.4344   -8.3572    3.1361 C   0  0  0  0  0  0  0  0  0  0  0  0
    4.1165   -8.1221    2.4046 C   0  0  2  0  0  0  0  0  0  0  0  0
    4.2104   -8.8932    1.0334 C   0  0  0  0  0  0  0  0  0  0  0  0
    3.7127   -6.6596    2.0875 C   0  0  1  0  0  0  0  0  0  0  0  0
    4.5345   -6.0345    1.1027 O   0  0  0  0  0  0  0  0  0  0  0  0
    4.3954   -4.7233    0.7582 C   0  0  0  0  0  0  0  0  0  0  0  0
    3.3671   -4.0649    0.8950 O   0  0  0  0  0  0  0  0  0  0  0  0
    5.6540   -4.1271    0.2428 C   0  0  0  0  0  0  0  0  0  0  0  0
    6.9137   -4.6983    0.5288 C   0  0  0  0  0  0  0  0  0  0  0  0
    8.0838   -4.0414    0.0774 C   0  0  0  0  0  0  0  0  0  0  0  0
    7.9374   -2.8407   -0.6534 C   0  0  0  0  0  0  0  0  0  0  0  0
    6.7489   -2.2728   -0.9220 N   0  0  0  0  0  0  0  0  0  0  0  0
    5.6362   -2.9051   -0.4845 C   0  0  0  0  0  0  0  0  0  0  0  0
    2.2345   -6.8908    1.7595 C   0  0  0  0  0  0  0  0  0  0  0  0
    1.5559   -6.2859    0.9038 O   0  0  0  0  0  0  0  0  0  0  0  0
    1.6686   -8.0269    2.6086 C   0  0  2  0  0  0  0  0  0  0  0  0
    0.6545   -7.4689    3.6881 C   0  0  0  0  0  0  0  0  0  0  0  0
   -0.8231   -7.7938    3.3277 C   0  0  0  0  0  0  0  0  0  0  0  0
    0.6344   -5.9289    3.9270 C   0  0  0  0  0  0  0  0  0  0  0  0
    2.9585   -8.6231    3.3309 C   0  0  2  0  0  0  0  0  0  0  0  0
    3.3767   -9.6271    6.1731 H   0  0  0  0  0  0  0  0  0  0  0  0
    3.3016   -8.0295    6.8814 H   0  0  0  0  0  0  0  0  0  0  0  0
    4.6390   -8.4479    5.8337 H   0  0  0  0  0  0  0  0  0  0  0  0
    3.0268   -6.9626    4.7473 H   0  0  0  0  0  0  0  0  0  0  0  0
    0.9348   -7.4913    5.8447 H   0  0  0  0  0  0  0  0  0  0  0  0
    0.2116  -11.4889    4.5496 H   0  0  0  0  0  0  0  0  0  0  0  0
    0.2526  -10.3280    3.2495 H   0  0  0  0  0  0  0  0  0  0  0  0
    2.3736  -12.0262    4.0857 H   0  0  0  0  0  0  0  0  0  0  0  0
    5.5038   -7.7281    4.0228 H   0  0  0  0  0  0  0  0  0  0  0  0
    6.2669   -8.0741    2.4933 H   0  0  0  0  0  0  0  0  0  0  0  0
    3.2622   -8.9888    0.5029 H   0  0  0  0  0  0  0  0  0  0  0  0
    4.5687   -9.9186    1.1286 H   0  0  0  0  0  0  0  0  0  0  0  0
    4.9173   -8.4153    0.3502 H   0  0  0  0  0  0  0  0  0  0  0  0
    3.7822   -6.0586    3.0018 H   0  0  0  0  0  0  0  0  0  0  0  0
    7.0082   -5.5983    1.1074 H   0  0  0  0  0  0  0  0  0  0  0  0
    9.0540   -4.4540    0.2869 H   0  0  0  0  0  0  0  0  0  0  0  0
    8.8093   -2.3219   -1.0239 H   0  0  0  0  0  0  0  0  0  0  0  0
    4.7019   -2.4142   -0.7008 H   0  0  0  0  0  0  0  0  0  0  0  0
    1.2092   -8.7605    1.9540 H   0  0  0  0  0  0  0  0  0  0  0  0
   -1.1619   -7.1733    2.4969 H   0  0  0  0  0  0  0  0  0  0  0  0
   -1.4912   -7.6052    4.1704 H   0  0  0  0  0  0  0  0  0  0  0  0
   -0.9976   -8.8175    3.0048 H   0  0  0  0  0  0  0  0  0  0  0  0
    0.2357   -5.3849    3.0739 H   0  0  0  0  0  0  0  0  0  0  0  0
    1.6033   -5.4886    4.1510 H   0  0  0  0  0  0  0  0  0  0  0  0
   -0.0132   -5.6771    4.7698 H   0  0  0  0  0  0  0  0  0  0  0  0
  1  2  1  0
  1 32  1  0
  1 33  1  0
  1 34  1  0
  2 31  1  0
  2  3  1  0
  2 35  1  6
  3 28  1  0
  3  4  1  0
  3 36  1  1
  4  5  2  0
  4  6  1  0
  6  7  1  0
  6 37  1  0
  6 38  1  0
  7  8  2  0
  7 39  1  0
 31  8  1  1
  8  9  1  0
  9 10  2  0
  9 11  1  0
 11 12  1  0
 12 13  1  0
 12 40  1  0
 12 41  1  0
 13 31  1  0
 13 14  1  6
 13 15  1  0
 14 42  1  0
 14 43  1  0
 14 44  1  0
 15 16  1  0
 15 25  1  0
 15 45  1  1
 16 17  1  0
 17 18  2  0
 17 19  1  0
 19 24  1  0
 19 20  2  0
 20 21  1  0
 20 46  1  0
 21 22  2  0
 21 47  1  0
 22 23  1  0
 22 48  1  0
 23 24  2  0
 24 49  1  0
 25 26  2  0
 25 27  1  0
 27 28  1  0
 27 31  1  0
 27 50  1  6
 28 29  1  0
 28 30  1  0
 29 51  1  0
 29 52  1  0
 29 53  1  0
 30 54  1  0
 30 55  1  0
 30 56  1  0
M  END
>  <i_m_ct_stereo_status>  (209) 
1

>  <s_m_source_file>  (209) 
/var/tmp/pbs.5076255.sched01/tmptyawoosb/846vw0lfia.sdf

>  <i_m_source_file_index>  (209) 
2

>  <i_lp_mmshare_version>  (209) 
48012

>  <i_f3d_flags>  (209) 
0

>  <s_epik_input>  (209) 
W0NAXTEyM0M0PVtDSF1bQ0gyXUMoPU8pW0NAQEhdKFtDQEhdMVtDSDNdKUMoW0NIM10pKFtDSDNdKVtDQEhdM0MoPU8pW0NAQEhdKFtDQEBdMihbQ0gzXSlbQ0gyXU9DND1PKU9DKD1PKWM1W2NIXVtjSF1bY0hdbltjSF01

>  <s_epik_cmdline>  (209) 
J2VwaWtfcHl0aG9uJywgJy1waHQnLCAnMi4wJywgJy1waCcsICc3LjAnLCAnLXRuJywgJzgnLCAnLW1hJywgJzIwMCcsICctaW1hZScsICc8aW5maWxlLm1hZT4nLCAnLW9tYWUnLCAnPG91dGZpbGUubWFlPic=

>  <r_lp_tautomer_probability>  (209) 
1

>  <r_epik_Ionization_Penalty>  (209) 
9.06945e-05

>  <r_epik_Ionization_Penalty_Charging>  (209) 
0

>  <r_epik_Ionization_Penalty_Neutral>  (209) 
9.06945e-05

>  <r_epik_State_Penalty>  (209) 
-0

>  <r_epik_Charging_Adjusted_Penalty>  (209) 
0

>  <i_epik_Tot_Q>  (209) 
0

>  <i_epik_Tot_abs_Q>  (209) 
0

>  <s_epik_Chemistry_Notes>  (209) 
This compound has an ester and may undergo hydrolysis at high or low pH.

>  <s_lp_Force_Field>  (209) 
OPLS3e

>  <r_lp_Energy>  (209) 
65.4113

>  <b_lp_Chiralities_Consistent>  (209) 
1

>  <s_lp_Variant>  (209) 
58:0-1

>  <s_i_glide_gridfile>  (209) 
pfpi4k_grid

>  <i_i_glide_lignum>  (209) 
2

>  <i_i_glide_rotatable_bonds>  (209) 
3

>  <r_i_docking_score>  (209) 
-3.03472

>  <r_i_glide_ligand_efficiency>  (209) 
-0.0978943

>  <r_i_glide_ligand_efficiency_sa>  (209) 
-0.307523

>  <r_i_glide_ligand_efficiency_ln>  (209) 
-0.684423

>  <r_i_glide_gscore>  (209) 
-3.03472

>  <r_i_glide_lipo>  (209) 
-0.39505

>  <r_i_glide_hbond>  (209) 
-0.183546

>  <r_i_glide_metal>  (209) 
-0

>  <r_i_glide_rewards>  (209) 
-0.572704

>  <r_i_glide_evdw>  (209) 
-35.5625

>  <r_i_glide_ecoul>  (209) 
-2.30272

>  <r_i_glide_erotb>  (209) 
0.331585

>  <r_i_glide_esite>  (209) 
-0.0914733

>  <r_i_glide_emodel>  (209) 
-42.9875

>  <r_i_glide_energy>  (209) 
-37.8652

>  <r_i_glide_einternal>  (209) 
4.13819

>  <r_i_glide_intrahb_reward>  (209) 
-0

>  <i_i_glide_confnum>  (209) 
4

>  <i_i_glide_posenum>  (209) 
27

>  <r_i_glide_eff_state_penalty>  (209) 
0

>  <ligand_id>  (209) 
58

>  <original_smiles>  (209) 
CC1C2C(=O)CC=C3C(=O)OCC4(C)C(OC(=O)c5cccnc5)C(=O)C(C2(C)C)C314

>  <smiles>  (209) 
[H]C1=C2C(=O)OC([H])([H])C3(C([H])([H])[H])C([H])(OC(=O)c4c([H])nc([H])c([H])c4[H])C(=O)C4([H])C23C([H])(C([H])([H])[H])C([H])(C(=O)C1([H])[H])C4(C([H])([H])[H])C([H])([H])[H]

$$$$
58:0:2
     RDKit          3D

 56 60  0  0  1  0  0  0  0  0999 V2000
    3.5007   -8.4855    6.2943 C   0  0  0  0  0  0  0  0  0  0  0  0
    2.5896   -7.9658    5.1535 C   0  0  2  0  0  0  0  0  0  0  0  0
    1.0689   -8.1074    5.4821 C   0  0  2  0  0  0  0  0  0  0  0  0
    0.6071   -9.5428    5.8203 C   0  0  0  0  0  0  0  0  0  0  0  0
    0.1701   -9.7825    6.9403 O   0  0  0  0  0  0  0  0  0  0  0  0
    0.6375  -10.6291    4.7298 C   0  0  0  0  0  0  0  0  0  0  0  0
    2.0454  -10.9514    4.3403 C   0  0  0  0  0  0  0  0  0  0  0  0
    2.9678  -10.0756    3.9333 C   0  0  0  0  0  0  0  0  0  0  0  0
    4.4160  -10.5511    3.8875 C   0  0  0  0  0  0  0  0  0  0  0  0
    4.7073  -11.7226    4.0888 O   0  0  0  0  0  0  0  0  0  0  0  0
    5.3659   -9.6082    3.6423 O   0  0  0  0  0  0  0  0  0  0  0  0
    5.1552   -8.2272    3.3353 C   0  0  0  0  0  0  0  0  0  0  0  0
    3.7818   -8.0412    2.6988 C   0  0  2  0  0  0  0  0  0  0  0  0
    3.7853   -8.8141    1.3276 C   0  0  0  0  0  0  0  0  0  0  0  0
    3.3268   -6.5926    2.4370 C   0  0  1  0  0  0  0  0  0  0  0  0
    3.9127   -5.8918    1.3460 O   0  0  0  0  0  0  0  0  0  0  0  0
    5.0760   -5.2158    1.5450 C   0  0  0  0  0  0  0  0  0  0  0  0
    5.7208   -5.2442    2.5987 O   0  0  0  0  0  0  0  0  0  0  0  0
    5.5024   -4.4129    0.3673 C   0  0  0  0  0  0  0  0  0  0  0  0
    4.6743   -4.2757   -0.7565 C   0  0  0  0  0  0  0  0  0  0  0  0
    5.1131   -3.4907   -1.8470 C   0  0  0  0  0  0  0  0  0  0  0  0
    6.3774   -2.8771   -1.7470 C   0  0  0  0  0  0  0  0  0  0  0  0
    7.1704   -2.9690   -0.6749 N   0  0  0  0  0  0  0  0  0  0  0  0
    6.7538   -3.7288    0.3604 C   0  0  0  0  0  0  0  0  0  0  0  0
    1.8380   -6.8455    2.2122 C   0  0  0  0  0  0  0  0  0  0  0  0
    1.1156   -6.2313    1.4066 O   0  0  0  0  0  0  0  0  0  0  0  0
    1.3504   -8.0131    3.0819 C   0  0  2  0  0  0  0  0  0  0  0  0
    0.3906   -7.5077    4.2361 C   0  0  0  0  0  0  0  0  0  0  0  0
   -1.0981   -7.8940    3.9901 C   0  0  0  0  0  0  0  0  0  0  0  0
    0.3211   -5.9703    4.4813 C   0  0  0  0  0  0  0  0  0  0  0  0
    2.7059   -8.5742    3.7103 C   0  0  2  0  0  0  0  0  0  0  0  0
    3.3741   -9.5473    6.5102 H   0  0  0  0  0  0  0  0  0  0  0  0
    3.2905   -7.9507    7.2211 H   0  0  0  0  0  0  0  0  0  0  0  0
    4.5601   -8.3200    6.0750 H   0  0  0  0  0  0  0  0  0  0  0  0
    2.8125   -6.9056    5.1162 H   0  0  0  0  0  0  0  0  0  0  0  0
    0.8329   -7.5096    6.3656 H   0  0  0  0  0  0  0  0  0  0  0  0
    0.1976  -11.5408    5.1415 H   0  0  0  0  0  0  0  0  0  0  0  0
    0.0639  -10.3874    3.8379 H   0  0  0  0  0  0  0  0  0  0  0  0
    2.3106  -11.9927    4.5159 H   0  0  0  0  0  0  0  0  0  0  0  0
    5.2593   -7.5880    4.2046 H   0  0  0  0  0  0  0  0  0  0  0  0
    5.9225   -7.9195    2.6254 H   0  0  0  0  0  0  0  0  0  0  0  0
    2.7873   -8.9274    0.8909 H   0  0  0  0  0  0  0  0  0  0  0  0
    4.1741   -9.8328    1.3796 H   0  0  0  0  0  0  0  0  0  0  0  0
    4.4082   -8.3091    0.5839 H   0  0  0  0  0  0  0  0  0  0  0  0
    3.4062   -5.9784    3.3342 H   0  0  0  0  0  0  0  0  0  0  0  0
    3.7090   -4.7523   -0.8047 H   0  0  0  0  0  0  0  0  0  0  0  0
    4.4961   -3.3790   -2.7202 H   0  0  0  0  0  0  0  0  0  0  0  0
    6.7510   -2.2972   -2.5764 H   0  0  0  0  0  0  0  0  0  0  0  0
    7.4332   -3.7850    1.1942 H   0  0  0  0  0  0  0  0  0  0  0  0
    0.8728   -8.7572    2.4545 H   0  0  0  0  0  0  0  0  0  0  0  0
   -1.5280   -7.2903    3.1855 H   0  0  0  0  0  0  0  0  0  0  0  0
   -1.6999   -7.7258    4.8755 H   0  0  0  0  0  0  0  0  0  0  0  0
   -1.2556   -8.9238    3.6862 H   0  0  0  0  0  0  0  0  0  0  0  0
   -0.1697   -5.4519    3.6643 H   0  0  0  0  0  0  0  0  0  0  0  0
    1.2876   -5.4883    4.6280 H   0  0  0  0  0  0  0  0  0  0  0  0
   -0.2699   -5.7467    5.3708 H   0  0  0  0  0  0  0  0  0  0  0  0
  1  2  1  0
  1 32  1  0
  1 33  1  0
  1 34  1  0
  2 31  1  0
  2  3  1  0
  2 35  1  6
  3 28  1  0
  3  4  1  0
  3 36  1  1
  4  5  2  0
  4  6  1  0
  6  7  1  0
  6 37  1  0
  6 38  1  0
  7  8  2  0
  7 39  1  0
 31  8  1  1
  8  9  1  0
  9 10  2  0
  9 11  1  0
 11 12  1  0
 12 13  1  0
 12 40  1  0
 12 41  1  0
 13 31  1  0
 13 14  1  6
 13 15  1  0
 14 42  1  0
 14 43  1  0
 14 44  1  0
 15 16  1  0
 15 25  1  0
 15 45  1  1
 16 17  1  0
 17 18  2  0
 17 19  1  0
 19 24  1  0
 19 20  2  0
 20 21  1  0
 20 46  1  0
 21 22  2  0
 21 47  1  0
 22 23  1  0
 22 48  1  0
 23 24  2  0
 24 49  1  0
 25 26  2  0
 25 27  1  0
 27 28  1  0
 27 31  1  0
 27 50  1  6
 28 29  1  0
 28 30  1  0
 29 51  1  0
 29 52  1  0
 29 53  1  0
 30 54  1  0
 30 55  1  0
 30 56  1  0
M  END
>  <i_m_ct_stereo_status>  (210) 
1

>  <s_m_source_file>  (210) 
/var/tmp/pbs.5076255.sched01/tmptyawoosb/846vw0lfia.sdf

>  <i_m_source_file_index>  (210) 
2

>  <i_lp_mmshare_version>  (210) 
48012

>  <i_f3d_flags>  (210) 
0

>  <s_epik_input>  (210) 
W0NAXTEyM0M0PVtDSF1bQ0gyXUMoPU8pW0NAQEhdKFtDQEhdMVtDSDNdKUMoW0NIM10pKFtDSDNdKVtDQEhdM0MoPU8pW0NAQEhdKFtDQEBdMihbQ0gzXSlbQ0gyXU9DND1PKU9DKD1PKWM1W2NIXVtjSF1bY0hdbltjSF01

>  <s_epik_cmdline>  (210) 
J2VwaWtfcHl0aG9uJywgJy1waHQnLCAnMi4wJywgJy1waCcsICc3LjAnLCAnLXRuJywgJzgnLCAnLW1hJywgJzIwMCcsICctaW1hZScsICc8aW5maWxlLm1hZT4nLCAnLW9tYWUnLCAnPG91dGZpbGUubWFlPic=

>  <r_lp_tautomer_probability>  (210) 
1

>  <r_epik_Ionization_Penalty>  (210) 
9.06945e-05

>  <r_epik_Ionization_Penalty_Charging>  (210) 
0

>  <r_epik_Ionization_Penalty_Neutral>  (210) 
9.06945e-05

>  <r_epik_State_Penalty>  (210) 
-0

>  <r_epik_Charging_Adjusted_Penalty>  (210) 
0

>  <i_epik_Tot_Q>  (210) 
0

>  <i_epik_Tot_abs_Q>  (210) 
0

>  <s_epik_Chemistry_Notes>  (210) 
This compound has an ester and may undergo hydrolysis at high or low pH.

>  <s_lp_Force_Field>  (210) 
OPLS3e

>  <r_lp_Energy>  (210) 
65.4113

>  <b_lp_Chiralities_Consistent>  (210) 
1

>  <s_lp_Variant>  (210) 
58:0-1

>  <s_i_glide_gridfile>  (210) 
pfpi4k_grid

>  <i_i_glide_lignum>  (210) 
2

>  <i_i_glide_rotatable_bonds>  (210) 
3

>  <r_i_docking_score>  (210) 
-2.90954

>  <r_i_glide_ligand_efficiency>  (210) 
-0.0938562

>  <r_i_glide_ligand_efficiency_sa>  (210) 
-0.294838

>  <r_i_glide_ligand_efficiency_ln>  (210) 
-0.656191

>  <r_i_glide_gscore>  (210) 
-2.90954

>  <r_i_glide_lipo>  (210) 
-0.27797

>  <r_i_glide_hbond>  (210) 
-0.135541

>  <r_i_glide_metal>  (210) 
-0

>  <r_i_glide_rewards>  (210) 
-0.573345

>  <r_i_glide_evdw>  (210) 
-33.8318

>  <r_i_glide_ecoul>  (210) 
-3.06573

>  <r_i_glide_erotb>  (210) 
0.331585

>  <r_i_glide_esite>  (210) 
-0.102819

>  <r_i_glide_emodel>  (210) 
-43.6277

>  <r_i_glide_energy>  (210) 
-36.8976

>  <r_i_glide_einternal>  (210) 
0.617723

>  <r_i_glide_intrahb_reward>  (210) 
-0

>  <i_i_glide_confnum>  (210) 
6

>  <i_i_glide_posenum>  (210) 
6

>  <r_i_glide_eff_state_penalty>  (210) 
0

>  <ligand_id>  (210) 
58

>  <original_smiles>  (210) 
CC1C2C(=O)CC=C3C(=O)OCC4(C)C(OC(=O)c5cccnc5)C(=O)C(C2(C)C)C314

>  <smiles>  (210) 
[H]C1=C2C(=O)OC([H])([H])C3(C([H])([H])[H])C([H])(OC(=O)c4c([H])nc([H])c([H])c4[H])C(=O)C4([H])C23C([H])(C([H])([H])[H])C([H])(C(=O)C1([H])[H])C4(C([H])([H])[H])C([H])([H])[H]

$$$$
59:0:0
     RDKit          3D

 61 65  0  0  1  0  0  0  0  0999 V2000
    1.3760  -10.4800    5.1538 C   0  0  0  0  0  0  0  0  0  0  0  0
    1.0473   -9.1919    4.4268 C   0  0  0  0  0  0  0  0  0  0  0  0
   -0.1948   -8.5340    4.5574 C   0  0  0  0  0  0  0  0  0  0  0  0
   -0.4977   -7.3921    3.8837 N   0  0  0  0  0  0  0  0  0  0  0  0
    0.3929   -6.8194    3.0478 N   0  0  0  0  0  0  0  0  0  0  0  0
    1.6060   -7.4035    2.9216 C   0  0  0  0  0  0  0  0  0  0  0  0
    1.9558   -8.5774    3.5590 C   0  0  0  0  0  0  0  0  0  0  0  0
    3.1963   -9.0268    3.2217 O   0  0  0  0  0  0  0  0  0  0  0  0
    3.7744   -8.1018    2.2883 C   0  0  2  0  0  0  0  0  0  0  0  0
    4.0457   -8.9339    1.0077 C   0  0  0  0  0  0  0  0  0  0  0  0
    5.1056   -9.8556    1.1712 O   0  0  0  0  0  0  0  0  0  0  0  0
    5.0425   -7.5516    2.9716 C   0  0  0  0  0  0  0  0  0  0  0  0
    5.6800   -6.4398    2.1409 C   0  0  0  0  0  0  0  0  0  0  0  0
    4.7595   -5.2170    1.9186 C   0  0  2  0  0  0  0  0  0  0  0  0
    3.2689   -5.5066    2.3227 C   0  0  1  0  0  0  0  0  0  0  0  0
    2.3085   -4.3486    1.9655 C   0  0  0  0  0  0  0  0  0  0  0  0
    2.5763   -3.6307    0.6307 C   0  0  0  0  0  0  0  0  0  0  0  0
    4.0501   -3.2328    0.4046 C   0  0  1  0  0  0  0  0  0  0  0  0
    4.5375   -1.8859    1.0718 C   0  0  0  0  0  0  0  0  0  0  0  0
    3.7013   -0.7030    0.5386 C   0  0  0  0  0  0  0  0  0  0  0  0
    4.4795   -1.8093    2.6215 C   0  0  0  0  0  0  0  0  0  0  0  0
    5.9900   -1.6376    0.6224 C   0  0  0  0  0  0  0  0  0  0  0  0
    6.9137   -2.8025    0.9778 C   0  0  0  0  0  0  0  0  0  0  0  0
    6.4584   -4.0839    0.2866 C   0  0  0  0  0  0  0  0  0  0  0  0
    4.9772   -4.4865    0.5409 C   0  0  1  0  0  0  0  0  0  0  0  0
    4.6427   -5.4616   -0.6071 C   0  0  0  0  0  0  0  0  0  0  0  0
    2.7250   -6.9497    2.0103 C   0  0  2  0  0  0  0  0  0  0  0  0
    0.4830  -10.9653    5.5478 H   0  0  0  0  0  0  0  0  0  0  0  0
    2.0463  -10.2831    5.9877 H   0  0  0  0  0  0  0  0  0  0  0  0
    1.8755  -11.1820    4.4871 H   0  0  0  0  0  0  0  0  0  0  0  0
   -0.9619   -8.9194    5.2176 H   0  0  0  0  0  0  0  0  0  0  0  0
    3.1451   -9.4775    0.7131 H   0  0  0  0  0  0  0  0  0  0  0  0
    4.3076   -8.2860    0.1719 H   0  0  0  0  0  0  0  0  0  0  0  0
    4.7863  -10.7293    0.9119 H   0  0  0  0  0  0  0  0  0  0  0  0
    4.8020   -7.1811    3.9682 H   0  0  0  0  0  0  0  0  0  0  0  0
    5.7694   -8.3436    3.1370 H   0  0  0  0  0  0  0  0  0  0  0  0
    6.5866   -6.1081    2.6435 H   0  0  0  0  0  0  0  0  0  0  0  0
    6.0254   -6.8695    1.2076 H   0  0  0  0  0  0  0  0  0  0  0  0
    5.0960   -4.5282    2.6811 H   0  0  0  0  0  0  0  0  0  0  0  0
    3.2786   -5.4964    3.4144 H   0  0  0  0  0  0  0  0  0  0  0  0
    1.2933   -4.7221    1.9614 H   0  0  0  0  0  0  0  0  0  0  0  0
    2.2986   -3.6173    2.7675 H   0  0  0  0  0  0  0  0  0  0  0  0
    2.2466   -4.2758   -0.1838 H   0  0  0  0  0  0  0  0  0  0  0  0
    1.9334   -2.7590    0.5426 H   0  0  0  0  0  0  0  0  0  0  0  0
    4.0810   -2.9859   -0.6580 H   0  0  0  0  0  0  0  0  0  0  0  0
    4.1344    0.2507    0.8450 H   0  0  0  0  0  0  0  0  0  0  0  0
    2.6788   -0.7236    0.9152 H   0  0  0  0  0  0  0  0  0  0  0  0
    3.6553   -0.7070   -0.5512 H   0  0  0  0  0  0  0  0  0  0  0  0
    4.8483   -0.8389    2.9630 H   0  0  0  0  0  0  0  0  0  0  0  0
    5.1057   -2.5396    3.1295 H   0  0  0  0  0  0  0  0  0  0  0  0
    3.4660   -1.9012    3.0071 H   0  0  0  0  0  0  0  0  0  0  0  0
    6.0224   -1.4945   -0.4569 H   0  0  0  0  0  0  0  0  0  0  0  0
    6.3794   -0.7200    1.0628 H   0  0  0  0  0  0  0  0  0  0  0  0
    7.9320   -2.5721    0.6621 H   0  0  0  0  0  0  0  0  0  0  0  0
    6.9550   -2.9622    2.0505 H   0  0  0  0  0  0  0  0  0  0  0  0
    6.6128   -3.9443   -0.7841 H   0  0  0  0  0  0  0  0  0  0  0  0
    7.1326   -4.8912    0.5688 H   0  0  0  0  0  0  0  0  0  0  0  0
    4.6391   -4.9471   -1.5667 H   0  0  0  0  0  0  0  0  0  0  0  0
    3.6743   -5.9345   -0.4802 H   0  0  0  0  0  0  0  0  0  0  0  0
    5.3731   -6.2526   -0.7048 H   0  0  0  0  0  0  0  0  0  0  0  0
    2.3410   -7.0112    0.9912 H   0  0  0  0  0  0  0  0  0  0  0  0
  1  2  1  0
  1 28  1  0
  1 29  1  0
  1 30  1  0
  2  7  2  0
  2  3  1  0
  3  4  2  0
  3 31  1  0
  4  5  1  0
  5  6  2  0
  6 27  1  0
  6  7  1  0
  7  8  1  0
  8  9  1  0
  9 27  1  0
  9 10  1  6
  9 12  1  0
 10 11  1  0
 10 32  1  0
 10 33  1  0
 11 34  1  0
 12 13  1  0
 12 35  1  0
 12 36  1  0
 13 14  1  0
 13 37  1  0
 13 38  1  0
 14 25  1  0
 14 15  1  0
 14 39  1  1
 15 16  1  0
 15 27  1  0
 15 40  1  1
 16 17  1  0
 16 41  1  0
 16 42  1  0
 17 18  1  0
 17 43  1  0
 17 44  1  0
 18 25  1  0
 18 19  1  0
 18 45  1  6
 19 20  1  0
 19 21  1  0
 19 22  1  0
 20 46  1  0
 20 47  1  0
 20 48  1  0
 21 49  1  0
 21 50  1  0
 21 51  1  0
 22 23  1  0
 22 52  1  0
 22 53  1  0
 23 24  1  0
 23 54  1  0
 23 55  1  0
 24 25  1  0
 24 56  1  0
 24 57  1  0
 25 26  1  6
 26 58  1  0
 26 59  1  0
 26 60  1  0
 27 61  1  6
M  END
>  <i_m_ct_stereo_status>  (211) 
1

>  <s_m_source_file>  (211) 
/var/tmp/pbs.5076255.sched01/tmptyawoosb/846vw0lfia.sdf

>  <i_m_source_file_index>  (211) 
3

>  <i_lp_mmshare_version>  (211) 
48012

>  <i_f3d_flags>  (211) 
0

>  <s_epik_input>  (211) 
bjFuW2NIXWMoW0NIM10pYyhPMiljMVtDQEhdKFtDQF0yM1tDSDJdW09IXSlbQ0BIXTRbQ0BASF0oW0NIMl1bQ0gyXTMpW0NAQF01KFtDSDNdKVtDQEBIXShbQ0gyXVtDSDJdNClDKFtDSDNdKShbQ0gzXSlbQ0gyXVtDSDJdW0NIMl01

>  <s_epik_cmdline>  (211) 
J2VwaWtfcHl0aG9uJywgJy1waHQnLCAnMi4wJywgJy1waCcsICc3LjAnLCAnLXRuJywgJzgnLCAnLW1hJywgJzIwMCcsICctaW1hZScsICc8aW5maWxlLm1hZT4nLCAnLW9tYWUnLCAnPG91dGZpbGUubWFlPic=

>  <r_lp_tautomer_probability>  (211) 
1

>  <r_epik_Ionization_Penalty>  (211) 
0.221463

>  <r_epik_Ionization_Penalty_Charging>  (211) 
0

>  <r_epik_Ionization_Penalty_Neutral>  (211) 
0.221463

>  <r_epik_State_Penalty>  (211) 
0.211232

>  <r_epik_Charging_Adjusted_Penalty>  (211) 
0.211232

>  <i_epik_Tot_Q>  (211) 
0

>  <i_epik_Tot_abs_Q>  (211) 
0

>  <s_lp_Force_Field>  (211) 
OPLS3e

>  <r_lp_Energy>  (211) 
68.7372

>  <b_lp_Chiralities_Consistent>  (211) 
1

>  <s_lp_Variant>  (211) 
59:0-1

>  <s_i_glide_gridfile>  (211) 
pfpi4k_grid

>  <i_i_glide_lignum>  (211) 
3

>  <i_i_glide_rotatable_bonds>  (211) 
2

>  <r_i_docking_score>  (211) 
-3.2623

>  <r_i_glide_ligand_efficiency>  (211) 
-0.120826

>  <r_i_glide_ligand_efficiency_sa>  (211) 
-0.362478

>  <r_i_glide_ligand_efficiency_ln>  (211) 
-0.759411

>  <r_i_glide_gscore>  (211) 
-3.2623

>  <r_i_glide_lipo>  (211) 
-0.429898

>  <r_i_glide_hbond>  (211) 
0

>  <r_i_glide_metal>  (211) 
-0

>  <r_i_glide_rewards>  (211) 
-0.882762

>  <r_i_glide_evdw>  (211) 
-20.8123

>  <r_i_glide_ecoul>  (211) 
-6.29882

>  <r_i_glide_erotb>  (211) 
0.140527

>  <r_i_glide_esite>  (211) 
-0.104734

>  <r_i_glide_emodel>  (211) 
-31.9208

>  <r_i_glide_energy>  (211) 
-27.1111

>  <r_i_glide_einternal>  (211) 
2.42195

>  <r_i_glide_intrahb_reward>  (211) 
-0

>  <i_i_glide_confnum>  (211) 
3

>  <i_i_glide_posenum>  (211) 
10

>  <r_i_glide_eff_state_penalty>  (211) 
0

>  <ligand_id>  (211) 
59

>  <original_smiles>  (211) 
Cc1cnnc2c1OC1(CO)CCC3C(CCC4C(C)(C)CCCC34C)C21

>  <smiles>  (211) 
[H]OC([H])([H])C12Oc3c(nnc([H])c3C([H])([H])[H])C1([H])C1([H])C([H])([H])C([H])([H])C3([H])C(C([H])([H])[H])(C([H])([H])[H])C([H])([H])C([H])([H])C([H])([H])C3(C([H])([H])[H])C1([H])C([H])([H])C2([H])[H]

$$$$
59:0:1
     RDKit          3D

 61 65  0  0  1  0  0  0  0  0999 V2000
   -0.5836   -9.3850    6.5364 C   0  0  0  0  0  0  0  0  0  0  0  0
   -0.2104   -8.6520    5.2630 C   0  0  0  0  0  0  0  0  0  0  0  0
   -1.1305   -7.9112    4.4883 C   0  0  0  0  0  0  0  0  0  0  0  0
   -0.7784   -7.2506    3.3488 N   0  0  0  0  0  0  0  0  0  0  0  0
    0.4843   -7.2904    2.8915 N   0  0  0  0  0  0  0  0  0  0  0  0
    1.3935   -7.9890    3.6049 C   0  0  0  0  0  0  0  0  0  0  0  0
    1.0891   -8.6922    4.7616 C   0  0  0  0  0  0  0  0  0  0  0  0
    2.1340   -9.3846    5.2732 O   0  0  0  0  0  0  0  0  0  0  0  0
    3.2718   -9.1611    4.4300 C   0  0  2  0  0  0  0  0  0  0  0  0
    3.6721  -10.5661    3.9163 C   0  0  0  0  0  0  0  0  0  0  0  0
    4.2052  -11.3783    4.9466 O   0  0  0  0  0  0  0  0  0  0  0  0
    4.3214   -8.4800    5.3309 C   0  0  0  0  0  0  0  0  0  0  0  0
    5.5378   -8.0467    4.5186 C   0  0  0  0  0  0  0  0  0  0  0  0
    5.2130   -7.0390    3.3941 C   0  0  2  0  0  0  0  0  0  0  0  0
    3.6700   -6.9025    3.1263 C   0  0  1  0  0  0  0  0  0  0  0  0
    3.3305   -6.0102    1.9027 C   0  0  0  0  0  0  0  0  0  0  0  0
    4.2766   -6.1240    0.7026 C   0  0  0  0  0  0  0  0  0  0  0  0
    5.7755   -6.0695    1.0600 C   0  0  1  0  0  0  0  0  0  0  0  0
    6.4109   -4.6345    1.2491 C   0  0  0  0  0  0  0  0  0  0  0  0
    6.2484   -3.7839   -0.0323 C   0  0  0  0  0  0  0  0  0  0  0  0
    5.8242   -3.7589    2.3858 C   0  0  0  0  0  0  0  0  0  0  0  0
    7.9257   -4.8284    1.4861 C   0  0  0  0  0  0  0  0  0  0  0  0
    8.2381   -5.7552    2.6687 C   0  0  0  0  0  0  0  0  0  0  0  0
    7.6505   -7.1410    2.4427 C   0  0  0  0  0  0  0  0  0  0  0  0
    6.1259   -7.1806    2.1182 C   0  0  1  0  0  0  0  0  0  0  0  0
    5.9064   -8.5839    1.4821 C   0  0  0  0  0  0  0  0  0  0  0  0
    2.8327   -8.2242    3.2370 C   0  0  2  0  0  0  0  0  0  0  0  0
   -1.6584   -9.4491    6.6272 H   0  0  0  0  0  0  0  0  0  0  0  0
   -0.1917   -8.8715    7.4147 H   0  0  0  0  0  0  0  0  0  0  0  0
   -0.1849  -10.3983    6.5344 H   0  0  0  0  0  0  0  0  0  0  0  0
   -2.1618   -7.8101    4.7890 H   0  0  0  0  0  0  0  0  0  0  0  0
    2.8148  -11.0698    3.4623 H   0  0  0  0  0  0  0  0  0  0  0  0
    4.4338  -10.4834    3.1433 H   0  0  0  0  0  0  0  0  0  0  0  0
    3.5041  -11.5901    5.5535 H   0  0  0  0  0  0  0  0  0  0  0  0
    3.8796   -7.6183    5.8353 H   0  0  0  0  0  0  0  0  0  0  0  0
    4.6353   -9.1384    6.1368 H   0  0  0  0  0  0  0  0  0  0  0  0
    6.2564   -7.6042    5.1977 H   0  0  0  0  0  0  0  0  0  0  0  0
    6.0281   -8.9349    4.1345 H   0  0  0  0  0  0  0  0  0  0  0  0
    5.4738   -6.0952    3.8615 H   0  0  0  0  0  0  0  0  0  0  0  0
    3.2989   -6.3297    3.9764 H   0  0  0  0  0  0  0  0  0  0  0  0
    2.3326   -6.2191    1.5313 H   0  0  0  0  0  0  0  0  0  0  0  0
    3.2726   -4.9720    2.2242 H   0  0  0  0  0  0  0  0  0  0  0  0
    4.0623   -7.0632    0.1945 H   0  0  0  0  0  0  0  0  0  0  0  0
    4.0241   -5.3695   -0.0362 H   0  0  0  0  0  0  0  0  0  0  0  0
    6.2627   -6.3959    0.1459 H   0  0  0  0  0  0  0  0  0  0  0  0
    6.8369   -2.8675    0.0346 H   0  0  0  0  0  0  0  0  0  0  0  0
    5.2083   -3.5010   -0.2005 H   0  0  0  0  0  0  0  0  0  0  0  0
    6.5969   -4.2952   -0.9199 H   0  0  0  0  0  0  0  0  0  0  0  0
    6.3345   -2.7892    2.4035 H   0  0  0  0  0  0  0  0  0  0  0  0
    5.9559   -4.1794    3.3814 H   0  0  0  0  0  0  0  0  0  0  0  0
    4.7691   -3.5238    2.2352 H   0  0  0  0  0  0  0  0  0  0  0  0
    8.3784   -5.2666    0.5992 H   0  0  0  0  0  0  0  0  0  0  0  0
    8.4221   -3.8678    1.6237 H   0  0  0  0  0  0  0  0  0  0  0  0
    9.3203   -5.8312    2.7876 H   0  0  0  0  0  0  0  0  0  0  0  0
    7.8588   -5.3985    3.6211 H   0  0  0  0  0  0  0  0  0  0  0  0
    8.2124   -7.6061    1.6277 H   0  0  0  0  0  0  0  0  0  0  0  0
    7.8736   -7.7331    3.3254 H   0  0  0  0  0  0  0  0  0  0  0  0
    6.4180   -8.6690    0.5272 H   0  0  0  0  0  0  0  0  0  0  0  0
    4.8606   -8.8223    1.3000 H   0  0  0  0  0  0  0  0  0  0  0  0
    6.3199   -9.3908    2.0866 H   0  0  0  0  0  0  0  0  0  0  0  0
    2.8224   -8.7774    2.2927 H   0  0  0  0  0  0  0  0  0  0  0  0
  1  2  1  0
  1 28  1  0
  1 29  1  0
  1 30  1  0
  2  7  2  0
  2  3  1  0
  3  4  2  0
  3 31  1  0
  4  5  1  0
  5  6  2  0
  6 27  1  0
  6  7  1  0
  7  8  1  0
  8  9  1  0
  9 27  1  0
  9 10  1  6
  9 12  1  0
 10 11  1  0
 10 32  1  0
 10 33  1  0
 11 34  1  0
 12 13  1  0
 12 35  1  0
 12 36  1  0
 13 14  1  0
 13 37  1  0
 13 38  1  0
 14 25  1  0
 14 15  1  0
 14 39  1  1
 15 16  1  0
 15 27  1  0
 15 40  1  1
 16 17  1  0
 16 41  1  0
 16 42  1  0
 17 18  1  0
 17 43  1  0
 17 44  1  0
 18 25  1  0
 18 19  1  0
 18 45  1  6
 19 20  1  0
 19 21  1  0
 19 22  1  0
 20 46  1  0
 20 47  1  0
 20 48  1  0
 21 49  1  0
 21 50  1  0
 21 51  1  0
 22 23  1  0
 22 52  1  0
 22 53  1  0
 23 24  1  0
 23 54  1  0
 23 55  1  0
 24 25  1  0
 24 56  1  0
 24 57  1  0
 25 26  1  6
 26 58  1  0
 26 59  1  0
 26 60  1  0
 27 61  1  6
M  END
>  <i_m_ct_stereo_status>  (212) 
1

>  <s_m_source_file>  (212) 
/var/tmp/pbs.5076255.sched01/tmptyawoosb/846vw0lfia.sdf

>  <i_m_source_file_index>  (212) 
3

>  <i_lp_mmshare_version>  (212) 
48012

>  <i_f3d_flags>  (212) 
0

>  <s_epik_input>  (212) 
bjFuW2NIXWMoW0NIM10pYyhPMiljMVtDQEhdKFtDQF0yM1tDSDJdW09IXSlbQ0BIXTRbQ0BASF0oW0NIMl1bQ0gyXTMpW0NAQF01KFtDSDNdKVtDQEBIXShbQ0gyXVtDSDJdNClDKFtDSDNdKShbQ0gzXSlbQ0gyXVtDSDJdW0NIMl01

>  <s_epik_cmdline>  (212) 
J2VwaWtfcHl0aG9uJywgJy1waHQnLCAnMi4wJywgJy1waCcsICc3LjAnLCAnLXRuJywgJzgnLCAnLW1hJywgJzIwMCcsICctaW1hZScsICc8aW5maWxlLm1hZT4nLCAnLW9tYWUnLCAnPG91dGZpbGUubWFlPic=

>  <r_lp_tautomer_probability>  (212) 
1

>  <r_epik_Ionization_Penalty>  (212) 
0.221463

>  <r_epik_Ionization_Penalty_Charging>  (212) 
0

>  <r_epik_Ionization_Penalty_Neutral>  (212) 
0.221463

>  <r_epik_State_Penalty>  (212) 
0.211232

>  <r_epik_Charging_Adjusted_Penalty>  (212) 
0.211232

>  <i_epik_Tot_Q>  (212) 
0

>  <i_epik_Tot_abs_Q>  (212) 
0

>  <s_lp_Force_Field>  (212) 
OPLS3e

>  <r_lp_Energy>  (212) 
68.7372

>  <b_lp_Chiralities_Consistent>  (212) 
1

>  <s_lp_Variant>  (212) 
59:0-1

>  <s_i_glide_gridfile>  (212) 
pfpi4k_grid

>  <i_i_glide_lignum>  (212) 
3

>  <i_i_glide_rotatable_bonds>  (212) 
2

>  <r_i_docking_score>  (212) 
-2.70477

>  <r_i_glide_ligand_efficiency>  (212) 
-0.100177

>  <r_i_glide_ligand_efficiency_sa>  (212) 
-0.30053

>  <r_i_glide_ligand_efficiency_ln>  (212) 
-0.629626

>  <r_i_glide_gscore>  (212) 
-2.70477

>  <r_i_glide_lipo>  (212) 
-0.647854

>  <r_i_glide_hbond>  (212) 
0

>  <r_i_glide_metal>  (212) 
-0

>  <r_i_glide_rewards>  (212) 
-0.882762

>  <r_i_glide_evdw>  (212) 
-17.7934

>  <r_i_glide_ecoul>  (212) 
-2.05098

>  <r_i_glide_erotb>  (212) 
0.140527

>  <r_i_glide_esite>  (212) 
-0.117366

>  <r_i_glide_emodel>  (212) 
-24.1045

>  <r_i_glide_energy>  (212) 
-19.8443

>  <r_i_glide_einternal>  (212) 
1.22217

>  <r_i_glide_intrahb_reward>  (212) 
-0

>  <i_i_glide_confnum>  (212) 
3

>  <i_i_glide_posenum>  (212) 
19

>  <r_i_glide_eff_state_penalty>  (212) 
0

>  <ligand_id>  (212) 
59

>  <original_smiles>  (212) 
Cc1cnnc2c1OC1(CO)CCC3C(CCC4C(C)(C)CCCC34C)C21

>  <smiles>  (212) 
[H]OC([H])([H])C12Oc3c(nnc([H])c3C([H])([H])[H])C1([H])C1([H])C([H])([H])C([H])([H])C3([H])C(C([H])([H])[H])(C([H])([H])[H])C([H])([H])C([H])([H])C([H])([H])C3(C([H])([H])[H])C1([H])C([H])([H])C2([H])[H]

$$$$
59:0:2
     RDKit          3D

 61 65  0  0  1  0  0  0  0  0999 V2000
   -1.7290   -8.4705    4.0243 C   0  0  0  0  0  0  0  0  0  0  0  0
   -0.7513   -7.7010    3.1740 C   0  0  0  0  0  0  0  0  0  0  0  0
   -0.6815   -7.8481    1.7758 C   0  0  0  0  0  0  0  0  0  0  0  0
    0.1613   -7.1112    1.0005 N   0  0  0  0  0  0  0  0  0  0  0  0
    1.0230   -6.2416    1.5454 N   0  0  0  0  0  0  0  0  0  0  0  0
    0.9906   -6.0767    2.8829 C   0  0  0  0  0  0  0  0  0  0  0  0
    0.1334   -6.7701    3.7248 C   0  0  0  0  0  0  0  0  0  0  0  0
    0.2676   -6.4321    5.0285 O   0  0  0  0  0  0  0  0  0  0  0  0
    1.3077   -5.4440    5.1238 C   0  0  2  0  0  0  0  0  0  0  0  0
    2.3880   -6.0853    6.0215 C   0  0  0  0  0  0  0  0  0  0  0  0
    1.9621   -6.1852    7.3697 O   0  0  0  0  0  0  0  0  0  0  0  0
    0.6333   -4.1930    5.7174 C   0  0  0  0  0  0  0  0  0  0  0  0
    1.5952   -3.0107    5.7407 C   0  0  0  0  0  0  0  0  0  0  0  0
    2.1112   -2.5998    4.3433 C   0  0  2  0  0  0  0  0  0  0  0  0
    1.7828   -3.6604    3.2331 C   0  0  1  0  0  0  0  0  0  0  0  0
    2.4360   -3.3341    1.8598 C   0  0  0  0  0  0  0  0  0  0  0  0
    3.8384   -2.7266    1.9002 C   0  0  0  0  0  0  0  0  0  0  0  0
    4.0032   -1.5692    2.9086 C   0  0  1  0  0  0  0  0  0  0  0  0
    3.5446   -0.1355    2.4279 C   0  0  0  0  0  0  0  0  0  0  0  0
    4.3394    0.2480    1.1571 C   0  0  0  0  0  0  0  0  0  0  0  0
    2.0464    0.0574    2.0814 C   0  0  0  0  0  0  0  0  0  0  0  0
    3.9042    0.8702    3.5453 C   0  0  0  0  0  0  0  0  0  0  0  0
    3.2733    0.5125    4.8886 C   0  0  0  0  0  0  0  0  0  0  0  0
    3.7646   -0.8571    5.3560 C   0  0  0  0  0  0  0  0  0  0  0  0
    3.5776   -2.0299    4.3463 C   0  0  1  0  0  0  0  0  0  0  0  0
    4.5708   -3.1278    4.8195 C   0  0  0  0  0  0  0  0  0  0  0  0
    1.8755   -5.1605    3.6785 C   0  0  2  0  0  0  0  0  0  0  0  0
   -2.1361   -9.3409    3.5109 H   0  0  0  0  0  0  0  0  0  0  0  0
   -2.5458   -7.7975    4.2593 H   0  0  0  0  0  0  0  0  0  0  0  0
   -1.2640   -8.8042    4.9520 H   0  0  0  0  0  0  0  0  0  0  0  0
   -1.3272   -8.5476    1.2693 H   0  0  0  0  0  0  0  0  0  0  0  0
    2.6561   -7.0736    5.6431 H   0  0  0  0  0  0  0  0  0  0  0  0
    3.2976   -5.4880    6.0101 H   0  0  0  0  0  0  0  0  0  0  0  0
    2.6100   -6.6795    7.8520 H   0  0  0  0  0  0  0  0  0  0  0  0
   -0.2564   -3.9384    5.1375 H   0  0  0  0  0  0  0  0  0  0  0  0
    0.2648   -4.3927    6.7227 H   0  0  0  0  0  0  0  0  0  0  0  0
    1.0889   -2.1672    6.1971 H   0  0  0  0  0  0  0  0  0  0  0  0
    2.4094   -3.2504    6.4143 H   0  0  0  0  0  0  0  0  0  0  0  0
    1.4620   -1.7667    4.0958 H   0  0  0  0  0  0  0  0  0  0  0  0
    0.7147   -3.5324    3.0539 H   0  0  0  0  0  0  0  0  0  0  0  0
    2.4895   -4.2148    1.2281 H   0  0  0  0  0  0  0  0  0  0  0  0
    1.7983   -2.6573    1.3005 H   0  0  0  0  0  0  0  0  0  0  0  0
    4.5403   -3.5234    2.1355 H   0  0  0  0  0  0  0  0  0  0  0  0
    4.1212   -2.4180    0.8988 H   0  0  0  0  0  0  0  0  0  0  0  0
    5.0868   -1.4533    2.9745 H   0  0  0  0  0  0  0  0  0  0  0  0
    4.1614    1.2848    0.8768 H   0  0  0  0  0  0  0  0  0  0  0  0
    4.0422   -0.3411    0.2903 H   0  0  0  0  0  0  0  0  0  0  0  0
    5.4142    0.1346    1.3062 H   0  0  0  0  0  0  0  0  0  0  0  0
    1.8642    1.0850    1.7567 H   0  0  0  0  0  0  0  0  0  0  0  0
    1.3680   -0.1038    2.9118 H   0  0  0  0  0  0  0  0  0  0  0  0
    1.7315   -0.5773    1.2599 H   0  0  0  0  0  0  0  0  0  0  0  0
    4.9841    0.9043    3.6839 H   0  0  0  0  0  0  0  0  0  0  0  0
    3.5966    1.8811    3.2775 H   0  0  0  0  0  0  0  0  0  0  0  0
    3.5649    1.2618    5.6237 H   0  0  0  0  0  0  0  0  0  0  0  0
    2.1874    0.5483    4.8448 H   0  0  0  0  0  0  0  0  0  0  0  0
    4.8295   -0.7565    5.5799 H   0  0  0  0  0  0  0  0  0  0  0  0
    3.2966   -1.0831    6.3094 H   0  0  0  0  0  0  0  0  0  0  0  0
    5.6013   -2.8044    4.6799 H   0  0  0  0  0  0  0  0  0  0  0  0
    4.4631   -4.0687    4.2836 H   0  0  0  0  0  0  0  0  0  0  0  0
    4.4803   -3.3506    5.8808 H   0  0  0  0  0  0  0  0  0  0  0  0
    2.8933   -5.5431    3.5710 H   0  0  0  0  0  0  0  0  0  0  0  0
  1  2  1  0
  1 28  1  0
  1 29  1  0
  1 30  1  0
  2  7  2  0
  2  3  1  0
  3  4  2  0
  3 31  1  0
  4  5  1  0
  5  6  2  0
  6 27  1  0
  6  7  1  0
  7  8  1  0
  8  9  1  0
  9 27  1  0
  9 10  1  1
  9 12  1  0
 10 11  1  0
 10 32  1  0
 10 33  1  0
 11 34  1  0
 12 13  1  0
 12 35  1  0
 12 36  1  0
 13 14  1  0
 13 37  1  0
 13 38  1  0
 14 25  1  0
 14 15  1  0
 14 39  1  6
 15 16  1  0
 15 27  1  0
 15 40  1  6
 16 17  1  0
 16 41  1  0
 16 42  1  0
 17 18  1  0
 17 43  1  0
 17 44  1  0
 18 25  1  0
 18 19  1  0
 18 45  1  1
 19 20  1  0
 19 21  1  0
 19 22  1  0
 20 46  1  0
 20 47  1  0
 20 48  1  0
 21 49  1  0
 21 50  1  0
 21 51  1  0
 22 23  1  0
 22 52  1  0
 22 53  1  0
 23 24  1  0
 23 54  1  0
 23 55  1  0
 24 25  1  0
 24 56  1  0
 24 57  1  0
 25 26  1  1
 26 58  1  0
 26 59  1  0
 26 60  1  0
 27 61  1  1
M  END
>  <i_m_ct_stereo_status>  (213) 
1

>  <s_m_source_file>  (213) 
/var/tmp/pbs.5076255.sched01/tmptyawoosb/846vw0lfia.sdf

>  <i_m_source_file_index>  (213) 
3

>  <i_lp_mmshare_version>  (213) 
48012

>  <i_f3d_flags>  (213) 
0

>  <s_epik_input>  (213) 
bjFuW2NIXWMoW0NIM10pYyhPMiljMVtDQEhdKFtDQF0yM1tDSDJdW09IXSlbQ0BIXTRbQ0BASF0oW0NIMl1bQ0gyXTMpW0NAQF01KFtDSDNdKVtDQEBIXShbQ0gyXVtDSDJdNClDKFtDSDNdKShbQ0gzXSlbQ0gyXVtDSDJdW0NIMl01

>  <s_epik_cmdline>  (213) 
J2VwaWtfcHl0aG9uJywgJy1waHQnLCAnMi4wJywgJy1waCcsICc3LjAnLCAnLXRuJywgJzgnLCAnLW1hJywgJzIwMCcsICctaW1hZScsICc8aW5maWxlLm1hZT4nLCAnLW9tYWUnLCAnPG91dGZpbGUubWFlPic=

>  <r_lp_tautomer_probability>  (213) 
1

>  <r_epik_Ionization_Penalty>  (213) 
0.221463

>  <r_epik_Ionization_Penalty_Charging>  (213) 
0

>  <r_epik_Ionization_Penalty_Neutral>  (213) 
0.221463

>  <r_epik_State_Penalty>  (213) 
0.211232

>  <r_epik_Charging_Adjusted_Penalty>  (213) 
0.211232

>  <i_epik_Tot_Q>  (213) 
0

>  <i_epik_Tot_abs_Q>  (213) 
0

>  <s_lp_Force_Field>  (213) 
OPLS3e

>  <r_lp_Energy>  (213) 
68.7372

>  <b_lp_Chiralities_Consistent>  (213) 
1

>  <s_lp_Variant>  (213) 
59:0-1

>  <s_i_glide_gridfile>  (213) 
pfpi4k_grid

>  <i_i_glide_lignum>  (213) 
3

>  <i_i_glide_rotatable_bonds>  (213) 
2

>  <r_i_docking_score>  (213) 
-2.46083

>  <r_i_glide_ligand_efficiency>  (213) 
-0.0911417

>  <r_i_glide_ligand_efficiency_sa>  (213) 
-0.273425

>  <r_i_glide_ligand_efficiency_ln>  (213) 
-0.57284

>  <r_i_glide_gscore>  (213) 
-2.46083

>  <r_i_glide_lipo>  (213) 
-0.071363

>  <r_i_glide_hbond>  (213) 
0

>  <r_i_glide_metal>  (213) 
-0

>  <r_i_glide_rewards>  (213) 
-0.882762

>  <r_i_glide_evdw>  (213) 
-17.9678

>  <r_i_glide_ecoul>  (213) 
-3.74535

>  <r_i_glide_erotb>  (213) 
0.140527

>  <r_i_glide_esite>  (213) 
-0.187033

>  <r_i_glide_emodel>  (213) 
-25.4174

>  <r_i_glide_energy>  (213) 
-21.7132

>  <r_i_glide_einternal>  (213) 
1.47278

>  <r_i_glide_intrahb_reward>  (213) 
-0

>  <i_i_glide_confnum>  (213) 
3

>  <i_i_glide_posenum>  (213) 
18

>  <r_i_glide_eff_state_penalty>  (213) 
0

>  <ligand_id>  (213) 
59

>  <original_smiles>  (213) 
Cc1cnnc2c1OC1(CO)CCC3C(CCC4C(C)(C)CCCC34C)C21

>  <smiles>  (213) 
[H]OC([H])([H])C12Oc3c(nnc([H])c3C([H])([H])[H])C1([H])C1([H])C([H])([H])C([H])([H])C3([H])C(C([H])([H])[H])(C([H])([H])[H])C([H])([H])C([H])([H])C([H])([H])C3(C([H])([H])[H])C1([H])C([H])([H])C2([H])[H]

$$$$
59:1:0
     RDKit          3D

 62 66  0  0  1  0  0  0  0  0999 V2000
    5.0240  -10.7404    5.8554 C   0  0  0  0  0  0  0  0  0  0  0  0
    5.4534  -10.4061    4.4470 C   0  0  0  0  0  0  0  0  0  0  0  0
    5.0350  -11.1755    3.3453 C   0  0  0  0  0  0  0  0  0  0  0  0
    5.4182  -10.8426    2.0880 N   0  0  0  0  0  0  0  0  0  0  0  0
    6.2119   -9.7878    1.7871 N   0  0  0  0  0  0  0  0  0  0  0  0
    6.6018   -9.0471    2.8418 C   0  0  0  0  0  0  0  0  0  0  0  0
    6.2799   -9.3066    4.1612 C   0  0  0  0  0  0  0  0  0  0  0  0
    6.8458   -8.4238    5.0343 O   0  0  0  0  0  0  0  0  0  0  0  0
    7.7597   -7.6005    4.2870 C   0  0  2  0  0  0  0  0  0  0  0  0
    9.1707   -8.1408    4.6359 C   0  0  0  0  0  0  0  0  0  0  0  0
   10.2041   -7.3507    4.0796 O   0  0  0  0  0  0  0  0  0  0  0  0
    7.5341   -6.1546    4.7690 C   0  0  0  0  0  0  0  0  0  0  0  0
    6.1766   -5.5373    4.3510 C   0  0  0  0  0  0  0  0  0  0  0  0
    5.5829   -6.0190    2.9855 C   0  0  2  0  0  0  0  0  0  0  0  0
    6.6768   -6.6329    2.0832 C   0  0  1  0  0  0  0  0  0  0  0  0
    7.5791   -5.5201    1.5175 C   0  0  0  0  0  0  0  0  0  0  0  0
    6.7549   -4.4579    0.7706 C   0  0  0  0  0  0  0  0  0  0  0  0
    5.5971   -3.8099    1.6008 C   0  0  1  0  0  0  0  0  0  0  0  0
    4.7982   -2.7426    0.7460 C   0  0  0  0  0  0  0  0  0  0  0  0
    3.9178   -1.8072    1.6228 C   0  0  0  0  0  0  0  0  0  0  0  0
    5.7559   -1.7971   -0.0218 C   0  0  0  0  0  0  0  0  0  0  0  0
    3.9150   -3.4616   -0.3031 C   0  0  0  0  0  0  0  0  0  0  0  0
    3.0308   -4.5704    0.2899 C   0  0  0  0  0  0  0  0  0  0  0  0
    3.8402   -5.5833    1.1259 C   0  0  0  0  0  0  0  0  0  0  0  0
    4.6970   -4.9329    2.2563 C   0  0  1  0  0  0  0  0  0  0  0  0
    3.7220   -4.3908    3.3427 C   0  0  0  0  0  0  0  0  0  0  0  0
    7.4434   -7.8082    2.7643 C   0  0  2  0  0  0  0  0  0  0  0  0
    4.4491  -11.6689    5.8795 H   0  0  0  0  0  0  0  0  0  0  0  0
    4.3958   -9.9403    6.2434 H   0  0  0  0  0  0  0  0  0  0  0  0
    5.9015  -10.8532    6.4903 H   0  0  0  0  0  0  0  0  0  0  0  0
    4.3674  -12.0317    3.3982 H   0  0  0  0  0  0  0  0  0  0  0  0
    9.2938   -8.1544    5.7194 H   0  0  0  0  0  0  0  0  0  0  0  0
    9.2850   -9.1740    4.3001 H   0  0  0  0  0  0  0  0  0  0  0  0
   10.2528   -7.5005    3.1348 H   0  0  0  0  0  0  0  0  0  0  0  0
    7.6354   -6.1254    5.8565 H   0  0  0  0  0  0  0  0  0  0  0  0
    8.3404   -5.5282    4.3905 H   0  0  0  0  0  0  0  0  0  0  0  0
    5.4579   -5.7643    5.1339 H   0  0  0  0  0  0  0  0  0  0  0  0
    6.2576   -4.4515    4.3855 H   0  0  0  0  0  0  0  0  0  0  0  0
    4.9077   -6.8416    3.2396 H   0  0  0  0  0  0  0  0  0  0  0  0
    6.2043   -7.0694    1.2057 H   0  0  0  0  0  0  0  0  0  0  0  0
    8.1620   -5.0321    2.2955 H   0  0  0  0  0  0  0  0  0  0  0  0
    8.3060   -5.9504    0.8266 H   0  0  0  0  0  0  0  0  0  0  0  0
    7.4597   -3.6980    0.4369 H   0  0  0  0  0  0  0  0  0  0  0  0
    6.3538   -4.9132   -0.1351 H   0  0  0  0  0  0  0  0  0  0  0  0
    6.0870   -3.2576    2.4017 H   0  0  0  0  0  0  0  0  0  0  0  0
    3.7332   -0.8435    1.1454 H   0  0  0  0  0  0  0  0  0  0  0  0
    4.3784   -1.6052    2.5902 H   0  0  0  0  0  0  0  0  0  0  0  0
    2.9261   -2.2108    1.8007 H   0  0  0  0  0  0  0  0  0  0  0  0
    5.2164   -0.9795   -0.5006 H   0  0  0  0  0  0  0  0  0  0  0  0
    6.2763   -2.3172   -0.8273 H   0  0  0  0  0  0  0  0  0  0  0  0
    6.5007   -1.3559    0.6401 H   0  0  0  0  0  0  0  0  0  0  0  0
    3.2829   -2.7405   -0.8229 H   0  0  0  0  0  0  0  0  0  0  0  0
    4.5405   -3.9077   -1.0776 H   0  0  0  0  0  0  0  0  0  0  0  0
    2.2184   -4.1381    0.8746 H   0  0  0  0  0  0  0  0  0  0  0  0
    2.5377   -5.0931   -0.5282 H   0  0  0  0  0  0  0  0  0  0  0  0
    3.1692   -6.3336    1.5471 H   0  0  0  0  0  0  0  0  0  0  0  0
    4.4763   -6.1145    0.4209 H   0  0  0  0  0  0  0  0  0  0  0  0
    2.8077   -3.9686    2.9408 H   0  0  0  0  0  0  0  0  0  0  0  0
    4.1833   -3.6206    3.9629 H   0  0  0  0  0  0  0  0  0  0  0  0
    3.3874   -5.1896    4.0060 H   0  0  0  0  0  0  0  0  0  0  0  0
    8.3400   -8.0325    2.1865 H   0  0  0  0  0  0  0  0  0  0  0  0
    5.0330  -11.4250    1.3222 H   0  0  0  0  0  0  0  0  0  0  0  0
  1  2  1  0
  1 28  1  0
  1 29  1  0
  1 30  1  0
  2  7  2  0
  2  3  1  0
  3  4  2  0
  3 31  1  0
  4  5  1  0
  4 62  1  0
  5  6  2  0
  6 27  1  0
  6  7  1  0
  7  8  1  0
  8  9  1  0
  9 27  1  0
  9 10  1  6
  9 12  1  0
 10 11  1  0
 10 32  1  0
 10 33  1  0
 11 34  1  0
 12 13  1  0
 12 35  1  0
 12 36  1  0
 13 14  1  0
 13 37  1  0
 13 38  1  0
 14 25  1  0
 14 15  1  0
 14 39  1  1
 15 16  1  0
 15 27  1  0
 15 40  1  6
 16 17  1  0
 16 41  1  0
 16 42  1  0
 17 18  1  0
 17 43  1  0
 17 44  1  0
 18 25  1  0
 18 19  1  0
 18 45  1  1
 19 20  1  0
 19 21  1  0
 19 22  1  0
 20 46  1  0
 20 47  1  0
 20 48  1  0
 21 49  1  0
 21 50  1  0
 21 51  1  0
 22 23  1  0
 22 52  1  0
 22 53  1  0
 23 24  1  0
 23 54  1  0
 23 55  1  0
 24 25  1  0
 24 56  1  0
 24 57  1  0
 25 26  1  1
 26 58  1  0
 26 59  1  0
 26 60  1  0
 27 61  1  6
M  CHG  1   4   1
M  END
>  <i_m_ct_stereo_status>  (214) 
1

>  <s_m_source_file>  (214) 
/var/tmp/pbs.5076255.sched01/tmptyawoosb/846vw0lfia.sdf

>  <i_m_source_file_index>  (214) 
4

>  <i_lp_mmshare_version>  (214) 
48012

>  <i_f3d_flags>  (214) 
0

>  <s_epik_input>  (214) 
bjFuW2NIXWMoW0NIM10pYyhPMiljMVtDQEhdKFtDQF0yM1tDSDJdW09IXSlbQ0BIXTRbQ0BASF0oW0NIMl1bQ0gyXTMpW0NAQF01KFtDSDNdKVtDQEBIXShbQ0gyXVtDSDJdNClDKFtDSDNdKShbQ0gzXSlbQ0gyXVtDSDJdW0NIMl01

>  <s_epik_cmdline>  (214) 
J2VwaWtfcHl0aG9uJywgJy1waHQnLCAnMi4wJywgJy1waCcsICc3LjAnLCAnLXRuJywgJzgnLCAnLW1hJywgJzIwMCcsICctaW1hZScsICc8aW5maWxlLm1hZT4nLCAnLW9tYWUnLCAnPG91dGZpbGUubWFlPic=

>  <r_lp_tautomer_probability>  (214) 
0.995366

>  <r_epik_Ionization_Penalty>  (214) 
0.691624

>  <r_epik_Ionization_Penalty_Charging>  (214) 
0.691624

>  <r_epik_Ionization_Penalty_Neutral>  (214) 
5.07939e-08

>  <r_epik_State_Penalty>  (214) 
0.713553

>  <r_epik_Charging_Adjusted_Penalty>  (214) 
1.40518

>  <i_epik_Tot_Q>  (214) 
1

>  <i_epik_Tot_abs_Q>  (214) 
1

>  <s_lp_Force_Field>  (214) 
OPLS3e

>  <r_lp_Energy>  (214) 
66.567

>  <b_lp_Chiralities_Consistent>  (214) 
1

>  <s_lp_Variant>  (214) 
59:0-2

>  <s_i_glide_gridfile>  (214) 
pfpi4k_grid

>  <i_i_glide_lignum>  (214) 
4

>  <i_i_glide_rotatable_bonds>  (214) 
2

>  <r_i_docking_score>  (214) 
-3.84689

>  <r_i_glide_ligand_efficiency>  (214) 
-0.142477

>  <r_i_glide_ligand_efficiency_sa>  (214) 
-0.427432

>  <r_i_glide_ligand_efficiency_ln>  (214) 
-0.895492

>  <r_i_glide_gscore>  (214) 
-3.84689

>  <r_i_glide_lipo>  (214) 
-0.431183

>  <r_i_glide_hbond>  (214) 
-0.36

>  <r_i_glide_metal>  (214) 
-0

>  <r_i_glide_rewards>  (214) 
-0.87589

>  <r_i_glide_evdw>  (214) 
-16.7802

>  <r_i_glide_ecoul>  (214) 
-9.28232

>  <r_i_glide_erotb>  (214) 
0.139846

>  <r_i_glide_esite>  (214) 
-0.0883064

>  <r_i_glide_emodel>  (214) 
-34.643

>  <r_i_glide_energy>  (214) 
-26.0625

>  <r_i_glide_einternal>  (214) 
0.154575

>  <r_i_glide_intrahb_reward>  (214) 
-0

>  <i_i_glide_confnum>  (214) 
4

>  <i_i_glide_posenum>  (214) 
35

>  <r_i_glide_eff_state_penalty>  (214) 
0

>  <ligand_id>  (214) 
59

>  <original_smiles>  (214) 
Cc1cnnc2c1OC1(CO)CCC3C(CCC4C(C)(C)CCCC34C)C21

>  <smiles>  (214) 
[H]OC([H])([H])C12Oc3c(n[n+]([H])c([H])c3C([H])([H])[H])C1([H])C1([H])C([H])([H])C([H])([H])C3([H])C(C([H])([H])[H])(C([H])([H])[H])C([H])([H])C([H])([H])C([H])([H])C3(C([H])([H])[H])C1([H])C([H])([H])C2([H])[H]

$$$$
59:1:1
     RDKit          3D

 62 66  0  0  1  0  0  0  0  0999 V2000
    4.3077  -10.4614    5.8049 C   0  0  0  0  0  0  0  0  0  0  0  0
    4.8711  -10.1731    4.4365 C   0  0  0  0  0  0  0  0  0  0  0  0
    4.5006  -10.9291    3.3008 C   0  0  0  0  0  0  0  0  0  0  0  0
    5.0258  -10.6488    2.0839 N   0  0  0  0  0  0  0  0  0  0  0  0
    5.8996   -9.6432    1.8459 N   0  0  0  0  0  0  0  0  0  0  0  0
    6.2346   -8.9102    2.9231 C   0  0  0  0  0  0  0  0  0  0  0  0
    5.7851   -9.1298    4.2115 C   0  0  0  0  0  0  0  0  0  0  0  0
    6.3366   -8.2807    5.1308 O   0  0  0  0  0  0  0  0  0  0  0  0
    7.3759   -7.5554    4.4524 C   0  0  2  0  0  0  0  0  0  0  0  0
    8.7129   -8.1760    4.9460 C   0  0  0  0  0  0  0  0  0  0  0  0
    9.0412   -9.3865    4.2795 O   0  0  0  0  0  0  0  0  0  0  0  0
    7.2255   -6.0926    4.9057 C   0  0  0  0  0  0  0  0  0  0  0  0
    5.9705   -5.3656    4.3701 C   0  0  0  0  0  0  0  0  0  0  0  0
    5.4412   -5.8213    2.9695 C   0  0  2  0  0  0  0  0  0  0  0  0
    6.5531   -6.5178    2.1617 C   0  0  1  0  0  0  0  0  0  0  0  0
    7.5829   -5.4866    1.6629 C   0  0  0  0  0  0  0  0  0  0  0  0
    6.9027   -4.3743    0.8491 C   0  0  0  0  0  0  0  0  0  0  0  0
    5.7286   -3.6359    1.5776 C   0  0  1  0  0  0  0  0  0  0  0  0
    5.0841   -2.5266    0.6528 C   0  0  0  0  0  0  0  0  0  0  0  0
    4.2025   -1.5182    1.4477 C   0  0  0  0  0  0  0  0  0  0  0  0
    6.1662   -1.6594   -0.0377 C   0  0  0  0  0  0  0  0  0  0  0  0
    4.2396   -3.1903   -0.4594 C   0  0  0  0  0  0  0  0  0  0  0  0
    3.2328   -4.2237    0.0698 C   0  0  0  0  0  0  0  0  0  0  0  0
    3.8944   -5.2852    0.9716 C   0  0  0  0  0  0  0  0  0  0  0  0
    4.7010   -4.6839    2.1646 C   0  0  1  0  0  0  0  0  0  0  0  0
    3.6786   -4.0622    3.1605 C   0  0  0  0  0  0  0  0  0  0  0  0
    7.1752   -7.7333    2.9050 C   0  0  2  0  0  0  0  0  0  0  0  0
    3.6675  -11.3479    5.7922 H   0  0  0  0  0  0  0  0  0  0  0  0
    3.7086   -9.6125    6.1379 H   0  0  0  0  0  0  0  0  0  0  0  0
    5.1222  -10.6278    6.5121 H   0  0  0  0  0  0  0  0  0  0  0  0
    3.7803  -11.7371    3.3100 H   0  0  0  0  0  0  0  0  0  0  0  0
    9.5356   -7.4861    4.7719 H   0  0  0  0  0  0  0  0  0  0  0  0
    8.6722   -8.3664    6.0179 H   0  0  0  0  0  0  0  0  0  0  0  0
    9.2369   -9.1923    3.3817 H   0  0  0  0  0  0  0  0  0  0  0  0
    7.2380   -6.0546    5.9973 H   0  0  0  0  0  0  0  0  0  0  0  0
    8.1072   -5.5408    4.5906 H   0  0  0  0  0  0  0  0  0  0  0  0
    5.1721   -5.5150    5.0933 H   0  0  0  0  0  0  0  0  0  0  0  0
    6.1684   -4.2940    4.4008 H   0  0  0  0  0  0  0  0  0  0  0  0
    4.6897   -6.5898    3.1735 H   0  0  0  0  0  0  0  0  0  0  0  0
    6.1244   -6.9305    1.2509 H   0  0  0  0  0  0  0  0  0  0  0  0
    8.1410   -5.0392    2.4807 H   0  0  0  0  0  0  0  0  0  0  0  0
    8.3292   -5.9773    1.0382 H   0  0  0  0  0  0  0  0  0  0  0  0
    7.6871   -3.6704    0.5722 H   0  0  0  0  0  0  0  0  0  0  0  0
    6.5471   -4.8103   -0.0835 H   0  0  0  0  0  0  0  0  0  0  0  0
    6.1897   -3.1103    2.4130 H   0  0  0  0  0  0  0  0  0  0  0  0
    4.1254   -0.5505    0.9537 H   0  0  0  0  0  0  0  0  0  0  0  0
    4.5897   -1.3413    2.4495 H   0  0  0  0  0  0  0  0  0  0  0  0
    3.1729   -1.8495    1.5432 H   0  0  0  0  0  0  0  0  0  0  0  0
    5.7289   -0.8128   -0.5649 H   0  0  0  0  0  0  0  0  0  0  0  0
    6.7124   -2.2279   -0.7929 H   0  0  0  0  0  0  0  0  0  0  0  0
    6.8851   -1.2657    0.6795 H   0  0  0  0  0  0  0  0  0  0  0  0
    3.7073   -2.4345   -1.0376 H   0  0  0  0  0  0  0  0  0  0  0  0
    4.8948   -3.6922   -1.1763 H   0  0  0  0  0  0  0  0  0  0  0  0
    2.4074   -3.7285    0.5790 H   0  0  0  0  0  0  0  0  0  0  0  0
    2.7653   -4.7155   -0.7784 H   0  0  0  0  0  0  0  0  0  0  0  0
    3.1400   -5.9824    1.3358 H   0  0  0  0  0  0  0  0  0  0  0  0
    4.5464   -5.8661    0.3213 H   0  0  0  0  0  0  0  0  0  0  0  0
    2.8335   -3.5813    2.6824 H   0  0  0  0  0  0  0  0  0  0  0  0
    4.1410   -3.3194    3.8129 H   0  0  0  0  0  0  0  0  0  0  0  0
    3.2342   -4.8267    3.7978 H   0  0  0  0  0  0  0  0  0  0  0  0
    8.0906   -8.0011    2.3830 H   0  0  0  0  0  0  0  0  0  0  0  0
    4.6891  -11.2492    1.2954 H   0  0  0  0  0  0  0  0  0  0  0  0
  1  2  1  0
  1 28  1  0
  1 29  1  0
  1 30  1  0
  2  7  2  0
  2  3  1  0
  3  4  2  0
  3 31  1  0
  4  5  1  0
  4 62  1  0
  5  6  2  0
  6 27  1  0
  6  7  1  0
  7  8  1  0
  8  9  1  0
  9 27  1  0
  9 10  1  1
  9 12  1  0
 10 11  1  0
 10 32  1  0
 10 33  1  0
 11 34  1  0
 12 13  1  0
 12 35  1  0
 12 36  1  0
 13 14  1  0
 13 37  1  0
 13 38  1  0
 14 25  1  0
 14 15  1  0
 14 39  1  1
 15 16  1  0
 15 27  1  0
 15 40  1  6
 16 17  1  0
 16 41  1  0
 16 42  1  0
 17 18  1  0
 17 43  1  0
 17 44  1  0
 18 25  1  0
 18 19  1  0
 18 45  1  1
 19 20  1  0
 19 21  1  0
 19 22  1  0
 20 46  1  0
 20 47  1  0
 20 48  1  0
 21 49  1  0
 21 50  1  0
 21 51  1  0
 22 23  1  0
 22 52  1  0
 22 53  1  0
 23 24  1  0
 23 54  1  0
 23 55  1  0
 24 25  1  0
 24 56  1  0
 24 57  1  0
 25 26  1  1
 26 58  1  0
 26 59  1  0
 26 60  1  0
 27 61  1  6
M  CHG  1   4   1
M  END
>  <i_m_ct_stereo_status>  (215) 
1

>  <s_m_source_file>  (215) 
/var/tmp/pbs.5076255.sched01/tmptyawoosb/846vw0lfia.sdf

>  <i_m_source_file_index>  (215) 
4

>  <i_lp_mmshare_version>  (215) 
48012

>  <i_f3d_flags>  (215) 
0

>  <s_epik_input>  (215) 
bjFuW2NIXWMoW0NIM10pYyhPMiljMVtDQEhdKFtDQF0yM1tDSDJdW09IXSlbQ0BIXTRbQ0BASF0oW0NIMl1bQ0gyXTMpW0NAQF01KFtDSDNdKVtDQEBIXShbQ0gyXVtDSDJdNClDKFtDSDNdKShbQ0gzXSlbQ0gyXVtDSDJdW0NIMl01

>  <s_epik_cmdline>  (215) 
J2VwaWtfcHl0aG9uJywgJy1waHQnLCAnMi4wJywgJy1waCcsICc3LjAnLCAnLXRuJywgJzgnLCAnLW1hJywgJzIwMCcsICctaW1hZScsICc8aW5maWxlLm1hZT4nLCAnLW9tYWUnLCAnPG91dGZpbGUubWFlPic=

>  <r_lp_tautomer_probability>  (215) 
0.995366

>  <r_epik_Ionization_Penalty>  (215) 
0.691624

>  <r_epik_Ionization_Penalty_Charging>  (215) 
0.691624

>  <r_epik_Ionization_Penalty_Neutral>  (215) 
5.07939e-08

>  <r_epik_State_Penalty>  (215) 
0.713553

>  <r_epik_Charging_Adjusted_Penalty>  (215) 
1.40518

>  <i_epik_Tot_Q>  (215) 
1

>  <i_epik_Tot_abs_Q>  (215) 
1

>  <s_lp_Force_Field>  (215) 
OPLS3e

>  <r_lp_Energy>  (215) 
66.567

>  <b_lp_Chiralities_Consistent>  (215) 
1

>  <s_lp_Variant>  (215) 
59:0-2

>  <s_i_glide_gridfile>  (215) 
pfpi4k_grid

>  <i_i_glide_lignum>  (215) 
4

>  <i_i_glide_rotatable_bonds>  (215) 
2

>  <r_i_docking_score>  (215) 
-3.55016

>  <r_i_glide_ligand_efficiency>  (215) 
-0.131488

>  <r_i_glide_ligand_efficiency_sa>  (215) 
-0.394463

>  <r_i_glide_ligand_efficiency_ln>  (215) 
-0.82642

>  <r_i_glide_gscore>  (215) 
-3.55016

>  <r_i_glide_lipo>  (215) 
-0.419255

>  <r_i_glide_hbond>  (215) 
-0.155486

>  <r_i_glide_metal>  (215) 
-0

>  <r_i_glide_rewards>  (215) 
-0.87589

>  <r_i_glide_evdw>  (215) 
-16.1727

>  <r_i_glide_ecoul>  (215) 
-8.89523

>  <r_i_glide_erotb>  (215) 
0.139846

>  <r_i_glide_esite>  (215) 
-0.0964602

>  <r_i_glide_emodel>  (215) 
-31.8132

>  <r_i_glide_energy>  (215) 
-25.0679

>  <r_i_glide_einternal>  (215) 
2.31114

>  <r_i_glide_intrahb_reward>  (215) 
-0

>  <i_i_glide_confnum>  (215) 
5

>  <i_i_glide_posenum>  (215) 
37

>  <r_i_glide_eff_state_penalty>  (215) 
0

>  <ligand_id>  (215) 
59

>  <original_smiles>  (215) 
Cc1cnnc2c1OC1(CO)CCC3C(CCC4C(C)(C)CCCC34C)C21

>  <smiles>  (215) 
[H]OC([H])([H])C12Oc3c(n[n+]([H])c([H])c3C([H])([H])[H])C1([H])C1([H])C([H])([H])C([H])([H])C3([H])C(C([H])([H])[H])(C([H])([H])[H])C([H])([H])C([H])([H])C([H])([H])C3(C([H])([H])[H])C1([H])C([H])([H])C2([H])[H]

$$$$
59:1:2
     RDKit          3D

 62 66  0  0  1  0  0  0  0  0999 V2000
    3.7563   -9.9286    5.7739 C   0  0  0  0  0  0  0  0  0  0  0  0
    4.3329   -9.6965    4.3979 C   0  0  0  0  0  0  0  0  0  0  0  0
    3.9558  -10.4761    3.2869 C   0  0  0  0  0  0  0  0  0  0  0  0
    4.5166  -10.2515    2.0665 N   0  0  0  0  0  0  0  0  0  0  0  0
    5.4049   -9.2652    1.8099 N   0  0  0  0  0  0  0  0  0  0  0  0
    5.7540   -8.5095    2.8731 C   0  0  0  0  0  0  0  0  0  0  0  0
    5.2879   -8.6916    4.1573 C   0  0  0  0  0  0  0  0  0  0  0  0
    5.8396   -7.8295    5.0535 O   0  0  0  0  0  0  0  0  0  0  0  0
    6.8898   -7.1166    4.3772 C   0  0  2  0  0  0  0  0  0  0  0  0
    8.2084   -7.7454    4.8933 C   0  0  0  0  0  0  0  0  0  0  0  0
    9.3477   -7.1124    4.3391 O   0  0  0  0  0  0  0  0  0  0  0  0
    6.7515   -5.6418    4.7913 C   0  0  0  0  0  0  0  0  0  0  0  0
    5.5224   -4.9103    4.2033 C   0  0  0  0  0  0  0  0  0  0  0  0
    5.0108   -5.4066    2.8095 C   0  0  2  0  0  0  0  0  0  0  0  0
    6.1208   -6.1552    2.0409 C   0  0  1  0  0  0  0  0  0  0  0  0
    7.1679   -5.1561    1.5182 C   0  0  0  0  0  0  0  0  0  0  0  0
    6.5176   -4.0633    0.6565 C   0  0  0  0  0  0  0  0  0  0  0  0
    5.3517   -3.2799    1.3463 C   0  0  1  0  0  0  0  0  0  0  0  0
    4.7346   -2.1911    0.3758 C   0  0  0  0  0  0  0  0  0  0  0  0
    3.8641   -1.1409    1.1250 C   0  0  0  0  0  0  0  0  0  0  0  0
    5.8424   -1.3686   -0.3290 C   0  0  0  0  0  0  0  0  0  0  0  0
    3.8944   -2.8789   -0.7276 C   0  0  0  0  0  0  0  0  0  0  0  0
    2.8651   -3.8788   -0.1832 C   0  0  0  0  0  0  0  0  0  0  0  0
    3.4952   -4.9142    0.7714 C   0  0  0  0  0  0  0  0  0  0  0  0
    4.2973   -4.2875    1.9541 C   0  0  1  0  0  0  0  0  0  0  0  0
    3.2758   -3.6120    2.9165 C   0  0  0  0  0  0  0  0  0  0  0  0
    6.7106   -7.3579    2.8356 C   0  0  2  0  0  0  0  0  0  0  0  0
    3.1016  -10.8019    5.7923 H   0  0  0  0  0  0  0  0  0  0  0  0
    3.1733   -9.0617    6.0756 H   0  0  0  0  0  0  0  0  0  0  0  0
    4.5546  -10.0829    6.4981 H   0  0  0  0  0  0  0  0  0  0  0  0
    3.2396  -11.2844    3.3145 H   0  0  0  0  0  0  0  0  0  0  0  0
    8.2576   -7.6909    5.9831 H   0  0  0  0  0  0  0  0  0  0  0  0
    8.2542   -8.8010    4.6348 H   0  0  0  0  0  0  0  0  0  0  0  0
    9.3122   -6.1859    4.5213 H   0  0  0  0  0  0  0  0  0  0  0  0
    6.7476   -5.5613    5.8817 H   0  0  0  0  0  0  0  0  0  0  0  0
    7.6491   -5.1128    4.4858 H   0  0  0  0  0  0  0  0  0  0  0  0
    4.7100   -5.0154    4.9169 H   0  0  0  0  0  0  0  0  0  0  0  0
    5.7494   -3.8422    4.1873 H   0  0  0  0  0  0  0  0  0  0  0  0
    4.2429   -6.1553    3.0297 H   0  0  0  0  0  0  0  0  0  0  0  0
    5.6952   -6.5937    1.1426 H   0  0  0  0  0  0  0  0  0  0  0  0
    7.7163   -4.6821    2.3262 H   0  0  0  0  0  0  0  0  0  0  0  0
    7.9174   -5.6822    0.9227 H   0  0  0  0  0  0  0  0  0  0  0  0
    7.3175   -3.3858    0.3669 H   0  0  0  0  0  0  0  0  0  0  0  0
    6.1686   -4.5258   -0.2671 H   0  0  0  0  0  0  0  0  0  0  0  0
    5.8125   -2.7349    2.1693 H   0  0  0  0  0  0  0  0  0  0  0  0
    3.8125   -0.1855    0.5978 H   0  0  0  0  0  0  0  0  0  0  0  0
    4.2442   -0.9320    2.1266 H   0  0  0  0  0  0  0  0  0  0  0  0
    2.8271   -1.4452    1.2186 H   0  0  0  0  0  0  0  0  0  0  0  0
    5.4241   -0.5334   -0.8921 H   0  0  0  0  0  0  0  0  0  0  0  0
    6.3873   -1.9700   -1.0579 H   0  0  0  0  0  0  0  0  0  0  0  0
    6.5597   -0.9599    0.3842 H   0  0  0  0  0  0  0  0  0  0  0  0
    3.3817   -2.1296   -1.3319 H   0  0  0  0  0  0  0  0  0  0  0  0
    4.5491   -3.4102   -1.4152 H   0  0  0  0  0  0  0  0  0  0  0  0
    2.0493   -3.3429    0.2993 H   0  0  0  0  0  0  0  0  0  0  0  0
    2.4037   -4.3949   -1.0237 H   0  0  0  0  0  0  0  0  0  0  0  0
    2.7220   -5.5840    1.1514 H   0  0  0  0  0  0  0  0  0  0  0  0
    4.1424   -5.5313    0.1538 H   0  0  0  0  0  0  0  0  0  0  0  0
    2.4430   -3.1315    2.4123 H   0  0  0  0  0  0  0  0  0  0  0  0
    3.7426   -2.8562    3.5490 H   0  0  0  0  0  0  0  0  0  0  0  0
    2.8080   -4.3445    3.5755 H   0  0  0  0  0  0  0  0  0  0  0  0
    7.6399   -7.6895    2.3664 H   0  0  0  0  0  0  0  0  0  0  0  0
    4.2426  -10.8928    1.2916 H   0  0  0  0  0  0  0  0  0  0  0  0
  1  2  1  0
  1 28  1  0
  1 29  1  0
  1 30  1  0
  2  7  2  0
  2  3  1  0
  3  4  2  0
  3 31  1  0
  4  5  1  0
  4 62  1  0
  5  6  2  0
  6 27  1  0
  6  7  1  0
  7  8  1  0
  8  9  1  0
  9 27  1  0
  9 10  1  1
  9 12  1  0
 10 11  1  0
 10 32  1  0
 10 33  1  0
 11 34  1  0
 12 13  1  0
 12 35  1  0
 12 36  1  0
 13 14  1  0
 13 37  1  0
 13 38  1  0
 14 25  1  0
 14 15  1  0
 14 39  1  1
 15 16  1  0
 15 27  1  0
 15 40  1  6
 16 17  1  0
 16 41  1  0
 16 42  1  0
 17 18  1  0
 17 43  1  0
 17 44  1  0
 18 25  1  0
 18 19  1  0
 18 45  1  1
 19 20  1  0
 19 21  1  0
 19 22  1  0
 20 46  1  0
 20 47  1  0
 20 48  1  0
 21 49  1  0
 21 50  1  0
 21 51  1  0
 22 23  1  0
 22 52  1  0
 22 53  1  0
 23 24  1  0
 23 54  1  0
 23 55  1  0
 24 25  1  0
 24 56  1  0
 24 57  1  0
 25 26  1  1
 26 58  1  0
 26 59  1  0
 26 60  1  0
 27 61  1  6
M  CHG  1   4   1
M  END
>  <i_m_ct_stereo_status>  (216) 
1

>  <s_m_source_file>  (216) 
/var/tmp/pbs.5076255.sched01/tmptyawoosb/846vw0lfia.sdf

>  <i_m_source_file_index>  (216) 
4

>  <i_lp_mmshare_version>  (216) 
48012

>  <i_f3d_flags>  (216) 
0

>  <s_epik_input>  (216) 
bjFuW2NIXWMoW0NIM10pYyhPMiljMVtDQEhdKFtDQF0yM1tDSDJdW09IXSlbQ0BIXTRbQ0BASF0oW0NIMl1bQ0gyXTMpW0NAQF01KFtDSDNdKVtDQEBIXShbQ0gyXVtDSDJdNClDKFtDSDNdKShbQ0gzXSlbQ0gyXVtDSDJdW0NIMl01

>  <s_epik_cmdline>  (216) 
J2VwaWtfcHl0aG9uJywgJy1waHQnLCAnMi4wJywgJy1waCcsICc3LjAnLCAnLXRuJywgJzgnLCAnLW1hJywgJzIwMCcsICctaW1hZScsICc8aW5maWxlLm1hZT4nLCAnLW9tYWUnLCAnPG91dGZpbGUubWFlPic=

>  <r_lp_tautomer_probability>  (216) 
0.995366

>  <r_epik_Ionization_Penalty>  (216) 
0.691624

>  <r_epik_Ionization_Penalty_Charging>  (216) 
0.691624

>  <r_epik_Ionization_Penalty_Neutral>  (216) 
5.07939e-08

>  <r_epik_State_Penalty>  (216) 
0.713553

>  <r_epik_Charging_Adjusted_Penalty>  (216) 
1.40518

>  <i_epik_Tot_Q>  (216) 
1

>  <i_epik_Tot_abs_Q>  (216) 
1

>  <s_lp_Force_Field>  (216) 
OPLS3e

>  <r_lp_Energy>  (216) 
66.567

>  <b_lp_Chiralities_Consistent>  (216) 
1

>  <s_lp_Variant>  (216) 
59:0-2

>  <s_i_glide_gridfile>  (216) 
pfpi4k_grid

>  <i_i_glide_lignum>  (216) 
4

>  <i_i_glide_rotatable_bonds>  (216) 
2

>  <r_i_docking_score>  (216) 
-3.18985

>  <r_i_glide_ligand_efficiency>  (216) 
-0.118143

>  <r_i_glide_ligand_efficiency_sa>  (216) 
-0.354428

>  <r_i_glide_ligand_efficiency_ln>  (216) 
-0.742546

>  <r_i_glide_gscore>  (216) 
-3.18985

>  <r_i_glide_lipo>  (216) 
-0.335285

>  <r_i_glide_hbond>  (216) 
-0.2

>  <r_i_glide_metal>  (216) 
-0

>  <r_i_glide_rewards>  (216) 
-0.87589

>  <r_i_glide_evdw>  (216) 
-16.0586

>  <r_i_glide_ecoul>  (216) 
-6.77064

>  <r_i_glide_erotb>  (216) 
0.139846

>  <r_i_glide_esite>  (216) 
-0.1

>  <r_i_glide_emodel>  (216) 
-29.9863

>  <r_i_glide_energy>  (216) 
-22.8292

>  <r_i_glide_einternal>  (216) 
0.0886805

>  <r_i_glide_intrahb_reward>  (216) 
-0

>  <i_i_glide_confnum>  (216) 
4

>  <i_i_glide_posenum>  (216) 
1

>  <r_i_glide_eff_state_penalty>  (216) 
0

>  <ligand_id>  (216) 
59

>  <original_smiles>  (216) 
Cc1cnnc2c1OC1(CO)CCC3C(CCC4C(C)(C)CCCC34C)C21

>  <smiles>  (216) 
[H]OC([H])([H])C12Oc3c(n[n+]([H])c([H])c3C([H])([H])[H])C1([H])C1([H])C([H])([H])C([H])([H])C3([H])C(C([H])([H])[H])(C([H])([H])[H])C([H])([H])C([H])([H])C([H])([H])C3(C([H])([H])[H])C1([H])C([H])([H])C2([H])[H]

$$$$
60:0:0
     RDKit          3D

 74 78  0  0  1  0  0  0  0  0999 V2000
    1.0564   -7.5948    7.3057 C   0  0  0  0  0  0  0  0  0  0  0  0
    1.1060   -8.3729    5.9731 C   0  0  0  0  0  0  0  0  0  0  0  0
    0.0449   -9.4821    6.1672 C   0  0  0  0  0  0  0  0  0  0  0  0
    0.6689   -7.3605    5.0636 O   0  0  0  0  0  0  0  0  0  0  0  0
    0.1589   -7.5501    3.8184 C   0  0  0  0  0  0  0  0  0  0  0  0
   -0.4638   -6.6708    3.2289 O   0  0  0  0  0  0  0  0  0  0  0  0
    0.3828   -8.9028    3.1195 C   0  0  0  0  0  0  0  0  0  0  0  0
    1.7240   -9.6775    3.2811 C   0  0  0  0  0  0  0  0  0  0  0  0
    2.9189   -9.1170    4.1169 C   0  0  1  0  0  0  0  0  0  0  0  0
    4.0030  -10.2419    4.0401 C   0  0  0  0  0  0  0  0  0  0  0  0
    3.4714   -7.7716    3.4961 C   0  0  2  0  0  0  0  0  0  0  0  0
    4.3823   -7.9563    2.2784 C   0  0  0  0  0  0  0  0  0  0  0  0
    4.5038   -6.6711    1.4454 C   0  0  1  0  0  0  0  0  0  0  0  0
    3.4796   -6.6499    0.4830 O   0  0  0  0  0  0  0  0  0  0  0  0
    4.6651   -5.3244    2.2518 C   0  0  1  0  0  0  0  0  0  0  0  0
    5.8933   -4.6478    1.5412 C   0  0  0  0  0  0  0  0  0  0  0  0
    3.4634   -4.2687    2.2432 C   0  0  2  0  0  0  0  0  0  0  0  0
    2.0614   -4.8411    2.5763 C   0  0  0  0  0  0  0  0  0  0  0  0
    3.2687   -3.4607    0.9212 C   0  0  0  0  0  0  0  0  0  0  0  0
    2.5885   -3.9091   -0.0027 O   0  0  0  0  0  0  0  0  0  0  0  0
    3.9628   -2.1009    0.7839 C   0  0  1  0  0  0  0  0  0  0  0  0
    3.4208   -1.3143   -0.2672 O   0  0  0  0  0  0  0  0  0  0  0  0
    3.9291   -1.3514    2.1141 C   0  0  0  0  0  0  0  0  0  0  0  0
    4.5684   -2.1718    3.0815 O   0  0  0  0  0  0  0  0  0  0  0  0
    3.8058   -3.3275    3.4342 C   0  0  2  0  0  0  0  0  0  0  0  0
    4.6861   -4.1481    4.4077 C   0  0  1  0  0  0  0  0  0  0  0  0
    4.1096   -4.1189    5.6976 O   0  0  0  0  0  0  0  0  0  0  0  0
    4.9609   -5.5761    3.8025 C   0  0  2  0  0  0  0  0  0  0  0  0
    6.4729   -5.8982    4.0277 C   0  0  0  0  0  0  0  0  0  0  0  0
    4.0560   -6.7203    4.4947 C   0  0  2  0  0  0  0  0  0  0  0  0
    4.6821   -7.4482    5.7276 C   0  0  1  0  0  0  0  0  0  0  0  0
    5.1069   -6.5584    6.7479 O   0  0  0  0  0  0  0  0  0  0  0  0
    3.7483   -8.4610    6.4383 C   0  0  0  0  0  0  0  0  0  0  0  0
    2.5267   -8.9719    5.6236 C   0  0  1  0  0  0  0  0  0  0  0  0
    1.3361   -8.2171    8.1556 H   0  0  0  0  0  0  0  0  0  0  0  0
    0.0477   -7.2295    7.5063 H   0  0  0  0  0  0  0  0  0  0  0  0
    1.7072   -6.7204    7.2860 H   0  0  0  0  0  0  0  0  0  0  0  0
    0.2204  -10.0669    7.0678 H   0  0  0  0  0  0  0  0  0  0  0  0
    0.0210  -10.2106    5.3660 H   0  0  0  0  0  0  0  0  0  0  0  0
   -0.9581   -9.0716    6.2465 H   0  0  0  0  0  0  0  0  0  0  0  0
   -0.4538   -9.5591    3.3601 H   0  0  0  0  0  0  0  0  0  0  0  0
    0.2776   -8.6909    2.0545 H   0  0  0  0  0  0  0  0  0  0  0  0
    1.4801  -10.6709    3.6650 H   0  0  0  0  0  0  0  0  0  0  0  0
    2.0850   -9.8792    2.2705 H   0  0  0  0  0  0  0  0  0  0  0  0
    4.9547   -9.9442    4.4804 H   0  0  0  0  0  0  0  0  0  0  0  0
    4.2125  -10.5470    3.0135 H   0  0  0  0  0  0  0  0  0  0  0  0
    3.6786  -11.1478    4.5596 H   0  0  0  0  0  0  0  0  0  0  0  0
    2.6079   -7.2939    3.0599 H   0  0  0  0  0  0  0  0  0  0  0  0
    5.3742   -8.2690    2.6078 H   0  0  0  0  0  0  0  0  0  0  0  0
    4.0243   -8.7571    1.6319 H   0  0  0  0  0  0  0  0  0  0  0  0
    5.4002   -6.8466    0.8489 H   0  0  0  0  0  0  0  0  0  0  0  0
    3.6859   -6.0065   -0.1834 H   0  0  0  0  0  0  0  0  0  0  0  0
    6.2026   -3.7102    2.0056 H   0  0  0  0  0  0  0  0  0  0  0  0
    5.6940   -4.4484    0.4893 H   0  0  0  0  0  0  0  0  0  0  0  0
    6.7758   -5.2900    1.5206 H   0  0  0  0  0  0  0  0  0  0  0  0
    1.9669   -5.1987    3.5959 H   0  0  0  0  0  0  0  0  0  0  0  0
    1.7452   -5.6359    1.9071 H   0  0  0  0  0  0  0  0  0  0  0  0
    1.3001   -4.0672    2.4873 H   0  0  0  0  0  0  0  0  0  0  0  0
    5.0019   -2.2819    0.5232 H   0  0  0  0  0  0  0  0  0  0  0  0
    2.4593   -1.2590   -0.2024 H   0  0  0  0  0  0  0  0  0  0  0  0
    4.4904   -0.4186    2.0286 H   0  0  0  0  0  0  0  0  0  0  0  0
    2.9118   -1.1000    2.4192 H   0  0  0  0  0  0  0  0  0  0  0  0
    2.8959   -2.9801    3.9304 H   0  0  0  0  0  0  0  0  0  0  0  0
    5.6338   -3.6136    4.5144 H   0  0  0  0  0  0  0  0  0  0  0  0
    4.6483   -4.6717    6.2572 H   0  0  0  0  0  0  0  0  0  0  0  0
    6.7561   -5.9490    5.0746 H   0  0  0  0  0  0  0  0  0  0  0  0
    7.1187   -5.1182    3.6449 H   0  0  0  0  0  0  0  0  0  0  0  0
    6.7812   -6.8268    3.5516 H   0  0  0  0  0  0  0  0  0  0  0  0
    3.1795   -6.2460    4.9241 H   0  0  0  0  0  0  0  0  0  0  0  0
    5.5646   -7.9907    5.3825 H   0  0  0  0  0  0  0  0  0  0  0  0
    5.5725   -7.0709    7.4011 H   0  0  0  0  0  0  0  0  0  0  0  0
    4.3611   -9.3227    6.7176 H   0  0  0  0  0  0  0  0  0  0  0  0
    3.4590   -8.0748    7.4130 H   0  0  0  0  0  0  0  0  0  0  0  0
    2.4239   -9.9887    6.0052 H   0  0  0  0  0  0  0  0  0  0  0  0
  1  2  1  0
  1 35  1  0
  1 36  1  0
  1 37  1  0
  2 34  1  0
  2  3  1  0
  2  4  1  0
  3 38  1  0
  3 39  1  0
  3 40  1  0
  4  5  1  0
  5  6  2  0
  5  7  1  0
  7  8  1  0
  7 41  1  0
  7 42  1  0
  8  9  1  0
  8 43  1  0
  8 44  1  0
  9 34  1  0
  9 10  1  1
  9 11  1  0
 10 45  1  0
 10 46  1  0
 10 47  1  0
 11 30  1  0
 11 12  1  0
 11 48  1  6
 12 13  1  0
 12 49  1  0
 12 50  1  0
 13 14  1  0
 13 15  1  0
 13 51  1  6
 14 52  1  0
 15 28  1  0
 15 16  1  6
 15 17  1  0
 16 53  1  0
 16 54  1  0
 16 55  1  0
 17 25  1  0
 17 18  1  1
 17 19  1  0
 18 56  1  0
 18 57  1  0
 18 58  1  0
 19 20  2  0
 19 21  1  0
 21 22  1  0
 21 23  1  0
 21 59  1  6
 22 60  1  0
 23 24  1  0
 23 61  1  0
 23 62  1  0
 24 25  1  0
 25 26  1  0
 25 63  1  1
 26 27  1  0
 26 28  1  0
 26 64  1  1
 27 65  1  0
 28 29  1  6
 28 30  1  0
 29 66  1  0
 29 67  1  0
 29 68  1  0
 30 31  1  0
 30 69  1  1
 31 32  1  0
 31 33  1  0
 31 70  1  6
 32 71  1  0
 33 34  1  0
 33 72  1  0
 33 73  1  0
 34 74  1  1
M  END
>  <i_m_ct_stereo_status>  (217) 
1

>  <s_m_source_file>  (217) 
/var/tmp/pbs.5076255.sched01/tmptyawoosb/846vw0lfia.sdf

>  <i_m_source_file_index>  (217) 
5

>  <i_lp_mmshare_version>  (217) 
48012

>  <i_f3d_flags>  (217) 
0

>  <s_epik_input>  (217) 
W0NIMl0xW0NIMl1DKD1PKU9DKFtDSDNdKShbQ0gzXSlbQ0BASF0yW0NIMl1bQ0BIXShbT0hdKVtDQEhdKFtDQEBIXTNbQ0BdMTJbQ0gzXSlbQ0BAXTQoW0NIM10pW0NAQF0oW0NIM10pKFtDQEBIXShbQ0gyXTMpW09IXSlbQ0BAXTUoW0NIM10pW0NAQEhdKFtDQEhdNFtPSF0pT1tDSDJdW0NAQEhdKEM1PU8pW09IXQ==

>  <s_epik_cmdline>  (217) 
J2VwaWtfcHl0aG9uJywgJy1waHQnLCAnMi4wJywgJy1waCcsICc3LjAnLCAnLXRuJywgJzgnLCAnLW1hJywgJzIwMCcsICctaW1hZScsICc8aW5maWxlLm1hZT4nLCAnLW9tYWUnLCAnPG91dGZpbGUubWFlPic=

>  <r_lp_tautomer_probability>  (217) 
1

>  <r_epik_Ionization_Penalty>  (217) 
2.426e-06

>  <r_epik_Ionization_Penalty_Charging>  (217) 
0

>  <r_epik_Ionization_Penalty_Neutral>  (217) 
2.426e-06

>  <r_epik_State_Penalty>  (217) 
-0

>  <r_epik_Charging_Adjusted_Penalty>  (217) 
0

>  <i_epik_Tot_Q>  (217) 
0

>  <i_epik_Tot_abs_Q>  (217) 
0

>  <s_epik_Chemistry_Notes>  (217) 
This compound has an ester and may undergo hydrolysis at high or low pH.

>  <s_lp_Force_Field>  (217) 
OPLS3e

>  <r_lp_Energy>  (217) 
108.228

>  <b_lp_Chiralities_Consistent>  (217) 
1

>  <s_lp_Variant>  (217) 
60:0-1

>  <s_i_glide_gridfile>  (217) 
pfpi4k_grid

>  <i_i_glide_lignum>  (217) 
5

>  <i_i_glide_rotatable_bonds>  (217) 
4

>  <r_i_docking_score>  (217) 
-3.26922

>  <r_i_glide_ligand_efficiency>  (217) 
-0.0961536

>  <r_i_glide_ligand_efficiency_sa>  (217) 
-0.3115

>  <r_i_glide_ligand_efficiency_ln>  (217) 
-0.722263

>  <r_i_glide_gscore>  (217) 
-3.26922

>  <r_i_glide_lipo>  (217) 
-0.158291

>  <r_i_glide_hbond>  (217) 
-0.154847

>  <r_i_glide_metal>  (217) 
-0

>  <r_i_glide_rewards>  (217) 
-0.632334

>  <r_i_glide_evdw>  (217) 
-24.6556

>  <r_i_glide_ecoul>  (217) 
-7.02894

>  <r_i_glide_erotb>  (217) 
0

>  <r_i_glide_esite>  (217) 
-0.0366298

>  <r_i_glide_emodel>  (217) 
-42.6312

>  <r_i_glide_energy>  (217) 
-31.6845

>  <r_i_glide_einternal>  (217) 
2.57779

>  <r_i_glide_intrahb_reward>  (217) 
-0.5

>  <i_i_glide_confnum>  (217) 
1

>  <i_i_glide_posenum>  (217) 
20

>  <r_i_glide_eff_state_penalty>  (217) 
0

>  <ligand_id>  (217) 
60

>  <original_smiles>  (217) 
CC1(C)OC(=O)CCC2(C)C3CC(O)C4(C)C5(C)C(=O)C(O)COC5C(O)C4(C)C3C(O)CC12

>  <smiles>  (217) 
[H]OC1([H])C(=O)C2(C([H])([H])[H])C([H])(OC1([H])[H])C([H])(O[H])C1(C([H])([H])[H])C3([H])C([H])(O[H])C([H])([H])C4([H])C(C([H])([H])[H])(C([H])([H])[H])OC(=O)C([H])([H])C([H])([H])C4(C([H])([H])[H])C3([H])C([H])([H])C([H])(O[H])C21C([H])([H])[H]

$$$$
60:0:1
     RDKit          3D

 74 78  0  0  1  0  0  0  0  0999 V2000
    1.2086   -7.6925    6.8363 C   0  0  0  0  0  0  0  0  0  0  0  0
    1.2994   -8.4437    5.4894 C   0  0  0  0  0  0  0  0  0  0  0  0
    0.2275   -9.5596    5.6200 C   0  0  0  0  0  0  0  0  0  0  0  0
    0.8891   -7.4078    4.5968 O   0  0  0  0  0  0  0  0  0  0  0  0
    0.4203   -7.5659    3.3335 C   0  0  0  0  0  0  0  0  0  0  0  0
   -0.1863   -6.6646    2.7497 O   0  0  0  0  0  0  0  0  0  0  0  0
    0.6682   -8.8952    2.6072 C   0  0  0  0  0  0  0  0  0  0  0  0
    2.0033   -9.6742    2.7861 C   0  0  0  0  0  0  0  0  0  0  0  0
    3.1722   -9.1352    3.6690 C   0  0  1  0  0  0  0  0  0  0  0  0
    4.2660  -10.2509    3.5998 C   0  0  0  0  0  0  0  0  0  0  0  0
    3.7390   -7.7728    3.0953 C   0  0  2  0  0  0  0  0  0  0  0  0
    4.6889   -7.9240    1.9023 C   0  0  0  0  0  0  0  0  0  0  0  0
    4.8326   -6.6193    1.1024 C   0  0  1  0  0  0  0  0  0  0  0  0
    3.8318   -6.5763    0.1176 O   0  0  0  0  0  0  0  0  0  0  0  0
    4.9573   -5.2892    1.9400 C   0  0  1  0  0  0  0  0  0  0  0  0
    6.2023   -4.5911    1.2801 C   0  0  0  0  0  0  0  0  0  0  0  0
    3.7462   -4.2413    1.9144 C   0  0  2  0  0  0  0  0  0  0  0  0
    2.3354   -4.8277    2.1901 C   0  0  0  0  0  0  0  0  0  0  0  0
    3.5755   -3.3996    0.6098 C   0  0  0  0  0  0  0  0  0  0  0  0
    2.8911   -3.8104   -0.3299 O   0  0  0  0  0  0  0  0  0  0  0  0
    4.2869   -2.0407    0.5263 C   0  0  1  0  0  0  0  0  0  0  0  0
    3.7607   -1.2255   -0.5084 O   0  0  0  0  0  0  0  0  0  0  0  0
    4.2081   -1.3174    1.8705 C   0  0  0  0  0  0  0  0  0  0  0  0
    4.8171   -2.1577    2.8354 O   0  0  0  0  0  0  0  0  0  0  0  0
    4.0442   -3.3215    3.1312 C   0  0  2  0  0  0  0  0  0  0  0  0
    4.8849   -4.1624    4.1168 C   0  0  1  0  0  0  0  0  0  0  0  0
    4.2439   -4.1501    5.3759 O   0  0  0  0  0  0  0  0  0  0  0  0
    5.2025   -5.5727    3.4954 C   0  0  2  0  0  0  0  0  0  0  0  0
    6.7111   -5.8951    3.7559 C   0  0  0  0  0  0  0  0  0  0  0  0
    4.2907   -6.7422    4.1372 C   0  0  2  0  0  0  0  0  0  0  0  0
    4.8842   -7.5040    5.3679 C   0  0  1  0  0  0  0  0  0  0  0  0
    5.3003   -6.6612    6.4284 O   0  0  0  0  0  0  0  0  0  0  0  0
    3.9279   -8.5233    6.0331 C   0  0  0  0  0  0  0  0  0  0  0  0
    2.7357   -9.0272    5.1701 C   0  0  1  0  0  0  0  0  0  0  0  0
    1.4673   -8.3322    7.6805 H   0  0  0  0  0  0  0  0  0  0  0  0
    0.1950   -7.3315    7.0168 H   0  0  0  0  0  0  0  0  0  0  0  0
    1.8572   -6.8155    6.8541 H   0  0  0  0  0  0  0  0  0  0  0  0
    0.3838  -10.1651    6.5116 H   0  0  0  0  0  0  0  0  0  0  0  0
    0.2198  -10.2698    4.8005 H   0  0  0  0  0  0  0  0  0  0  0  0
   -0.7738   -9.1426    5.6916 H   0  0  0  0  0  0  0  0  0  0  0  0
   -0.1777   -9.5542    2.7983 H   0  0  0  0  0  0  0  0  0  0  0  0
    0.5909   -8.6508    1.5483 H   0  0  0  0  0  0  0  0  0  0  0  0
    1.7438  -10.6746    3.1373 H   0  0  0  0  0  0  0  0  0  0  0  0
    2.3893   -9.8523    1.7812 H   0  0  0  0  0  0  0  0  0  0  0  0
    5.2017   -9.9603    4.0724 H   0  0  0  0  0  0  0  0  0  0  0  0
    4.5092  -10.5335    2.5742 H   0  0  0  0  0  0  0  0  0  0  0  0
    3.9370  -11.1708    4.0886 H   0  0  0  0  0  0  0  0  0  0  0  0
    2.8881   -7.2886    2.6439 H   0  0  0  0  0  0  0  0  0  0  0  0
    5.6680   -8.2518    2.2508 H   0  0  0  0  0  0  0  0  0  0  0  0
    4.3476   -8.7092    1.2265 H   0  0  0  0  0  0  0  0  0  0  0  0
    5.7427   -6.7777    0.5230 H   0  0  0  0  0  0  0  0  0  0  0  0
    4.0383   -5.9166   -0.5302 H   0  0  0  0  0  0  0  0  0  0  0  0
    6.4936   -3.6640    1.7734 H   0  0  0  0  0  0  0  0  0  0  0  0
    6.0333   -4.3683    0.2269 H   0  0  0  0  0  0  0  0  0  0  0  0
    7.0875   -5.2285    1.2699 H   0  0  0  0  0  0  0  0  0  0  0  0
    2.2133   -5.1977    3.2018 H   0  0  0  0  0  0  0  0  0  0  0  0
    2.0496   -5.6158    1.4997 H   0  0  0  0  0  0  0  0  0  0  0  0
    1.5699   -4.0590    2.0923 H   0  0  0  0  0  0  0  0  0  0  0  0
    5.3332   -2.2151    0.2826 H   0  0  0  0  0  0  0  0  0  0  0  0
    2.8194   -1.1259   -0.3931 H   0  0  0  0  0  0  0  0  0  0  0  0
    4.7659   -0.3804    1.8236 H   0  0  0  0  0  0  0  0  0  0  0  0
    3.1804   -1.0728    2.1491 H   0  0  0  0  0  0  0  0  0  0  0  0
    3.1174   -2.9791    3.5998 H   0  0  0  0  0  0  0  0  0  0  0  0
    5.8160   -3.6234    4.2824 H   0  0  0  0  0  0  0  0  0  0  0  0
    4.2340   -3.2614    5.6948 H   0  0  0  0  0  0  0  0  0  0  0  0
    6.9654   -5.9655    4.8092 H   0  0  0  0  0  0  0  0  0  0  0  0
    7.3754   -5.1146    3.4033 H   0  0  0  0  0  0  0  0  0  0  0  0
    7.0328   -6.8146    3.2729 H   0  0  0  0  0  0  0  0  0  0  0  0
    3.3975   -6.2818    4.5495 H   0  0  0  0  0  0  0  0  0  0  0  0
    5.7699   -8.0448    5.0325 H   0  0  0  0  0  0  0  0  0  0  0  0
    5.7293   -7.1921    7.0829 H   0  0  0  0  0  0  0  0  0  0  0  0
    4.5333   -9.3885    6.3064 H   0  0  0  0  0  0  0  0  0  0  0  0
    3.6087   -8.1678    7.0086 H   0  0  0  0  0  0  0  0  0  0  0  0
    2.6284  -10.0545    5.5231 H   0  0  0  0  0  0  0  0  0  0  0  0
  1  2  1  0
  1 35  1  0
  1 36  1  0
  1 37  1  0
  2 34  1  0
  2  3  1  0
  2  4  1  0
  3 38  1  0
  3 39  1  0
  3 40  1  0
  4  5  1  0
  5  6  2  0
  5  7  1  0
  7  8  1  0
  7 41  1  0
  7 42  1  0
  8  9  1  0
  8 43  1  0
  8 44  1  0
  9 34  1  0
  9 10  1  1
  9 11  1  0
 10 45  1  0
 10 46  1  0
 10 47  1  0
 11 30  1  0
 11 12  1  0
 11 48  1  6
 12 13  1  0
 12 49  1  0
 12 50  1  0
 13 14  1  0
 13 15  1  0
 13 51  1  6
 14 52  1  0
 15 28  1  0
 15 16  1  6
 15 17  1  0
 16 53  1  0
 16 54  1  0
 16 55  1  0
 17 25  1  0
 17 18  1  1
 17 19  1  0
 18 56  1  0
 18 57  1  0
 18 58  1  0
 19 20  2  0
 19 21  1  0
 21 22  1  0
 21 23  1  0
 21 59  1  6
 22 60  1  0
 23 24  1  0
 23 61  1  0
 23 62  1  0
 24 25  1  0
 25 26  1  0
 25 63  1  1
 26 27  1  0
 26 28  1  0
 26 64  1  1
 27 65  1  0
 28 29  1  6
 28 30  1  0
 29 66  1  0
 29 67  1  0
 29 68  1  0
 30 31  1  0
 30 69  1  1
 31 32  1  0
 31 33  1  0
 31 70  1  6
 32 71  1  0
 33 34  1  0
 33 72  1  0
 33 73  1  0
 34 74  1  1
M  END
>  <i_m_ct_stereo_status>  (218) 
1

>  <s_m_source_file>  (218) 
/var/tmp/pbs.5076255.sched01/tmptyawoosb/846vw0lfia.sdf

>  <i_m_source_file_index>  (218) 
5

>  <i_lp_mmshare_version>  (218) 
48012

>  <i_f3d_flags>  (218) 
0

>  <s_epik_input>  (218) 
W0NIMl0xW0NIMl1DKD1PKU9DKFtDSDNdKShbQ0gzXSlbQ0BASF0yW0NIMl1bQ0BIXShbT0hdKVtDQEhdKFtDQEBIXTNbQ0BdMTJbQ0gzXSlbQ0BAXTQoW0NIM10pW0NAQF0oW0NIM10pKFtDQEBIXShbQ0gyXTMpW09IXSlbQ0BAXTUoW0NIM10pW0NAQEhdKFtDQEhdNFtPSF0pT1tDSDJdW0NAQEhdKEM1PU8pW09IXQ==

>  <s_epik_cmdline>  (218) 
J2VwaWtfcHl0aG9uJywgJy1waHQnLCAnMi4wJywgJy1waCcsICc3LjAnLCAnLXRuJywgJzgnLCAnLW1hJywgJzIwMCcsICctaW1hZScsICc8aW5maWxlLm1hZT4nLCAnLW9tYWUnLCAnPG91dGZpbGUubWFlPic=

>  <r_lp_tautomer_probability>  (218) 
1

>  <r_epik_Ionization_Penalty>  (218) 
2.426e-06

>  <r_epik_Ionization_Penalty_Charging>  (218) 
0

>  <r_epik_Ionization_Penalty_Neutral>  (218) 
2.426e-06

>  <r_epik_State_Penalty>  (218) 
-0

>  <r_epik_Charging_Adjusted_Penalty>  (218) 
0

>  <i_epik_Tot_Q>  (218) 
0

>  <i_epik_Tot_abs_Q>  (218) 
0

>  <s_epik_Chemistry_Notes>  (218) 
This compound has an ester and may undergo hydrolysis at high or low pH.

>  <s_lp_Force_Field>  (218) 
OPLS3e

>  <r_lp_Energy>  (218) 
108.228

>  <b_lp_Chiralities_Consistent>  (218) 
1

>  <s_lp_Variant>  (218) 
60:0-1

>  <s_i_glide_gridfile>  (218) 
pfpi4k_grid

>  <i_i_glide_lignum>  (218) 
5

>  <i_i_glide_rotatable_bonds>  (218) 
4

>  <r_i_docking_score>  (218) 
-2.78024

>  <r_i_glide_ligand_efficiency>  (218) 
-0.0817717

>  <r_i_glide_ligand_efficiency_sa>  (218) 
-0.264908

>  <r_i_glide_ligand_efficiency_ln>  (218) 
-0.614232

>  <r_i_glide_gscore>  (218) 
-2.78024

>  <r_i_glide_lipo>  (218) 
-0.287074

>  <r_i_glide_hbond>  (218) 
-0.16

>  <r_i_glide_metal>  (218) 
-0

>  <r_i_glide_rewards>  (218) 
-0.132334

>  <r_i_glide_evdw>  (218) 
-25.7923

>  <r_i_glide_ecoul>  (218) 
-5.84249

>  <r_i_glide_erotb>  (218) 
0

>  <r_i_glide_esite>  (218) 
-0.0348406

>  <r_i_glide_emodel>  (218) 
-36.6609

>  <r_i_glide_energy>  (218) 
-31.6348

>  <r_i_glide_einternal>  (218) 
2.41623

>  <r_i_glide_intrahb_reward>  (218) 
-0

>  <i_i_glide_confnum>  (218) 
1

>  <i_i_glide_posenum>  (218) 
1

>  <r_i_glide_eff_state_penalty>  (218) 
0

>  <ligand_id>  (218) 
60

>  <original_smiles>  (218) 
CC1(C)OC(=O)CCC2(C)C3CC(O)C4(C)C5(C)C(=O)C(O)COC5C(O)C4(C)C3C(O)CC12

>  <smiles>  (218) 
[H]OC1([H])C(=O)C2(C([H])([H])[H])C([H])(OC1([H])[H])C([H])(O[H])C1(C([H])([H])[H])C3([H])C([H])(O[H])C([H])([H])C4([H])C(C([H])([H])[H])(C([H])([H])[H])OC(=O)C([H])([H])C([H])([H])C4(C([H])([H])[H])C3([H])C([H])([H])C([H])(O[H])C21C([H])([H])[H]

$$$$
60:0:2
     RDKit          3D

 74 78  0  0  1  0  0  0  0  0999 V2000
    2.4858   -3.9729    4.2741 C   0  0  0  0  0  0  0  0  0  0  0  0
    3.5713   -2.9258    4.6081 C   0  0  0  0  0  0  0  0  0  0  0  0
    4.9028   -3.6255    4.2085 C   0  0  0  0  0  0  0  0  0  0  0  0
    3.2055   -1.8898    3.6980 O   0  0  0  0  0  0  0  0  0  0  0  0
    3.9955   -0.8816    3.2585 C   0  0  0  0  0  0  0  0  0  0  0  0
    3.7221   -0.2300    2.2598 O   0  0  0  0  0  0  0  0  0  0  0  0
    5.2633   -0.5267    4.0425 C   0  0  0  0  0  0  0  0  0  0  0  0
    5.2906   -0.6083    5.5961 C   0  0  0  0  0  0  0  0  0  0  0  0
    4.0318   -0.9920    6.4345 C   0  0  1  0  0  0  0  0  0  0  0  0
    4.5326   -0.9910    7.9139 C   0  0  0  0  0  0  0  0  0  0  0  0
    2.8757    0.0677    6.2441 C   0  0  2  0  0  0  0  0  0  0  0  0
    3.0574    1.3584    7.0486 C   0  0  0  0  0  0  0  0  0  0  0  0
    2.2149    2.5107    6.4838 C   0  0  1  0  0  0  0  0  0  0  0  0
    2.9816    3.2048    5.5279 O   0  0  0  0  0  0  0  0  0  0  0  0
    0.7418    2.1524    6.0368 C   0  0  1  0  0  0  0  0  0  0  0  0
   -0.1097    3.2668    6.7518 C   0  0  0  0  0  0  0  0  0  0  0  0
    0.3801    2.1885    4.4781 C   0  0  2  0  0  0  0  0  0  0  0  0
    1.3503    1.4329    3.5311 C   0  0  0  0  0  0  0  0  0  0  0  0
    0.2389    3.6104    3.8443 C   0  0  0  0  0  0  0  0  0  0  0  0
    1.2169    4.2174    3.4175 O   0  0  0  0  0  0  0  0  0  0  0  0
   -1.1619    4.2454    3.8110 C   0  0  1  0  0  0  0  0  0  0  0  0
   -1.2470    5.3167    2.8796 O   0  0  0  0  0  0  0  0  0  0  0  0
   -2.2185    3.1929    3.4969 C   0  0  0  0  0  0  0  0  0  0  0  0
   -2.1296    2.2123    4.5172 O   0  0  0  0  0  0  0  0  0  0  0  0
   -0.9594    1.4021    4.4045 C   0  0  2  0  0  0  0  0  0  0  0  0
   -0.9828    0.4505    5.6251 C   0  0  1  0  0  0  0  0  0  0  0  0
   -1.2064   -0.8834    5.2012 O   0  0  0  0  0  0  0  0  0  0  0  0
    0.2915    0.6935    6.5167 C   0  0  2  0  0  0  0  0  0  0  0  0
   -0.1687    0.7326    8.0125 C   0  0  0  0  0  0  0  0  0  0  0  0
    1.4042   -0.4616    6.3188 C   0  0  2  0  0  0  0  0  0  0  0  0
    1.3289   -1.6797    7.2993 C   0  0  1  0  0  0  0  0  0  0  0  0
    0.0570   -2.3091    7.3660 O   0  0  0  0  0  0  0  0  0  0  0  0
    2.3359   -2.8181    6.9976 C   0  0  0  0  0  0  0  0  0  0  0  0
    3.5661   -2.4502    6.1165 C   0  0  1  0  0  0  0  0  0  0  0  0
    2.5918   -4.8814    4.8687 H   0  0  0  0  0  0  0  0  0  0  0  0
    2.5443   -4.2775    3.2266 H   0  0  0  0  0  0  0  0  0  0  0  0
    1.4821   -3.5762    4.4258 H   0  0  0  0  0  0  0  0  0  0  0  0
    5.0075   -4.5944    4.6955 H   0  0  0  0  0  0  0  0  0  0  0  0
    5.7972   -3.0731    4.4762 H   0  0  0  0  0  0  0  0  0  0  0  0
    4.9487   -3.8100    3.1361 H   0  0  0  0  0  0  0  0  0  0  0  0
    6.0847   -1.0989    3.6116 H   0  0  0  0  0  0  0  0  0  0  0  0
    5.4871    0.5059    3.7705 H   0  0  0  0  0  0  0  0  0  0  0  0
    6.1027   -1.2870    5.8717 H   0  0  0  0  0  0  0  0  0  0  0  0
    5.6474    0.3637    5.9418 H   0  0  0  0  0  0  0  0  0  0  0  0
    3.7264   -1.1211    8.6340 H   0  0  0  0  0  0  0  0  0  0  0  0
    5.0380   -0.0641    8.1828 H   0  0  0  0  0  0  0  0  0  0  0  0
    5.2552   -1.7892    8.1004 H   0  0  0  0  0  0  0  0  0  0  0  0
    2.9935    0.4252    5.2368 H   0  0  0  0  0  0  0  0  0  0  0  0
    2.7763    1.1823    8.0871 H   0  0  0  0  0  0  0  0  0  0  0  0
    4.1073    1.6705    7.0798 H   0  0  0  0  0  0  0  0  0  0  0  0
    2.1789    3.2233    7.3079 H   0  0  0  0  0  0  0  0  0  0  0  0
    3.0216    2.6786    4.7399 H   0  0  0  0  0  0  0  0  0  0  0  0
   -1.1843    3.1524    6.6107 H   0  0  0  0  0  0  0  0  0  0  0  0
    0.1621    4.2695    6.4175 H   0  0  0  0  0  0  0  0  0  0  0  0
    0.0564    3.3031    7.8303 H   0  0  0  0  0  0  0  0  0  0  0  0
    1.3312    0.3601    3.6793 H   0  0  0  0  0  0  0  0  0  0  0  0
    2.3790    1.7739    3.5885 H   0  0  0  0  0  0  0  0  0  0  0  0
    1.0640    1.5743    2.4880 H   0  0  0  0  0  0  0  0  0  0  0  0
   -1.3622    4.6645    4.7927 H   0  0  0  0  0  0  0  0  0  0  0  0
   -0.7967    5.0358    2.0759 H   0  0  0  0  0  0  0  0  0  0  0  0
   -3.2118    3.6426    3.5357 H   0  0  0  0  0  0  0  0  0  0  0  0
   -2.0973    2.7567    2.5009 H   0  0  0  0  0  0  0  0  0  0  0  0
   -1.0375    0.8453    3.4651 H   0  0  0  0  0  0  0  0  0  0  0  0
   -1.8708    0.7019    6.2081 H   0  0  0  0  0  0  0  0  0  0  0  0
   -0.5164   -1.1101    4.5919 H   0  0  0  0  0  0  0  0  0  0  0  0
   -0.5673   -0.2124    8.3636 H   0  0  0  0  0  0  0  0  0  0  0  0
   -0.9958    1.4179    8.1980 H   0  0  0  0  0  0  0  0  0  0  0  0
    0.6378    1.0117    8.6901 H   0  0  0  0  0  0  0  0  0  0  0  0
    1.2445   -0.9164    5.3448 H   0  0  0  0  0  0  0  0  0  0  0  0
    1.5442   -1.3090    8.3009 H   0  0  0  0  0  0  0  0  0  0  0  0
   -0.1258   -2.7114    6.5256 H   0  0  0  0  0  0  0  0  0  0  0  0
    2.7040   -3.1825    7.9654 H   0  0  0  0  0  0  0  0  0  0  0  0
    1.8114   -3.6908    6.6182 H   0  0  0  0  0  0  0  0  0  0  0  0
    4.3308   -3.1023    6.5316 H   0  0  0  0  0  0  0  0  0  0  0  0
  1  2  1  0
  1 35  1  0
  1 36  1  0
  1 37  1  0
  2 34  1  0
  2  3  1  0
  2  4  1  0
  3 38  1  0
  3 39  1  0
  3 40  1  0
  4  5  1  0
  5  6  2  0
  5  7  1  0
  7  8  1  0
  7 41  1  0
  7 42  1  0
  8  9  1  0
  8 43  1  0
  8 44  1  0
  9 34  1  0
  9 10  1  1
  9 11  1  0
 10 45  1  0
 10 46  1  0
 10 47  1  0
 11 30  1  0
 11 12  1  0
 11 48  1  6
 12 13  1  0
 12 49  1  0
 12 50  1  0
 13 14  1  0
 13 15  1  0
 13 51  1  1
 14 52  1  0
 15 28  1  0
 15 16  1  1
 15 17  1  0
 16 53  1  0
 16 54  1  0
 16 55  1  0
 17 25  1  0
 17 18  1  6
 17 19  1  0
 18 56  1  0
 18 57  1  0
 18 58  1  0
 19 20  2  0
 19 21  1  0
 21 22  1  0
 21 23  1  0
 21 59  1  1
 22 60  1  0
 23 24  1  0
 23 61  1  0
 23 62  1  0
 24 25  1  0
 25 26  1  0
 25 63  1  6
 26 27  1  0
 26 28  1  0
 26 64  1  1
 27 65  1  0
 28 29  1  1
 28 30  1  0
 29 66  1  0
 29 67  1  0
 29 68  1  0
 30 31  1  0
 30 69  1  6
 31 32  1  0
 31 33  1  0
 31 70  1  1
 32 71  1  0
 33 34  1  0
 33 72  1  0
 33 73  1  0
 34 74  1  1
M  END
>  <i_m_ct_stereo_status>  (219) 
1

>  <s_m_source_file>  (219) 
/var/tmp/pbs.5076255.sched01/tmptyawoosb/846vw0lfia.sdf

>  <i_m_source_file_index>  (219) 
5

>  <i_lp_mmshare_version>  (219) 
48012

>  <i_f3d_flags>  (219) 
0

>  <s_epik_input>  (219) 
W0NIMl0xW0NIMl1DKD1PKU9DKFtDSDNdKShbQ0gzXSlbQ0BASF0yW0NIMl1bQ0BIXShbT0hdKVtDQEhdKFtDQEBIXTNbQ0BdMTJbQ0gzXSlbQ0BAXTQoW0NIM10pW0NAQF0oW0NIM10pKFtDQEBIXShbQ0gyXTMpW09IXSlbQ0BAXTUoW0NIM10pW0NAQEhdKFtDQEhdNFtPSF0pT1tDSDJdW0NAQEhdKEM1PU8pW09IXQ==

>  <s_epik_cmdline>  (219) 
J2VwaWtfcHl0aG9uJywgJy1waHQnLCAnMi4wJywgJy1waCcsICc3LjAnLCAnLXRuJywgJzgnLCAnLW1hJywgJzIwMCcsICctaW1hZScsICc8aW5maWxlLm1hZT4nLCAnLW9tYWUnLCAnPG91dGZpbGUubWFlPic=

>  <r_lp_tautomer_probability>  (219) 
1

>  <r_epik_Ionization_Penalty>  (219) 
2.426e-06

>  <r_epik_Ionization_Penalty_Charging>  (219) 
0

>  <r_epik_Ionization_Penalty_Neutral>  (219) 
2.426e-06

>  <r_epik_State_Penalty>  (219) 
-0

>  <r_epik_Charging_Adjusted_Penalty>  (219) 
0

>  <i_epik_Tot_Q>  (219) 
0

>  <i_epik_Tot_abs_Q>  (219) 
0

>  <s_epik_Chemistry_Notes>  (219) 
This compound has an ester and may undergo hydrolysis at high or low pH.

>  <s_lp_Force_Field>  (219) 
OPLS3e

>  <r_lp_Energy>  (219) 
108.228

>  <b_lp_Chiralities_Consistent>  (219) 
1

>  <s_lp_Variant>  (219) 
60:0-1

>  <s_i_glide_gridfile>  (219) 
pfpi4k_grid

>  <i_i_glide_lignum>  (219) 
5

>  <i_i_glide_rotatable_bonds>  (219) 
4

>  <r_i_docking_score>  (219) 
-2.75745

>  <r_i_glide_ligand_efficiency>  (219) 
-0.0811015

>  <r_i_glide_ligand_efficiency_sa>  (219) 
-0.262737

>  <r_i_glide_ligand_efficiency_ln>  (219) 
-0.609198

>  <r_i_glide_gscore>  (219) 
-2.75745

>  <r_i_glide_lipo>  (219) 
-0.145637

>  <r_i_glide_hbond>  (219) 
0

>  <r_i_glide_metal>  (219) 
-0

>  <r_i_glide_rewards>  (219) 
-0.151375

>  <r_i_glide_evdw>  (219) 
-23.145

>  <r_i_glide_ecoul>  (219) 
-8.15541

>  <r_i_glide_erotb>  (219) 
0

>  <r_i_glide_esite>  (219) 
-0.0798781

>  <r_i_glide_emodel>  (219) 
-36.2778

>  <r_i_glide_energy>  (219) 
-31.3004

>  <r_i_glide_einternal>  (219) 
1.83204

>  <r_i_glide_intrahb_reward>  (219) 
-0

>  <i_i_glide_confnum>  (219) 
2

>  <i_i_glide_posenum>  (219) 
2

>  <r_i_glide_eff_state_penalty>  (219) 
0

>  <ligand_id>  (219) 
60

>  <original_smiles>  (219) 
CC1(C)OC(=O)CCC2(C)C3CC(O)C4(C)C5(C)C(=O)C(O)COC5C(O)C4(C)C3C(O)CC12

>  <smiles>  (219) 
[H]OC1([H])C(=O)C2(C([H])([H])[H])C([H])(OC1([H])[H])C([H])(O[H])C1(C([H])([H])[H])C3([H])C([H])(O[H])C([H])([H])C4([H])C(C([H])([H])[H])(C([H])([H])[H])OC(=O)C([H])([H])C([H])([H])C4(C([H])([H])[H])C3([H])C([H])([H])C([H])(O[H])C21C([H])([H])[H]

$$$$
61:0:0
     RDKit          3D

 77 82  0  0  1  0  0  0  0  0999 V2000
   -1.4831    4.8569    2.8916 C   0  0  0  0  0  0  0  0  0  0  0  0
   -2.1695    3.7247    3.1433 C   0  0  0  0  0  0  0  0  0  0  0  0
   -3.5135    3.4735    2.4711 C   0  0  0  0  0  0  0  0  0  0  0  0
   -1.6932    2.6397    4.1282 C   0  0  2  0  0  0  0  0  0  0  0  0
   -0.8899    3.2191    5.3081 C   0  0  0  0  0  0  0  0  0  0  0  0
    0.5935    3.0052    4.9777 C   0  0  0  0  0  0  0  0  0  0  0  0
    0.6574    2.1265    3.7112 C   0  0  1  0  0  0  0  0  0  0  0  0
    1.8523    1.1278    3.7191 C   0  0  2  0  0  0  0  0  0  0  0  0
    2.3013    0.6743    2.3111 C   0  0  0  0  0  0  0  0  0  0  0  0
    3.5317   -0.2424    2.3657 C   0  0  0  0  0  0  0  0  0  0  0  0
    3.3158   -1.4585    3.2936 C   0  0  1  0  0  0  0  0  0  0  0  0
    4.5406   -2.4062    3.2765 C   0  0  0  0  0  0  0  0  0  0  0  0
    4.3395   -3.6548    4.1428 C   0  0  1  0  0  0  0  0  0  0  0  0
    4.0557   -4.9210    3.3315 C   0  0  0  0  0  0  0  0  0  0  0  0
    2.6753   -4.9081    2.6399 C   0  0  0  0  0  0  0  0  0  0  0  0
    2.1368   -6.3030    2.2489 C   0  0  2  0  0  0  0  0  0  0  0  0
    1.0351   -6.1346    1.3675 O   0  0  0  0  0  0  0  0  0  0  0  0
    1.7122   -7.1332    3.4864 C   0  0  0  0  0  0  0  0  0  0  0  0
    0.9364   -8.3060    3.1409 N   0  0  0  0  0  0  0  0  0  0  0  0
    1.3856   -9.5822    2.8772 C   0  0  0  0  0  0  0  0  0  0  0  0
    0.2438  -10.2570    2.5728 C   0  0  0  0  0  0  0  0  0  0  0  0
   -0.8346   -9.3805    2.6617 N   0  0  0  0  0  0  0  0  0  0  0  0
   -0.4095   -8.2195    3.0295 N   0  0  0  0  0  0  0  0  0  0  0  0
    5.5421   -3.8535    4.9193 O   0  0  0  0  0  0  0  0  0  0  0  0
    4.8394   -3.2504    6.1132 O   0  0  0  0  0  0  0  0  0  0  0  0
    3.5847   -3.4635    5.4409 C   0  0  1  0  0  0  0  0  0  0  0  0
    2.5806   -2.3199    5.5818 C   0  0  0  0  0  0  0  0  0  0  0  0
    2.8806   -1.0402    4.7352 C   0  0  1  0  0  0  0  0  0  0  0  0
    4.0253   -0.2653    5.4586 C   0  0  0  0  0  0  0  0  0  0  0  0
    1.6177   -0.0952    4.6523 C   0  0  2  0  0  0  0  0  0  0  0  0
    0.2664   -0.7552    4.2625 C   0  0  0  0  0  0  0  0  0  0  0  0
   -0.9013    0.2383    4.4005 C   0  0  0  0  0  0  0  0  0  0  0  0
   -0.7634    1.5234    3.5443 C   0  0  1  0  0  0  0  0  0  0  0  0
   -1.0813    1.1808    2.0756 C   0  0  0  0  0  0  0  0  0  0  0  0
   -1.8503    5.5906    2.1886 H   0  0  0  0  0  0  0  0  0  0  0  0
   -0.5334    5.0712    3.3630 H   0  0  0  0  0  0  0  0  0  0  0  0
   -4.2966    3.3553    3.2186 H   0  0  0  0  0  0  0  0  0  0  0  0
   -3.5061    2.5741    1.8602 H   0  0  0  0  0  0  0  0  0  0  0  0
   -3.7939    4.2966    1.8127 H   0  0  0  0  0  0  0  0  0  0  0  0
   -2.6024    2.1906    4.5259 H   0  0  0  0  0  0  0  0  0  0  0  0
   -1.1220    4.2623    5.5250 H   0  0  0  0  0  0  0  0  0  0  0  0
   -1.1302    2.6674    6.2184 H   0  0  0  0  0  0  0  0  0  0  0  0
    1.0934    3.9581    4.7989 H   0  0  0  0  0  0  0  0  0  0  0  0
    1.0942    2.5418    5.8285 H   0  0  0  0  0  0  0  0  0  0  0  0
    0.8127    2.8212    2.8842 H   0  0  0  0  0  0  0  0  0  0  0  0
    2.6879    1.7043    4.1102 H   0  0  0  0  0  0  0  0  0  0  0  0
    1.5163    0.1389    1.7884 H   0  0  0  0  0  0  0  0  0  0  0  0
    2.5292    1.5426    1.6953 H   0  0  0  0  0  0  0  0  0  0  0  0
    3.7551   -0.5940    1.3569 H   0  0  0  0  0  0  0  0  0  0  0  0
    4.4005    0.3327    2.6858 H   0  0  0  0  0  0  0  0  0  0  0  0
    2.4918   -2.0297    2.8637 H   0  0  0  0  0  0  0  0  0  0  0  0
    4.7808   -2.6917    2.2527 H   0  0  0  0  0  0  0  0  0  0  0  0
    5.4164   -1.8566    3.6283 H   0  0  0  0  0  0  0  0  0  0  0  0
    4.8382   -5.0883    2.5920 H   0  0  0  0  0  0  0  0  0  0  0  0
    4.1216   -5.7780    4.0004 H   0  0  0  0  0  0  0  0  0  0  0  0
    1.9396   -4.4187    3.2805 H   0  0  0  0  0  0  0  0  0  0  0  0
    2.7520   -4.2846    1.7475 H   0  0  0  0  0  0  0  0  0  0  0  0
    2.9004   -6.8497    1.6912 H   0  0  0  0  0  0  0  0  0  0  0  0
    0.7660   -7.0042    1.1013 H   0  0  0  0  0  0  0  0  0  0  0  0
    2.5937   -7.4734    4.0302 H   0  0  0  0  0  0  0  0  0  0  0  0
    1.1247   -6.5315    4.1832 H   0  0  0  0  0  0  0  0  0  0  0  0
    2.4190   -9.8875    2.9161 H   0  0  0  0  0  0  0  0  0  0  0  0
    0.1245  -11.2840    2.2779 H   0  0  0  0  0  0  0  0  0  0  0  0
    3.1609   -4.4172    5.7620 H   0  0  0  0  0  0  0  0  0  0  0  0
    1.6530   -2.7587    5.2396 H   0  0  0  0  0  0  0  0  0  0  0  0
    2.4204   -2.0655    6.6329 H   0  0  0  0  0  0  0  0  0  0  0  0
    3.7031    0.0935    6.4372 H   0  0  0  0  0  0  0  0  0  0  0  0
    4.3715    0.6051    4.9030 H   0  0  0  0  0  0  0  0  0  0  0  0
    4.9101   -0.8774    5.6270 H   0  0  0  0  0  0  0  0  0  0  0  0
    1.4680    0.2817    5.6626 H   0  0  0  0  0  0  0  0  0  0  0  0
    0.3035   -1.1693    3.2550 H   0  0  0  0  0  0  0  0  0  0  0  0
    0.0154   -1.5854    4.9173 H   0  0  0  0  0  0  0  0  0  0  0  0
   -1.8362   -0.2626    4.1474 H   0  0  0  0  0  0  0  0  0  0  0  0
   -0.9825    0.4979    5.4554 H   0  0  0  0  0  0  0  0  0  0  0  0
   -0.5594    0.3041    1.7094 H   0  0  0  0  0  0  0  0  0  0  0  0
   -0.7950    2.0005    1.4238 H   0  0  0  0  0  0  0  0  0  0  0  0
   -2.1363    0.9628    1.9234 H   0  0  0  0  0  0  0  0  0  0  0  0
  1  2  2  0
  1 35  1  0
  1 36  1  0
  2  3  1  0
  2  4  1  0
  3 37  1  0
  3 38  1  0
  3 39  1  0
  4 33  1  0
  4  5  1  0
  4 40  1  1
  5  6  1  0
  5 41  1  0
  5 42  1  0
  6  7  1  0
  6 43  1  0
  6 44  1  0
  7 33  1  0
  7  8  1  0
  7 45  1  6
  8 30  1  0
  8  9  1  0
  8 46  1  1
  9 10  1  0
  9 47  1  0
  9 48  1  0
 10 11  1  0
 10 49  1  0
 10 50  1  0
 11 28  1  0
 11 12  1  0
 11 51  1  6
 12 13  1  0
 12 52  1  0
 12 53  1  0
 13 26  1  0
 13 14  1  6
 13 24  1  0
 14 15  1  0
 14 54  1  0
 14 55  1  0
 15 16  1  0
 15 56  1  0
 15 57  1  0
 16 17  1  0
 16 18  1  0
 16 58  1  6
 17 59  1  0
 18 19  1  0
 18 60  1  0
 18 61  1  0
 19 23  1  0
 19 20  1  0
 20 21  2  0
 20 62  1  0
 21 22  1  0
 21 63  1  0
 22 23  2  0
 24 25  1  0
 25 26  1  0
 26 27  1  0
 26 64  1  1
 27 28  1  0
 27 65  1  0
 27 66  1  0
 28 29  1  1
 28 30  1  0
 29 67  1  0
 29 68  1  0
 29 69  1  0
 30 31  1  0
 30 70  1  1
 31 32  1  0
 31 71  1  0
 31 72  1  0
 32 33  1  0
 32 73  1  0
 32 74  1  0
 33 34  1  6
 34 75  1  0
 34 76  1  0
 34 77  1  0
M  END
>  <i_m_ct_stereo_status>  (220) 
1

>  <s_m_source_file>  (220) 
/var/tmp/pbs.5076255.sched01/tmptyawoosb/846vw0lfia.sdf

>  <i_m_source_file_index>  (220) 
6

>  <i_lp_mmshare_version>  (220) 
48012

>  <i_f3d_flags>  (220) 
0

>  <s_epik_input>  (220) 
W0NIMl09QyhbQ0gzXSlbQ0BIXShbQ0gyXVtDSDJdMSlbQ0BdKFtDSDNdKShbQ0gyXVtDSDJdW0NASF0yMylbQ0BASF0xW0NAQEhdMltDSDJdW0NIMl1bQ0BASF0oW0NIMl00KVtDQF0zKFtDSDNdKVtDSDJdW0NASF0oT081KVtDQEBdNDVbQ0gyXVtDSDJdW0NASF0oW09IXSlbQ0gyXW42W2NIXVtjSF1ubjY=

>  <s_epik_cmdline>  (220) 
J2VwaWtfcHl0aG9uJywgJy1waHQnLCAnMi4wJywgJy1waCcsICc3LjAnLCAnLXRuJywgJzgnLCAnLW1hJywgJzIwMCcsICctaW1hZScsICc8aW5maWxlLm1hZT4nLCAnLW9tYWUnLCAnPG91dGZpbGUubWFlPic=

>  <r_lp_tautomer_probability>  (220) 
1

>  <r_epik_Ionization_Penalty>  (220) 
1.0942e-06

>  <r_epik_Ionization_Penalty_Charging>  (220) 
0

>  <r_epik_Ionization_Penalty_Neutral>  (220) 
1.0942e-06

>  <r_epik_State_Penalty>  (220) 
-0

>  <r_epik_Charging_Adjusted_Penalty>  (220) 
0

>  <i_epik_Tot_Q>  (220) 
0

>  <i_epik_Tot_abs_Q>  (220) 
0

>  <s_lp_Force_Field>  (220) 
OPLS3e

>  <r_lp_Energy>  (220) 
58.1307

>  <b_lp_Chiralities_Consistent>  (220) 
1

>  <s_lp_Variant>  (220) 
61:0-1

>  <s_i_glide_gridfile>  (220) 
pfpi4k_grid

>  <i_i_glide_lignum>  (220) 
6

>  <i_i_glide_rotatable_bonds>  (220) 
7

>  <r_i_docking_score>  (220) 
-2.19271

>  <r_i_glide_ligand_efficiency>  (220) 
-0.0644914

>  <r_i_glide_ligand_efficiency_sa>  (220) 
-0.208927

>  <r_i_glide_ligand_efficiency_ln>  (220) 
-0.484431

>  <r_i_glide_gscore>  (220) 
-2.19271

>  <r_i_glide_lipo>  (220) 
-0.361912

>  <r_i_glide_hbond>  (220) 
-0.16

>  <r_i_glide_metal>  (220) 
-0

>  <r_i_glide_rewards>  (220) 
-0.206868

>  <r_i_glide_evdw>  (220) 
-27.7288

>  <r_i_glide_ecoul>  (220) 
-3.11075

>  <r_i_glide_erotb>  (220) 
0.457866

>  <r_i_glide_esite>  (220) 
-0.0687423

>  <r_i_glide_emodel>  (220) 
-33.3791

>  <r_i_glide_energy>  (220) 
-30.8395

>  <r_i_glide_einternal>  (220) 
3.01364

>  <r_i_glide_intrahb_reward>  (220) 
-0

>  <i_i_glide_confnum>  (220) 
2

>  <i_i_glide_posenum>  (220) 
19

>  <r_i_glide_eff_state_penalty>  (220) 
0

>  <ligand_id>  (220) 
61

>  <original_smiles>  (220) 
C=C(C)C1CCC2C3CCC4CC5(CCC(O)Cn6ccnn6)OOC5CC4(C)C3CCC12C

>  <smiles>  (220) 
[H]OC([H])(C([H])([H])n1nnc([H])c1[H])C([H])([H])C([H])([H])C12OOC1([H])C([H])([H])C1(C([H])([H])[H])C([H])(C([H])([H])C([H])([H])C3([H])C4([H])C([H])([H])C([H])([H])C([H])(C(=C([H])[H])C([H])([H])[H])C4(C([H])([H])[H])C([H])([H])C([H])([H])C31[H])C2([H])[H]

$$$$
61:0:1
     RDKit          3D

 77 82  0  0  1  0  0  0  0  0999 V2000
   -1.9669   -9.8220    2.8676 C   0  0  0  0  0  0  0  0  0  0  0  0
   -0.8286   -9.5036    3.5060 C   0  0  0  0  0  0  0  0  0  0  0  0
   -0.8246   -9.0065    4.9695 C   0  0  0  0  0  0  0  0  0  0  0  0
    0.4862   -9.6245    2.7711 C   0  0  2  0  0  0  0  0  0  0  0  0
    1.4416  -10.6393    3.4397 C   0  0  0  0  0  0  0  0  0  0  0  0
    2.4181   -9.7992    4.2602 C   0  0  0  0  0  0  0  0  0  0  0  0
    2.1522   -8.3125    3.9347 C   0  0  1  0  0  0  0  0  0  0  0  0
    3.4075   -7.4324    3.9297 C   0  0  2  0  0  0  0  0  0  0  0  0
    3.0992   -5.9402    4.2056 C   0  0  0  0  0  0  0  0  0  0  0  0
    4.3876   -5.1222    4.2335 C   0  0  0  0  0  0  0  0  0  0  0  0
    5.1924   -5.3404    2.9252 C   0  0  1  0  0  0  0  0  0  0  0  0
    6.4472   -4.5430    2.9037 C   0  0  0  0  0  0  0  0  0  0  0  0
    7.3560   -4.6238    1.6676 C   0  0  1  0  0  0  0  0  0  0  0  0
    7.2652   -3.3389    0.8309 C   0  0  0  0  0  0  0  0  0  0  0  0
    7.8376   -3.4362   -0.5997 C   0  0  0  0  0  0  0  0  0  0  0  0
    6.8344   -2.9900   -1.6724 C   0  0  2  0  0  0  0  0  0  0  0  0
    6.5016   -1.6705   -1.3404 O   0  0  0  0  0  0  0  0  0  0  0  0
    5.5181   -3.8007   -1.7834 C   0  0  0  0  0  0  0  0  0  0  0  0
    4.4581   -3.1291   -2.5004 N   0  0  0  0  0  0  0  0  0  0  0  0
    3.1003   -3.2562   -2.2955 C   0  0  0  0  0  0  0  0  0  0  0  0
    2.5715   -2.4794   -3.3029 C   0  0  0  0  0  0  0  0  0  0  0  0
    3.6364   -1.9410   -4.0493 N   0  0  0  0  0  0  0  0  0  0  0  0
    4.7244   -2.3731   -3.5726 N   0  0  0  0  0  0  0  0  0  0  0  0
    8.7636   -4.6615    2.0005 O   0  0  0  0  0  0  0  0  0  0  0  0
    8.6595   -6.1701    2.0160 O   0  0  0  0  0  0  0  0  0  0  0  0
    7.5046   -6.0277    1.1686 C   0  0  1  0  0  0  0  0  0  0  0  0
    6.3628   -6.9892    1.3786 C   0  0  0  0  0  0  0  0  0  0  0  0
    5.5649   -6.8373    2.7056 C   0  0  1  0  0  0  0  0  0  0  0  0
    6.4868   -7.4061    3.8366 C   0  0  0  0  0  0  0  0  0  0  0  0
    4.2431   -7.6508    2.6495 C   0  0  2  0  0  0  0  0  0  0  0  0
    3.3425   -7.4041    1.3981 C   0  0  0  0  0  0  0  0  0  0  0  0
    2.1716   -8.3920    1.4069 C   0  0  0  0  0  0  0  0  0  0  0  0
    1.2806   -8.3040    2.6465 C   0  0  1  0  0  0  0  0  0  0  0  0
    0.3226   -7.0749    2.4920 C   0  0  0  0  0  0  0  0  0  0  0  0
   -2.8674   -9.7203    3.4438 H   0  0  0  0  0  0  0  0  0  0  0  0
   -2.0528  -10.1339    1.8399 H   0  0  0  0  0  0  0  0  0  0  0  0
   -0.5015   -7.9855    5.1440 H   0  0  0  0  0  0  0  0  0  0  0  0
   -0.1862   -9.6823    5.5542 H   0  0  0  0  0  0  0  0  0  0  0  0
   -1.8102   -8.9948    5.4131 H   0  0  0  0  0  0  0  0  0  0  0  0
    0.2343  -10.0284    1.7911 H   0  0  0  0  0  0  0  0  0  0  0  0
    0.9283  -11.3969    4.0195 H   0  0  0  0  0  0  0  0  0  0  0  0
    1.9997  -11.1602    2.6724 H   0  0  0  0  0  0  0  0  0  0  0  0
    2.2736   -9.9900    5.3265 H   0  0  0  0  0  0  0  0  0  0  0  0
    3.4424  -10.0962    4.0278 H   0  0  0  0  0  0  0  0  0  0  0  0
    1.5883   -7.9373    4.7714 H   0  0  0  0  0  0  0  0  0  0  0  0
    3.9802   -7.7711    4.7921 H   0  0  0  0  0  0  0  0  0  0  0  0
    2.4771   -5.5021    3.4317 H   0  0  0  0  0  0  0  0  0  0  0  0
    2.5657   -5.8161    5.1472 H   0  0  0  0  0  0  0  0  0  0  0  0
    4.1498   -4.0625    4.3592 H   0  0  0  0  0  0  0  0  0  0  0  0
    4.9643   -5.3873    5.1263 H   0  0  0  0  0  0  0  0  0  0  0  0
    4.5836   -4.9682    2.0855 H   0  0  0  0  0  0  0  0  0  0  0  0
    6.1683   -3.4861    3.0997 H   0  0  0  0  0  0  0  0  0  0  0  0
    7.0430   -4.8956    3.7972 H   0  0  0  0  0  0  0  0  0  0  0  0
    6.2252   -3.0206    0.8453 H   0  0  0  0  0  0  0  0  0  0  0  0
    7.7612   -2.4949    1.2642 H   0  0  0  0  0  0  0  0  0  0  0  0
    8.7875   -2.8992   -0.6939 H   0  0  0  0  0  0  0  0  0  0  0  0
    8.1718   -4.4376   -0.7986 H   0  0  0  0  0  0  0  0  0  0  0  0
    7.3405   -3.0383   -2.6368 H   0  0  0  0  0  0  0  0  0  0  0  0
    5.8298   -1.6944   -0.6904 H   0  0  0  0  0  0  0  0  0  0  0  0
    5.6832   -4.6677   -2.3811 H   0  0  0  0  0  0  0  0  0  0  0  0
    5.1302   -4.1231   -0.8236 H   0  0  0  0  0  0  0  0  0  0  0  0
    2.6471   -3.8693   -1.5433 H   0  0  0  0  0  0  0  0  0  0  0  0
    1.5593   -2.2940   -3.5429 H   0  0  0  0  0  0  0  0  0  0  0  0
    7.8353   -6.1245    0.1269 H   0  0  0  0  0  0  0  0  0  0  0  0
    5.7107   -6.7070    0.5619 H   0  0  0  0  0  0  0  0  0  0  0  0
    6.7249   -8.0062    1.2327 H   0  0  0  0  0  0  0  0  0  0  0  0
    6.6753   -8.4669    3.6853 H   0  0  0  0  0  0  0  0  0  0  0  0
    6.0782   -7.2952    4.8389 H   0  0  0  0  0  0  0  0  0  0  0  0
    7.4733   -6.9416    3.8844 H   0  0  0  0  0  0  0  0  0  0  0  0
    4.5534   -8.6882    2.6035 H   0  0  0  0  0  0  0  0  0  0  0  0
    2.9836   -6.3779    1.3601 H   0  0  0  0  0  0  0  0  0  0  0  0
    3.8831   -7.5820    0.4779 H   0  0  0  0  0  0  0  0  0  0  0  0
    1.5024   -8.2360    0.5452 H   0  0  0  0  0  0  0  0  0  0  0  0
    2.5883   -9.3948    1.2937 H   0  0  0  0  0  0  0  0  0  0  0  0
    0.8634   -6.1750    2.2123 H   0  0  0  0  0  0  0  0  0  0  0  0
   -0.2176   -6.8150    3.3906 H   0  0  0  0  0  0  0  0  0  0  0  0
   -0.4285   -7.2735    1.7240 H   0  0  0  0  0  0  0  0  0  0  0  0
  1  2  2  0
  1 35  1  0
  1 36  1  0
  2  3  1  0
  2  4  1  0
  3 37  1  0
  3 38  1  0
  3 39  1  0
  4 33  1  0
  4  5  1  0
  4 40  1  6
  5  6  1  0
  5 41  1  0
  5 42  1  0
  6  7  1  0
  6 43  1  0
  6 44  1  0
  7 33  1  0
  7  8  1  0
  7 45  1  1
  8 30  1  0
  8  9  1  0
  8 46  1  1
  9 10  1  0
  9 47  1  0
  9 48  1  0
 10 11  1  0
 10 49  1  0
 10 50  1  0
 11 28  1  0
 11 12  1  0
 11 51  1  6
 12 13  1  0
 12 52  1  0
 12 53  1  0
 13 26  1  0
 13 14  1  6
 13 24  1  0
 14 15  1  0
 14 54  1  0
 14 55  1  0
 15 16  1  0
 15 56  1  0
 15 57  1  0
 16 17  1  0
 16 18  1  0
 16 58  1  6
 17 59  1  0
 18 19  1  0
 18 60  1  0
 18 61  1  0
 19 23  1  0
 19 20  1  0
 20 21  2  0
 20 62  1  0
 21 22  1  0
 21 63  1  0
 22 23  2  0
 24 25  1  0
 25 26  1  0
 26 27  1  0
 26 64  1  6
 27 28  1  0
 27 65  1  0
 27 66  1  0
 28 29  1  1
 28 30  1  0
 29 67  1  0
 29 68  1  0
 29 69  1  0
 30 31  1  0
 30 70  1  6
 31 32  1  0
 31 71  1  0
 31 72  1  0
 32 33  1  0
 32 73  1  0
 32 74  1  0
 33 34  1  6
 34 75  1  0
 34 76  1  0
 34 77  1  0
M  END
>  <i_m_ct_stereo_status>  (221) 
1

>  <s_m_source_file>  (221) 
/var/tmp/pbs.5076255.sched01/tmptyawoosb/846vw0lfia.sdf

>  <i_m_source_file_index>  (221) 
6

>  <i_lp_mmshare_version>  (221) 
48012

>  <i_f3d_flags>  (221) 
0

>  <s_epik_input>  (221) 
W0NIMl09QyhbQ0gzXSlbQ0BIXShbQ0gyXVtDSDJdMSlbQ0BdKFtDSDNdKShbQ0gyXVtDSDJdW0NASF0yMylbQ0BASF0xW0NAQEhdMltDSDJdW0NIMl1bQ0BASF0oW0NIMl00KVtDQF0zKFtDSDNdKVtDSDJdW0NASF0oT081KVtDQEBdNDVbQ0gyXVtDSDJdW0NASF0oW09IXSlbQ0gyXW42W2NIXVtjSF1ubjY=

>  <s_epik_cmdline>  (221) 
J2VwaWtfcHl0aG9uJywgJy1waHQnLCAnMi4wJywgJy1waCcsICc3LjAnLCAnLXRuJywgJzgnLCAnLW1hJywgJzIwMCcsICctaW1hZScsICc8aW5maWxlLm1hZT4nLCAnLW9tYWUnLCAnPG91dGZpbGUubWFlPic=

>  <r_lp_tautomer_probability>  (221) 
1

>  <r_epik_Ionization_Penalty>  (221) 
1.0942e-06

>  <r_epik_Ionization_Penalty_Charging>  (221) 
0

>  <r_epik_Ionization_Penalty_Neutral>  (221) 
1.0942e-06

>  <r_epik_State_Penalty>  (221) 
-0

>  <r_epik_Charging_Adjusted_Penalty>  (221) 
0

>  <i_epik_Tot_Q>  (221) 
0

>  <i_epik_Tot_abs_Q>  (221) 
0

>  <s_lp_Force_Field>  (221) 
OPLS3e

>  <r_lp_Energy>  (221) 
58.1307

>  <b_lp_Chiralities_Consistent>  (221) 
1

>  <s_lp_Variant>  (221) 
61:0-1

>  <s_i_glide_gridfile>  (221) 
pfpi4k_grid

>  <i_i_glide_lignum>  (221) 
6

>  <i_i_glide_rotatable_bonds>  (221) 
7

>  <r_i_docking_score>  (221) 
-1.85869

>  <r_i_glide_ligand_efficiency>  (221) 
-0.0546674

>  <r_i_glide_ligand_efficiency_sa>  (221) 
-0.177101

>  <r_i_glide_ligand_efficiency_ln>  (221) 
-0.410637

>  <r_i_glide_gscore>  (221) 
-1.85869

>  <r_i_glide_lipo>  (221) 
-0.920764

>  <r_i_glide_hbond>  (221) 
-0.151197

>  <r_i_glide_metal>  (221) 
-0

>  <r_i_glide_rewards>  (221) 
-0.224965

>  <r_i_glide_evdw>  (221) 
-2.22838

>  <r_i_glide_ecoul>  (221) 
-6.05473

>  <r_i_glide_erotb>  (221) 
0.457866

>  <r_i_glide_esite>  (221) 
0

>  <r_i_glide_emodel>  (221) 
-5.44611

>  <r_i_glide_energy>  (221) 
-8.28311

>  <r_i_glide_einternal>  (221) 
8.25881

>  <r_i_glide_intrahb_reward>  (221) 
-0

>  <i_i_glide_confnum>  (221) 
5

>  <i_i_glide_posenum>  (221) 
2

>  <r_i_glide_eff_state_penalty>  (221) 
0

>  <ligand_id>  (221) 
61

>  <original_smiles>  (221) 
C=C(C)C1CCC2C3CCC4CC5(CCC(O)Cn6ccnn6)OOC5CC4(C)C3CCC12C

>  <smiles>  (221) 
[H]OC([H])(C([H])([H])n1nnc([H])c1[H])C([H])([H])C([H])([H])C12OOC1([H])C([H])([H])C1(C([H])([H])[H])C([H])(C([H])([H])C([H])([H])C3([H])C4([H])C([H])([H])C([H])([H])C([H])(C(=C([H])[H])C([H])([H])[H])C4(C([H])([H])[H])C([H])([H])C([H])([H])C31[H])C2([H])[H]

$$$$
63:0:0
     RDKit          3D

 31 34  0  0  1  0  0  0  0  0999 V2000
    1.4121   -6.5971    0.9007 C   0  0  0  0  0  0  0  0  0  0  0  0
    1.9424   -6.7900    2.1429 C   0  0  0  0  0  0  0  0  0  0  0  0
    2.8817   -5.8430    2.4209 O   0  0  0  0  0  0  0  0  0  0  0  0
    2.9598   -5.0310    1.3295 C   0  0  0  0  0  0  0  0  0  0  0  0
    3.9356   -3.8850    1.4115 C   0  0  2  0  0  0  0  0  0  0  0  0
    3.6654   -2.7963    0.3341 C   0  0  0  0  0  0  0  0  0  0  0  0
    4.2692   -3.1994   -1.0345 C   0  0  1  0  0  0  0  0  0  0  0  0
    3.9956   -2.2281   -2.1332 C   0  0  0  0  0  0  0  0  0  0  0  0
    4.3454   -0.9049   -2.2226 C   0  0  0  0  0  0  0  0  0  0  0  0
    3.8345   -0.2654   -3.3928 C   0  0  0  0  0  0  0  0  0  0  0  0
    3.1192   -1.1128   -4.1895 C   0  0  0  0  0  0  0  0  0  0  0  0
    3.0208   -2.7087   -3.5004 S   0  0  0  0  0  0  0  0  0  0  0  0
    5.6759   -3.5090   -0.8425 N   0  0  0  0  0  0  0  0  0  0  0  0
    6.1641   -4.1735    0.2710 C   0  0  0  0  0  0  0  0  0  0  0  0
    7.3700   -4.6818    0.4717 N   0  0  0  0  0  0  0  0  0  0  0  0
    7.1831   -5.2102    1.7190 C   0  0  0  0  0  0  0  0  0  0  0  0
    5.9822   -5.0150    2.2724 N   0  0  0  0  0  0  0  0  0  0  0  0
    5.3259   -4.3350    1.2992 N   0  0  0  0  0  0  0  0  0  0  0  0
    2.0775   -5.4558    0.3712 C   0  0  0  0  0  0  0  0  0  0  0  0
    0.6595   -7.2133    0.4323 H   0  0  0  0  0  0  0  0  0  0  0  0
    1.7723   -7.5285    2.9146 H   0  0  0  0  0  0  0  0  0  0  0  0
    3.8279   -3.4192    2.3895 H   0  0  0  0  0  0  0  0  0  0  0  0
    2.6019   -2.5567    0.2587 H   0  0  0  0  0  0  0  0  0  0  0  0
    4.1554   -1.8742    0.6542 H   0  0  0  0  0  0  0  0  0  0  0  0
    3.8188   -4.1427   -1.3317 H   0  0  0  0  0  0  0  0  0  0  0  0
    4.9084   -0.3639   -1.4775 H   0  0  0  0  0  0  0  0  0  0  0  0
    3.9920    0.7828   -3.5972 H   0  0  0  0  0  0  0  0  0  0  0  0
    2.6121   -0.8892   -5.1174 H   0  0  0  0  0  0  0  0  0  0  0  0
    6.2566   -3.5289   -1.6694 H   0  0  0  0  0  0  0  0  0  0  0  0
    7.9590   -5.7424    2.2479 H   0  0  0  0  0  0  0  0  0  0  0  0
    1.9300   -5.0002   -0.5969 H   0  0  0  0  0  0  0  0  0  0  0  0
  1 19  1  0
  1  2  2  0
  1 20  1  0
  2  3  1  0
  2 21  1  0
  3  4  1  0
  4  5  1  0
  4 19  2  0
  5 18  1  0
  5  6  1  0
  5 22  1  1
  6  7  1  0
  6 23  1  0
  6 24  1  0
  7  8  1  0
  7 13  1  0
  7 25  1  6
  8 12  1  0
  8  9  2  0
  9 10  1  0
  9 26  1  0
 10 11  2  0
 10 27  1  0
 11 12  1  0
 11 28  1  0
 13 14  1  0
 13 29  1  0
 14 18  1  0
 14 15  2  0
 15 16  1  0
 16 17  2  0
 16 30  1  0
 17 18  1  0
 19 31  1  0
M  END
>  <i_m_ct_stereo_status>  (222) 
1

>  <s_m_source_file>  (222) 
/var/tmp/pbs.5076255.sched01/tmptyawoosb/846vw0lfia.sdf

>  <i_m_source_file_index>  (222) 
8

>  <i_lp_mmshare_version>  (222) 
48012

>  <i_f3d_flags>  (222) 
0

>  <s_epik_input>  (222) 
W2NIXTFbY0hdW2NIXW9jMVtDQEBIXShuKGMyMyluW2NIXW4zKVtDSDJdW0NASF0oW05IXTIpYzRbY0hdW2NIXVtjSF1zNA==

>  <s_epik_cmdline>  (222) 
J2VwaWtfcHl0aG9uJywgJy1waHQnLCAnMi4wJywgJy1waCcsICc3LjAnLCAnLXRuJywgJzgnLCAnLW1hJywgJzIwMCcsICctaW1hZScsICc8aW5maWxlLm1hZT4nLCAnLW9tYWUnLCAnPG91dGZpbGUubWFlPic=

>  <r_lp_tautomer_probability>  (222) 
1

>  <r_epik_Ionization_Penalty>  (222) 
0.0011068

>  <r_epik_Ionization_Penalty_Charging>  (222) 
0

>  <r_epik_Ionization_Penalty_Neutral>  (222) 
0.0011068

>  <r_epik_State_Penalty>  (222) 
-0

>  <r_epik_Charging_Adjusted_Penalty>  (222) 
0

>  <i_epik_Tot_Q>  (222) 
0

>  <i_epik_Tot_abs_Q>  (222) 
0

>  <s_lp_Force_Field>  (222) 
OPLS3e

>  <r_lp_Energy>  (222) 
19.5604

>  <b_lp_Chiralities_Consistent>  (222) 
1

>  <s_lp_Variant>  (222) 
63:0-1

>  <s_i_glide_gridfile>  (222) 
pfpi4k_grid

>  <i_i_glide_lignum>  (222) 
8

>  <i_i_glide_rotatable_bonds>  (222) 
2

>  <r_i_docking_score>  (222) 
-3.72261

>  <r_i_glide_ligand_efficiency>  (222) 
-0.195927

>  <r_i_glide_ligand_efficiency_sa>  (222) 
-0.522811

>  <r_i_glide_ligand_efficiency_ln>  (222) 
-0.943761

>  <r_i_glide_gscore>  (222) 
-3.72261

>  <r_i_glide_lipo>  (222) 
-0.480153

>  <r_i_glide_hbond>  (222) 
0

>  <r_i_glide_metal>  (222) 
-0

>  <r_i_glide_rewards>  (222) 
-1.84318

>  <r_i_glide_evdw>  (222) 
-27.0138

>  <r_i_glide_ecoul>  (222) 
-3.54565

>  <r_i_glide_erotb>  (222) 
0.483261

>  <r_i_glide_esite>  (222) 
0

>  <r_i_glide_emodel>  (222) 
-36.5472

>  <r_i_glide_energy>  (222) 
-30.5594

>  <r_i_glide_einternal>  (222) 
1.47059

>  <r_i_glide_intrahb_reward>  (222) 
-0

>  <i_i_glide_confnum>  (222) 
3

>  <i_i_glide_posenum>  (222) 
13

>  <r_i_glide_eff_state_penalty>  (222) 
0

>  <ligand_id>  (222) 
63

>  <original_smiles>  (222) 
c1coc(C2CC(c3cccs3)Nc3ncnn32)c1

>  <smiles>  (222) 
[H]c1nc2n(n1)C([H])(c1oc([H])c([H])c1[H])C([H])([H])C([H])(c1sc([H])c([H])c1[H])N2[H]

$$$$
63:0:1
     RDKit          3D

 31 34  0  0  1  0  0  0  0  0999 V2000
    4.7428   -3.0081    4.3616 C   0  0  0  0  0  0  0  0  0  0  0  0
    5.0078   -2.0842    3.3973 C   0  0  0  0  0  0  0  0  0  0  0  0
    4.9660   -2.6548    2.1671 O   0  0  0  0  0  0  0  0  0  0  0  0
    4.6371   -3.9707    2.3394 C   0  0  0  0  0  0  0  0  0  0  0  0
    4.5362   -4.8067    1.0912 C   0  0  2  0  0  0  0  0  0  0  0  0
    4.6677   -3.9622   -0.2089 C   0  0  0  0  0  0  0  0  0  0  0  0
    3.3491   -3.2267   -0.5309 C   0  0  1  0  0  0  0  0  0  0  0  0
    3.4443   -2.3910   -1.7560 C   0  0  0  0  0  0  0  0  0  0  0  0
    2.7373   -2.4268   -2.9304 C   0  0  0  0  0  0  0  0  0  0  0  0
    3.1178   -1.3855   -3.8300 C   0  0  0  0  0  0  0  0  0  0  0  0
    4.1050   -0.5820   -3.3425 C   0  0  0  0  0  0  0  0  0  0  0  0
    4.5914   -1.0661   -1.7515 S   0  0  0  0  0  0  0  0  0  0  0  0
    2.2649   -4.2012   -0.5154 N   0  0  0  0  0  0  0  0  0  0  0  0
    2.2086   -5.3150    0.3082 C   0  0  0  0  0  0  0  0  0  0  0  0
    1.1921   -6.1534    0.4938 N   0  0  0  0  0  0  0  0  0  0  0  0
    1.7718   -6.9706    1.4383 C   0  0  0  0  0  0  0  0  0  0  0  0
    3.0251   -6.6620    1.8050 N   0  0  0  0  0  0  0  0  0  0  0  0
    3.2821   -5.5636    1.0454 N   0  0  0  0  0  0  0  0  0  0  0  0
    4.5192   -4.2396    3.6746 C   0  0  0  0  0  0  0  0  0  0  0  0
    4.7193   -2.8120    5.4245 H   0  0  0  0  0  0  0  0  0  0  0  0
    5.2346   -1.0282    3.4074 H   0  0  0  0  0  0  0  0  0  0  0  0
    5.3504   -5.5256    1.0940 H   0  0  0  0  0  0  0  0  0  0  0  0
    5.5200   -3.2746   -0.1513 H   0  0  0  0  0  0  0  0  0  0  0  0
    4.8951   -4.6282   -1.0440 H   0  0  0  0  0  0  0  0  0  0  0  0
    3.1062   -2.5558    0.2887 H   0  0  0  0  0  0  0  0  0  0  0  0
    1.9479   -3.1221   -3.1687 H   0  0  0  0  0  0  0  0  0  0  0  0
    2.6354   -1.2351   -4.7837 H   0  0  0  0  0  0  0  0  0  0  0  0
    4.5486    0.2920   -3.7986 H   0  0  0  0  0  0  0  0  0  0  0  0
    1.4926   -4.0313   -1.1405 H   0  0  0  0  0  0  0  0  0  0  0  0
    1.2610   -7.8182    1.8881 H   0  0  0  0  0  0  0  0  0  0  0  0
    4.2952   -5.2084    4.1017 H   0  0  0  0  0  0  0  0  0  0  0  0
  1 19  1  0
  1  2  2  0
  1 20  1  0
  2  3  1  0
  2 21  1  0
  3  4  1  0
  4  5  1  0
  4 19  2  0
  5 18  1  0
  5  6  1  0
  5 22  1  1
  6  7  1  0
  6 23  1  0
  6 24  1  0
  7  8  1  0
  7 13  1  0
  7 25  1  1
  8 12  1  0
  8  9  2  0
  9 10  1  0
  9 26  1  0
 10 11  2  0
 10 27  1  0
 11 12  1  0
 11 28  1  0
 13 14  1  0
 13 29  1  0
 14 18  1  0
 14 15  2  0
 15 16  1  0
 16 17  2  0
 16 30  1  0
 17 18  1  0
 19 31  1  0
M  END
>  <i_m_ct_stereo_status>  (223) 
1

>  <s_m_source_file>  (223) 
/var/tmp/pbs.5076255.sched01/tmptyawoosb/846vw0lfia.sdf

>  <i_m_source_file_index>  (223) 
8

>  <i_lp_mmshare_version>  (223) 
48012

>  <i_f3d_flags>  (223) 
0

>  <s_epik_input>  (223) 
W2NIXTFbY0hdW2NIXW9jMVtDQEBIXShuKGMyMyluW2NIXW4zKVtDSDJdW0NASF0oW05IXTIpYzRbY0hdW2NIXVtjSF1zNA==

>  <s_epik_cmdline>  (223) 
J2VwaWtfcHl0aG9uJywgJy1waHQnLCAnMi4wJywgJy1waCcsICc3LjAnLCAnLXRuJywgJzgnLCAnLW1hJywgJzIwMCcsICctaW1hZScsICc8aW5maWxlLm1hZT4nLCAnLW9tYWUnLCAnPG91dGZpbGUubWFlPic=

>  <r_lp_tautomer_probability>  (223) 
1

>  <r_epik_Ionization_Penalty>  (223) 
0.0011068

>  <r_epik_Ionization_Penalty_Charging>  (223) 
0

>  <r_epik_Ionization_Penalty_Neutral>  (223) 
0.0011068

>  <r_epik_State_Penalty>  (223) 
-0

>  <r_epik_Charging_Adjusted_Penalty>  (223) 
0

>  <i_epik_Tot_Q>  (223) 
0

>  <i_epik_Tot_abs_Q>  (223) 
0

>  <s_lp_Force_Field>  (223) 
OPLS3e

>  <r_lp_Energy>  (223) 
19.5604

>  <b_lp_Chiralities_Consistent>  (223) 
1

>  <s_lp_Variant>  (223) 
63:0-1

>  <s_i_glide_gridfile>  (223) 
pfpi4k_grid

>  <i_i_glide_lignum>  (223) 
8

>  <i_i_glide_rotatable_bonds>  (223) 
2

>  <r_i_docking_score>  (223) 
-3.64687

>  <r_i_glide_ligand_efficiency>  (223) 
-0.191941

>  <r_i_glide_ligand_efficiency_sa>  (223) 
-0.512175

>  <r_i_glide_ligand_efficiency_ln>  (223) 
-0.924561

>  <r_i_glide_gscore>  (223) 
-3.64687

>  <r_i_glide_lipo>  (223) 
-0.580616

>  <r_i_glide_hbond>  (223) 
-0.16

>  <r_i_glide_metal>  (223) 
-0

>  <r_i_glide_rewards>  (223) 
-1.55232

>  <r_i_glide_evdw>  (223) 
-22.9278

>  <r_i_glide_ecoul>  (223) 
-3.46463

>  <r_i_glide_erotb>  (223) 
0.483261

>  <r_i_glide_esite>  (223) 
-0.171117

>  <r_i_glide_emodel>  (223) 
-31.4223

>  <r_i_glide_energy>  (223) 
-26.3924

>  <r_i_glide_einternal>  (223) 
3.16704

>  <r_i_glide_intrahb_reward>  (223) 
-0

>  <i_i_glide_confnum>  (223) 
1

>  <i_i_glide_posenum>  (223) 
20

>  <r_i_glide_eff_state_penalty>  (223) 
0

>  <ligand_id>  (223) 
63

>  <original_smiles>  (223) 
c1coc(C2CC(c3cccs3)Nc3ncnn32)c1

>  <smiles>  (223) 
[H]c1nc2n(n1)C([H])(c1oc([H])c([H])c1[H])C([H])([H])C([H])(c1sc([H])c([H])c1[H])N2[H]

$$$$
63:0:2
     RDKit          3D

 31 34  0  0  1  0  0  0  0  0999 V2000
    5.0038   -3.3975    4.4114 C   0  0  0  0  0  0  0  0  0  0  0  0
    3.9210   -2.7928    3.8467 C   0  0  0  0  0  0  0  0  0  0  0  0
    3.6001   -3.3845    2.6680 O   0  0  0  0  0  0  0  0  0  0  0  0
    4.5125   -4.3775    2.4613 C   0  0  0  0  0  0  0  0  0  0  0  0
    4.3767   -5.1510    1.1853 C   0  0  2  0  0  0  0  0  0  0  0  0
    4.6021   -4.2533   -0.0689 C   0  0  0  0  0  0  0  0  0  0  0  0
    3.3413   -3.4318   -0.4131 C   0  0  1  0  0  0  0  0  0  0  0  0
    3.5059   -2.5618   -1.6093 C   0  0  0  0  0  0  0  0  0  0  0  0
    3.0245   -2.6842   -2.8870 C   0  0  0  0  0  0  0  0  0  0  0  0
    3.4116   -1.5955   -3.7275 C   0  0  0  0  0  0  0  0  0  0  0  0
    4.1721   -0.6618   -3.0790 C   0  0  0  0  0  0  0  0  0  0  0  0
    4.4325   -1.0995   -1.4202 S   0  0  0  0  0  0  0  0  0  0  0  0
    2.2115   -4.3363   -0.4493 N   0  0  0  0  0  0  0  0  0  0  0  0
    2.0416   -5.4691    0.3487 C   0  0  0  0  0  0  0  0  0  0  0  0
    0.9703   -6.2473    0.4929 N   0  0  0  0  0  0  0  0  0  0  0  0
    1.4673   -7.1253    1.4243 C   0  0  0  0  0  0  0  0  0  0  0  0
    2.7258   -6.9050    1.8317 N   0  0  0  0  0  0  0  0  0  0  0  0
    3.0813   -5.8147    1.1042 N   0  0  0  0  0  0  0  0  0  0  0  0
    5.3929   -4.4293    3.5049 C   0  0  0  0  0  0  0  0  0  0  0  0
    5.4529   -3.1193    5.3552 H   0  0  0  0  0  0  0  0  0  0  0  0
    3.2864   -1.9702    4.1362 H   0  0  0  0  0  0  0  0  0  0  0  0
    5.1367   -5.9308    1.1643 H   0  0  0  0  0  0  0  0  0  0  0  0
    5.4841   -3.6166    0.0384 H   0  0  0  0  0  0  0  0  0  0  0  0
    4.8001   -4.9076   -0.9240 H   0  0  0  0  0  0  0  0  0  0  0  0
    3.1078   -2.7547    0.4025 H   0  0  0  0  0  0  0  0  0  0  0  0
    2.4074   -3.4969   -3.2518 H   0  0  0  0  0  0  0  0  0  0  0  0
    3.1116   -1.5225   -4.7634 H   0  0  0  0  0  0  0  0  0  0  0  0
    4.5799    0.2725   -3.4482 H   0  0  0  0  0  0  0  0  0  0  0  0
    1.4632   -4.0954   -1.0819 H   0  0  0  0  0  0  0  0  0  0  0  0
    0.8852   -7.9384    1.8390 H   0  0  0  0  0  0  0  0  0  0  0  0
    6.2168   -5.1219    3.6051 H   0  0  0  0  0  0  0  0  0  0  0  0
  1 19  1  0
  1  2  2  0
  1 20  1  0
  2  3  1  0
  2 21  1  0
  3  4  1  0
  4  5  1  0
  4 19  2  0
  5 18  1  0
  5  6  1  0
  5 22  1  1
  6  7  1  0
  6 23  1  0
  6 24  1  0
  7  8  1  0
  7 13  1  0
  7 25  1  1
  8 12  1  0
  8  9  2  0
  9 10  1  0
  9 26  1  0
 10 11  2  0
 10 27  1  0
 11 12  1  0
 11 28  1  0
 13 14  1  0
 13 29  1  0
 14 18  1  0
 14 15  2  0
 15 16  1  0
 16 17  2  0
 16 30  1  0
 17 18  1  0
 19 31  1  0
M  END
>  <i_m_ct_stereo_status>  (224) 
1

>  <s_m_source_file>  (224) 
/var/tmp/pbs.5076255.sched01/tmptyawoosb/846vw0lfia.sdf

>  <i_m_source_file_index>  (224) 
8

>  <i_lp_mmshare_version>  (224) 
48012

>  <i_f3d_flags>  (224) 
0

>  <s_epik_input>  (224) 
W2NIXTFbY0hdW2NIXW9jMVtDQEBIXShuKGMyMyluW2NIXW4zKVtDSDJdW0NASF0oW05IXTIpYzRbY0hdW2NIXVtjSF1zNA==

>  <s_epik_cmdline>  (224) 
J2VwaWtfcHl0aG9uJywgJy1waHQnLCAnMi4wJywgJy1waCcsICc3LjAnLCAnLXRuJywgJzgnLCAnLW1hJywgJzIwMCcsICctaW1hZScsICc8aW5maWxlLm1hZT4nLCAnLW9tYWUnLCAnPG91dGZpbGUubWFlPic=

>  <r_lp_tautomer_probability>  (224) 
1

>  <r_epik_Ionization_Penalty>  (224) 
0.0011068

>  <r_epik_Ionization_Penalty_Charging>  (224) 
0

>  <r_epik_Ionization_Penalty_Neutral>  (224) 
0.0011068

>  <r_epik_State_Penalty>  (224) 
-0

>  <r_epik_Charging_Adjusted_Penalty>  (224) 
0

>  <i_epik_Tot_Q>  (224) 
0

>  <i_epik_Tot_abs_Q>  (224) 
0

>  <s_lp_Force_Field>  (224) 
OPLS3e

>  <r_lp_Energy>  (224) 
19.5604

>  <b_lp_Chiralities_Consistent>  (224) 
1

>  <s_lp_Variant>  (224) 
63:0-1

>  <s_i_glide_gridfile>  (224) 
pfpi4k_grid

>  <i_i_glide_lignum>  (224) 
8

>  <i_i_glide_rotatable_bonds>  (224) 
2

>  <r_i_docking_score>  (224) 
-3.57538

>  <r_i_glide_ligand_efficiency>  (224) 
-0.188178

>  <r_i_glide_ligand_efficiency_sa>  (224) 
-0.502134

>  <r_i_glide_ligand_efficiency_ln>  (224) 
-0.906436

>  <r_i_glide_gscore>  (224) 
-3.57538

>  <r_i_glide_lipo>  (224) 
-0.495477

>  <r_i_glide_hbond>  (224) 
-0.197338

>  <r_i_glide_metal>  (224) 
-0

>  <r_i_glide_rewards>  (224) 
-1.55232

>  <r_i_glide_evdw>  (224) 
-23.4015

>  <r_i_glide_ecoul>  (224) 
-3.03158

>  <r_i_glide_erotb>  (224) 
0.483261

>  <r_i_glide_esite>  (224) 
-0.188697

>  <r_i_glide_emodel>  (224) 
-32.7202

>  <r_i_glide_energy>  (224) 
-26.4331

>  <r_i_glide_einternal>  (224) 
0.324581

>  <r_i_glide_intrahb_reward>  (224) 
-0

>  <i_i_glide_confnum>  (224) 
1

>  <i_i_glide_posenum>  (224) 
14

>  <r_i_glide_eff_state_penalty>  (224) 
0

>  <ligand_id>  (224) 
63

>  <original_smiles>  (224) 
c1coc(C2CC(c3cccs3)Nc3ncnn32)c1

>  <smiles>  (224) 
[H]c1nc2n(n1)C([H])(c1oc([H])c([H])c1[H])C([H])([H])C([H])(c1sc([H])c([H])c1[H])N2[H]

$$$$
64:0:0
     RDKit          3D

 76 80  0  0  1  0  0  0  0  0999 V2000
    5.3100   -3.4549    4.4463 C   0  0  0  0  0  0  0  0  0  0  0  0
    4.5239   -4.7827    4.3864 C   0  0  2  0  0  0  0  0  0  0  0  0
    5.4376   -5.9525    3.9178 C   0  0  0  0  0  0  0  0  0  0  0  0
    4.7795   -7.0642    3.0553 C   0  0  2  0  0  0  0  0  0  0  0  0
    5.3684   -7.1006    1.6068 C   0  0  1  0  0  0  0  0  0  0  0  0
    5.1923   -8.3887    1.0449 O   0  0  0  0  0  0  0  0  0  0  0  0
    4.9177   -6.0351    0.5602 C   0  0  0  0  0  0  0  0  0  0  0  0
    4.9992   -4.5394    0.9960 C   0  0  1  0  0  0  0  0  0  0  0  0
    6.0715   -3.6891    0.2168 C   0  0  0  0  0  0  0  0  0  0  0  0
    7.4736   -4.3206    0.4707 C   0  0  0  0  0  0  0  0  0  0  0  0
    5.8152   -3.6083   -1.3121 C   0  0  0  0  0  0  0  0  0  0  0  0
    6.1229   -2.2362    0.7444 C   0  0  0  0  0  0  0  0  0  0  0  0
    7.0970   -1.5341    0.4725 O   0  0  0  0  0  0  0  0  0  0  0  0
    4.9861   -1.6960    1.5047 C   0  0  0  0  0  0  0  0  0  0  0  0
    3.8801   -2.4209    1.7563 C   0  0  0  0  0  0  0  0  0  0  0  0
    3.6179   -3.8539    1.3043 C   0  0  1  0  0  0  0  0  0  0  0  0
    2.8866   -3.5579   -0.0445 C   0  0  0  0  0  0  0  0  0  0  0  0
    2.6657   -4.6579    2.3597 C   0  0  1  0  0  0  0  0  0  0  0  0
    1.8461   -5.8616    1.7359 C   0  0  1  0  0  0  0  0  0  0  0  0
    1.4135   -5.8587    0.3914 O   0  0  0  0  0  0  0  0  0  0  0  0
    2.3571   -7.2756    2.0418 C   0  0  0  0  0  0  0  0  0  0  0  0
    3.2432   -7.3249    3.2943 C   0  0  2  0  0  0  0  0  0  0  0  0
    2.6292   -6.4468    4.4308 C   0  0  2  0  0  0  0  0  0  0  0  0
    3.2350   -7.0281    5.7793 C   0  0  0  0  0  0  0  0  0  0  0  0
    1.0771   -6.7503    4.6401 C   0  0  1  0  0  0  0  0  0  0  0  0
    0.7991   -8.0231    5.1948 O   0  0  0  0  0  0  0  0  0  0  0  0
    0.3538   -5.7146    5.4889 C   0  0  0  0  0  0  0  0  0  0  0  0
    0.5915   -4.3295    4.9021 C   0  0  0  0  0  0  0  0  0  0  0  0
    2.0751   -3.8890    4.9078 C   0  0  0  0  0  0  0  0  0  0  0  0
    2.0012   -2.4050    4.4569 C   0  0  0  0  0  0  0  0  0  0  0  0
    2.5098   -3.7790    6.4020 C   0  0  0  0  0  0  0  0  0  0  0  0
    2.9791   -4.8929    3.9879 C   0  0  1  0  0  0  0  0  0  0  0  0
    5.7027   -3.1137    3.5009 H   0  0  0  0  0  0  0  0  0  0  0  0
    6.1943   -3.6064    5.0699 H   0  0  0  0  0  0  0  0  0  0  0  0
    4.7834   -2.6385    4.9239 H   0  0  0  0  0  0  0  0  0  0  0  0
    4.5149   -4.9156    5.4592 H   0  0  0  0  0  0  0  0  0  0  0  0
    6.3454   -5.5762    3.4453 H   0  0  0  0  0  0  0  0  0  0  0  0
    5.8931   -6.4179    4.7901 H   0  0  0  0  0  0  0  0  0  0  0  0
    5.2310   -7.9546    3.4972 H   0  0  0  0  0  0  0  0  0  0  0  0
    6.4520   -7.0032    1.7033 H   0  0  0  0  0  0  0  0  0  0  0  0
    5.4942   -9.0409    1.6607 H   0  0  0  0  0  0  0  0  0  0  0  0
    5.5513   -6.1957   -0.3086 H   0  0  0  0  0  0  0  0  0  0  0  0
    3.9426   -6.2592    0.1499 H   0  0  0  0  0  0  0  0  0  0  0  0
    5.4554   -4.5523    1.9567 H   0  0  0  0  0  0  0  0  0  0  0  0
    7.5576   -5.3361    0.0797 H   0  0  0  0  0  0  0  0  0  0  0  0
    7.6988   -4.3754    1.5394 H   0  0  0  0  0  0  0  0  0  0  0  0
    8.2747   -3.7461    0.0041 H   0  0  0  0  0  0  0  0  0  0  0  0
    5.4316   -4.5390   -1.7312 H   0  0  0  0  0  0  0  0  0  0  0  0
    6.7369   -3.3732   -1.8465 H   0  0  0  0  0  0  0  0  0  0  0  0
    5.1100   -2.8252   -1.5850 H   0  0  0  0  0  0  0  0  0  0  0  0
    5.0504   -0.6710    1.8279 H   0  0  0  0  0  0  0  0  0  0  0  0
    3.0507   -1.9087    2.2125 H   0  0  0  0  0  0  0  0  0  0  0  0
    2.9924   -4.3531   -0.7805 H   0  0  0  0  0  0  0  0  0  0  0  0
    3.2552   -2.6614   -0.5453 H   0  0  0  0  0  0  0  0  0  0  0  0
    1.8247   -3.3511    0.1006 H   0  0  0  0  0  0  0  0  0  0  0  0
    1.8518   -3.9448    2.3741 H   0  0  0  0  0  0  0  0  0  0  0  0
    0.8593   -5.7362    2.1588 H   0  0  0  0  0  0  0  0  0  0  0  0
    2.1834   -5.8748   -0.1632 H   0  0  0  0  0  0  0  0  0  0  0  0
    1.4953   -7.9309    2.1762 H   0  0  0  0  0  0  0  0  0  0  0  0
    2.8394   -7.7399    1.1882 H   0  0  0  0  0  0  0  0  0  0  0  0
    3.1786   -8.3719    3.5964 H   0  0  0  0  0  0  0  0  0  0  0  0
    2.6643   -6.7638    6.6629 H   0  0  0  0  0  0  0  0  0  0  0  0
    4.2687   -6.8365    6.0226 H   0  0  0  0  0  0  0  0  0  0  0  0
    3.2099   -8.1173    5.7773 H   0  0  0  0  0  0  0  0  0  0  0  0
    0.4932   -6.8113    3.7391 H   0  0  0  0  0  0  0  0  0  0  0  0
    1.1019   -8.6945    4.6004 H   0  0  0  0  0  0  0  0  0  0  0  0
   -0.7141   -5.9275    5.4773 H   0  0  0  0  0  0  0  0  0  0  0  0
    0.6562   -5.7652    6.5328 H   0  0  0  0  0  0  0  0  0  0  0  0
    0.2076   -4.3091    3.8836 H   0  0  0  0  0  0  0  0  0  0  0  0
   -0.0195   -3.6140    5.4544 H   0  0  0  0  0  0  0  0  0  0  0  0
    2.9669   -1.9277    4.3447 H   0  0  0  0  0  0  0  0  0  0  0  0
    1.4749   -1.8072    5.2024 H   0  0  0  0  0  0  0  0  0  0  0  0
    1.4267   -2.2610    3.5434 H   0  0  0  0  0  0  0  0  0  0  0  0
    3.4293   -3.2114    6.5339 H   0  0  0  0  0  0  0  0  0  0  0  0
    2.6585   -4.7318    6.8945 H   0  0  0  0  0  0  0  0  0  0  0  0
    1.7500   -3.2609    6.9906 H   0  0  0  0  0  0  0  0  0  0  0  0
  1  2  1  0
  1 33  1  0
  1 34  1  0
  1 35  1  0
  2 32  1  0
  2  3  1  0
  2 36  1  1
  3  4  1  0
  3 37  1  0
  3 38  1  0
  4 22  1  0
  4  5  1  0
  4 39  1  1
  5  6  1  0
  5  7  1  0
  5 40  1  1
  6 41  1  0
  7  8  1  0
  7 42  1  0
  7 43  1  0
  8 16  1  0
  8  9  1  0
  8 44  1  1
  9 10  1  0
  9 11  1  0
  9 12  1  0
 10 45  1  0
 10 46  1  0
 10 47  1  0
 11 48  1  0
 11 49  1  0
 11 50  1  0
 12 13  2  0
 12 14  1  0
 14 15  2  0
 14 51  1  0
 15 16  1  0
 15 52  1  0
 16 17  1  6
 16 18  1  0
 17 53  1  0
 17 54  1  0
 17 55  1  0
 18 32  1  0
 18 19  1  0
 18 56  1  1
 19 20  1  0
 19 21  1  0
 19 57  1  1
 20 58  1  0
 21 22  1  0
 21 59  1  0
 21 60  1  0
 22 23  1  0
 22 61  1  1
 23 32  1  0
 23 24  1  1
 23 25  1  0
 24 62  1  0
 24 63  1  0
 24 64  1  0
 25 26  1  0
 25 27  1  0
 25 65  1  6
 26 66  1  0
 27 28  1  0
 27 67  1  0
 27 68  1  0
 28 29  1  0
 28 69  1  0
 28 70  1  0
 29 30  1  0
 29 31  1  0
 32 29  1  1
 30 71  1  0
 30 72  1  0
 30 73  1  0
 31 74  1  0
 31 75  1  0
 31 76  1  0
M  END
>  <i_m_ct_stereo_status>  (225) 
1

>  <s_m_source_file>  (225) 
/var/tmp/pbs.5076255.sched01/tmptyawoosb/846vw0lfia.sdf

>  <i_m_source_file_index>  (225) 
9

>  <i_lp_mmshare_version>  (225) 
48012

>  <i_f3d_flags>  (225) 
0

>  <s_epik_input>  (225) 
W0NIM11DMShbQ0gzXSlbQ0gyXVtDSDJdW0NASF0oW09IXSlbQ0BAXTIoW0NIM10pW0NAQEhdKFtDSDJdW0NAQEhdM1tPSF0pW0NASF0oW0NIMl1bQ0BIXTRbQ0gzXSlbQ0BASF0oW09IXSlbQ0gyXVtDQEhdKFtDQEBdNShbQ0gzXSlbQ0BASF0zW0NAQF0xMjQpQyhbQ0gzXSkoW0NIM10pQyg9TylbQ0hdPVtDSF01

>  <s_epik_cmdline>  (225) 
J2VwaWtfcHl0aG9uJywgJy1waHQnLCAnMi4wJywgJy1waCcsICc3LjAnLCAnLXRuJywgJzgnLCAnLW1hJywgJzIwMCcsICctaW1hZScsICc8aW5maWxlLm1hZT4nLCAnLW9tYWUnLCAnPG91dGZpbGUubWFlPic=

>  <r_lp_tautomer_probability>  (225) 
1

>  <r_epik_Ionization_Penalty>  (225) 
4.12817e-06

>  <r_epik_Ionization_Penalty_Charging>  (225) 
0

>  <r_epik_Ionization_Penalty_Neutral>  (225) 
4.12817e-06

>  <r_epik_State_Penalty>  (225) 
-0

>  <r_epik_Charging_Adjusted_Penalty>  (225) 
0

>  <i_epik_Tot_Q>  (225) 
0

>  <i_epik_Tot_abs_Q>  (225) 
0

>  <s_lp_Force_Field>  (225) 
OPLS3e

>  <r_lp_Energy>  (225) 
162.85

>  <b_lp_Chiralities_Consistent>  (225) 
1

>  <s_lp_Variant>  (225) 
64:0-1

>  <s_i_glide_gridfile>  (225) 
pfpi4k_grid

>  <i_i_glide_lignum>  (225) 
9

>  <i_i_glide_rotatable_bonds>  (225) 
3

>  <r_i_docking_score>  (225) 
-3.58845

>  <r_i_glide_ligand_efficiency>  (225) 
-0.112139

>  <r_i_glide_ligand_efficiency_sa>  (225) 
-0.35602

>  <r_i_glide_ligand_efficiency_ln>  (225) 
-0.803552

>  <r_i_glide_gscore>  (225) 
-3.58845

>  <r_i_glide_lipo>  (225) 
-0.664227

>  <r_i_glide_hbond>  (225) 
-0.156881

>  <r_i_glide_metal>  (225) 
-0

>  <r_i_glide_rewards>  (225) 
-0.501303

>  <r_i_glide_evdw>  (225) 
-28.264

>  <r_i_glide_ecoul>  (225) 
-5.68562

>  <r_i_glide_erotb>  (225) 
0

>  <r_i_glide_esite>  (225) 
0

>  <r_i_glide_emodel>  (225) 
-41.2093

>  <r_i_glide_energy>  (225) 
-33.9496

>  <r_i_glide_einternal>  (225) 
0.727274

>  <r_i_glide_intrahb_reward>  (225) 
-0

>  <i_i_glide_confnum>  (225) 
1

>  <i_i_glide_posenum>  (225) 
6

>  <r_i_glide_eff_state_penalty>  (225) 
0

>  <ligand_id>  (225) 
64

>  <original_smiles>  (225) 
CC1CC2C(O)CC3C(C)(C)C(=O)C=CC3(C)C3C(O)CC2C2(C)C(O)CCC(C)(C)C132

>  <smiles>  (225) 
[H]OC1([H])C([H])([H])C2([H])C(C([H])([H])[H])(C([H])([H])[H])C(=O)C([H])=C([H])C2(C([H])([H])[H])C2([H])C([H])(O[H])C([H])([H])C3([H])C1([H])C([H])([H])C([H])(C([H])([H])[H])C21C(C([H])([H])[H])(C([H])([H])[H])C([H])([H])C([H])([H])C([H])(O[H])C31C([H])([H])[H]

$$$$
64:0:1
     RDKit          3D

 76 80  0  0  1  0  0  0  0  0999 V2000
    5.3063   -3.2132    4.4053 C   0  0  0  0  0  0  0  0  0  0  0  0
    4.5289   -4.5470    4.4175 C   0  0  2  0  0  0  0  0  0  0  0  0
    5.4494   -5.7355    4.0148 C   0  0  0  0  0  0  0  0  0  0  0  0
    4.7986   -6.8943    3.2116 C   0  0  2  0  0  0  0  0  0  0  0  0
    5.3906   -7.0018    1.7675 C   0  0  1  0  0  0  0  0  0  0  0  0
    5.2300   -8.3260    1.2930 O   0  0  0  0  0  0  0  0  0  0  0  0
    4.9308   -6.0029    0.6632 C   0  0  0  0  0  0  0  0  0  0  0  0
    5.0039   -4.4868    1.0190 C   0  0  1  0  0  0  0  0  0  0  0  0
    6.0715   -3.6755    0.1940 C   0  0  0  0  0  0  0  0  0  0  0  0
    7.4764   -4.2885    0.4731 C   0  0  0  0  0  0  0  0  0  0  0  0
    5.8113   -3.6776   -1.3351 C   0  0  0  0  0  0  0  0  0  0  0  0
    6.1165   -2.1973    0.6461 C   0  0  0  0  0  0  0  0  0  0  0  0
    7.0899   -1.5078    0.3440 O   0  0  0  0  0  0  0  0  0  0  0  0
    4.9758   -1.6207    1.3714 C   0  0  0  0  0  0  0  0  0  0  0  0
    3.8724   -2.3367    1.6622 C   0  0  0  0  0  0  0  0  0  0  0  0
    3.6185   -3.7943    1.2902 C   0  0  1  0  0  0  0  0  0  0  0  0
    2.8844   -3.5774   -0.0712 C   0  0  0  0  0  0  0  0  0  0  0  0
    2.6704   -4.5451    2.3870 C   0  0  1  0  0  0  0  0  0  0  0  0
    1.8577   -5.7861    1.8282 C   0  0  1  0  0  0  0  0  0  0  0  0
    1.4249   -5.8548    0.4829 O   0  0  0  0  0  0  0  0  0  0  0  0
    2.3768   -7.1775    2.2130 C   0  0  0  0  0  0  0  0  0  0  0  0
    3.2633   -7.1515    3.4670 C   0  0  2  0  0  0  0  0  0  0  0  0
    2.6443   -6.2155    4.5549 C   0  0  2  0  0  0  0  0  0  0  0  0
    3.2529   -6.7174    5.9343 C   0  0  0  0  0  0  0  0  0  0  0  0
    1.0934   -6.5139    4.7825 C   0  0  1  0  0  0  0  0  0  0  0  0
    0.8210   -7.7558    5.4068 O   0  0  0  0  0  0  0  0  0  0  0  0
    0.3656   -5.4367    5.5731 C   0  0  0  0  0  0  0  0  0  0  0  0
    0.5942   -4.0848    4.9094 C   0  0  0  0  0  0  0  0  0  0  0  0
    2.0769   -3.6375    4.8902 C   0  0  0  0  0  0  0  0  0  0  0  0
    1.9954   -2.1810    4.3580 C   0  0  0  0  0  0  0  0  0  0  0  0
    2.5113   -3.4421    6.3760 C   0  0  0  0  0  0  0  0  0  0  0  0
    2.9850   -4.6869    4.0260 C   0  0  1  0  0  0  0  0  0  0  0  0
    5.7009   -2.9231    3.4435 H   0  0  0  0  0  0  0  0  0  0  0  0
    6.1890   -3.3263    5.0394 H   0  0  0  0  0  0  0  0  0  0  0  0
    4.7752   -2.3738    4.8350 H   0  0  0  0  0  0  0  0  0  0  0  0
    4.5207   -4.6202    5.4965 H   0  0  0  0  0  0  0  0  0  0  0  0
    6.3555   -5.3814    3.5231 H   0  0  0  0  0  0  0  0  0  0  0  0
    5.9064   -6.1521    4.9110 H   0  0  0  0  0  0  0  0  0  0  0  0
    5.2548   -7.7600    3.6944 H   0  0  0  0  0  0  0  0  0  0  0  0
    6.4732   -6.8902    1.8615 H   0  0  0  0  0  0  0  0  0  0  0  0
    5.7481   -8.4461    0.5125 H   0  0  0  0  0  0  0  0  0  0  0  0
    5.5655   -6.2053   -0.1957 H   0  0  0  0  0  0  0  0  0  0  0  0
    3.9561   -6.2550    0.2687 H   0  0  0  0  0  0  0  0  0  0  0  0
    5.4609   -4.4457    1.9788 H   0  0  0  0  0  0  0  0  0  0  0  0
    7.5670   -5.3179    0.1225 H   0  0  0  0  0  0  0  0  0  0  0  0
    7.7028   -4.2893    1.5427 H   0  0  0  0  0  0  0  0  0  0  0  0
    8.2748   -3.7318   -0.0193 H   0  0  0  0  0  0  0  0  0  0  0  0
    5.4304   -4.6320   -1.7031 H   0  0  0  0  0  0  0  0  0  0  0  0
    6.7294   -3.4619   -1.8831 H   0  0  0  0  0  0  0  0  0  0  0  0
    5.0993   -2.9160   -1.6494 H   0  0  0  0  0  0  0  0  0  0  0  0
    5.0343   -0.5781    1.6367 H   0  0  0  0  0  0  0  0  0  0  0  0
    3.0405   -1.8039    2.0891 H   0  0  0  0  0  0  0  0  0  0  0  0
    2.9952   -4.4123   -0.7604 H   0  0  0  0  0  0  0  0  0  0  0  0
    3.2487   -2.7091   -0.6217 H   0  0  0  0  0  0  0  0  0  0  0  0
    1.8213   -3.3682    0.0613 H   0  0  0  0  0  0  0  0  0  0  0  0
    1.8534   -3.8356    2.3639 H   0  0  0  0  0  0  0  0  0  0  0  0
    0.8724   -5.6421    2.2477 H   0  0  0  0  0  0  0  0  0  0  0  0
    2.1952   -5.9002   -0.0688 H   0  0  0  0  0  0  0  0  0  0  0  0
    1.5184   -7.8285    2.3872 H   0  0  0  0  0  0  0  0  0  0  0  0
    2.8620   -7.6869    1.3870 H   0  0  0  0  0  0  0  0  0  0  0  0
    3.2065   -8.1804    3.8274 H   0  0  0  0  0  0  0  0  0  0  0  0
    2.6813   -6.4072    6.8018 H   0  0  0  0  0  0  0  0  0  0  0  0
    4.2854   -6.5075    6.1658 H   0  0  0  0  0  0  0  0  0  0  0  0
    3.2334   -7.8049    5.9922 H   0  0  0  0  0  0  0  0  0  0  0  0
    0.5101   -6.6269    3.8859 H   0  0  0  0  0  0  0  0  0  0  0  0
    1.1311   -8.4568    4.8513 H   0  0  0  0  0  0  0  0  0  0  0  0
   -0.7005   -5.6559    5.5751 H   0  0  0  0  0  0  0  0  0  0  0  0
    0.6688   -5.4267    6.6174 H   0  0  0  0  0  0  0  0  0  0  0  0
    0.2058   -4.1211    3.8931 H   0  0  0  0  0  0  0  0  0  0  0  0
   -0.0191   -3.3417    5.4228 H   0  0  0  0  0  0  0  0  0  0  0  0
    2.9581   -1.7050    4.2189 H   0  0  0  0  0  0  0  0  0  0  0  0
    1.4666   -1.5450    5.0695 H   0  0  0  0  0  0  0  0  0  0  0  0
    1.4204   -2.0902    3.4382 H   0  0  0  0  0  0  0  0  0  0  0  0
    3.4276   -2.8634    6.4759 H   0  0  0  0  0  0  0  0  0  0  0  0
    2.6651   -4.3643    6.9205 H   0  0  0  0  0  0  0  0  0  0  0  0
    1.7495   -2.8958    6.9353 H   0  0  0  0  0  0  0  0  0  0  0  0
  1  2  1  0
  1 33  1  0
  1 34  1  0
  1 35  1  0
  2 32  1  0
  2  3  1  0
  2 36  1  1
  3  4  1  0
  3 37  1  0
  3 38  1  0
  4 22  1  0
  4  5  1  0
  4 39  1  1
  5  6  1  0
  5  7  1  0
  5 40  1  1
  6 41  1  0
  7  8  1  0
  7 42  1  0
  7 43  1  0
  8 16  1  0
  8  9  1  0
  8 44  1  1
  9 10  1  0
  9 11  1  0
  9 12  1  0
 10 45  1  0
 10 46  1  0
 10 47  1  0
 11 48  1  0
 11 49  1  0
 11 50  1  0
 12 13  2  0
 12 14  1  0
 14 15  2  0
 14 51  1  0
 15 16  1  0
 15 52  1  0
 16 17  1  6
 16 18  1  0
 17 53  1  0
 17 54  1  0
 17 55  1  0
 18 32  1  0
 18 19  1  0
 18 56  1  1
 19 20  1  0
 19 21  1  0
 19 57  1  1
 20 58  1  0
 21 22  1  0
 21 59  1  0
 21 60  1  0
 22 23  1  0
 22 61  1  1
 23 32  1  0
 23 24  1  1
 23 25  1  0
 24 62  1  0
 24 63  1  0
 24 64  1  0
 25 26  1  0
 25 27  1  0
 25 65  1  6
 26 66  1  0
 27 28  1  0
 27 67  1  0
 27 68  1  0
 28 29  1  0
 28 69  1  0
 28 70  1  0
 29 30  1  0
 29 31  1  0
 32 29  1  1
 30 71  1  0
 30 72  1  0
 30 73  1  0
 31 74  1  0
 31 75  1  0
 31 76  1  0
M  END
>  <i_m_ct_stereo_status>  (226) 
1

>  <s_m_source_file>  (226) 
/var/tmp/pbs.5076255.sched01/tmptyawoosb/846vw0lfia.sdf

>  <i_m_source_file_index>  (226) 
9

>  <i_lp_mmshare_version>  (226) 
48012

>  <i_f3d_flags>  (226) 
0

>  <s_epik_input>  (226) 
W0NIM11DMShbQ0gzXSlbQ0gyXVtDSDJdW0NASF0oW09IXSlbQ0BAXTIoW0NIM10pW0NAQEhdKFtDSDJdW0NAQEhdM1tPSF0pW0NASF0oW0NIMl1bQ0BIXTRbQ0gzXSlbQ0BASF0oW09IXSlbQ0gyXVtDQEhdKFtDQEBdNShbQ0gzXSlbQ0BASF0zW0NAQF0xMjQpQyhbQ0gzXSkoW0NIM10pQyg9TylbQ0hdPVtDSF01

>  <s_epik_cmdline>  (226) 
J2VwaWtfcHl0aG9uJywgJy1waHQnLCAnMi4wJywgJy1waCcsICc3LjAnLCAnLXRuJywgJzgnLCAnLW1hJywgJzIwMCcsICctaW1hZScsICc8aW5maWxlLm1hZT4nLCAnLW9tYWUnLCAnPG91dGZpbGUubWFlPic=

>  <r_lp_tautomer_probability>  (226) 
1

>  <r_epik_Ionization_Penalty>  (226) 
4.12817e-06

>  <r_epik_Ionization_Penalty_Charging>  (226) 
0

>  <r_epik_Ionization_Penalty_Neutral>  (226) 
4.12817e-06

>  <r_epik_State_Penalty>  (226) 
-0

>  <r_epik_Charging_Adjusted_Penalty>  (226) 
0

>  <i_epik_Tot_Q>  (226) 
0

>  <i_epik_Tot_abs_Q>  (226) 
0

>  <s_lp_Force_Field>  (226) 
OPLS3e

>  <r_lp_Energy>  (226) 
162.85

>  <b_lp_Chiralities_Consistent>  (226) 
1

>  <s_lp_Variant>  (226) 
64:0-1

>  <s_i_glide_gridfile>  (226) 
pfpi4k_grid

>  <i_i_glide_lignum>  (226) 
9

>  <i_i_glide_rotatable_bonds>  (226) 
3

>  <r_i_docking_score>  (226) 
-3.38146

>  <r_i_glide_ligand_efficiency>  (226) 
-0.105671

>  <r_i_glide_ligand_efficiency_sa>  (226) 
-0.335483

>  <r_i_glide_ligand_efficiency_ln>  (226) 
-0.757201

>  <r_i_glide_gscore>  (226) 
-3.38146

>  <r_i_glide_lipo>  (226) 
-0.632559

>  <r_i_glide_hbond>  (226) 
-0.186181

>  <r_i_glide_metal>  (226) 
-0

>  <r_i_glide_rewards>  (226) 
-0.495377

>  <r_i_glide_evdw>  (226) 
-27.5426

>  <r_i_glide_ecoul>  (226) 
-4.60141

>  <r_i_glide_erotb>  (226) 
0

>  <r_i_glide_esite>  (226) 
0

>  <r_i_glide_emodel>  (226) 
-38.9628

>  <r_i_glide_energy>  (226) 
-32.144

>  <r_i_glide_einternal>  (226) 
0.685762

>  <r_i_glide_intrahb_reward>  (226) 
-0

>  <i_i_glide_confnum>  (226) 
1

>  <i_i_glide_posenum>  (226) 
3

>  <r_i_glide_eff_state_penalty>  (226) 
0

>  <ligand_id>  (226) 
64

>  <original_smiles>  (226) 
CC1CC2C(O)CC3C(C)(C)C(=O)C=CC3(C)C3C(O)CC2C2(C)C(O)CCC(C)(C)C132

>  <smiles>  (226) 
[H]OC1([H])C([H])([H])C2([H])C(C([H])([H])[H])(C([H])([H])[H])C(=O)C([H])=C([H])C2(C([H])([H])[H])C2([H])C([H])(O[H])C([H])([H])C3([H])C1([H])C([H])([H])C([H])(C([H])([H])[H])C21C(C([H])([H])[H])(C([H])([H])[H])C([H])([H])C([H])([H])C([H])(O[H])C31C([H])([H])[H]

$$$$
64:0:2
     RDKit          3D

 76 80  0  0  1  0  0  0  0  0999 V2000
    5.3063   -3.2341    4.4034 C   0  0  0  0  0  0  0  0  0  0  0  0
    4.5280   -4.5675    4.4094 C   0  0  2  0  0  0  0  0  0  0  0  0
    5.4491   -5.7531    4.0004 C   0  0  0  0  0  0  0  0  0  0  0  0
    4.7987   -6.9074    3.1915 C   0  0  2  0  0  0  0  0  0  0  0  0
    5.3920   -7.0072    1.7477 C   0  0  1  0  0  0  0  0  0  0  0  0
    5.2367   -8.3318    1.2736 O   0  0  0  0  0  0  0  0  0  0  0  0
    4.9325   -6.0047    0.6468 C   0  0  0  0  0  0  0  0  0  0  0  0
    5.0038   -4.4901    1.0113 C   0  0  1  0  0  0  0  0  0  0  0  0
    6.0716   -3.6751    0.1899 C   0  0  0  0  0  0  0  0  0  0  0  0
    7.4770   -4.2878    0.4683 C   0  0  0  0  0  0  0  0  0  0  0  0
    5.8115   -3.6705   -1.3388 C   0  0  0  0  0  0  0  0  0  0  0  0
    6.1166   -2.1969    0.6492 C   0  0  0  0  0  0  0  0  0  0  0  0
    7.0903   -1.5067    0.3511 O   0  0  0  0  0  0  0  0  0  0  0  0
    4.9778   -1.6249    1.3770 C   0  0  0  0  0  0  0  0  0  0  0  0
    3.8705   -2.3428    1.6659 C   0  0  0  0  0  0  0  0  0  0  0  0
    3.6198   -3.7984    1.2856 C   0  0  1  0  0  0  0  0  0  0  0  0
    2.8842   -3.5747   -0.0750 C   0  0  0  0  0  0  0  0  0  0  0  0
    2.6714   -4.5563    2.3803 C   0  0  1  0  0  0  0  0  0  0  0  0
    1.8596   -5.7945    1.8182 C   0  0  1  0  0  0  0  0  0  0  0  0
    1.4237   -5.8528    0.4753 O   0  0  0  0  0  0  0  0  0  0  0  0
    2.3786   -7.1882    2.1921 C   0  0  0  0  0  0  0  0  0  0  0  0
    3.2629   -7.1681    3.4458 C   0  0  2  0  0  0  0  0  0  0  0  0
    2.6430   -6.2388    4.5393 C   0  0  2  0  0  0  0  0  0  0  0  0
    3.2504   -6.7491    5.9152 C   0  0  0  0  0  0  0  0  0  0  0  0
    1.0937   -6.5391    4.7678 C   0  0  1  0  0  0  0  0  0  0  0  0
    0.8195   -7.7980    5.3568 O   0  0  0  0  0  0  0  0  0  0  0  0
    0.3658   -5.4643    5.5638 C   0  0  0  0  0  0  0  0  0  0  0  0
    0.5945   -4.1099    4.9032 C   0  0  0  0  0  0  0  0  0  0  0  0
    2.0767   -3.6612    4.8863 C   0  0  0  0  0  0  0  0  0  0  0  0
    1.9952   -2.2020    4.3604 C   0  0  0  0  0  0  0  0  0  0  0  0
    2.5111   -3.4725    6.3727 C   0  0  0  0  0  0  0  0  0  0  0  0
    2.9845   -4.7061    4.0184 C   0  0  1  0  0  0  0  0  0  0  0  0
    5.7004   -2.9387    3.4422 H   0  0  0  0  0  0  0  0  0  0  0  0
    6.1888   -3.3499    5.0355 H   0  0  0  0  0  0  0  0  0  0  0  0
    4.7748   -2.3969    4.8366 H   0  0  0  0  0  0  0  0  0  0  0  0
    4.5204   -4.6468    5.4879 H   0  0  0  0  0  0  0  0  0  0  0  0
    6.3549   -5.3965    3.5113 H   0  0  0  0  0  0  0  0  0  0  0  0
    5.9062   -6.1768    4.8944 H   0  0  0  0  0  0  0  0  0  0  0  0
    5.2537   -7.7759    3.6681 H   0  0  0  0  0  0  0  0  0  0  0  0
    6.4744   -6.8949    1.8429 H   0  0  0  0  0  0  0  0  0  0  0  0
    5.7722   -8.4563    0.5067 H   0  0  0  0  0  0  0  0  0  0  0  0
    5.5669   -6.2017   -0.2131 H   0  0  0  0  0  0  0  0  0  0  0  0
    3.9573   -6.2545    0.2508 H   0  0  0  0  0  0  0  0  0  0  0  0
    5.4615   -4.4536    1.9709 H   0  0  0  0  0  0  0  0  0  0  0  0
    7.5680   -5.3158    0.1122 H   0  0  0  0  0  0  0  0  0  0  0  0
    7.7031   -4.2936    1.5377 H   0  0  0  0  0  0  0  0  0  0  0  0
    8.2753   -3.7280   -0.0215 H   0  0  0  0  0  0  0  0  0  0  0  0
    5.4273   -4.6224   -1.7106 H   0  0  0  0  0  0  0  0  0  0  0  0
    6.7305   -3.4604   -1.8847 H   0  0  0  0  0  0  0  0  0  0  0  0
    5.1032   -2.9037   -1.6508 H   0  0  0  0  0  0  0  0  0  0  0  0
    5.0350   -0.5838    1.6479 H   0  0  0  0  0  0  0  0  0  0  0  0
    3.0397   -1.8137    2.0928 H   0  0  0  0  0  0  0  0  0  0  0  0
    2.9965   -4.4066   -0.7693 H   0  0  0  0  0  0  0  0  0  0  0  0
    3.2501   -2.7034   -0.6209 H   0  0  0  0  0  0  0  0  0  0  0  0
    1.8214   -3.3668    0.0580 H   0  0  0  0  0  0  0  0  0  0  0  0
    1.8537   -3.8465    2.3577 H   0  0  0  0  0  0  0  0  0  0  0  0
    0.8740   -5.6540    2.2371 H   0  0  0  0  0  0  0  0  0  0  0  0
    2.1919   -5.9002   -0.0795 H   0  0  0  0  0  0  0  0  0  0  0  0
    1.5193   -7.8393    2.3642 H   0  0  0  0  0  0  0  0  0  0  0  0
    2.8632   -7.6915    1.3629 H   0  0  0  0  0  0  0  0  0  0  0  0
    3.2039   -8.1986    3.7988 H   0  0  0  0  0  0  0  0  0  0  0  0
    2.6839   -6.4393    6.7862 H   0  0  0  0  0  0  0  0  0  0  0  0
    4.2834   -6.5381    6.1445 H   0  0  0  0  0  0  0  0  0  0  0  0
    3.2357   -7.8374    5.9634 H   0  0  0  0  0  0  0  0  0  0  0  0
    0.5133   -6.6380    3.8685 H   0  0  0  0  0  0  0  0  0  0  0  0
    1.3169   -7.8762    6.1560 H   0  0  0  0  0  0  0  0  0  0  0  0
   -0.7013   -5.6817    5.5599 H   0  0  0  0  0  0  0  0  0  0  0  0
    0.6656   -5.4539    6.6101 H   0  0  0  0  0  0  0  0  0  0  0  0
    0.2076   -4.1419    3.8869 H   0  0  0  0  0  0  0  0  0  0  0  0
   -0.0185   -3.3668    5.4177 H   0  0  0  0  0  0  0  0  0  0  0  0
    2.9581   -1.7250    4.2243 H   0  0  0  0  0  0  0  0  0  0  0  0
    1.4660   -1.5703    5.0754 H   0  0  0  0  0  0  0  0  0  0  0  0
    1.4202   -2.1071    3.4412 H   0  0  0  0  0  0  0  0  0  0  0  0
    3.4277   -2.8932    6.4742 H   0  0  0  0  0  0  0  0  0  0  0  0
    2.6651   -4.3972    6.9119 H   0  0  0  0  0  0  0  0  0  0  0  0
    1.7482   -2.9287    6.9331 H   0  0  0  0  0  0  0  0  0  0  0  0
  1  2  1  0
  1 33  1  0
  1 34  1  0
  1 35  1  0
  2 32  1  0
  2  3  1  0
  2 36  1  1
  3  4  1  0
  3 37  1  0
  3 38  1  0
  4 22  1  0
  4  5  1  0
  4 39  1  1
  5  6  1  0
  5  7  1  0
  5 40  1  1
  6 41  1  0
  7  8  1  0
  7 42  1  0
  7 43  1  0
  8 16  1  0
  8  9  1  0
  8 44  1  1
  9 10  1  0
  9 11  1  0
  9 12  1  0
 10 45  1  0
 10 46  1  0
 10 47  1  0
 11 48  1  0
 11 49  1  0
 11 50  1  0
 12 13  2  0
 12 14  1  0
 14 15  2  0
 14 51  1  0
 15 16  1  0
 15 52  1  0
 16 17  1  6
 16 18  1  0
 17 53  1  0
 17 54  1  0
 17 55  1  0
 18 32  1  0
 18 19  1  0
 18 56  1  1
 19 20  1  0
 19 21  1  0
 19 57  1  1
 20 58  1  0
 21 22  1  0
 21 59  1  0
 21 60  1  0
 22 23  1  0
 22 61  1  1
 23 32  1  0
 23 24  1  1
 23 25  1  0
 24 62  1  0
 24 63  1  0
 24 64  1  0
 25 26  1  0
 25 27  1  0
 25 65  1  6
 26 66  1  0
 27 28  1  0
 27 67  1  0
 27 68  1  0
 28 29  1  0
 28 69  1  0
 28 70  1  0
 29 30  1  0
 29 31  1  0
 32 29  1  1
 30 71  1  0
 30 72  1  0
 30 73  1  0
 31 74  1  0
 31 75  1  0
 31 76  1  0
M  END
>  <i_m_ct_stereo_status>  (227) 
1

>  <s_m_source_file>  (227) 
/var/tmp/pbs.5076255.sched01/tmptyawoosb/846vw0lfia.sdf

>  <i_m_source_file_index>  (227) 
9

>  <i_lp_mmshare_version>  (227) 
48012

>  <i_f3d_flags>  (227) 
0

>  <s_epik_input>  (227) 
W0NIM11DMShbQ0gzXSlbQ0gyXVtDSDJdW0NASF0oW09IXSlbQ0BAXTIoW0NIM10pW0NAQEhdKFtDSDJdW0NAQEhdM1tPSF0pW0NASF0oW0NIMl1bQ0BIXTRbQ0gzXSlbQ0BASF0oW09IXSlbQ0gyXVtDQEhdKFtDQEBdNShbQ0gzXSlbQ0BASF0zW0NAQF0xMjQpQyhbQ0gzXSkoW0NIM10pQyg9TylbQ0hdPVtDSF01

>  <s_epik_cmdline>  (227) 
J2VwaWtfcHl0aG9uJywgJy1waHQnLCAnMi4wJywgJy1waCcsICc3LjAnLCAnLXRuJywgJzgnLCAnLW1hJywgJzIwMCcsICctaW1hZScsICc8aW5maWxlLm1hZT4nLCAnLW9tYWUnLCAnPG91dGZpbGUubWFlPic=

>  <r_lp_tautomer_probability>  (227) 
1

>  <r_epik_Ionization_Penalty>  (227) 
4.12817e-06

>  <r_epik_Ionization_Penalty_Charging>  (227) 
0

>  <r_epik_Ionization_Penalty_Neutral>  (227) 
4.12817e-06

>  <r_epik_State_Penalty>  (227) 
-0

>  <r_epik_Charging_Adjusted_Penalty>  (227) 
0

>  <i_epik_Tot_Q>  (227) 
0

>  <i_epik_Tot_abs_Q>  (227) 
0

>  <s_lp_Force_Field>  (227) 
OPLS3e

>  <r_lp_Energy>  (227) 
162.85

>  <b_lp_Chiralities_Consistent>  (227) 
1

>  <s_lp_Variant>  (227) 
64:0-1

>  <s_i_glide_gridfile>  (227) 
pfpi4k_grid

>  <i_i_glide_lignum>  (227) 
9

>  <i_i_glide_rotatable_bonds>  (227) 
3

>  <r_i_docking_score>  (227) 
-3.30981

>  <r_i_glide_ligand_efficiency>  (227) 
-0.103432

>  <r_i_glide_ligand_efficiency_sa>  (227) 
-0.328375

>  <r_i_glide_ligand_efficiency_ln>  (227) 
-0.741157

>  <r_i_glide_gscore>  (227) 
-3.30981

>  <r_i_glide_lipo>  (227) 
-0.637347

>  <r_i_glide_hbond>  (227) 
-0.184589

>  <r_i_glide_metal>  (227) 
-0

>  <r_i_glide_rewards>  (227) 
-0.495712

>  <r_i_glide_evdw>  (227) 
-27.6157

>  <r_i_glide_ecoul>  (227) 
-4.07584

>  <r_i_glide_erotb>  (227) 
0

>  <r_i_glide_esite>  (227) 
0

>  <r_i_glide_emodel>  (227) 
-38.4357

>  <r_i_glide_energy>  (227) 
-31.6916

>  <r_i_glide_einternal>  (227) 
0.465739

>  <r_i_glide_intrahb_reward>  (227) 
-0

>  <i_i_glide_confnum>  (227) 
1

>  <i_i_glide_posenum>  (227) 
40

>  <r_i_glide_eff_state_penalty>  (227) 
0

>  <ligand_id>  (227) 
64

>  <original_smiles>  (227) 
CC1CC2C(O)CC3C(C)(C)C(=O)C=CC3(C)C3C(O)CC2C2(C)C(O)CCC(C)(C)C132

>  <smiles>  (227) 
[H]OC1([H])C([H])([H])C2([H])C(C([H])([H])[H])(C([H])([H])[H])C(=O)C([H])=C([H])C2(C([H])([H])[H])C2([H])C([H])(O[H])C([H])([H])C3([H])C1([H])C([H])([H])C([H])(C([H])([H])[H])C21C(C([H])([H])[H])(C([H])([H])[H])C([H])([H])C([H])([H])C([H])(O[H])C31C([H])([H])[H]

$$$$
65:0:0
     RDKit          3D

 42 44  0  0  1  0  0  0  0  0999 V2000
    4.0761   -0.5287   -4.6903 C   0  0  0  0  0  0  0  0  0  0  0  0
    4.0010   -0.5174   -3.2695 O   0  0  0  0  0  0  0  0  0  0  0  0
    4.1245   -1.8240   -2.7163 C   0  0  2  0  0  0  0  0  0  0  0  0
    3.0110   -2.7868   -3.1396 C   0  0  1  0  0  0  0  0  0  0  0  0
    3.4400   -3.8512   -3.9395 O   0  0  0  0  0  0  0  0  0  0  0  0
    2.7661   -3.1005   -1.6648 C   0  0  0  0  0  0  0  0  0  0  0  0
    3.6034   -1.9424   -1.3624 N   0  0  0  0  0  0  0  0  0  0  0  0
    4.3027   -1.7439   -0.1918 C   0  0  0  0  0  0  0  0  0  0  0  0
    5.4518   -1.2831   -0.1100 O   0  0  0  0  0  0  0  0  0  0  0  0
    3.5064   -2.1047    0.8446 O   0  0  0  0  0  0  0  0  0  0  0  0
    3.9975   -1.9433    2.1569 C   0  0  1  0  0  0  0  0  0  0  0  0
    5.0480   -3.0093    2.5776 C   0  0  0  0  0  0  0  0  0  0  0  0
    4.9761   -2.9109    4.1251 C   0  0  0  0  0  0  0  0  0  0  0  0
    3.8862   -1.8210    4.3352 C   0  0  1  0  0  0  0  0  0  0  0  0
    3.3030   -1.7019    5.7508 C   0  0  0  0  0  0  0  0  0  0  0  0
    4.5070   -0.5288    3.7889 C   0  0  0  0  0  0  0  0  0  0  0  0
    4.8910    0.4417    4.4450 O   0  0  0  0  0  0  0  0  0  0  0  0
    4.5641   -0.6855    2.4556 O   0  0  0  0  0  0  0  0  0  0  0  0
    2.8798   -2.1170    3.2133 C   0  0  0  0  0  0  0  0  0  0  0  0
    1.7254   -1.0854    3.0198 C   0  0  0  0  0  0  0  0  0  0  0  0
    2.2380   -3.5424    3.2642 C   0  0  0  0  0  0  0  0  0  0  0  0
    4.0584    0.4836   -5.1001 H   0  0  0  0  0  0  0  0  0  0  0  0
    3.2313   -1.0548   -5.1263 H   0  0  0  0  0  0  0  0  0  0  0  0
    4.9781   -1.0441   -5.0144 H   0  0  0  0  0  0  0  0  0  0  0  0
    5.1281   -2.2506   -2.8244 H   0  0  0  0  0  0  0  0  0  0  0  0
    2.1309   -2.3099   -3.5928 H   0  0  0  0  0  0  0  0  0  0  0  0
    3.2987   -4.6426   -3.4244 H   0  0  0  0  0  0  0  0  0  0  0  0
    1.7145   -3.0311   -1.3888 H   0  0  0  0  0  0  0  0  0  0  0  0
    3.2076   -4.0421   -1.3289 H   0  0  0  0  0  0  0  0  0  0  0  0
    4.7375   -3.9909    2.2091 H   0  0  0  0  0  0  0  0  0  0  0  0
    6.0279   -2.7354    2.1685 H   0  0  0  0  0  0  0  0  0  0  0  0
    4.7168   -3.8714    4.5777 H   0  0  0  0  0  0  0  0  0  0  0  0
    5.9302   -2.6277    4.5705 H   0  0  0  0  0  0  0  0  0  0  0  0
    2.6662   -2.5511    5.9844 H   0  0  0  0  0  0  0  0  0  0  0  0
    2.6894   -0.8078    5.8351 H   0  0  0  0  0  0  0  0  0  0  0  0
    4.0814   -1.6449    6.5089 H   0  0  0  0  0  0  0  0  0  0  0  0
    1.0460   -1.1132    3.8678 H   0  0  0  0  0  0  0  0  0  0  0  0
    1.1410   -1.3367    2.1392 H   0  0  0  0  0  0  0  0  0  0  0  0
    2.0351   -0.0485    2.8976 H   0  0  0  0  0  0  0  0  0  0  0  0
    1.5159   -3.5849    4.0784 H   0  0  0  0  0  0  0  0  0  0  0  0
    2.9100   -4.3812    3.4420 H   0  0  0  0  0  0  0  0  0  0  0  0
    1.7051   -3.7705    2.3438 H   0  0  0  0  0  0  0  0  0  0  0  0
  1  2  1  0
  1 22  1  0
  1 23  1  0
  1 24  1  0
  2  3  1  0
  3  7  1  0
  3  4  1  0
  3 25  1  1
  4  5  1  0
  4  6  1  0
  4 26  1  6
  5 27  1  0
  6  7  1  0
  6 28  1  0
  6 29  1  0
  7  8  1  0
  8  9  2  0
  8 10  1  0
 11 10  1  6
 11 18  1  0
 11 19  1  0
 11 12  1  0
 12 13  1  0
 12 30  1  0
 12 31  1  0
 13 14  1  0
 13 32  1  0
 13 33  1  0
 14 15  1  1
 14 16  1  0
 14 19  1  0
 15 34  1  0
 15 35  1  0
 15 36  1  0
 16 17  2  0
 16 18  1  0
 19 20  1  0
 19 21  1  0
 20 37  1  0
 20 38  1  0
 20 39  1  0
 21 40  1  0
 21 41  1  0
 21 42  1  0
M  END
>  <i_m_ct_stereo_status>  (228) 
1

>  <s_m_source_file>  (228) 
/var/tmp/pbs.5076255.sched01/tmptyawoosb/846vw0lfia.sdf

>  <i_m_source_file_index>  (228) 
10

>  <i_lp_mmshare_version>  (228) 
48012

>  <i_f3d_flags>  (228) 
0

>  <s_epik_input>  (228) 
W0NIM11PW0NAQEhdMVtDQEBIXShbT0hdKVtDSDJdTjFDKD1PKU9bQ0BAXTIzW0NIMl1bQ0gyXVtDQEBdKFtDSDNdKShDKD1PKU8yKUMzKFtDSDNdKVtDSDNd

>  <s_epik_cmdline>  (228) 
J2VwaWtfcHl0aG9uJywgJy1waHQnLCAnMi4wJywgJy1waCcsICc3LjAnLCAnLXRuJywgJzgnLCAnLW1hJywgJzIwMCcsICctaW1hZScsICc8aW5maWxlLm1hZT4nLCAnLW9tYWUnLCAnPG91dGZpbGUubWFlPic=

>  <r_lp_tautomer_probability>  (228) 
1

>  <r_epik_Ionization_Penalty>  (228) 
6.78315e-06

>  <r_epik_Ionization_Penalty_Charging>  (228) 
0

>  <r_epik_Ionization_Penalty_Neutral>  (228) 
6.78315e-06

>  <r_epik_State_Penalty>  (228) 
-0

>  <r_epik_Charging_Adjusted_Penalty>  (228) 
0

>  <i_epik_Tot_Q>  (228) 
0

>  <i_epik_Tot_abs_Q>  (228) 
0

>  <s_epik_Chemistry_Notes>  (228) 
This compound has an ester and may undergo hydrolysis at high or low pH. This compound contains an acetal/aminal-like group ( X-CH(R)-Y where X, Y are N, S, or O) that may be acid/base labile, releasing an aldehyde.

>  <s_lp_Force_Field>  (228) 
OPLS3e

>  <r_lp_Energy>  (228) 
34.4305

>  <b_lp_Chiralities_Consistent>  (228) 
1

>  <s_lp_Variant>  (228) 
65:0-1

>  <s_i_glide_gridfile>  (228) 
pfpi4k_grid

>  <i_i_glide_lignum>  (228) 
10

>  <i_i_glide_rotatable_bonds>  (228) 
5

>  <r_i_docking_score>  (228) 
-3.24607

>  <r_i_glide_ligand_efficiency>  (228) 
-0.154575

>  <r_i_glide_ligand_efficiency_sa>  (228) 
-0.426461

>  <r_i_glide_ligand_efficiency_ln>  (228) 
-0.802585

>  <r_i_glide_gscore>  (228) 
-3.24607

>  <r_i_glide_lipo>  (228) 
-0.405234

>  <r_i_glide_hbond>  (228) 
0

>  <r_i_glide_metal>  (228) 
-0

>  <r_i_glide_rewards>  (228) 
-1.44784

>  <r_i_glide_evdw>  (228) 
-21.1912

>  <r_i_glide_ecoul>  (228) 
-5.7005

>  <r_i_glide_erotb>  (228) 
0.614938

>  <r_i_glide_esite>  (228) 
-0.093307

>  <r_i_glide_emodel>  (228) 
-28.6695

>  <r_i_glide_energy>  (228) 
-26.8917

>  <r_i_glide_einternal>  (228) 
6.75314

>  <r_i_glide_intrahb_reward>  (228) 
-0

>  <i_i_glide_confnum>  (228) 
4

>  <i_i_glide_posenum>  (228) 
9

>  <r_i_glide_eff_state_penalty>  (228) 
0

>  <ligand_id>  (228) 
65

>  <original_smiles>  (228) 
COC1C(O)CN1C(=O)OC12CCC(C)(C(=O)O1)C2(C)C

>  <smiles>  (228) 
[H]OC1([H])C([H])([H])N(C(=O)OC23OC(=O)C(C([H])([H])[H])(C([H])([H])C2([H])[H])C3(C([H])([H])[H])C([H])([H])[H])C1([H])OC([H])([H])[H]

$$$$
65:0:1
     RDKit          3D

 42 44  0  0  1  0  0  0  0  0999 V2000
    3.8264   -4.0365    1.4386 C   0  0  0  0  0  0  0  0  0  0  0  0
    3.4850   -2.9581    2.3056 O   0  0  0  0  0  0  0  0  0  0  0  0
    2.7729   -1.9436    1.6122 C   0  0  2  0  0  0  0  0  0  0  0  0
    3.6392   -1.0318    0.7384 C   0  0  1  0  0  0  0  0  0  0  0  0
    3.4133   -1.1465   -0.6446 O   0  0  0  0  0  0  0  0  0  0  0  0
    3.0212    0.1799    1.4344 C   0  0  0  0  0  0  0  0  0  0  0  0
    2.4879   -0.7567    2.4121 N   0  0  0  0  0  0  0  0  0  0  0  0
    1.3666   -0.5738    3.1885 C   0  0  0  0  0  0  0  0  0  0  0  0
    0.6169   -1.4757    3.5695 O   0  0  0  0  0  0  0  0  0  0  0  0
    1.2294    0.7628    3.4469 O   0  0  0  0  0  0  0  0  0  0  0  0
    0.0464    1.2325    4.0481 C   0  0  1  0  0  0  0  0  0  0  0  0
   -1.1095    1.4722    3.0403 C   0  0  0  0  0  0  0  0  0  0  0  0
   -2.0118    2.4506    3.8427 C   0  0  0  0  0  0  0  0  0  0  0  0
   -1.2173    2.6226    5.1661 C   0  0  1  0  0  0  0  0  0  0  0  0
   -1.6202    3.7853    6.0771 C   0  0  0  0  0  0  0  0  0  0  0  0
   -1.2605    1.2481    5.8484 C   0  0  0  0  0  0  0  0  0  0  0  0
   -1.9006    0.9404    6.8609 O   0  0  0  0  0  0  0  0  0  0  0  0
   -0.4895    0.4456    5.0992 O   0  0  0  0  0  0  0  0  0  0  0  0
    0.2513    2.6273    4.6922 C   0  0  0  0  0  0  0  0  0  0  0  0
    1.3550    2.6032    5.7892 C   0  0  0  0  0  0  0  0  0  0  0  0
    0.6191    3.7657    3.6895 C   0  0  0  0  0  0  0  0  0  0  0  0
    4.3675   -4.8182    1.9751 H   0  0  0  0  0  0  0  0  0  0  0  0
    4.4656   -3.6986    0.6223 H   0  0  0  0  0  0  0  0  0  0  0  0
    2.9346   -4.4894    1.0032 H   0  0  0  0  0  0  0  0  0  0  0  0
    1.8826   -2.3176    1.1115 H   0  0  0  0  0  0  0  0  0  0  0  0
    4.7086   -1.1263    0.9594 H   0  0  0  0  0  0  0  0  0  0  0  0
    2.4549   -1.0658   -0.7550 H   0  0  0  0  0  0  0  0  0  0  0  0
    3.7465    0.8970    1.8203 H   0  0  0  0  0  0  0  0  0  0  0  0
    2.2411    0.6679    0.8537 H   0  0  0  0  0  0  0  0  0  0  0  0
   -0.7140    1.9335    2.1331 H   0  0  0  0  0  0  0  0  0  0  0  0
   -1.5886    0.5245    2.8106 H   0  0  0  0  0  0  0  0  0  0  0  0
   -2.1681    3.3837    3.3081 H   0  0  0  0  0  0  0  0  0  0  0  0
   -2.9985    2.0284    4.0102 H   0  0  0  0  0  0  0  0  0  0  0  0
   -1.3312    4.7376    5.6378 H   0  0  0  0  0  0  0  0  0  0  0  0
   -1.1167    3.7118    7.0431 H   0  0  0  0  0  0  0  0  0  0  0  0
   -2.6938    3.7869    6.2576 H   0  0  0  0  0  0  0  0  0  0  0  0
    1.3652    3.5428    6.3380 H   0  0  0  0  0  0  0  0  0  0  0  0
    2.3363    2.5017    5.3273 H   0  0  0  0  0  0  0  0  0  0  0  0
    1.2752    1.8035    6.5248 H   0  0  0  0  0  0  0  0  0  0  0  0
    0.6728    4.7206    4.2069 H   0  0  0  0  0  0  0  0  0  0  0  0
   -0.0931    3.9420    2.8822 H   0  0  0  0  0  0  0  0  0  0  0  0
    1.5838    3.6022    3.2078 H   0  0  0  0  0  0  0  0  0  0  0  0
  1  2  1  0
  1 22  1  0
  1 23  1  0
  1 24  1  0
  2  3  1  0
  3  7  1  0
  3  4  1  0
  3 25  1  6
  4  5  1  0
  4  6  1  0
  4 26  1  6
  5 27  1  0
  6  7  1  0
  6 28  1  0
  6 29  1  0
  7  8  1  0
  8  9  2  0
  8 10  1  0
 11 10  1  6
 11 18  1  0
 11 19  1  0
 11 12  1  0
 12 13  1  0
 12 30  1  0
 12 31  1  0
 13 14  1  0
 13 32  1  0
 13 33  1  0
 14 15  1  1
 14 16  1  0
 14 19  1  0
 15 34  1  0
 15 35  1  0
 15 36  1  0
 16 17  2  0
 16 18  1  0
 19 20  1  0
 19 21  1  0
 20 37  1  0
 20 38  1  0
 20 39  1  0
 21 40  1  0
 21 41  1  0
 21 42  1  0
M  END
>  <i_m_ct_stereo_status>  (229) 
1

>  <s_m_source_file>  (229) 
/var/tmp/pbs.5076255.sched01/tmptyawoosb/846vw0lfia.sdf

>  <i_m_source_file_index>  (229) 
10

>  <i_lp_mmshare_version>  (229) 
48012

>  <i_f3d_flags>  (229) 
0

>  <s_epik_input>  (229) 
W0NIM11PW0NAQEhdMVtDQEBIXShbT0hdKVtDSDJdTjFDKD1PKU9bQ0BAXTIzW0NIMl1bQ0gyXVtDQEBdKFtDSDNdKShDKD1PKU8yKUMzKFtDSDNdKVtDSDNd

>  <s_epik_cmdline>  (229) 
J2VwaWtfcHl0aG9uJywgJy1waHQnLCAnMi4wJywgJy1waCcsICc3LjAnLCAnLXRuJywgJzgnLCAnLW1hJywgJzIwMCcsICctaW1hZScsICc8aW5maWxlLm1hZT4nLCAnLW9tYWUnLCAnPG91dGZpbGUubWFlPic=

>  <r_lp_tautomer_probability>  (229) 
1

>  <r_epik_Ionization_Penalty>  (229) 
6.78315e-06

>  <r_epik_Ionization_Penalty_Charging>  (229) 
0

>  <r_epik_Ionization_Penalty_Neutral>  (229) 
6.78315e-06

>  <r_epik_State_Penalty>  (229) 
-0

>  <r_epik_Charging_Adjusted_Penalty>  (229) 
0

>  <i_epik_Tot_Q>  (229) 
0

>  <i_epik_Tot_abs_Q>  (229) 
0

>  <s_epik_Chemistry_Notes>  (229) 
This compound has an ester and may undergo hydrolysis at high or low pH. This compound contains an acetal/aminal-like group ( X-CH(R)-Y where X, Y are N, S, or O) that may be acid/base labile, releasing an aldehyde.

>  <s_lp_Force_Field>  (229) 
OPLS3e

>  <r_lp_Energy>  (229) 
34.4305

>  <b_lp_Chiralities_Consistent>  (229) 
1

>  <s_lp_Variant>  (229) 
65:0-1

>  <s_i_glide_gridfile>  (229) 
pfpi4k_grid

>  <i_i_glide_lignum>  (229) 
10

>  <i_i_glide_rotatable_bonds>  (229) 
5

>  <r_i_docking_score>  (229) 
-3.00748

>  <r_i_glide_ligand_efficiency>  (229) 
-0.143213

>  <r_i_glide_ligand_efficiency_sa>  (229) 
-0.395115

>  <r_i_glide_ligand_efficiency_ln>  (229) 
-0.743594

>  <r_i_glide_gscore>  (229) 
-3.00748

>  <r_i_glide_lipo>  (229) 
-0.0447494

>  <r_i_glide_hbond>  (229) 
-0.16

>  <r_i_glide_metal>  (229) 
-0

>  <r_i_glide_rewards>  (229) 
-1.36828

>  <r_i_glide_evdw>  (229) 
-17.4726

>  <r_i_glide_ecoul>  (229) 
-7.10776

>  <r_i_glide_erotb>  (229) 
0.614938

>  <r_i_glide_esite>  (229) 
-0.109599

>  <r_i_glide_emodel>  (229) 
-27.542

>  <r_i_glide_energy>  (229) 
-24.5804

>  <r_i_glide_einternal>  (229) 
4.62284

>  <r_i_glide_intrahb_reward>  (229) 
-0

>  <i_i_glide_confnum>  (229) 
3

>  <i_i_glide_posenum>  (229) 
3

>  <r_i_glide_eff_state_penalty>  (229) 
0

>  <ligand_id>  (229) 
65

>  <original_smiles>  (229) 
COC1C(O)CN1C(=O)OC12CCC(C)(C(=O)O1)C2(C)C

>  <smiles>  (229) 
[H]OC1([H])C([H])([H])N(C(=O)OC23OC(=O)C(C([H])([H])[H])(C([H])([H])C2([H])[H])C3(C([H])([H])[H])C([H])([H])[H])C1([H])OC([H])([H])[H]

$$$$
65:0:2
     RDKit          3D

 42 44  0  0  1  0  0  0  0  0999 V2000
   -0.1041    0.6857   10.6062 C   0  0  0  0  0  0  0  0  0  0  0  0
   -0.8559    0.8901    9.4128 O   0  0  0  0  0  0  0  0  0  0  0  0
   -1.3381    2.2205    9.3085 C   0  0  2  0  0  0  0  0  0  0  0  0
   -2.4025    2.6324   10.3271 C   0  0  1  0  0  0  0  0  0  0  0  0
   -2.0245    3.5732   11.2895 O   0  0  0  0  0  0  0  0  0  0  0  0
   -3.2480    3.1561    9.1719 C   0  0  0  0  0  0  0  0  0  0  0  0
   -2.3723    2.3894    8.2869 N   0  0  0  0  0  0  0  0  0  0  0  0
   -2.1096    2.7373    6.9744 C   0  0  0  0  0  0  0  0  0  0  0  0
   -2.5923    3.7137    6.4047 O   0  0  0  0  0  0  0  0  0  0  0  0
   -1.2578    1.8359    6.4198 O   0  0  0  0  0  0  0  0  0  0  0  0
   -0.7444    2.1004    5.1329 C   0  0  1  0  0  0  0  0  0  0  0  0
   -1.7763    2.4272    3.9989 C   0  0  0  0  0  0  0  0  0  0  0  0
   -0.9525    2.0967    2.7383 C   0  0  0  0  0  0  0  0  0  0  0  0
    0.4158    1.6539    3.3241 C   0  0  1  0  0  0  0  0  0  0  0  0
    1.3655    0.9293    2.3618 C   0  0  0  0  0  0  0  0  0  0  0  0
    1.0032    2.9036    4.0063 C   0  0  0  0  0  0  0  0  0  0  0  0
    1.9927    3.5410    3.6517 O   0  0  0  0  0  0  0  0  0  0  0  0
    0.2211    3.1289    5.0871 O   0  0  0  0  0  0  0  0  0  0  0  0
    0.0006    0.8673    4.5732 C   0  0  0  0  0  0  0  0  0  0  0  0
    1.1469    0.3972    5.5173 C   0  0  0  0  0  0  0  0  0  0  0  0
   -0.9253   -0.3607    4.3047 C   0  0  0  0  0  0  0  0  0  0  0  0
    0.2375   -0.3485   10.6752 H   0  0  0  0  0  0  0  0  0  0  0  0
   -0.6996    0.8852   11.4995 H   0  0  0  0  0  0  0  0  0  0  0  0
    0.7743    1.3334   10.6327 H   0  0  0  0  0  0  0  0  0  0  0  0
   -0.5241    2.9456    9.2189 H   0  0  0  0  0  0  0  0  0  0  0  0
   -2.8729    1.7885   10.8355 H   0  0  0  0  0  0  0  0  0  0  0  0
   -2.2511    3.1633   12.1311 H   0  0  0  0  0  0  0  0  0  0  0  0
   -4.2827    2.8136    9.2047 H   0  0  0  0  0  0  0  0  0  0  0  0
   -3.1840    4.2387    9.0348 H   0  0  0  0  0  0  0  0  0  0  0  0
   -2.6517    1.7836    4.0944 H   0  0  0  0  0  0  0  0  0  0  0  0
   -2.0606    3.4809    4.0242 H   0  0  0  0  0  0  0  0  0  0  0  0
   -1.4277    1.3379    2.1192 H   0  0  0  0  0  0  0  0  0  0  0  0
   -0.8660    2.9685    2.0958 H   0  0  0  0  0  0  0  0  0  0  0  0
    0.9865   -0.0601    2.1148 H   0  0  0  0  0  0  0  0  0  0  0  0
    2.3495    0.7981    2.8094 H   0  0  0  0  0  0  0  0  0  0  0  0
    1.4895    1.4791    1.4290 H   0  0  0  0  0  0  0  0  0  0  0  0
    1.7433   -0.3720    5.0290 H   0  0  0  0  0  0  0  0  0  0  0  0
    0.7367   -0.0504    6.4207 H   0  0  0  0  0  0  0  0  0  0  0  0
    1.8382    1.1745    5.8427 H   0  0  0  0  0  0  0  0  0  0  0  0
   -0.3421   -1.1608    3.8514 H   0  0  0  0  0  0  0  0  0  0  0  0
   -1.7599   -0.1919    3.6320 H   0  0  0  0  0  0  0  0  0  0  0  0
   -1.3524   -0.7493    5.2273 H   0  0  0  0  0  0  0  0  0  0  0  0
  1  2  1  0
  1 22  1  0
  1 23  1  0
  1 24  1  0
  2  3  1  0
  3  7  1  0
  3  4  1  0
  3 25  1  6
  4  5  1  0
  4  6  1  0
  4 26  1  1
  5 27  1  0
  6  7  1  0
  6 28  1  0
  6 29  1  0
  7  8  1  0
  8  9  2  0
  8 10  1  0
 11 10  1  1
 11 18  1  0
 11 19  1  0
 11 12  1  0
 12 13  1  0
 12 30  1  0
 12 31  1  0
 13 14  1  0
 13 32  1  0
 13 33  1  0
 14 15  1  6
 14 16  1  0
 14 19  1  0
 15 34  1  0
 15 35  1  0
 15 36  1  0
 16 17  2  0
 16 18  1  0
 19 20  1  0
 19 21  1  0
 20 37  1  0
 20 38  1  0
 20 39  1  0
 21 40  1  0
 21 41  1  0
 21 42  1  0
M  END
>  <i_m_ct_stereo_status>  (230) 
1

>  <s_m_source_file>  (230) 
/var/tmp/pbs.5076255.sched01/tmptyawoosb/846vw0lfia.sdf

>  <i_m_source_file_index>  (230) 
10

>  <i_lp_mmshare_version>  (230) 
48012

>  <i_f3d_flags>  (230) 
0

>  <s_epik_input>  (230) 
W0NIM11PW0NAQEhdMVtDQEBIXShbT0hdKVtDSDJdTjFDKD1PKU9bQ0BAXTIzW0NIMl1bQ0gyXVtDQEBdKFtDSDNdKShDKD1PKU8yKUMzKFtDSDNdKVtDSDNd

>  <s_epik_cmdline>  (230) 
J2VwaWtfcHl0aG9uJywgJy1waHQnLCAnMi4wJywgJy1waCcsICc3LjAnLCAnLXRuJywgJzgnLCAnLW1hJywgJzIwMCcsICctaW1hZScsICc8aW5maWxlLm1hZT4nLCAnLW9tYWUnLCAnPG91dGZpbGUubWFlPic=

>  <r_lp_tautomer_probability>  (230) 
1

>  <r_epik_Ionization_Penalty>  (230) 
6.78315e-06

>  <r_epik_Ionization_Penalty_Charging>  (230) 
0

>  <r_epik_Ionization_Penalty_Neutral>  (230) 
6.78315e-06

>  <r_epik_State_Penalty>  (230) 
-0

>  <r_epik_Charging_Adjusted_Penalty>  (230) 
0

>  <i_epik_Tot_Q>  (230) 
0

>  <i_epik_Tot_abs_Q>  (230) 
0

>  <s_epik_Chemistry_Notes>  (230) 
This compound has an ester and may undergo hydrolysis at high or low pH. This compound contains an acetal/aminal-like group ( X-CH(R)-Y where X, Y are N, S, or O) that may be acid/base labile, releasing an aldehyde.

>  <s_lp_Force_Field>  (230) 
OPLS3e

>  <r_lp_Energy>  (230) 
34.4305

>  <b_lp_Chiralities_Consistent>  (230) 
1

>  <s_lp_Variant>  (230) 
65:0-1

>  <s_i_glide_gridfile>  (230) 
pfpi4k_grid

>  <i_i_glide_lignum>  (230) 
10

>  <i_i_glide_rotatable_bonds>  (230) 
5

>  <r_i_docking_score>  (230) 
-2.85872

>  <r_i_glide_ligand_efficiency>  (230) 
-0.136129

>  <r_i_glide_ligand_efficiency_sa>  (230) 
-0.375571

>  <r_i_glide_ligand_efficiency_ln>  (230) 
-0.706812

>  <r_i_glide_gscore>  (230) 
-2.85872

>  <r_i_glide_lipo>  (230) 
0

>  <r_i_glide_hbond>  (230) 
0

>  <r_i_glide_metal>  (230) 
-0

>  <r_i_glide_rewards>  (230) 
-1.4836

>  <r_i_glide_evdw>  (230) 
-17.7746

>  <r_i_glide_ecoul>  (230) 
-6.78347

>  <r_i_glide_erotb>  (230) 
0.614938

>  <r_i_glide_esite>  (230) 
-0.083805

>  <r_i_glide_emodel>  (230) 
-26.8063

>  <r_i_glide_energy>  (230) 
-24.5581

>  <r_i_glide_einternal>  (230) 
6.23492

>  <r_i_glide_intrahb_reward>  (230) 
-0

>  <i_i_glide_confnum>  (230) 
3

>  <i_i_glide_posenum>  (230) 
12

>  <r_i_glide_eff_state_penalty>  (230) 
0

>  <ligand_id>  (230) 
65

>  <original_smiles>  (230) 
COC1C(O)CN1C(=O)OC12CCC(C)(C(=O)O1)C2(C)C

>  <smiles>  (230) 
[H]OC1([H])C([H])([H])N(C(=O)OC23OC(=O)C(C([H])([H])[H])(C([H])([H])C2([H])[H])C3(C([H])([H])[H])C([H])([H])[H])C1([H])OC([H])([H])[H]

$$$$
66:0:0
     RDKit          3D

 42 45  0  0  1  0  0  0  0  0999 V2000
    2.3264   -2.7985   -3.0376 C   0  0  0  0  0  0  0  0  0  0  0  0
    3.3596   -1.9144   -2.3224 C   0  0  2  0  0  0  0  0  0  0  0  0
    4.7248   -1.9935   -2.9957 C   0  0  0  0  0  0  0  0  0  0  0  0
    5.4072   -3.3341   -2.7008 C   0  0  0  0  0  0  0  0  0  0  0  0
    5.6238   -3.5738   -1.1872 C   0  0  2  0  0  0  0  0  0  0  0  0
    4.2861   -3.4622   -0.3950 C   0  0  2  0  0  0  0  0  0  0  0  0
    3.4841   -2.2006   -0.8077 C   0  0  1  0  0  0  0  0  0  0  0  0
    4.0951   -1.0969   -0.1132 O   0  0  0  0  0  0  0  0  0  0  0  0
    4.9629   -1.6096    0.8921 C   0  0  1  0  0  0  0  0  0  0  0  0
    6.4056   -1.5534    0.3499 C   0  0  0  0  0  0  0  0  0  0  0  0
    6.8286   -2.7762   -0.5358 C   0  0  1  0  0  0  0  0  0  0  0  0
    7.7167   -3.7391    0.2812 C   0  0  0  0  0  0  0  0  0  0  0  0
    7.6977   -2.2588   -1.5182 O   0  0  0  0  0  0  0  0  0  0  0  0
    4.7661   -1.0770    2.3395 C   0  0  1  0  0  0  0  0  0  0  0  0
    3.5085   -0.2087    2.5190 C   0  0  0  0  0  0  0  0  0  0  0  0
    4.6443   -2.3732    3.1486 C   0  0  0  0  0  0  0  0  0  0  0  0
    4.6862   -2.4193    4.3738 O   0  0  0  0  0  0  0  0  0  0  0  0
    4.4217   -3.4911    2.2369 C   0  0  0  0  0  0  0  0  0  0  0  0
    4.0098   -4.6872    2.6609 O   0  0  0  0  0  0  0  0  0  0  0  0
    4.5751   -3.0275    1.0018 C   0  0  0  0  0  0  0  0  0  0  0  0
    2.5577   -3.8557   -2.9399 H   0  0  0  0  0  0  0  0  0  0  0  0
    2.2667   -2.5683   -4.0988 H   0  0  0  0  0  0  0  0  0  0  0  0
    1.3390   -2.6625   -2.6156 H   0  0  0  0  0  0  0  0  0  0  0  0
    2.9969   -0.8922   -2.4307 H   0  0  0  0  0  0  0  0  0  0  0  0
    4.6229   -1.8415   -4.0685 H   0  0  0  0  0  0  0  0  0  0  0  0
    5.3484   -1.1837   -2.6216 H   0  0  0  0  0  0  0  0  0  0  0  0
    4.7999   -4.1500   -3.0962 H   0  0  0  0  0  0  0  0  0  0  0  0
    6.3456   -3.4074   -3.2484 H   0  0  0  0  0  0  0  0  0  0  0  0
    5.8862   -4.6292   -1.1140 H   0  0  0  0  0  0  0  0  0  0  0  0
    3.6864   -4.3766   -0.4548 H   0  0  0  0  0  0  0  0  0  0  0  0
    2.4916   -2.2914   -0.3776 H   0  0  0  0  0  0  0  0  0  0  0  0
    7.0962   -1.4714    1.1903 H   0  0  0  0  0  0  0  0  0  0  0  0
    6.5161   -0.6106   -0.1853 H   0  0  0  0  0  0  0  0  0  0  0  0
    7.1674   -4.2002    1.1013 H   0  0  0  0  0  0  0  0  0  0  0  0
    8.5800   -3.2299    0.7106 H   0  0  0  0  0  0  0  0  0  0  0  0
    8.1093   -4.5493   -0.3272 H   0  0  0  0  0  0  0  0  0  0  0  0
    8.1011   -2.9745   -1.9901 H   0  0  0  0  0  0  0  0  0  0  0  0
    5.6402   -0.5248    2.6758 H   0  0  0  0  0  0  0  0  0  0  0  0
    3.3840    0.0973    3.5602 H   0  0  0  0  0  0  0  0  0  0  0  0
    2.6039   -0.7446    2.2250 H   0  0  0  0  0  0  0  0  0  0  0  0
    3.5616    0.6991    1.9144 H   0  0  0  0  0  0  0  0  0  0  0  0
    4.0190   -4.6558    3.6127 H   0  0  0  0  0  0  0  0  0  0  0  0
  1  2  1  0
  1 21  1  0
  1 22  1  0
  1 23  1  0
  2  7  1  0
  2  3  1  0
  2 24  1  1
  3  4  1  0
  3 25  1  0
  3 26  1  0
  4  5  1  0
  4 27  1  0
  4 28  1  0
  5 11  1  0
  5  6  1  0
  5 29  1  6
  6  7  1  0
  6 30  1  1
  6 20  1  0
  7  8  1  0
  7 31  1  1
  9  8  1  6
  9 14  1  0
  9 10  1  0
  9 20  1  0
 10 11  1  0
 10 32  1  0
 10 33  1  0
 11 12  1  0
 11 13  1  6
 12 34  1  0
 12 35  1  0
 12 36  1  0
 13 37  1  0
 14 15  1  0
 14 38  1  1
 14 16  1  0
 15 39  1  0
 15 40  1  0
 15 41  1  0
 16 18  1  0
 16 17  2  0
 18 20  2  0
 18 19  1  0
 19 42  1  0
M  END
>  <i_m_ct_stereo_status>  (231) 
1

>  <s_m_source_file>  (231) 
/var/tmp/pbs.5076255.sched01/tmptyawoosb/846vw0lfia.sdf

>  <i_m_source_file_index>  (231) 
11

>  <i_lp_mmshare_version>  (231) 
48012

>  <i_f3d_flags>  (231) 
0

>  <s_epik_input>  (231) 
TzFbQ0BIXTJbQ0BIXShbQ0gzXSlbQ0gyXVtDSDJdW0NAQEhdKFtDQEBdKFtDSDJdMykoW0NIM10pW09IXSlbQ0BIXTJbQ0BIXShbQ0BAXTEzNClDKD1PKUMoPU8pW0NAQEhdNFtDSDNd

>  <s_epik_cmdline>  (231) 
J2VwaWtfcHl0aG9uJywgJy1waHQnLCAnMi4wJywgJy1waCcsICc3LjAnLCAnLXRuJywgJzgnLCAnLW1hJywgJzIwMCcsICctaW1hZScsICc8aW5maWxlLm1hZT4nLCAnLW9tYWUnLCAnPG91dGZpbGUubWFlPic=

>  <r_lp_tautomer_probability>  (231) 
0.499803

>  <r_epik_Ionization_Penalty>  (231) 
0.00016229

>  <r_epik_Ionization_Penalty_Charging>  (231) 
0

>  <r_epik_Ionization_Penalty_Neutral>  (231) 
0.00016229

>  <r_epik_State_Penalty>  (231) 
0.41068

>  <r_epik_Charging_Adjusted_Penalty>  (231) 
0.41068

>  <i_epik_Tot_Q>  (231) 
0

>  <i_epik_Tot_abs_Q>  (231) 
0

>  <s_lp_Force_Field>  (231) 
OPLS3e

>  <r_lp_Energy>  (231) 
23.0146

>  <b_lp_Chiralities_Consistent>  (231) 
1

>  <s_lp_Variant>  (231) 
66:0-1

>  <s_i_glide_gridfile>  (231) 
pfpi4k_grid

>  <i_i_glide_lignum>  (231) 
11

>  <i_i_glide_rotatable_bonds>  (231) 
2

>  <r_i_docking_score>  (231) 
-4.69174

>  <r_i_glide_ligand_efficiency>  (231) 
-0.234587

>  <r_i_glide_ligand_efficiency_sa>  (231) 
-0.636767

>  <r_i_glide_ligand_efficiency_ln>  (231) 
-1.17419

>  <r_i_glide_gscore>  (231) 
-4.69174

>  <r_i_glide_lipo>  (231) 
-0.897427

>  <r_i_glide_hbond>  (231) 
-0.16

>  <r_i_glide_metal>  (231) 
-0

>  <r_i_glide_rewards>  (231) 
-1.55759

>  <r_i_glide_evdw>  (231) 
-24.8046

>  <r_i_glide_ecoul>  (231) 
-5.57668

>  <r_i_glide_erotb>  (231) 
0

>  <r_i_glide_esite>  (231) 
0

>  <r_i_glide_emodel>  (231) 
-38.1945

>  <r_i_glide_energy>  (231) 
-30.3812

>  <r_i_glide_einternal>  (231) 
2.0493

>  <r_i_glide_intrahb_reward>  (231) 
-0

>  <i_i_glide_confnum>  (231) 
1

>  <i_i_glide_posenum>  (231) 
10

>  <r_i_glide_eff_state_penalty>  (231) 
0

>  <ligand_id>  (231) 
66

>  <original_smiles>  (231) 
CC1CCC2C3C1OC1(CC2(C)O)C(C)C(=O)C(=O)C31

>  <smiles>  (231) 
[H]OC1=C2C3([H])C4([H])OC2(C([H])([H])C(O[H])(C([H])([H])[H])C3([H])C([H])([H])C([H])([H])C4([H])C([H])([H])[H])C([H])(C([H])([H])[H])C1=O

$$$$
66:0:1
     RDKit          3D

 42 45  0  0  1  0  0  0  0  0999 V2000
    2.3574   -2.7965   -3.0591 C   0  0  0  0  0  0  0  0  0  0  0  0
    3.3756   -1.9158   -2.3141 C   0  0  2  0  0  0  0  0  0  0  0  0
    4.7511   -1.9775   -2.9662 C   0  0  0  0  0  0  0  0  0  0  0  0
    5.4281   -3.3232   -2.6815 C   0  0  0  0  0  0  0  0  0  0  0  0
    5.6238   -3.5861   -1.1683 C   0  0  2  0  0  0  0  0  0  0  0  0
    4.2734   -3.4898   -0.3962 C   0  0  2  0  0  0  0  0  0  0  0  0
    3.4747   -2.2252   -0.8017 C   0  0  1  0  0  0  0  0  0  0  0  0
    4.0749   -1.1313   -0.0857 O   0  0  0  0  0  0  0  0  0  0  0  0
    4.9270   -1.6567    0.9287 C   0  0  1  0  0  0  0  0  0  0  0  0
    6.3794   -1.5857    0.4073 C   0  0  0  0  0  0  0  0  0  0  0  0
    6.8179   -2.7920   -0.4920 C   0  0  1  0  0  0  0  0  0  0  0  0
    7.6913   -3.7716    0.3249 C   0  0  0  0  0  0  0  0  0  0  0  0
    7.7167   -2.2592   -1.4488 O   0  0  0  0  0  0  0  0  0  0  0  0
    4.7064   -1.1489    2.3793 C   0  0  1  0  0  0  0  0  0  0  0  0
    3.4461   -0.2780    2.5502 C   0  0  0  0  0  0  0  0  0  0  0  0
    4.5699   -2.4547    3.1724 C   0  0  0  0  0  0  0  0  0  0  0  0
    4.6080   -2.4949    4.4001 O   0  0  0  0  0  0  0  0  0  0  0  0
    4.3569   -3.5675    2.2395 C   0  0  0  0  0  0  0  0  0  0  0  0
    3.9321   -4.7809    2.6319 O   0  0  0  0  0  0  0  0  0  0  0  0
    4.5384   -3.0800    1.0133 C   0  0  0  0  0  0  0  0  0  0  0  0
    2.5884   -3.8559   -2.9800 H   0  0  0  0  0  0  0  0  0  0  0  0
    2.3109   -2.5462   -4.1194 H   0  0  0  0  0  0  0  0  0  0  0  0
    1.3615   -2.6546   -2.6494 H   0  0  0  0  0  0  0  0  0  0  0  0
    3.0092   -0.8940   -2.4170 H   0  0  0  0  0  0  0  0  0  0  0  0
    4.6660   -1.8087   -4.0394 H   0  0  0  0  0  0  0  0  0  0  0  0
    5.3662   -1.1722   -2.5708 H   0  0  0  0  0  0  0  0  0  0  0  0
    4.8285   -4.1322   -3.1027 H   0  0  0  0  0  0  0  0  0  0  0  0
    6.3772   -3.3826   -3.2151 H   0  0  0  0  0  0  0  0  0  0  0  0
    5.8857   -4.6429   -1.1155 H   0  0  0  0  0  0  0  0  0  0  0  0
    3.6764   -4.4004   -0.4840 H   0  0  0  0  0  0  0  0  0  0  0  0
    2.4723   -2.3228   -0.3919 H   0  0  0  0  0  0  0  0  0  0  0  0
    7.0546   -1.5149    1.2615 H   0  0  0  0  0  0  0  0  0  0  0  0
    6.4965   -0.6347   -0.1135 H   0  0  0  0  0  0  0  0  0  0  0  0
    7.1327   -4.2495    1.1303 H   0  0  0  0  0  0  0  0  0  0  0  0
    8.5472   -3.2722    0.7779 H   0  0  0  0  0  0  0  0  0  0  0  0
    8.0892   -4.5676   -0.3013 H   0  0  0  0  0  0  0  0  0  0  0  0
    8.2382   -2.9717   -1.8006 H   0  0  0  0  0  0  0  0  0  0  0  0
    5.5743   -0.5965    2.7347 H   0  0  0  0  0  0  0  0  0  0  0  0
    3.3052    0.0110    3.5934 H   0  0  0  0  0  0  0  0  0  0  0  0
    2.5459   -0.8096    2.2346 H   0  0  0  0  0  0  0  0  0  0  0  0
    3.5065    0.6415    1.9614 H   0  0  0  0  0  0  0  0  0  0  0  0
    3.8675   -5.3402    1.8664 H   0  0  0  0  0  0  0  0  0  0  0  0
  1  2  1  0
  1 21  1  0
  1 22  1  0
  1 23  1  0
  2  7  1  0
  2  3  1  0
  2 24  1  1
  3  4  1  0
  3 25  1  0
  3 26  1  0
  4  5  1  0
  4 27  1  0
  4 28  1  0
  5 11  1  0
  5  6  1  0
  5 29  1  6
  6  7  1  0
  6 30  1  1
  6 20  1  0
  7  8  1  0
  7 31  1  1
  9  8  1  6
  9 14  1  0
  9 10  1  0
  9 20  1  0
 10 11  1  0
 10 32  1  0
 10 33  1  0
 11 12  1  0
 11 13  1  6
 12 34  1  0
 12 35  1  0
 12 36  1  0
 13 37  1  0
 14 15  1  0
 14 38  1  1
 14 16  1  0
 15 39  1  0
 15 40  1  0
 15 41  1  0
 16 18  1  0
 16 17  2  0
 18 20  2  0
 18 19  1  0
 19 42  1  0
M  END
>  <i_m_ct_stereo_status>  (232) 
1

>  <s_m_source_file>  (232) 
/var/tmp/pbs.5076255.sched01/tmptyawoosb/846vw0lfia.sdf

>  <i_m_source_file_index>  (232) 
11

>  <i_lp_mmshare_version>  (232) 
48012

>  <i_f3d_flags>  (232) 
0

>  <s_epik_input>  (232) 
TzFbQ0BIXTJbQ0BIXShbQ0gzXSlbQ0gyXVtDSDJdW0NAQEhdKFtDQEBdKFtDSDJdMykoW0NIM10pW09IXSlbQ0BIXTJbQ0BIXShbQ0BAXTEzNClDKD1PKUMoPU8pW0NAQEhdNFtDSDNd

>  <s_epik_cmdline>  (232) 
J2VwaWtfcHl0aG9uJywgJy1waHQnLCAnMi4wJywgJy1waCcsICc3LjAnLCAnLXRuJywgJzgnLCAnLW1hJywgJzIwMCcsICctaW1hZScsICc8aW5maWxlLm1hZT4nLCAnLW9tYWUnLCAnPG91dGZpbGUubWFlPic=

>  <r_lp_tautomer_probability>  (232) 
0.499803

>  <r_epik_Ionization_Penalty>  (232) 
0.00016229

>  <r_epik_Ionization_Penalty_Charging>  (232) 
0

>  <r_epik_Ionization_Penalty_Neutral>  (232) 
0.00016229

>  <r_epik_State_Penalty>  (232) 
0.41068

>  <r_epik_Charging_Adjusted_Penalty>  (232) 
0.41068

>  <i_epik_Tot_Q>  (232) 
0

>  <i_epik_Tot_abs_Q>  (232) 
0

>  <s_lp_Force_Field>  (232) 
OPLS3e

>  <r_lp_Energy>  (232) 
23.0146

>  <b_lp_Chiralities_Consistent>  (232) 
1

>  <s_lp_Variant>  (232) 
66:0-1

>  <s_i_glide_gridfile>  (232) 
pfpi4k_grid

>  <i_i_glide_lignum>  (232) 
11

>  <i_i_glide_rotatable_bonds>  (232) 
2

>  <r_i_docking_score>  (232) 
-4.64935

>  <r_i_glide_ligand_efficiency>  (232) 
-0.232467

>  <r_i_glide_ligand_efficiency_sa>  (232) 
-0.631014

>  <r_i_glide_ligand_efficiency_ln>  (232) 
-1.16358

>  <r_i_glide_gscore>  (232) 
-4.64935

>  <r_i_glide_lipo>  (232) 
-0.890744

>  <r_i_glide_hbond>  (232) 
-0.16

>  <r_i_glide_metal>  (232) 
-0

>  <r_i_glide_rewards>  (232) 
-1.55031

>  <r_i_glide_evdw>  (232) 
-24.7973

>  <r_i_glide_ecoul>  (232) 
-5.38949

>  <r_i_glide_erotb>  (232) 
0

>  <r_i_glide_esite>  (232) 
0

>  <r_i_glide_emodel>  (232) 
-38.8823

>  <r_i_glide_energy>  (232) 
-30.1868

>  <r_i_glide_einternal>  (232) 
0.106737

>  <r_i_glide_intrahb_reward>  (232) 
-0

>  <i_i_glide_confnum>  (232) 
1

>  <i_i_glide_posenum>  (232) 
12

>  <r_i_glide_eff_state_penalty>  (232) 
0

>  <ligand_id>  (232) 
66

>  <original_smiles>  (232) 
CC1CCC2C3C1OC1(CC2(C)O)C(C)C(=O)C(=O)C31

>  <smiles>  (232) 
[H]OC1=C2C3([H])C4([H])OC2(C([H])([H])C(O[H])(C([H])([H])[H])C3([H])C([H])([H])C([H])([H])C4([H])C([H])([H])[H])C([H])(C([H])([H])[H])C1=O

$$$$
66:0:2
     RDKit          3D

 42 45  0  0  1  0  0  0  0  0999 V2000
    2.5434   -2.8046   -3.4871 C   0  0  0  0  0  0  0  0  0  0  0  0
    3.3725   -1.9910   -2.4754 C   0  0  2  0  0  0  0  0  0  0  0  0
    4.8412   -1.9031   -2.8768 C   0  0  0  0  0  0  0  0  0  0  0  0
    5.5485   -3.2427   -2.6523 C   0  0  0  0  0  0  0  0  0  0  0  0
    5.5036   -3.6924   -1.1715 C   0  0  2  0  0  0  0  0  0  0  0  0
    4.0443   -3.7566   -0.6394 C   0  0  2  0  0  0  0  0  0  0  0  0
    3.2456   -2.4922   -1.0209 C   0  0  1  0  0  0  0  0  0  0  0  0
    3.6428   -1.4799   -0.0799 O   0  0  0  0  0  0  0  0  0  0  0  0
    4.3421   -2.0994    0.9951 C   0  0  1  0  0  0  0  0  0  0  0  0
    5.8539   -1.8906    0.7452 C   0  0  0  0  0  0  0  0  0  0  0  0
    6.5148   -2.9418   -0.2093 C   0  0  1  0  0  0  0  0  0  0  0  0
    7.2970   -3.9871    0.6191 C   0  0  0  0  0  0  0  0  0  0  0  0
    7.5142   -2.2601   -0.9354 O   0  0  0  0  0  0  0  0  0  0  0  0
    3.8383   -1.8058    2.4343 C   0  0  1  0  0  0  0  0  0  0  0  0
    2.5114   -1.0228    2.4861 C   0  0  0  0  0  0  0  0  0  0  0  0
    3.6537   -3.2120    3.0219 C   0  0  0  0  0  0  0  0  0  0  0  0
    3.4777   -3.4154    4.2211 O   0  0  0  0  0  0  0  0  0  0  0  0
    3.6778   -4.1939    1.9328 C   0  0  0  0  0  0  0  0  0  0  0  0
    3.2665   -5.4650    2.0856 O   0  0  0  0  0  0  0  0  0  0  0  0
    4.0394   -3.5369    0.8309 C   0  0  0  0  0  0  0  0  0  0  0  0
    2.8204   -3.8568   -3.5007 H   0  0  0  0  0  0  0  0  0  0  0  0
    2.6794   -2.4175   -4.4946 H   0  0  0  0  0  0  0  0  0  0  0  0
    1.4788   -2.7498   -3.2629 H   0  0  0  0  0  0  0  0  0  0  0  0
    2.9631   -0.9808   -2.5081 H   0  0  0  0  0  0  0  0  0  0  0  0
    4.9280   -1.5995   -3.9190 H   0  0  0  0  0  0  0  0  0  0  0  0
    5.3280   -1.1285   -2.2871 H   0  0  0  0  0  0  0  0  0  0  0  0
    5.0790   -4.0142   -3.2651 H   0  0  0  0  0  0  0  0  0  0  0  0
    6.5739   -3.1900   -3.0210 H   0  0  0  0  0  0  0  0  0  0  0  0
    5.8099   -4.7360   -1.1886 H   0  0  0  0  0  0  0  0  0  0  0  0
    3.5246   -4.6625   -0.9454 H   0  0  0  0  0  0  0  0  0  0  0  0
    2.1964   -2.6877   -0.8208 H   0  0  0  0  0  0  0  0  0  0  0  0
    6.3697   -1.9119    1.7065 H   0  0  0  0  0  0  0  0  0  0  0  0
    5.9963   -0.8739    0.3736 H   0  0  0  0  0  0  0  0  0  0  0  0
    6.6423   -4.5926    1.2456 H   0  0  0  0  0  0  0  0  0  0  0  0
    8.0286   -3.5220    1.2777 H   0  0  0  0  0  0  0  0  0  0  0  0
    7.8446   -4.6765   -0.0183 H   0  0  0  0  0  0  0  0  0  0  0  0
    8.0919   -2.9002   -1.3167 H   0  0  0  0  0  0  0  0  0  0  0  0
    4.5936   -1.2682    3.0032 H   0  0  0  0  0  0  0  0  0  0  0  0
    2.1781   -0.8829    3.5158 H   0  0  0  0  0  0  0  0  0  0  0  0
    1.7145   -1.5445    1.9525 H   0  0  0  0  0  0  0  0  0  0  0  0
    2.6093   -0.0312    2.0366 H   0  0  0  0  0  0  0  0  0  0  0  0
    3.3930   -5.9267    1.2648 H   0  0  0  0  0  0  0  0  0  0  0  0
  1  2  1  0
  1 21  1  0
  1 22  1  0
  1 23  1  0
  2  7  1  0
  2  3  1  0
  2 24  1  1
  3  4  1  0
  3 25  1  0
  3 26  1  0
  4  5  1  0
  4 27  1  0
  4 28  1  0
  5 11  1  0
  5  6  1  0
  5 29  1  6
  6  7  1  0
  6 30  1  1
  6 20  1  0
  7  8  1  0
  7 31  1  1
  9  8  1  6
  9 14  1  0
  9 10  1  0
  9 20  1  0
 10 11  1  0
 10 32  1  0
 10 33  1  0
 11 12  1  0
 11 13  1  6
 12 34  1  0
 12 35  1  0
 12 36  1  0
 13 37  1  0
 14 15  1  0
 14 38  1  1
 14 16  1  0
 15 39  1  0
 15 40  1  0
 15 41  1  0
 16 18  1  0
 16 17  2  0
 18 20  2  0
 18 19  1  0
 19 42  1  0
M  END
>  <i_m_ct_stereo_status>  (233) 
1

>  <s_m_source_file>  (233) 
/var/tmp/pbs.5076255.sched01/tmptyawoosb/846vw0lfia.sdf

>  <i_m_source_file_index>  (233) 
11

>  <i_lp_mmshare_version>  (233) 
48012

>  <i_f3d_flags>  (233) 
0

>  <s_epik_input>  (233) 
TzFbQ0BIXTJbQ0BIXShbQ0gzXSlbQ0gyXVtDSDJdW0NAQEhdKFtDQEBdKFtDSDJdMykoW0NIM10pW09IXSlbQ0BIXTJbQ0BIXShbQ0BAXTEzNClDKD1PKUMoPU8pW0NAQEhdNFtDSDNd

>  <s_epik_cmdline>  (233) 
J2VwaWtfcHl0aG9uJywgJy1waHQnLCAnMi4wJywgJy1waCcsICc3LjAnLCAnLXRuJywgJzgnLCAnLW1hJywgJzIwMCcsICctaW1hZScsICc8aW5maWxlLm1hZT4nLCAnLW9tYWUnLCAnPG91dGZpbGUubWFlPic=

>  <r_lp_tautomer_probability>  (233) 
0.499803

>  <r_epik_Ionization_Penalty>  (233) 
0.00016229

>  <r_epik_Ionization_Penalty_Charging>  (233) 
0

>  <r_epik_Ionization_Penalty_Neutral>  (233) 
0.00016229

>  <r_epik_State_Penalty>  (233) 
0.41068

>  <r_epik_Charging_Adjusted_Penalty>  (233) 
0.41068

>  <i_epik_Tot_Q>  (233) 
0

>  <i_epik_Tot_abs_Q>  (233) 
0

>  <s_lp_Force_Field>  (233) 
OPLS3e

>  <r_lp_Energy>  (233) 
23.0146

>  <b_lp_Chiralities_Consistent>  (233) 
1

>  <s_lp_Variant>  (233) 
66:0-1

>  <s_i_glide_gridfile>  (233) 
pfpi4k_grid

>  <i_i_glide_lignum>  (233) 
11

>  <i_i_glide_rotatable_bonds>  (233) 
2

>  <r_i_docking_score>  (233) 
-4.32133

>  <r_i_glide_ligand_efficiency>  (233) 
-0.216067

>  <r_i_glide_ligand_efficiency_sa>  (233) 
-0.586495

>  <r_i_glide_ligand_efficiency_ln>  (233) 
-1.08149

>  <r_i_glide_gscore>  (233) 
-4.32133

>  <r_i_glide_lipo>  (233) 
-0.856222

>  <r_i_glide_hbond>  (233) 
-0.16

>  <r_i_glide_metal>  (233) 
-0

>  <r_i_glide_rewards>  (233) 
-1.51193

>  <r_i_glide_evdw>  (233) 
-24.3525

>  <r_i_glide_ecoul>  (233) 
-3.83707

>  <r_i_glide_erotb>  (233) 
0

>  <r_i_glide_esite>  (233) 
0

>  <r_i_glide_emodel>  (233) 
-36.3039

>  <r_i_glide_energy>  (233) 
-28.1896

>  <r_i_glide_einternal>  (233) 
0.0419513

>  <r_i_glide_intrahb_reward>  (233) 
-0

>  <i_i_glide_confnum>  (233) 
1

>  <i_i_glide_posenum>  (233) 
29

>  <r_i_glide_eff_state_penalty>  (233) 
0

>  <ligand_id>  (233) 
66

>  <original_smiles>  (233) 
CC1CCC2C3C1OC1(CC2(C)O)C(C)C(=O)C(=O)C31

>  <smiles>  (233) 
[H]OC1=C2C3([H])C4([H])OC2(C([H])([H])C(O[H])(C([H])([H])[H])C3([H])C([H])([H])C([H])([H])C4([H])C([H])([H])[H])C([H])(C([H])([H])[H])C1=O

$$$$
66:1:0
     RDKit          3D

 42 45  0  0  1  0  0  0  0  0999 V2000
    2.1642   -2.8302    2.8192 C   0  0  0  0  0  0  0  0  0  0  0  0
    2.3259   -4.3001    3.2504 C   0  0  2  0  0  0  0  0  0  0  0  0
    3.8395   -4.5364    3.7101 C   0  0  0  0  0  0  0  0  0  0  0  0
    4.3457   -6.0311    3.8621 C   0  0  0  0  0  0  0  0  0  0  0  0
    3.9924   -6.8314    2.5853 C   0  0  2  0  0  0  0  0  0  0  0  0
    2.6012   -6.4591    2.4998 C   0  0  2  0  0  0  0  0  0  0  0  0
    1.8664   -5.2988    2.1090 C   0  0  1  0  0  0  0  0  0  0  0  0
    0.6841   -6.2739    2.0399 O   0  0  0  0  0  0  0  0  0  0  0  0
    0.9553   -7.7029    2.5337 C   0  0  2  0  0  0  0  0  0  0  0  0
    2.1209   -8.7957    2.0348 C   0  0  0  0  0  0  0  0  0  0  0  0
    3.7041   -8.4086    2.4018 C   0  0  1  0  0  0  0  0  0  0  0  0
    4.6277   -8.9522    1.2913 C   0  0  0  0  0  0  0  0  0  0  0  0
    4.1794   -9.0849    3.5492 O   0  0  0  0  0  0  0  0  0  0  0  0
   -0.1075   -8.4572    3.3280 C   0  0  0  0  0  0  0  0  0  0  0  0
   -1.4198   -8.8558    2.6793 C   0  0  0  0  0  0  0  0  0  0  0  0
    0.3644   -8.7538    4.5584 C   0  0  0  0  0  0  0  0  0  0  0  0
   -0.1820   -9.4586    5.5635 O   0  0  0  0  0  0  0  0  0  0  0  0
    1.6198   -8.0380    4.7448 C   0  0  0  0  0  0  0  0  0  0  0  0
    2.3964   -8.0867    5.7014 O   0  0  0  0  0  0  0  0  0  0  0  0
    1.6199   -7.0097    3.6045 C   0  0  1  0  0  0  0  0  0  0  0  0
    2.8093   -2.5789    1.9750 H   0  0  0  0  0  0  0  0  0  0  0  0
    2.4394   -2.1614    3.6367 H   0  0  0  0  0  0  0  0  0  0  0  0
    1.1378   -2.5943    2.5375 H   0  0  0  0  0  0  0  0  0  0  0  0
    1.6978   -4.4038    4.1321 H   0  0  0  0  0  0  0  0  0  0  0  0
    4.5086   -4.0337    3.0080 H   0  0  0  0  0  0  0  0  0  0  0  0
    3.9939   -4.0315    4.6631 H   0  0  0  0  0  0  0  0  0  0  0  0
    5.4205   -6.0408    4.0133 H   0  0  0  0  0  0  0  0  0  0  0  0
    3.9452   -6.4752    4.7684 H   0  0  0  0  0  0  0  0  0  0  0  0
    4.5633   -6.4316    1.7459 H   0  0  0  0  0  0  0  0  0  0  0  0
    2.6013   -6.7130    1.4129 H   0  0  0  0  0  0  0  0  0  0  0  0
    2.1310   -4.9040    1.1235 H   0  0  0  0  0  0  0  0  0  0  0  0
    2.0104   -8.8950    0.9550 H   0  0  0  0  0  0  0  0  0  0  0  0
    1.9005   -9.7944    2.4177 H   0  0  0  0  0  0  0  0  0  0  0  0
    4.4024   -8.4983    0.3237 H   0  0  0  0  0  0  0  0  0  0  0  0
    4.5260  -10.0340    1.1837 H   0  0  0  0  0  0  0  0  0  0  0  0
    5.6782   -8.7464    1.5146 H   0  0  0  0  0  0  0  0  0  0  0  0
    4.0466  -10.0168    3.4424 H   0  0  0  0  0  0  0  0  0  0  0  0
   -0.9389   -9.9528    5.2518 H   0  0  0  0  0  0  0  0  0  0  0  0
   -1.2322   -9.3837    1.7450 H   0  0  0  0  0  0  0  0  0  0  0  0
   -2.0130   -7.9702    2.4525 H   0  0  0  0  0  0  0  0  0  0  0  0
   -2.0234   -9.5045    3.3196 H   0  0  0  0  0  0  0  0  0  0  0  0
    0.9887   -6.2424    4.0631 H   0  0  0  0  0  0  0  0  0  0  0  0
  1  2  1  0
  1 21  1  0
  1 22  1  0
  1 23  1  0
  2  7  1  0
  2  3  1  0
  2 24  1  1
  3  4  1  0
  3 25  1  0
  3 26  1  0
  4  5  1  0
  4 27  1  0
  4 28  1  0
  5 11  1  0
  5  6  1  0
  5 29  1  6
  6  7  1  0
  6 30  1  6
  6 20  1  0
  7  8  1  0
  7 31  1  6
  9  8  1  6
  9 14  1  0
  9 10  1  0
  9 20  1  0
 10 11  1  0
 10 32  1  0
 10 33  1  0
 11 12  1  0
 11 13  1  1
 12 34  1  0
 12 35  1  0
 12 36  1  0
 13 37  1  0
 14 15  1  0
 14 16  2  0
 15 39  1  0
 15 40  1  0
 15 41  1  0
 16 18  1  0
 16 17  1  0
 17 38  1  0
 18 20  1  0
 18 19  2  0
 20 42  1  1
M  END
>  <i_m_ct_stereo_status>  (234) 
1

>  <s_m_source_file>  (234) 
/var/tmp/pbs.5076255.sched01/tmptyawoosb/846vw0lfia.sdf

>  <i_m_source_file_index>  (234) 
12

>  <i_lp_mmshare_version>  (234) 
48012

>  <i_f3d_flags>  (234) 
0

>  <s_epik_input>  (234) 
TzFbQ0BIXTJbQ0BIXShbQ0gzXSlbQ0gyXVtDSDJdW0NAQEhdKFtDQEBdKFtDSDJdMykoW0NIM10pW09IXSlbQ0BIXTJbQ0BIXShbQ0BAXTEzNClDKD1PKUMoPU8pW0NAQEhdNFtDSDNd

>  <s_epik_cmdline>  (234) 
J2VwaWtfcHl0aG9uJywgJy1waHQnLCAnMi4wJywgJy1waCcsICc3LjAnLCAnLXRuJywgJzgnLCAnLW1hJywgJzIwMCcsICctaW1hZScsICc8aW5maWxlLm1hZT4nLCAnLW9tYWUnLCAnPG91dGZpbGUubWFlPic=

>  <r_lp_tautomer_probability>  (234) 
0.499803

>  <r_epik_Ionization_Penalty>  (234) 
0.000225984

>  <r_epik_Ionization_Penalty_Charging>  (234) 
0

>  <r_epik_Ionization_Penalty_Neutral>  (234) 
0.000225984

>  <r_epik_State_Penalty>  (234) 
0.41068

>  <r_epik_Charging_Adjusted_Penalty>  (234) 
0.41068

>  <i_epik_Tot_Q>  (234) 
0

>  <i_epik_Tot_abs_Q>  (234) 
0

>  <s_lp_Force_Field>  (234) 
OPLS3e

>  <r_lp_Energy>  (234) 
202.006

>  <b_lp_Chiralities_Consistent>  (234) 
1

>  <s_lp_Variant>  (234) 
66:0-2

>  <s_i_glide_gridfile>  (234) 
pfpi4k_grid

>  <i_i_glide_lignum>  (234) 
12

>  <i_i_glide_rotatable_bonds>  (234) 
2

>  <r_i_docking_score>  (234) 
-3.52235

>  <r_i_glide_ligand_efficiency>  (234) 
-0.176118

>  <r_i_glide_ligand_efficiency_sa>  (234) 
-0.478057

>  <r_i_glide_ligand_efficiency_ln>  (234) 
-0.881529

>  <r_i_glide_gscore>  (234) 
-3.52235

>  <r_i_glide_lipo>  (234) 
-0.0453165

>  <r_i_glide_hbond>  (234) 
-0.0752393

>  <r_i_glide_metal>  (234) 
-0

>  <r_i_glide_rewards>  (234) 
-1.51129

>  <r_i_glide_evdw>  (234) 
-18.9904

>  <r_i_glide_ecoul>  (234) 
-6.21332

>  <r_i_glide_erotb>  (234) 
0

>  <r_i_glide_esite>  (234) 
-0.00898609

>  <r_i_glide_emodel>  (234) 
-31.2262

>  <r_i_glide_energy>  (234) 
-25.2037

>  <r_i_glide_einternal>  (234) 
0.257187

>  <r_i_glide_intrahb_reward>  (234) 
-0

>  <i_i_glide_confnum>  (234) 
1

>  <i_i_glide_posenum>  (234) 
7

>  <r_i_glide_eff_state_penalty>  (234) 
0

>  <ligand_id>  (234) 
66

>  <original_smiles>  (234) 
CC1CCC2C3C1OC1(CC2(C)O)C(C)C(=O)C(=O)C31

>  <smiles>  (234) 
[H]OC1=C(C([H])([H])[H])C23OC4([H])C([H])(C([H])([H])[H])C([H])([H])C([H])([H])C([H])(C4([H])C2([H])C1=O)C(O[H])(C([H])([H])[H])C3([H])[H]

$$$$
66:1:1
     RDKit          3D

 42 45  0  0  1  0  0  0  0  0999 V2000
    2.8098   -2.6788    1.2155 C   0  0  0  0  0  0  0  0  0  0  0  0
    2.8682   -4.0115    1.9879 C   0  0  2  0  0  0  0  0  0  0  0  0
    4.3657   -4.2387    2.5047 C   0  0  0  0  0  0  0  0  0  0  0  0
    4.7660   -5.6821    3.0153 C   0  0  0  0  0  0  0  0  0  0  0  0
    4.3316   -6.7417    1.9743 C   0  0  2  0  0  0  0  0  0  0  0  0
    2.9723   -6.3016    1.7915 C   0  0  2  0  0  0  0  0  0  0  0  0
    2.3195   -5.2239    1.1240 C   0  0  1  0  0  0  0  0  0  0  0  0
    1.0698   -6.0945    1.2874 O   0  0  0  0  0  0  0  0  0  0  0  0
    1.2391   -7.3714    2.1214 C   0  0  2  0  0  0  0  0  0  0  0  0
    2.3158   -8.6401    1.9063 C   0  0  0  0  0  0  0  0  0  0  0  0
    3.9274   -8.2914    2.1764 C   0  0  1  0  0  0  0  0  0  0  0  0
    4.7954   -9.1550    1.2409 C   0  0  0  0  0  0  0  0  0  0  0  0
    4.3613   -8.6981    3.4607 O   0  0  0  0  0  0  0  0  0  0  0  0
    0.1333   -7.8204    3.0622 C   0  0  0  0  0  0  0  0  0  0  0  0
   -1.2159   -8.2817    2.5395 C   0  0  0  0  0  0  0  0  0  0  0  0
    0.5806   -7.8375    4.3290 C   0  0  0  0  0  0  0  0  0  0  0  0
   -0.0347   -8.2448    5.4403 O   0  0  0  0  0  0  0  0  0  0  0  0
    1.8981   -7.2170    4.3503 C   0  0  0  0  0  0  0  0  0  0  0  0
    2.6616   -7.1085    5.3116 O   0  0  0  0  0  0  0  0  0  0  0  0
    1.9704   -6.4942    2.9976 C   0  0  1  0  0  0  0  0  0  0  0  0
    3.4563   -2.6922    0.3375 H   0  0  0  0  0  0  0  0  0  0  0  0
    3.1442   -1.8560    1.8482 H   0  0  0  0  0  0  0  0  0  0  0  0
    1.8036   -2.4390    0.8810 H   0  0  0  0  0  0  0  0  0  0  0  0
    2.2443   -3.8492    2.8651 H   0  0  0  0  0  0  0  0  0  0  0  0
    5.0572   -3.9755    1.7029 H   0  0  0  0  0  0  0  0  0  0  0  0
    4.5677   -3.5268    3.3043 H   0  0  0  0  0  0  0  0  0  0  0  0
    5.8402   -5.7380    3.1698 H   0  0  0  0  0  0  0  0  0  0  0  0
    4.3428   -5.8635    3.9971 H   0  0  0  0  0  0  0  0  0  0  0  0
    4.9194   -6.6010    1.0600 H   0  0  0  0  0  0  0  0  0  0  0  0
    2.9398   -6.8109    0.8023 H   0  0  0  0  0  0  0  0  0  0  0  0
    2.5896   -5.0986    0.0691 H   0  0  0  0  0  0  0  0  0  0  0  0
    2.1852   -8.9923    0.8826 H   0  0  0  0  0  0  0  0  0  0  0  0
    2.0309   -9.4977    2.5209 H   0  0  0  0  0  0  0  0  0  0  0  0
    4.5855   -8.9272    0.1943 H   0  0  0  0  0  0  0  0  0  0  0  0
    4.6124  -10.2220    1.3914 H   0  0  0  0  0  0  0  0  0  0  0  0
    5.8606   -8.9739    1.4054 H   0  0  0  0  0  0  0  0  0  0  0  0
    4.1682   -9.6160    3.5792 H   0  0  0  0  0  0  0  0  0  0  0  0
    0.6078   -8.2174    6.1351 H   0  0  0  0  0  0  0  0  0  0  0  0
   -1.0715   -9.0372    1.7648 H   0  0  0  0  0  0  0  0  0  0  0  0
   -1.7500   -7.4389    2.0984 H   0  0  0  0  0  0  0  0  0  0  0  0
   -1.8386   -8.7124    3.3313 H   0  0  0  0  0  0  0  0  0  0  0  0
    1.4054   -5.5960    3.2537 H   0  0  0  0  0  0  0  0  0  0  0  0
  1  2  1  0
  1 21  1  0
  1 22  1  0
  1 23  1  0
  2  7  1  0
  2  3  1  0
  2 24  1  1
  3  4  1  0
  3 25  1  0
  3 26  1  0
  4  5  1  0
  4 27  1  0
  4 28  1  0
  5 11  1  0
  5  6  1  0
  5 29  1  6
  6  7  1  0
  6 30  1  6
  6 20  1  0
  7  8  1  0
  7 31  1  6
  9  8  1  6
  9 14  1  0
  9 10  1  0
  9 20  1  0
 10 11  1  0
 10 32  1  0
 10 33  1  0
 11 12  1  0
 11 13  1  1
 12 34  1  0
 12 35  1  0
 12 36  1  0
 13 37  1  0
 14 15  1  0
 14 16  2  0
 15 39  1  0
 15 40  1  0
 15 41  1  0
 16 18  1  0
 16 17  1  0
 17 38  1  0
 18 20  1  0
 18 19  2  0
 20 42  1  1
M  END
>  <i_m_ct_stereo_status>  (235) 
1

>  <s_m_source_file>  (235) 
/var/tmp/pbs.5076255.sched01/tmptyawoosb/846vw0lfia.sdf

>  <i_m_source_file_index>  (235) 
12

>  <i_lp_mmshare_version>  (235) 
48012

>  <i_f3d_flags>  (235) 
0

>  <s_epik_input>  (235) 
TzFbQ0BIXTJbQ0BIXShbQ0gzXSlbQ0gyXVtDSDJdW0NAQEhdKFtDQEBdKFtDSDJdMykoW0NIM10pW09IXSlbQ0BIXTJbQ0BIXShbQ0BAXTEzNClDKD1PKUMoPU8pW0NAQEhdNFtDSDNd

>  <s_epik_cmdline>  (235) 
J2VwaWtfcHl0aG9uJywgJy1waHQnLCAnMi4wJywgJy1waCcsICc3LjAnLCAnLXRuJywgJzgnLCAnLW1hJywgJzIwMCcsICctaW1hZScsICc8aW5maWxlLm1hZT4nLCAnLW9tYWUnLCAnPG91dGZpbGUubWFlPic=

>  <r_lp_tautomer_probability>  (235) 
0.499803

>  <r_epik_Ionization_Penalty>  (235) 
0.000225984

>  <r_epik_Ionization_Penalty_Charging>  (235) 
0

>  <r_epik_Ionization_Penalty_Neutral>  (235) 
0.000225984

>  <r_epik_State_Penalty>  (235) 
0.41068

>  <r_epik_Charging_Adjusted_Penalty>  (235) 
0.41068

>  <i_epik_Tot_Q>  (235) 
0

>  <i_epik_Tot_abs_Q>  (235) 
0

>  <s_lp_Force_Field>  (235) 
OPLS3e

>  <r_lp_Energy>  (235) 
202.006

>  <b_lp_Chiralities_Consistent>  (235) 
1

>  <s_lp_Variant>  (235) 
66:0-2

>  <s_i_glide_gridfile>  (235) 
pfpi4k_grid

>  <i_i_glide_lignum>  (235) 
12

>  <i_i_glide_rotatable_bonds>  (235) 
2

>  <r_i_docking_score>  (235) 
-3.20365

>  <r_i_glide_ligand_efficiency>  (235) 
-0.160183

>  <r_i_glide_ligand_efficiency_sa>  (235) 
-0.434802

>  <r_i_glide_ligand_efficiency_ln>  (235) 
-0.801768

>  <r_i_glide_gscore>  (235) 
-3.20365

>  <r_i_glide_lipo>  (235) 
-0.0547494

>  <r_i_glide_hbond>  (235) 
-0.16

>  <r_i_glide_metal>  (235) 
-0

>  <r_i_glide_rewards>  (235) 
-1.51129

>  <r_i_glide_evdw>  (235) 
-20.203

>  <r_i_glide_ecoul>  (235) 
-3.10176

>  <r_i_glide_erotb>  (235) 
0

>  <r_i_glide_esite>  (235) 
-0.00219164

>  <r_i_glide_emodel>  (235) 
-27.8535

>  <r_i_glide_energy>  (235) 
-23.3048

>  <r_i_glide_einternal>  (235) 
2.18859

>  <r_i_glide_intrahb_reward>  (235) 
-0

>  <i_i_glide_confnum>  (235) 
2

>  <i_i_glide_posenum>  (235) 
9

>  <r_i_glide_eff_state_penalty>  (235) 
0

>  <ligand_id>  (235) 
66

>  <original_smiles>  (235) 
CC1CCC2C3C1OC1(CC2(C)O)C(C)C(=O)C(=O)C31

>  <smiles>  (235) 
[H]OC1=C(C([H])([H])[H])C23OC4([H])C([H])(C([H])([H])[H])C([H])([H])C([H])([H])C([H])(C4([H])C2([H])C1=O)C(O[H])(C([H])([H])[H])C3([H])[H]

$$$$
66:1:2
     RDKit          3D

 42 45  0  0  1  0  0  0  0  0999 V2000
   -1.8496   -8.7190    2.6824 C   0  0  0  0  0  0  0  0  0  0  0  0
   -0.3219   -8.5865    2.5929 C   0  0  2  0  0  0  0  0  0  0  0  0
    0.3395  -10.0042    2.9347 C   0  0  0  0  0  0  0  0  0  0  0  0
    1.8880  -10.0438    3.2589 C   0  0  0  0  0  0  0  0  0  0  0  0
    2.2275   -8.9572    4.3063 C   0  0  2  0  0  0  0  0  0  0  0  0
    1.5649   -7.8462    3.6684 C   0  0  2  0  0  0  0  0  0  0  0  0
    0.2175   -7.4082    3.4989 C   0  0  1  0  0  0  0  0  0  0  0  0
    0.8700   -6.0764    3.1287 O   0  0  0  0  0  0  0  0  0  0  0  0
    2.4016   -6.0763    3.0269 C   0  0  2  0  0  0  0  0  0  0  0  0
    3.5333   -6.5165    4.1806 C   0  0  0  0  0  0  0  0  0  0  0  0
    3.5963   -8.1387    4.5658 C   0  0  1  0  0  0  0  0  0  0  0  0
    4.0102   -8.2992    6.0421 C   0  0  0  0  0  0  0  0  0  0  0  0
    4.6594   -8.7884    3.9002 O   0  0  0  0  0  0  0  0  0  0  0  0
    3.0967   -5.2631    1.9436 C   0  0  0  0  0  0  0  0  0  0  0  0
    3.0317   -3.7446    1.9354 C   0  0  0  0  0  0  0  0  0  0  0  0
    3.7975   -6.0698    1.1274 C   0  0  0  0  0  0  0  0  0  0  0  0
    4.5956   -5.7557    0.0945 O   0  0  0  0  0  0  0  0  0  0  0  0
    3.4599   -7.4525    1.4721 C   0  0  0  0  0  0  0  0  0  0  0  0
    3.9462   -8.4943    1.0300 O   0  0  0  0  0  0  0  0  0  0  0  0
    2.1816   -7.3071    2.3159 C   0  0  1  0  0  0  0  0  0  0  0  0
   -2.1657   -9.0065    3.6875 H   0  0  0  0  0  0  0  0  0  0  0  0
   -2.1986   -9.5023    2.0082 H   0  0  0  0  0  0  0  0  0  0  0  0
   -2.3636   -7.7967    2.4131 H   0  0  0  0  0  0  0  0  0  0  0  0
   -0.1236   -8.3749    1.5445 H   0  0  0  0  0  0  0  0  0  0  0  0
   -0.1823  -10.4346    3.7928 H   0  0  0  0  0  0  0  0  0  0  0  0
    0.1445  -10.6855    2.1081 H   0  0  0  0  0  0  0  0  0  0  0  0
    2.1593  -11.0256    3.6378 H   0  0  0  0  0  0  0  0  0  0  0  0
    2.4593   -9.9416    2.3420 H   0  0  0  0  0  0  0  0  0  0  0  0
    1.7400   -9.2216    5.2532 H   0  0  0  0  0  0  0  0  0  0  0  0
    1.5088   -7.3154    4.6482 H   0  0  0  0  0  0  0  0  0  0  0  0
   -0.3706   -7.3390    4.4241 H   0  0  0  0  0  0  0  0  0  0  0  0
    3.3122   -5.9404    5.0802 H   0  0  0  0  0  0  0  0  0  0  0  0
    4.5344   -6.1940    3.8826 H   0  0  0  0  0  0  0  0  0  0  0  0
    3.2735   -7.8474    6.7104 H   0  0  0  0  0  0  0  0  0  0  0  0
    4.9763   -7.8266    6.2382 H   0  0  0  0  0  0  0  0  0  0  0  0
    4.0967   -9.3551    6.3186 H   0  0  0  0  0  0  0  0  0  0  0  0
    4.5385   -9.7222    3.9876 H   0  0  0  0  0  0  0  0  0  0  0  0
    4.6370   -4.8117    0.0261 H   0  0  0  0  0  0  0  0  0  0  0  0
    3.3207   -3.3593    2.9116 H   0  0  0  0  0  0  0  0  0  0  0  0
    2.0132   -3.4146    1.7329 H   0  0  0  0  0  0  0  0  0  0  0  0
    3.6897   -3.3056    1.1826 H   0  0  0  0  0  0  0  0  0  0  0  0
    1.4534   -7.1948    1.5107 H   0  0  0  0  0  0  0  0  0  0  0  0
  1  2  1  0
  1 21  1  0
  1 22  1  0
  1 23  1  0
  2  7  1  0
  2  3  1  0
  2 24  1  6
  3  4  1  0
  3 25  1  0
  3 26  1  0
  4  5  1  0
  4 27  1  0
  4 28  1  0
  5 11  1  0
  5  6  1  0
  5 29  1  1
  6  7  1  0
  6 30  1  1
  6 20  1  0
  7  8  1  0
  7 31  1  1
  9  8  1  1
  9 14  1  0
  9 10  1  0
  9 20  1  0
 10 11  1  0
 10 32  1  0
 10 33  1  0
 11 12  1  0
 11 13  1  6
 12 34  1  0
 12 35  1  0
 12 36  1  0
 13 37  1  0
 14 15  1  0
 14 16  2  0
 15 39  1  0
 15 40  1  0
 15 41  1  0
 16 18  1  0
 16 17  1  0
 17 38  1  0
 18 20  1  0
 18 19  2  0
 20 42  1  6
M  END
>  <i_m_ct_stereo_status>  (236) 
1

>  <s_m_source_file>  (236) 
/var/tmp/pbs.5076255.sched01/tmptyawoosb/846vw0lfia.sdf

>  <i_m_source_file_index>  (236) 
12

>  <i_lp_mmshare_version>  (236) 
48012

>  <i_f3d_flags>  (236) 
0

>  <s_epik_input>  (236) 
TzFbQ0BIXTJbQ0BIXShbQ0gzXSlbQ0gyXVtDSDJdW0NAQEhdKFtDQEBdKFtDSDJdMykoW0NIM10pW09IXSlbQ0BIXTJbQ0BIXShbQ0BAXTEzNClDKD1PKUMoPU8pW0NAQEhdNFtDSDNd

>  <s_epik_cmdline>  (236) 
J2VwaWtfcHl0aG9uJywgJy1waHQnLCAnMi4wJywgJy1waCcsICc3LjAnLCAnLXRuJywgJzgnLCAnLW1hJywgJzIwMCcsICctaW1hZScsICc8aW5maWxlLm1hZT4nLCAnLW9tYWUnLCAnPG91dGZpbGUubWFlPic=

>  <r_lp_tautomer_probability>  (236) 
0.499803

>  <r_epik_Ionization_Penalty>  (236) 
0.000225984

>  <r_epik_Ionization_Penalty_Charging>  (236) 
0

>  <r_epik_Ionization_Penalty_Neutral>  (236) 
0.000225984

>  <r_epik_State_Penalty>  (236) 
0.41068

>  <r_epik_Charging_Adjusted_Penalty>  (236) 
0.41068

>  <i_epik_Tot_Q>  (236) 
0

>  <i_epik_Tot_abs_Q>  (236) 
0

>  <s_lp_Force_Field>  (236) 
OPLS3e

>  <r_lp_Energy>  (236) 
202.006

>  <b_lp_Chiralities_Consistent>  (236) 
1

>  <s_lp_Variant>  (236) 
66:0-2

>  <s_i_glide_gridfile>  (236) 
pfpi4k_grid

>  <i_i_glide_lignum>  (236) 
12

>  <i_i_glide_rotatable_bonds>  (236) 
2

>  <r_i_docking_score>  (236) 
-3.05663

>  <r_i_glide_ligand_efficiency>  (236) 
-0.152832

>  <r_i_glide_ligand_efficiency_sa>  (236) 
-0.414849

>  <r_i_glide_ligand_efficiency_ln>  (236) 
-0.764975

>  <r_i_glide_gscore>  (236) 
-3.05663

>  <r_i_glide_lipo>  (236) 
-0.19884

>  <r_i_glide_hbond>  (236) 
0

>  <r_i_glide_metal>  (236) 
-0

>  <r_i_glide_rewards>  (236) 
-1.59066

>  <r_i_glide_evdw>  (236) 
-21.5321

>  <r_i_glide_ecoul>  (236) 
-1.27018

>  <r_i_glide_erotb>  (236) 
0

>  <r_i_glide_esite>  (236) 
0

>  <r_i_glide_emodel>  (236) 
-28.1475

>  <r_i_glide_energy>  (236) 
-22.8023

>  <r_i_glide_einternal>  (236) 
0.0582907

>  <r_i_glide_intrahb_reward>  (236) 
-0

>  <i_i_glide_confnum>  (236) 
2

>  <i_i_glide_posenum>  (236) 
10

>  <r_i_glide_eff_state_penalty>  (236) 
0

>  <ligand_id>  (236) 
66

>  <original_smiles>  (236) 
CC1CCC2C3C1OC1(CC2(C)O)C(C)C(=O)C(=O)C31

>  <smiles>  (236) 
[H]OC1=C(C([H])([H])[H])C23OC4([H])C([H])(C([H])([H])[H])C([H])([H])C([H])([H])C([H])(C4([H])C2([H])C1=O)C(O[H])(C([H])([H])[H])C3([H])[H]

$$$$
67:0:0
     RDKit          3D

 47 50  0  0  1  0  0  0  0  0999 V2000
   -2.1406    3.6318    4.4495 O   0  0  0  0  0  0  0  0  0  0  0  0
   -1.5436    2.6660    4.9380 C   0  0  0  0  0  0  0  0  0  0  0  0
   -1.5820    2.5094    6.4725 C   0  0  2  0  0  0  0  0  0  0  0  0
   -2.9782    2.5871    7.0941 C   0  0  0  0  0  0  0  0  0  0  0  0
   -2.7452    3.2936    8.4197 C   0  0  0  0  0  0  0  0  0  0  0  0
   -1.2443    3.6003    8.4361 C   0  0  0  0  0  0  0  0  0  0  0  0
   -0.8884    3.6015    7.0628 O   0  0  0  0  0  0  0  0  0  0  0  0
   -0.8999    1.7575    4.1758 N   0  0  0  0  0  0  0  0  0  0  0  0
   -0.0717    0.6476    4.6891 C   0  0  0  0  0  0  0  0  0  0  0  0
    1.3113    0.6587    4.0399 C   0  0  0  0  0  0  0  0  0  0  0  0
    1.2290    0.6279    2.5659 N   0  0  0  0  0  0  0  0  0  0  0  0
    2.5718    0.5757    1.9430 C   0  0  0  0  0  0  0  0  0  0  0  0
    3.0743   -0.8244    1.8790 C   0  0  0  0  0  0  0  0  0  0  0  0
    3.9504   -1.4724    2.7126 C   0  0  0  0  0  0  0  0  0  0  0  0
    4.1257   -2.7917    2.1792 C   0  0  0  0  0  0  0  0  0  0  0  0
    4.8865   -3.9300    2.5459 C   0  0  0  0  0  0  0  0  0  0  0  0
    4.8477   -5.1204    1.7949 C   0  0  0  0  0  0  0  0  0  0  0  0
    4.0403   -5.2066    0.6405 C   0  0  0  0  0  0  0  0  0  0  0  0
    3.2703   -4.0952    0.2547 C   0  0  0  0  0  0  0  0  0  0  0  0
    3.3120   -2.9154    1.0104 C   0  0  0  0  0  0  0  0  0  0  0  0
    2.6698   -1.6975    0.8860 N   0  0  0  0  0  0  0  0  0  0  0  0
    0.3960    1.7507    2.0559 C   0  0  0  0  0  0  0  0  0  0  0  0
   -0.9978    1.7671    2.7054 C   0  0  0  0  0  0  0  0  0  0  0  0
    2.0032   -1.4463    0.1374 H   0  0  0  0  0  0  0  0  0  0  0  0
   -1.1562    1.5910    6.8623 H   0  0  0  0  0  0  0  0  0  0  0  0
   -3.7028    3.1174    6.4783 H   0  0  0  0  0  0  0  0  0  0  0  0
   -3.3469    1.5783    7.2513 H   0  0  0  0  0  0  0  0  0  0  0  0
   -3.3192    4.2177    8.4454 H   0  0  0  0  0  0  0  0  0  0  0  0
   -3.0308    2.6836    9.2787 H   0  0  0  0  0  0  0  0  0  0  0  0
   -1.0102    4.5576    8.9043 H   0  0  0  0  0  0  0  0  0  0  0  0
   -0.6793    2.8161    8.9501 H   0  0  0  0  0  0  0  0  0  0  0  0
    0.1731    0.6835    5.7468 H   0  0  0  0  0  0  0  0  0  0  0  0
   -0.5810   -0.3008    4.4966 H   0  0  0  0  0  0  0  0  0  0  0  0
    1.8254    1.5707    4.3436 H   0  0  0  0  0  0  0  0  0  0  0  0
    1.9004   -0.1785    4.4119 H   0  0  0  0  0  0  0  0  0  0  0  0
    2.5435    0.9687    0.9260 H   0  0  0  0  0  0  0  0  0  0  0  0
    3.2738    1.2115    2.4922 H   0  0  0  0  0  0  0  0  0  0  0  0
    4.4371   -1.0701    3.5885 H   0  0  0  0  0  0  0  0  0  0  0  0
    5.5114   -3.8767    3.4275 H   0  0  0  0  0  0  0  0  0  0  0  0
    5.4436   -5.9708    2.1025 H   0  0  0  0  0  0  0  0  0  0  0  0
    4.0157   -6.1140    0.0601 H   0  0  0  0  0  0  0  0  0  0  0  0
    2.6584   -4.1481   -0.6345 H   0  0  0  0  0  0  0  0  0  0  0  0
    0.9140    2.6829    2.2755 H   0  0  0  0  0  0  0  0  0  0  0  0
    0.2900    1.6831    0.9663 H   0  0  0  0  0  0  0  0  0  0  0  0
   -1.5669    0.9034    2.3760 H   0  0  0  0  0  0  0  0  0  0  0  0
   -1.5317    2.6304    2.3077 H   0  0  0  0  0  0  0  0  0  0  0  0
    0.7467   -0.2172    2.3008 H   0  0  0  0  0  0  0  0  0  0  0  0
  1  2  2  0
  2  3  1  0
  2  8  1  0
  3  7  1  0
  3  4  1  0
  3 25  1  6
  4  5  1  0
  4 26  1  0
  4 27  1  0
  5  6  1  0
  5 28  1  0
  5 29  1  0
  6  7  1  0
  6 30  1  0
  6 31  1  0
  8 23  1  0
  8  9  1  0
  9 10  1  0
  9 32  1  0
  9 33  1  0
 10 11  1  0
 10 34  1  0
 10 35  1  0
 11 12  1  0
 11 22  1  0
 11 47  1  0
 12 13  1  0
 12 36  1  0
 12 37  1  0
 13 21  1  0
 13 14  2  0
 14 15  1  0
 14 38  1  0
 15 20  2  0
 15 16  1  0
 16 17  2  0
 16 39  1  0
 17 18  1  0
 17 40  1  0
 18 19  2  0
 18 41  1  0
 19 20  1  0
 19 42  1  0
 20 21  1  0
 21 24  1  0
 22 23  1  0
 22 43  1  0
 22 44  1  0
 23 45  1  0
 23 46  1  0
M  CHG  1  11   1
M  END
>  <i_m_ct_stereo_status>  (237) 
1

>  <s_m_source_file>  (237) 
/var/tmp/pbs.5076255.sched01/tmptyawoosb/846vw0lfia.sdf

>  <i_m_source_file_index>  (237) 
13

>  <i_lp_mmshare_version>  (237) 
48012

>  <i_f3d_flags>  (237) 
0

>  <s_epik_input>  (237) 
TzFbQ0gyXVtDSDJdW0NIMl1bQ0BIXTFDKD1PKU4yW0NIMl1bQ0gyXU4oW0NIMl1bQ0gyXTIpW0NIMl1jKFtjSF0zKVtuSF1jKGMzNClbY0hdW2NIXVtjSF1bY0hdNA==

>  <s_epik_cmdline>  (237) 
J2VwaWtfcHl0aG9uJywgJy1waHQnLCAnMi4wJywgJy1waCcsICc3LjAnLCAnLXRuJywgJzgnLCAnLW1hJywgJzIwMCcsICctaW1hZScsICc8aW5maWxlLm1hZT4nLCAnLW9tYWUnLCAnPG91dGZpbGUubWFlPic=

>  <r_epik_Ionization_Penalty>  (237) 
0.160296

>  <r_epik_Ionization_Penalty_Charging>  (237) 
0.160296

>  <r_epik_Ionization_Penalty_Neutral>  (237) 
2.33015e-08

>  <r_epik_State_Penalty>  (237) 
0.149608

>  <r_epik_Charging_Adjusted_Penalty>  (237) 
0.309904

>  <i_epik_Tot_Q>  (237) 
1

>  <i_epik_Tot_abs_Q>  (237) 
1

>  <s_lp_Force_Field>  (237) 
OPLS3e

>  <r_lp_Energy>  (237) 
30.5569

>  <b_lp_Chiralities_Consistent>  (237) 
1

>  <s_lp_Variant>  (237) 
67:0-1

>  <s_i_glide_gridfile>  (237) 
pfpi4k_grid

>  <i_i_glide_lignum>  (237) 
13

>  <i_i_glide_rotatable_bonds>  (237) 
4

>  <r_i_docking_score>  (237) 
-3.72424

>  <r_i_glide_ligand_efficiency>  (237) 
-0.161923

>  <r_i_glide_ligand_efficiency_sa>  (237) 
-0.460488

>  <r_i_glide_ligand_efficiency_ln>  (237) 
-0.900554

>  <r_i_glide_gscore>  (237) 
-3.72424

>  <r_i_glide_lipo>  (237) 
-0.383916

>  <r_i_glide_hbond>  (237) 
-0.16

>  <r_i_glide_metal>  (237) 
-0

>  <r_i_glide_rewards>  (237) 
-1.26544

>  <r_i_glide_evdw>  (237) 
-24.2658

>  <r_i_glide_ecoul>  (237) 
-8.93731

>  <r_i_glide_erotb>  (237) 
0.752175

>  <r_i_glide_esite>  (237) 
-0.113166

>  <r_i_glide_emodel>  (237) 
-43.5942

>  <r_i_glide_energy>  (237) 
-33.2031

>  <r_i_glide_einternal>  (237) 
1.6852

>  <r_i_glide_intrahb_reward>  (237) 
-0

>  <i_i_glide_confnum>  (237) 
1

>  <i_i_glide_posenum>  (237) 
21

>  <r_i_glide_eff_state_penalty>  (237) 
0

>  <ligand_id>  (237) 
67

>  <original_smiles>  (237) 
O=C(C1CCCO1)N1CCN(Cc2cc3ccccc3[nH]2)CC1

>  <smiles>  (237) 
[H]c1c([H])c([H])c2c(c1[H])c([H])c(C([H])([H])[N+]1([H])C([H])([H])C([H])([H])N(C(=O)C3([H])OC([H])([H])C([H])([H])C3([H])[H])C([H])([H])C1([H])[H])n2[H]

$$$$
67:0:1
     RDKit          3D

 47 50  0  0  1  0  0  0  0  0999 V2000
   -2.1866    3.4512    4.2431 O   0  0  0  0  0  0  0  0  0  0  0  0
   -1.4835    2.6365    4.8575 C   0  0  0  0  0  0  0  0  0  0  0  0
   -1.5798    2.6304    6.3968 C   0  0  2  0  0  0  0  0  0  0  0  0
   -2.9883    2.7386    6.9692 C   0  0  0  0  0  0  0  0  0  0  0  0
   -2.8007    3.5850    8.2233 C   0  0  0  0  0  0  0  0  0  0  0  0
   -1.3092    3.9158    8.2526 C   0  0  0  0  0  0  0  0  0  0  0  0
   -0.9017    3.7722    6.9018 O   0  0  0  0  0  0  0  0  0  0  0  0
   -0.6707    1.7693    4.2198 N   0  0  0  0  0  0  0  0  0  0  0  0
    0.3046    0.8803    4.8871 C   0  0  0  0  0  0  0  0  0  0  0  0
    1.6937    1.0540    4.2875 C   0  0  0  0  0  0  0  0  0  0  0  0
    1.6753    0.8371    2.8346 N   0  0  0  0  0  0  0  0  0  0  0  0
    3.0445    0.8999    2.2804 C   0  0  0  0  0  0  0  0  0  0  0  0
    3.3963   -0.3224    1.5036 C   0  0  0  0  0  0  0  0  0  0  0  0
    3.0618   -1.6348    1.7304 C   0  0  0  0  0  0  0  0  0  0  0  0
    3.7100   -2.4035    0.7051 C   0  0  0  0  0  0  0  0  0  0  0  0
    3.7788   -3.7752    0.3765 C   0  0  0  0  0  0  0  0  0  0  0  0
    4.5340   -4.2322   -0.7208 C   0  0  0  0  0  0  0  0  0  0  0  0
    5.2350   -3.3201   -1.5361 C   0  0  0  0  0  0  0  0  0  0  0  0
    5.1848   -1.9495   -1.2343 C   0  0  0  0  0  0  0  0  0  0  0  0
    4.4389   -1.5104   -0.1325 C   0  0  0  0  0  0  0  0  0  0  0  0
    4.2273   -0.2551    0.4018 N   0  0  0  0  0  0  0  0  0  0  0  0
    0.7143    1.7403    2.1580 C   0  0  0  0  0  0  0  0  0  0  0  0
   -0.6972    1.6011    2.7552 C   0  0  0  0  0  0  0  0  0  0  0  0
    4.6094    0.6049    0.0303 H   0  0  0  0  0  0  0  0  0  0  0  0
   -1.1702    1.7336    6.8755 H   0  0  0  0  0  0  0  0  0  0  0  0
   -3.6969    3.1938    6.2838 H   0  0  0  0  0  0  0  0  0  0  0  0
   -3.3536    1.7470    7.2221 H   0  0  0  0  0  0  0  0  0  0  0  0
   -3.3835    4.4978    8.1283 H   0  0  0  0  0  0  0  0  0  0  0  0
   -3.1142    3.0685    9.1322 H   0  0  0  0  0  0  0  0  0  0  0  0
   -1.1096    4.9222    8.6217 H   0  0  0  0  0  0  0  0  0  0  0  0
   -0.7562    3.2050    8.8699 H   0  0  0  0  0  0  0  0  0  0  0  0
    0.4915    1.0808    5.9473 H   0  0  0  0  0  0  0  0  0  0  0  0
   -0.0293   -0.1553    4.8064 H   0  0  0  0  0  0  0  0  0  0  0  0
    2.0556    2.0634    4.4913 H   0  0  0  0  0  0  0  0  0  0  0  0
    2.3837    0.3599    4.7721 H   0  0  0  0  0  0  0  0  0  0  0  0
    3.1385    1.7873    1.6749 H   0  0  0  0  0  0  0  0  0  0  0  0
    3.8040    1.0395    3.0484 H   0  0  0  0  0  0  0  0  0  0  0  0
    2.4423   -2.0311    2.5241 H   0  0  0  0  0  0  0  0  0  0  0  0
    3.2417   -4.4865    0.9873 H   0  0  0  0  0  0  0  0  0  0  0  0
    4.5614   -5.2909   -0.9557 H   0  0  0  0  0  0  0  0  0  0  0  0
    5.8024   -3.6798   -2.3852 H   0  0  0  0  0  0  0  0  0  0  0  0
    5.7091   -1.2389   -1.8523 H   0  0  0  0  0  0  0  0  0  0  0  0
    1.0500    2.7739    2.2879 H   0  0  0  0  0  0  0  0  0  0  0  0
    0.6873    1.5397    1.0818 H   0  0  0  0  0  0  0  0  0  0  0  0
   -1.0969    0.6182    2.5161 H   0  0  0  0  0  0  0  0  0  0  0  0
   -1.3466    2.3156    2.2470 H   0  0  0  0  0  0  0  0  0  0  0  0
    1.3503   -0.1017    2.6689 H   0  0  0  0  0  0  0  0  0  0  0  0
  1  2  2  0
  2  3  1  0
  2  8  1  0
  3  7  1  0
  3  4  1  0
  3 25  1  1
  4  5  1  0
  4 26  1  0
  4 27  1  0
  5  6  1  0
  5 28  1  0
  5 29  1  0
  6  7  1  0
  6 30  1  0
  6 31  1  0
  8 23  1  0
  8  9  1  0
  9 10  1  0
  9 32  1  0
  9 33  1  0
 10 11  1  0
 10 34  1  0
 10 35  1  0
 11 12  1  0
 11 22  1  0
 11 47  1  0
 12 13  1  0
 12 36  1  0
 12 37  1  0
 13 21  1  0
 13 14  2  0
 14 15  1  0
 14 38  1  0
 15 20  2  0
 15 16  1  0
 16 17  2  0
 16 39  1  0
 17 18  1  0
 17 40  1  0
 18 19  2  0
 18 41  1  0
 19 20  1  0
 19 42  1  0
 20 21  1  0
 21 24  1  0
 22 23  1  0
 22 43  1  0
 22 44  1  0
 23 45  1  0
 23 46  1  0
M  CHG  1  11   1
M  END
>  <i_m_ct_stereo_status>  (238) 
1

>  <s_m_source_file>  (238) 
/var/tmp/pbs.5076255.sched01/tmptyawoosb/846vw0lfia.sdf

>  <i_m_source_file_index>  (238) 
13

>  <i_lp_mmshare_version>  (238) 
48012

>  <i_f3d_flags>  (238) 
0

>  <s_epik_input>  (238) 
TzFbQ0gyXVtDSDJdW0NIMl1bQ0BIXTFDKD1PKU4yW0NIMl1bQ0gyXU4oW0NIMl1bQ0gyXTIpW0NIMl1jKFtjSF0zKVtuSF1jKGMzNClbY0hdW2NIXVtjSF1bY0hdNA==

>  <s_epik_cmdline>  (238) 
J2VwaWtfcHl0aG9uJywgJy1waHQnLCAnMi4wJywgJy1waCcsICc3LjAnLCAnLXRuJywgJzgnLCAnLW1hJywgJzIwMCcsICctaW1hZScsICc8aW5maWxlLm1hZT4nLCAnLW9tYWUnLCAnPG91dGZpbGUubWFlPic=

>  <r_epik_Ionization_Penalty>  (238) 
0.160296

>  <r_epik_Ionization_Penalty_Charging>  (238) 
0.160296

>  <r_epik_Ionization_Penalty_Neutral>  (238) 
2.33015e-08

>  <r_epik_State_Penalty>  (238) 
0.149608

>  <r_epik_Charging_Adjusted_Penalty>  (238) 
0.309904

>  <i_epik_Tot_Q>  (238) 
1

>  <i_epik_Tot_abs_Q>  (238) 
1

>  <s_lp_Force_Field>  (238) 
OPLS3e

>  <r_lp_Energy>  (238) 
30.5569

>  <b_lp_Chiralities_Consistent>  (238) 
1

>  <s_lp_Variant>  (238) 
67:0-1

>  <s_i_glide_gridfile>  (238) 
pfpi4k_grid

>  <i_i_glide_lignum>  (238) 
13

>  <i_i_glide_rotatable_bonds>  (238) 
4

>  <r_i_docking_score>  (238) 
-3.55738

>  <r_i_glide_ligand_efficiency>  (238) 
-0.154669

>  <r_i_glide_ligand_efficiency_sa>  (238) 
-0.439857

>  <r_i_glide_ligand_efficiency_ln>  (238) 
-0.860207

>  <r_i_glide_gscore>  (238) 
-3.55738

>  <r_i_glide_lipo>  (238) 
-0.506116

>  <r_i_glide_hbond>  (238) 
-0.32

>  <r_i_glide_metal>  (238) 
-0

>  <r_i_glide_rewards>  (238) 
-1.26544

>  <r_i_glide_evdw>  (238) 
-27.6648

>  <r_i_glide_ecoul>  (238) 
-5.27576

>  <r_i_glide_erotb>  (238) 
0.752175

>  <r_i_glide_esite>  (238) 
-0.0433967

>  <r_i_glide_emodel>  (238) 
-41.6764

>  <r_i_glide_energy>  (238) 
-32.9405

>  <r_i_glide_einternal>  (238) 
3.87702

>  <r_i_glide_intrahb_reward>  (238) 
-0

>  <i_i_glide_confnum>  (238) 
1

>  <i_i_glide_posenum>  (238) 
5

>  <r_i_glide_eff_state_penalty>  (238) 
0

>  <ligand_id>  (238) 
67

>  <original_smiles>  (238) 
O=C(C1CCCO1)N1CCN(Cc2cc3ccccc3[nH]2)CC1

>  <smiles>  (238) 
[H]c1c([H])c([H])c2c(c1[H])c([H])c(C([H])([H])[N+]1([H])C([H])([H])C([H])([H])N(C(=O)C3([H])OC([H])([H])C([H])([H])C3([H])[H])C([H])([H])C1([H])[H])n2[H]

$$$$
67:0:2
     RDKit          3D

 47 50  0  0  1  0  0  0  0  0999 V2000
    0.6409   -6.3200    0.5570 O   0  0  0  0  0  0  0  0  0  0  0  0
    1.3996   -6.3682    1.5320 C   0  0  0  0  0  0  0  0  0  0  0  0
    0.8553   -7.0300    2.8068 C   0  0  2  0  0  0  0  0  0  0  0  0
    0.8160   -8.5609    2.7178 C   0  0  0  0  0  0  0  0  0  0  0  0
   -0.4206   -8.9418    3.4903 C   0  0  0  0  0  0  0  0  0  0  0  0
   -1.0092   -7.6026    3.9503 C   0  0  0  0  0  0  0  0  0  0  0  0
   -0.5197   -6.6857    2.9860 O   0  0  0  0  0  0  0  0  0  0  0  0
    2.6661   -5.8984    1.4845 N   0  0  0  0  0  0  0  0  0  0  0  0
    3.5876   -5.8157    2.6347 C   0  0  0  0  0  0  0  0  0  0  0  0
    4.1143   -4.3846    2.8022 C   0  0  0  0  0  0  0  0  0  0  0  0
    4.7435   -3.8934    1.5500 N   0  0  0  0  0  0  0  0  0  0  0  0
    5.3298   -2.5353    1.6815 C   0  0  0  0  0  0  0  0  0  0  0  0
    4.2822   -1.5086    2.0214 C   0  0  0  0  0  0  0  0  0  0  0  0
    3.2539   -1.0267    1.2437 C   0  0  0  0  0  0  0  0  0  0  0  0
    2.4896   -0.1412    2.0628 C   0  0  0  0  0  0  0  0  0  0  0  0
    1.3129    0.6121    1.8570 C   0  0  0  0  0  0  0  0  0  0  0  0
    0.8083    1.4611    2.8648 C   0  0  0  0  0  0  0  0  0  0  0  0
    1.4657    1.5487    4.1064 C   0  0  0  0  0  0  0  0  0  0  0  0
    2.6189    0.7732    4.3528 C   0  0  0  0  0  0  0  0  0  0  0  0
    3.1191   -0.0545    3.3302 C   0  0  0  0  0  0  0  0  0  0  0  0
    4.2061   -0.9061    3.2705 N   0  0  0  0  0  0  0  0  0  0  0  0
    3.8127   -4.0100    0.3907 C   0  0  0  0  0  0  0  0  0  0  0  0
    3.2770   -5.4315    0.2271 C   0  0  0  0  0  0  0  0  0  0  0  0
    4.8430   -1.0962    4.0302 H   0  0  0  0  0  0  0  0  0  0  0  0
    1.3545   -6.7370    3.7268 H   0  0  0  0  0  0  0  0  0  0  0  0
    0.7431   -8.9375    1.6891 H   0  0  0  0  0  0  0  0  0  0  0  0
    1.7203   -8.9957    3.1455 H   0  0  0  0  0  0  0  0  0  0  0  0
   -1.1349   -9.4612    2.8435 H   0  0  0  0  0  0  0  0  0  0  0  0
   -0.1972   -9.5957    4.3393 H   0  0  0  0  0  0  0  0  0  0  0  0
   -2.0946   -7.5970    3.9802 H   0  0  0  0  0  0  0  0  0  0  0  0
   -0.6305   -7.3365    4.9431 H   0  0  0  0  0  0  0  0  0  0  0  0
    3.1577   -6.0682    3.6042 H   0  0  0  0  0  0  0  0  0  0  0  0
    4.4119   -6.5150    2.4603 H   0  0  0  0  0  0  0  0  0  0  0  0
    3.2691   -3.7427    3.0701 H   0  0  0  0  0  0  0  0  0  0  0  0
    4.8169   -4.3416    3.6284 H   0  0  0  0  0  0  0  0  0  0  0  0
    6.0895   -2.5603    2.4690 H   0  0  0  0  0  0  0  0  0  0  0  0
    5.8606   -2.2638    0.7669 H   0  0  0  0  0  0  0  0  0  0  0  0
    3.0164   -1.2839    0.2184 H   0  0  0  0  0  0  0  0  0  0  0  0
    0.8122    0.5469    0.9063 H   0  0  0  0  0  0  0  0  0  0  0  0
   -0.0642    2.0604    2.6502 H   0  0  0  0  0  0  0  0  0  0  0  0
    1.0972    2.2227    4.8603 H   0  0  0  0  0  0  0  0  0  0  0  0
    3.1300    0.8340    5.2948 H   0  0  0  0  0  0  0  0  0  0  0  0
    2.9195   -3.3957    0.5510 H   0  0  0  0  0  0  0  0  0  0  0  0
    4.3013   -3.6627   -0.5262 H   0  0  0  0  0  0  0  0  0  0  0  0
    4.0541   -6.1214   -0.1032 H   0  0  0  0  0  0  0  0  0  0  0  0
    2.5556   -5.3607   -0.5868 H   0  0  0  0  0  0  0  0  0  0  0  0
    5.5143   -4.5251    1.3744 H   0  0  0  0  0  0  0  0  0  0  0  0
  1  2  2  0
  2  3  1  0
  2  8  1  0
  3  7  1  0
  3  4  1  0
  3 25  1  1
  4  5  1  0
  4 26  1  0
  4 27  1  0
  5  6  1  0
  5 28  1  0
  5 29  1  0
  6  7  1  0
  6 30  1  0
  6 31  1  0
  8 23  1  0
  8  9  1  0
  9 10  1  0
  9 32  1  0
  9 33  1  0
 10 11  1  0
 10 34  1  0
 10 35  1  0
 11 12  1  0
 11 22  1  0
 11 47  1  0
 12 13  1  0
 12 36  1  0
 12 37  1  0
 13 21  1  0
 13 14  2  0
 14 15  1  0
 14 38  1  0
 15 20  2  0
 15 16  1  0
 16 17  2  0
 16 39  1  0
 17 18  1  0
 17 40  1  0
 18 19  2  0
 18 41  1  0
 19 20  1  0
 19 42  1  0
 20 21  1  0
 21 24  1  0
 22 23  1  0
 22 43  1  0
 22 44  1  0
 23 45  1  0
 23 46  1  0
M  CHG  1  11   1
M  END
>  <i_m_ct_stereo_status>  (239) 
1

>  <s_m_source_file>  (239) 
/var/tmp/pbs.5076255.sched01/tmptyawoosb/846vw0lfia.sdf

>  <i_m_source_file_index>  (239) 
13

>  <i_lp_mmshare_version>  (239) 
48012

>  <i_f3d_flags>  (239) 
0

>  <s_epik_input>  (239) 
TzFbQ0gyXVtDSDJdW0NIMl1bQ0BIXTFDKD1PKU4yW0NIMl1bQ0gyXU4oW0NIMl1bQ0gyXTIpW0NIMl1jKFtjSF0zKVtuSF1jKGMzNClbY0hdW2NIXVtjSF1bY0hdNA==

>  <s_epik_cmdline>  (239) 
J2VwaWtfcHl0aG9uJywgJy1waHQnLCAnMi4wJywgJy1waCcsICc3LjAnLCAnLXRuJywgJzgnLCAnLW1hJywgJzIwMCcsICctaW1hZScsICc8aW5maWxlLm1hZT4nLCAnLW9tYWUnLCAnPG91dGZpbGUubWFlPic=

>  <r_epik_Ionization_Penalty>  (239) 
0.160296

>  <r_epik_Ionization_Penalty_Charging>  (239) 
0.160296

>  <r_epik_Ionization_Penalty_Neutral>  (239) 
2.33015e-08

>  <r_epik_State_Penalty>  (239) 
0.149608

>  <r_epik_Charging_Adjusted_Penalty>  (239) 
0.309904

>  <i_epik_Tot_Q>  (239) 
1

>  <i_epik_Tot_abs_Q>  (239) 
1

>  <s_lp_Force_Field>  (239) 
OPLS3e

>  <r_lp_Energy>  (239) 
30.5569

>  <b_lp_Chiralities_Consistent>  (239) 
1

>  <s_lp_Variant>  (239) 
67:0-1

>  <s_i_glide_gridfile>  (239) 
pfpi4k_grid

>  <i_i_glide_lignum>  (239) 
13

>  <i_i_glide_rotatable_bonds>  (239) 
4

>  <r_i_docking_score>  (239) 
-3.48226

>  <r_i_glide_ligand_efficiency>  (239) 
-0.151403

>  <r_i_glide_ligand_efficiency_sa>  (239) 
-0.430569

>  <r_i_glide_ligand_efficiency_ln>  (239) 
-0.842042

>  <r_i_glide_gscore>  (239) 
-3.48226

>  <r_i_glide_lipo>  (239) 
-0.0713307

>  <r_i_glide_hbond>  (239) 
-0.362569

>  <r_i_glide_metal>  (239) 
-0

>  <r_i_glide_rewards>  (239) 
-1.26544

>  <r_i_glide_evdw>  (239) 
-24.3781

>  <r_i_glide_ecoul>  (239) 
-8.31097

>  <r_i_glide_erotb>  (239) 
0.752175

>  <r_i_glide_esite>  (239) 
-0.0695472

>  <r_i_glide_emodel>  (239) 
-40.6411

>  <r_i_glide_energy>  (239) 
-32.689

>  <r_i_glide_einternal>  (239) 
3.84675

>  <r_i_glide_intrahb_reward>  (239) 
-0

>  <i_i_glide_confnum>  (239) 
6

>  <i_i_glide_posenum>  (239) 
4

>  <r_i_glide_eff_state_penalty>  (239) 
0

>  <ligand_id>  (239) 
67

>  <original_smiles>  (239) 
O=C(C1CCCO1)N1CCN(Cc2cc3ccccc3[nH]2)CC1

>  <smiles>  (239) 
[H]c1c([H])c([H])c2c(c1[H])c([H])c(C([H])([H])[N+]1([H])C([H])([H])C([H])([H])N(C(=O)C3([H])OC([H])([H])C([H])([H])C3([H])[H])C([H])([H])C1([H])[H])n2[H]

$$$$
67:1:0
     RDKit          3D

 46 49  0  0  1  0  0  0  0  0999 V2000
   -1.7340    3.0799    4.1103 O   0  0  0  0  0  0  0  0  0  0  0  0
   -1.0197    2.3969    4.8470 C   0  0  0  0  0  0  0  0  0  0  0  0
   -1.0466    2.7109    6.3544 C   0  0  2  0  0  0  0  0  0  0  0  0
   -2.1333    1.9335    7.1167 C   0  0  0  0  0  0  0  0  0  0  0  0
   -2.6155    2.9069    8.1936 C   0  0  0  0  0  0  0  0  0  0  0  0
   -1.7646    4.1495    7.9558 C   0  0  0  0  0  0  0  0  0  0  0  0
   -1.4231    4.0610    6.5844 O   0  0  0  0  0  0  0  0  0  0  0  0
   -0.2229    1.4189    4.3818 N   0  0  0  0  0  0  0  0  0  0  0  0
    0.5586    0.4628    5.1944 C   0  0  0  0  0  0  0  0  0  0  0  0
    2.0222    0.4485    4.7202 C   0  0  0  0  0  0  0  0  0  0  0  0
    2.0932    0.0313    3.3218 N   0  0  0  0  0  0  0  0  0  0  0  0
    3.4825   -0.0552    2.8979 C   0  0  0  0  0  0  0  0  0  0  0  0
    3.6740   -0.8342    1.6391 C   0  0  0  0  0  0  0  0  0  0  0  0
    3.4159   -2.1533    1.3842 C   0  0  0  0  0  0  0  0  0  0  0  0
    3.7751   -2.3882    0.0093 C   0  0  0  0  0  0  0  0  0  0  0  0
    3.7528   -3.5042   -0.8658 C   0  0  0  0  0  0  0  0  0  0  0  0
    4.1861   -3.4014   -2.2062 C   0  0  0  0  0  0  0  0  0  0  0  0
    4.6444   -2.1686   -2.7203 C   0  0  0  0  0  0  0  0  0  0  0  0
    4.6765   -1.0516   -1.8714 C   0  0  0  0  0  0  0  0  0  0  0  0
    4.2564   -1.1627   -0.5369 C   0  0  0  0  0  0  0  0  0  0  0  0
    4.1979   -0.2549    0.4963 N   0  0  0  0  0  0  0  0  0  0  0  0
    1.3586    1.0087    2.5026 C   0  0  0  0  0  0  0  0  0  0  0  0
   -0.1200    1.0889    2.9419 C   0  0  0  0  0  0  0  0  0  0  0  0
    4.4412    0.7198    0.4216 H   0  0  0  0  0  0  0  0  0  0  0  0
   -0.0811    2.6387    6.8405 H   0  0  0  0  0  0  0  0  0  0  0  0
   -2.9774    1.6649    6.4815 H   0  0  0  0  0  0  0  0  0  0  0  0
   -1.7478    1.0095    7.5483 H   0  0  0  0  0  0  0  0  0  0  0  0
   -3.6740    3.1363    8.0512 H   0  0  0  0  0  0  0  0  0  0  0  0
   -2.4865    2.5127    9.2034 H   0  0  0  0  0  0  0  0  0  0  0  0
   -2.3025    5.0729    8.1631 H   0  0  0  0  0  0  0  0  0  0  0  0
   -0.8641    4.1287    8.5739 H   0  0  0  0  0  0  0  0  0  0  0  0
    0.5912    0.6553    6.2610 H   0  0  0  0  0  0  0  0  0  0  0  0
    0.1205   -0.5315    5.0978 H   0  0  0  0  0  0  0  0  0  0  0  0
    2.4937    1.4260    4.8562 H   0  0  0  0  0  0  0  0  0  0  0  0
    2.5832   -0.2624    5.3318 H   0  0  0  0  0  0  0  0  0  0  0  0
    3.8832    0.9546    2.7825 H   0  0  0  0  0  0  0  0  0  0  0  0
    4.0784   -0.5256    3.6805 H   0  0  0  0  0  0  0  0  0  0  0  0
    3.0117   -2.8834    2.0712 H   0  0  0  0  0  0  0  0  0  0  0  0
    3.3934   -4.4512   -0.4991 H   0  0  0  0  0  0  0  0  0  0  0  0
    4.1548   -4.2551   -2.8525 H   0  0  0  0  0  0  0  0  0  0  0  0
    4.9596   -2.1010   -3.7417 H   0  0  0  0  0  0  0  0  0  0  0  0
    5.0084   -0.0961   -2.2533 H   0  0  0  0  0  0  0  0  0  0  0  0
    1.8208    1.9971    2.5928 H   0  0  0  0  0  0  0  0  0  0  0  0
    1.4156    0.7276    1.4465 H   0  0  0  0  0  0  0  0  0  0  0  0
   -0.6104    0.1372    2.7470 H   0  0  0  0  0  0  0  0  0  0  0  0
   -0.6172    1.8207    2.2981 H   0  0  0  0  0  0  0  0  0  0  0  0
  1  2  2  0
  2  3  1  0
  2  8  1  0
  3  7  1  0
  3  4  1  0
  3 25  1  1
  4  5  1  0
  4 26  1  0
  4 27  1  0
  5  6  1  0
  5 28  1  0
  5 29  1  0
  6  7  1  0
  6 30  1  0
  6 31  1  0
  8 23  1  0
  8  9  1  0
  9 10  1  0
  9 32  1  0
  9 33  1  0
 10 11  1  0
 10 34  1  0
 10 35  1  0
 11 12  1  0
 11 22  1  0
 12 13  1  0
 12 36  1  0
 12 37  1  0
 13 21  1  0
 13 14  2  0
 14 15  1  0
 14 38  1  0
 15 20  2  0
 15 16  1  0
 16 17  2  0
 16 39  1  0
 17 18  1  0
 17 40  1  0
 18 19  2  0
 18 41  1  0
 19 20  1  0
 19 42  1  0
 20 21  1  0
 21 24  1  0
 22 23  1  0
 22 43  1  0
 22 44  1  0
 23 45  1  0
 23 46  1  0
M  END
>  <i_m_ct_stereo_status>  (240) 
1

>  <s_m_source_file>  (240) 
/var/tmp/pbs.5076255.sched01/tmptyawoosb/846vw0lfia.sdf

>  <i_m_source_file_index>  (240) 
14

>  <i_lp_mmshare_version>  (240) 
48012

>  <i_f3d_flags>  (240) 
0

>  <s_epik_input>  (240) 
TzFbQ0gyXVtDSDJdW0NIMl1bQ0BIXTFDKD1PKU4yW0NIMl1bQ0gyXU4oW0NIMl1bQ0gyXTIpW0NIMl1jKFtjSF0zKVtuSF1jKGMzNClbY0hdW2NIXVtjSF1bY0hdNA==

>  <s_epik_cmdline>  (240) 
J2VwaWtfcHl0aG9uJywgJy1waHQnLCAnMi4wJywgJy1waCcsICc3LjAnLCAnLXRuJywgJzgnLCAnLW1hJywgJzIwMCcsICctaW1hZScsICc8aW5maWxlLm1hZT4nLCAnLW9tYWUnLCAnPG91dGZpbGUubWFlPic=

>  <r_epik_Ionization_Penalty>  (240) 
0.852902

>  <r_epik_Ionization_Penalty_Charging>  (240) 
0

>  <r_epik_Ionization_Penalty_Neutral>  (240) 
0.852902

>  <r_epik_State_Penalty>  (240) 
0.888674

>  <r_epik_Charging_Adjusted_Penalty>  (240) 
0.888674

>  <i_epik_Tot_Q>  (240) 
0

>  <i_epik_Tot_abs_Q>  (240) 
0

>  <s_lp_Force_Field>  (240) 
OPLS3e

>  <r_lp_Energy>  (240) 
44.348

>  <b_lp_Chiralities_Consistent>  (240) 
1

>  <s_lp_Variant>  (240) 
67:0-2

>  <s_i_glide_gridfile>  (240) 
pfpi4k_grid

>  <i_i_glide_lignum>  (240) 
14

>  <i_i_glide_rotatable_bonds>  (240) 
4

>  <r_i_docking_score>  (240) 
-2.44243

>  <r_i_glide_ligand_efficiency>  (240) 
-0.106193

>  <r_i_glide_ligand_efficiency_sa>  (240) 
-0.301998

>  <r_i_glide_ligand_efficiency_ln>  (240) 
-0.590601

>  <r_i_glide_gscore>  (240) 
-2.44243

>  <r_i_glide_lipo>  (240) 
-0.217432

>  <r_i_glide_hbond>  (240) 
-0.100933

>  <r_i_glide_metal>  (240) 
-0

>  <r_i_glide_rewards>  (240) 
-1.27231

>  <r_i_glide_evdw>  (240) 
-28.3602

>  <r_i_glide_ecoul>  (240) 
-1.08441

>  <r_i_glide_erotb>  (240) 
0.756434

>  <r_i_glide_esite>  (240) 
-0.0275113

>  <r_i_glide_emodel>  (240) 
-33.3415

>  <r_i_glide_energy>  (240) 
-29.4446

>  <r_i_glide_einternal>  (240) 
1.9132

>  <r_i_glide_intrahb_reward>  (240) 
-0

>  <i_i_glide_confnum>  (240) 
1

>  <i_i_glide_posenum>  (240) 
3

>  <r_i_glide_eff_state_penalty>  (240) 
0

>  <ligand_id>  (240) 
67

>  <original_smiles>  (240) 
O=C(C1CCCO1)N1CCN(Cc2cc3ccccc3[nH]2)CC1

>  <smiles>  (240) 
[H]c1c([H])c([H])c2c(c1[H])c([H])c(C([H])([H])N1C([H])([H])C([H])([H])N(C(=O)C3([H])OC([H])([H])C([H])([H])C3([H])[H])C([H])([H])C1([H])[H])n2[H]

$$$$
67:1:1
     RDKit          3D

 46 49  0  0  1  0  0  0  0  0999 V2000
    4.7003   -2.2653    1.0093 O   0  0  0  0  0  0  0  0  0  0  0  0
    4.7354   -3.2804    0.3119 C   0  0  0  0  0  0  0  0  0  0  0  0
    4.2976   -3.1826   -1.1652 C   0  0  2  0  0  0  0  0  0  0  0  0
    4.4415   -1.7929   -1.8065 C   0  0  0  0  0  0  0  0  0  0  0  0
    3.2488   -1.7088   -2.7537 C   0  0  0  0  0  0  0  0  0  0  0  0
    2.5070   -3.0342   -2.5595 C   0  0  0  0  0  0  0  0  0  0  0  0
    2.9107   -3.4536   -1.2706 O   0  0  0  0  0  0  0  0  0  0  0  0
    5.1945   -4.4606    0.7998 N   0  0  0  0  0  0  0  0  0  0  0  0
    5.1773   -5.7403    0.0792 C   0  0  0  0  0  0  0  0  0  0  0  0
    4.5254   -6.8387    0.9338 C   0  0  0  0  0  0  0  0  0  0  0  0
    5.1937   -6.9579    2.2341 N   0  0  0  0  0  0  0  0  0  0  0  0
    4.5873   -8.0264    3.0373 C   0  0  0  0  0  0  0  0  0  0  0  0
    3.1028   -7.8751    3.2492 C   0  0  0  0  0  0  0  0  0  0  0  0
    2.3911   -6.9137    3.9260 C   0  0  0  0  0  0  0  0  0  0  0  0
    1.0031   -7.2053    3.7357 C   0  0  0  0  0  0  0  0  0  0  0  0
   -0.1958   -6.5781    4.1354 C   0  0  0  0  0  0  0  0  0  0  0  0
   -1.4423   -7.1387    3.8188 C   0  0  0  0  0  0  0  0  0  0  0  0
   -1.5166   -8.3337    3.0757 C   0  0  0  0  0  0  0  0  0  0  0  0
   -0.3388   -8.9645    2.6370 C   0  0  0  0  0  0  0  0  0  0  0  0
    0.9004   -8.3989    2.9716 C   0  0  0  0  0  0  0  0  0  0  0  0
    2.2020   -8.7710    2.6937 N   0  0  0  0  0  0  0  0  0  0  0  0
    5.1705   -5.6736    2.9381 C   0  0  0  0  0  0  0  0  0  0  0  0
    5.8503   -4.5735    2.1120 C   0  0  0  0  0  0  0  0  0  0  0  0
    2.4831   -9.5739    2.1526 H   0  0  0  0  0  0  0  0  0  0  0  0
    4.8493   -3.8793   -1.7930 H   0  0  0  0  0  0  0  0  0  0  0  0
    4.3942   -0.9698   -1.0884 H   0  0  0  0  0  0  0  0  0  0  0  0
    5.3877   -1.7190   -2.3411 H   0  0  0  0  0  0  0  0  0  0  0  0
    2.6108   -0.8750   -2.4567 H   0  0  0  0  0  0  0  0  0  0  0  0
    3.5429   -1.5585   -3.7937 H   0  0  0  0  0  0  0  0  0  0  0  0
    1.4237   -2.9224   -2.6280 H   0  0  0  0  0  0  0  0  0  0  0  0
    2.8216   -3.7718   -3.2994 H   0  0  0  0  0  0  0  0  0  0  0  0
    4.6213   -5.7177   -0.8574 H   0  0  0  0  0  0  0  0  0  0  0  0
    6.2069   -6.0024   -0.1549 H   0  0  0  0  0  0  0  0  0  0  0  0
    3.4678   -6.5874    1.0619 H   0  0  0  0  0  0  0  0  0  0  0  0
    4.5643   -7.7943    0.4048 H   0  0  0  0  0  0  0  0  0  0  0  0
    4.7834   -8.9763    2.5399 H   0  0  0  0  0  0  0  0  0  0  0  0
    5.0981   -8.0786    3.9988 H   0  0  0  0  0  0  0  0  0  0  0  0
    2.7864   -6.0684    4.4727 H   0  0  0  0  0  0  0  0  0  0  0  0
   -0.1303   -5.6657    4.7054 H   0  0  0  0  0  0  0  0  0  0  0  0
   -2.3467   -6.6587    4.1738 H   0  0  0  0  0  0  0  0  0  0  0  0
   -2.4775   -8.7793    2.8563 H   0  0  0  0  0  0  0  0  0  0  0  0
   -0.3806   -9.8804    2.0713 H   0  0  0  0  0  0  0  0  0  0  0  0
    4.1457   -5.3387    3.1120 H   0  0  0  0  0  0  0  0  0  0  0  0
    5.6683   -5.7831    3.9056 H   0  0  0  0  0  0  0  0  0  0  0  0
    6.9161   -4.7673    1.9837 H   0  0  0  0  0  0  0  0  0  0  0  0
    5.7689   -3.6589    2.7010 H   0  0  0  0  0  0  0  0  0  0  0  0
  1  2  2  0
  2  3  1  0
  2  8  1  0
  3  7  1  0
  3  4  1  0
  3 25  1  6
  4  5  1  0
  4 26  1  0
  4 27  1  0
  5  6  1  0
  5 28  1  0
  5 29  1  0
  6  7  1  0
  6 30  1  0
  6 31  1  0
  8 23  1  0
  8  9  1  0
  9 10  1  0
  9 32  1  0
  9 33  1  0
 10 11  1  0
 10 34  1  0
 10 35  1  0
 11 12  1  0
 11 22  1  0
 12 13  1  0
 12 36  1  0
 12 37  1  0
 13 21  1  0
 13 14  2  0
 14 15  1  0
 14 38  1  0
 15 20  2  0
 15 16  1  0
 16 17  2  0
 16 39  1  0
 17 18  1  0
 17 40  1  0
 18 19  2  0
 18 41  1  0
 19 20  1  0
 19 42  1  0
 20 21  1  0
 21 24  1  0
 22 23  1  0
 22 43  1  0
 22 44  1  0
 23 45  1  0
 23 46  1  0
M  END
>  <i_m_ct_stereo_status>  (241) 
1

>  <s_m_source_file>  (241) 
/var/tmp/pbs.5076255.sched01/tmptyawoosb/846vw0lfia.sdf

>  <i_m_source_file_index>  (241) 
14

>  <i_lp_mmshare_version>  (241) 
48012

>  <i_f3d_flags>  (241) 
0

>  <s_epik_input>  (241) 
TzFbQ0gyXVtDSDJdW0NIMl1bQ0BIXTFDKD1PKU4yW0NIMl1bQ0gyXU4oW0NIMl1bQ0gyXTIpW0NIMl1jKFtjSF0zKVtuSF1jKGMzNClbY0hdW2NIXVtjSF1bY0hdNA==

>  <s_epik_cmdline>  (241) 
J2VwaWtfcHl0aG9uJywgJy1waHQnLCAnMi4wJywgJy1waCcsICc3LjAnLCAnLXRuJywgJzgnLCAnLW1hJywgJzIwMCcsICctaW1hZScsICc8aW5maWxlLm1hZT4nLCAnLW9tYWUnLCAnPG91dGZpbGUubWFlPic=

>  <r_epik_Ionization_Penalty>  (241) 
0.852902

>  <r_epik_Ionization_Penalty_Charging>  (241) 
0

>  <r_epik_Ionization_Penalty_Neutral>  (241) 
0.852902

>  <r_epik_State_Penalty>  (241) 
0.888674

>  <r_epik_Charging_Adjusted_Penalty>  (241) 
0.888674

>  <i_epik_Tot_Q>  (241) 
0

>  <i_epik_Tot_abs_Q>  (241) 
0

>  <s_lp_Force_Field>  (241) 
OPLS3e

>  <r_lp_Energy>  (241) 
44.348

>  <b_lp_Chiralities_Consistent>  (241) 
1

>  <s_lp_Variant>  (241) 
67:0-2

>  <s_i_glide_gridfile>  (241) 
pfpi4k_grid

>  <i_i_glide_lignum>  (241) 
14

>  <i_i_glide_rotatable_bonds>  (241) 
4

>  <r_i_docking_score>  (241) 
-2.34795

>  <r_i_glide_ligand_efficiency>  (241) 
-0.102085

>  <r_i_glide_ligand_efficiency_sa>  (241) 
-0.290315

>  <r_i_glide_ligand_efficiency_ln>  (241) 
-0.567755

>  <r_i_glide_gscore>  (241) 
-2.34795

>  <r_i_glide_lipo>  (241) 
-0.235846

>  <r_i_glide_hbond>  (241) 
0

>  <r_i_glide_metal>  (241) 
-0

>  <r_i_glide_rewards>  (241) 
-1.38066

>  <r_i_glide_evdw>  (241) 
-28.5759

>  <r_i_glide_ecoul>  (241) 
-0.376353

>  <r_i_glide_erotb>  (241) 
0.756434

>  <r_i_glide_esite>  (241) 
-0.0026265

>  <r_i_glide_emodel>  (241) 
-30.7005

>  <r_i_glide_energy>  (241) 
-28.9523

>  <r_i_glide_einternal>  (241) 
5.37241

>  <r_i_glide_intrahb_reward>  (241) 
-0

>  <i_i_glide_confnum>  (241) 
5

>  <i_i_glide_posenum>  (241) 
40

>  <r_i_glide_eff_state_penalty>  (241) 
0

>  <ligand_id>  (241) 
67

>  <original_smiles>  (241) 
O=C(C1CCCO1)N1CCN(Cc2cc3ccccc3[nH]2)CC1

>  <smiles>  (241) 
[H]c1c([H])c([H])c2c(c1[H])c([H])c(C([H])([H])N1C([H])([H])C([H])([H])N(C(=O)C3([H])OC([H])([H])C([H])([H])C3([H])[H])C([H])([H])C1([H])[H])n2[H]

$$$$
67:1:2
     RDKit          3D

 46 49  0  0  1  0  0  0  0  0999 V2000
   -1.4267    3.1917    3.8027 O   0  0  0  0  0  0  0  0  0  0  0  0
   -1.2317    2.1454    4.4224 C   0  0  0  0  0  0  0  0  0  0  0  0
   -1.7876    2.0163    5.8569 C   0  0  2  0  0  0  0  0  0  0  0  0
   -2.5877    3.2193    6.3700 C   0  0  0  0  0  0  0  0  0  0  0  0
   -2.2473    3.3068    7.8517 C   0  0  0  0  0  0  0  0  0  0  0  0
   -1.2782    2.1499    8.0764 C   0  0  0  0  0  0  0  0  0  0  0  0
   -0.7233    1.9179    6.7925 O   0  0  0  0  0  0  0  0  0  0  0  0
   -0.5815    1.0917    3.8738 N   0  0  0  0  0  0  0  0  0  0  0  0
   -0.3405   -0.2028    4.5288 C   0  0  0  0  0  0  0  0  0  0  0  0
    1.1519   -0.5758    4.4479 C   0  0  0  0  0  0  0  0  0  0  0  0
    1.5887   -0.6286    3.0518 N   0  0  0  0  0  0  0  0  0  0  0  0
    2.9966   -1.0193    2.9895 C   0  0  0  0  0  0  0  0  0  0  0  0
    3.4658   -1.3493    1.6050 C   0  0  0  0  0  0  0  0  0  0  0  0
    3.8467   -0.5261    0.5754 C   0  0  0  0  0  0  0  0  0  0  0  0
    4.1898   -1.3677   -0.5360 C   0  0  0  0  0  0  0  0  0  0  0  0
    4.6215   -1.1426   -1.8637 C   0  0  0  0  0  0  0  0  0  0  0  0
    4.8938   -2.2180   -2.7319 C   0  0  0  0  0  0  0  0  0  0  0  0
    4.7408   -3.5443   -2.2929 C   0  0  0  0  0  0  0  0  0  0  0  0
    4.3008   -3.7961   -0.9834 C   0  0  0  0  0  0  0  0  0  0  0  0
    4.0283   -2.7191   -0.1251 C   0  0  0  0  0  0  0  0  0  0  0  0
    3.5871   -2.6620    1.1816 N   0  0  0  0  0  0  0  0  0  0  0  0
    1.3964    0.6986    2.4537 C   0  0  0  0  0  0  0  0  0  0  0  0
   -0.0823    1.1124    2.4927 C   0  0  0  0  0  0  0  0  0  0  0  0
    3.3647   -3.4514    1.7676 H   0  0  0  0  0  0  0  0  0  0  0  0
   -2.4150    1.1273    5.9376 H   0  0  0  0  0  0  0  0  0  0  0  0
   -2.2815    4.1456    5.8852 H   0  0  0  0  0  0  0  0  0  0  0  0
   -3.6551    3.0911    6.1944 H   0  0  0  0  0  0  0  0  0  0  0  0
   -1.7571    4.2582    8.0673 H   0  0  0  0  0  0  0  0  0  0  0  0
   -3.1293    3.2326    8.4917 H   0  0  0  0  0  0  0  0  0  0  0  0
   -0.5097    2.3834    8.8107 H   0  0  0  0  0  0  0  0  0  0  0  0
   -1.8134    1.2623    8.4113 H   0  0  0  0  0  0  0  0  0  0  0  0
   -0.6109   -0.2302    5.5821 H   0  0  0  0  0  0  0  0  0  0  0  0
   -0.9509   -0.9662    4.0474 H   0  0  0  0  0  0  0  0  0  0  0  0
    1.7556    0.1413    5.0112 H   0  0  0  0  0  0  0  0  0  0  0  0
    1.3010   -1.5529    4.9132 H   0  0  0  0  0  0  0  0  0  0  0  0
    3.6220   -0.2329    3.4164 H   0  0  0  0  0  0  0  0  0  0  0  0
    3.1390   -1.8985    3.6187 H   0  0  0  0  0  0  0  0  0  0  0  0
    3.8619    0.5555    0.5808 H   0  0  0  0  0  0  0  0  0  0  0  0
    4.7273   -0.1260   -2.2082 H   0  0  0  0  0  0  0  0  0  0  0  0
    5.2116   -2.0236   -3.7434 H   0  0  0  0  0  0  0  0  0  0  0  0
    4.9438   -4.3674   -2.9603 H   0  0  0  0  0  0  0  0  0  0  0  0
    4.1597   -4.8103   -0.6506 H   0  0  0  0  0  0  0  0  0  0  0  0
    2.0118    1.4383    2.9735 H   0  0  0  0  0  0  0  0  0  0  0  0
    1.7010    0.6931    1.4073 H   0  0  0  0  0  0  0  0  0  0  0  0
   -0.6744    0.4360    1.8771 H   0  0  0  0  0  0  0  0  0  0  0  0
   -0.1609    2.0925    2.0187 H   0  0  0  0  0  0  0  0  0  0  0  0
  1  2  2  0
  2  3  1  0
  2  8  1  0
  3  7  1  0
  3  4  1  0
  3 25  1  6
  4  5  1  0
  4 26  1  0
  4 27  1  0
  5  6  1  0
  5 28  1  0
  5 29  1  0
  6  7  1  0
  6 30  1  0
  6 31  1  0
  8 23  1  0
  8  9  1  0
  9 10  1  0
  9 32  1  0
  9 33  1  0
 10 11  1  0
 10 34  1  0
 10 35  1  0
 11 12  1  0
 11 22  1  0
 12 13  1  0
 12 36  1  0
 12 37  1  0
 13 21  1  0
 13 14  2  0
 14 15  1  0
 14 38  1  0
 15 20  2  0
 15 16  1  0
 16 17  2  0
 16 39  1  0
 17 18  1  0
 17 40  1  0
 18 19  2  0
 18 41  1  0
 19 20  1  0
 19 42  1  0
 20 21  1  0
 21 24  1  0
 22 23  1  0
 22 43  1  0
 22 44  1  0
 23 45  1  0
 23 46  1  0
M  END
>  <i_m_ct_stereo_status>  (242) 
1

>  <s_m_source_file>  (242) 
/var/tmp/pbs.5076255.sched01/tmptyawoosb/846vw0lfia.sdf

>  <i_m_source_file_index>  (242) 
14

>  <i_lp_mmshare_version>  (242) 
48012

>  <i_f3d_flags>  (242) 
0

>  <s_epik_input>  (242) 
TzFbQ0gyXVtDSDJdW0NIMl1bQ0BIXTFDKD1PKU4yW0NIMl1bQ0gyXU4oW0NIMl1bQ0gyXTIpW0NIMl1jKFtjSF0zKVtuSF1jKGMzNClbY0hdW2NIXVtjSF1bY0hdNA==

>  <s_epik_cmdline>  (242) 
J2VwaWtfcHl0aG9uJywgJy1waHQnLCAnMi4wJywgJy1waCcsICc3LjAnLCAnLXRuJywgJzgnLCAnLW1hJywgJzIwMCcsICctaW1hZScsICc8aW5maWxlLm1hZT4nLCAnLW9tYWUnLCAnPG91dGZpbGUubWFlPic=

>  <r_epik_Ionization_Penalty>  (242) 
0.852902

>  <r_epik_Ionization_Penalty_Charging>  (242) 
0

>  <r_epik_Ionization_Penalty_Neutral>  (242) 
0.852902

>  <r_epik_State_Penalty>  (242) 
0.888674

>  <r_epik_Charging_Adjusted_Penalty>  (242) 
0.888674

>  <i_epik_Tot_Q>  (242) 
0

>  <i_epik_Tot_abs_Q>  (242) 
0

>  <s_lp_Force_Field>  (242) 
OPLS3e

>  <r_lp_Energy>  (242) 
44.348

>  <b_lp_Chiralities_Consistent>  (242) 
1

>  <s_lp_Variant>  (242) 
67:0-2

>  <s_i_glide_gridfile>  (242) 
pfpi4k_grid

>  <i_i_glide_lignum>  (242) 
14

>  <i_i_glide_rotatable_bonds>  (242) 
4

>  <r_i_docking_score>  (242) 
-2.17788

>  <r_i_glide_ligand_efficiency>  (242) 
-0.0946905

>  <r_i_glide_ligand_efficiency_sa>  (242) 
-0.269287

>  <r_i_glide_ligand_efficiency_ln>  (242) 
-0.526631

>  <r_i_glide_gscore>  (242) 
-2.17788

>  <r_i_glide_lipo>  (242) 
-0.320201

>  <r_i_glide_hbond>  (242) 
0

>  <r_i_glide_metal>  (242) 
-0

>  <r_i_glide_rewards>  (242) 
-1.27231

>  <r_i_glide_evdw>  (242) 
-29.7096

>  <r_i_glide_ecoul>  (242) 
1.30907

>  <r_i_glide_erotb>  (242) 
0.756434

>  <r_i_glide_esite>  (242) 
-0.0526817

>  <r_i_glide_emodel>  (242) 
-32.5834

>  <r_i_glide_energy>  (242) 
-28.4005

>  <r_i_glide_einternal>  (242) 
0.393444

>  <r_i_glide_intrahb_reward>  (242) 
-0

>  <i_i_glide_confnum>  (242) 
3

>  <i_i_glide_posenum>  (242) 
12

>  <r_i_glide_eff_state_penalty>  (242) 
0

>  <ligand_id>  (242) 
67

>  <original_smiles>  (242) 
O=C(C1CCCO1)N1CCN(Cc2cc3ccccc3[nH]2)CC1

>  <smiles>  (242) 
[H]c1c([H])c([H])c2c(c1[H])c([H])c(C([H])([H])N1C([H])([H])C([H])([H])N(C(=O)C3([H])OC([H])([H])C([H])([H])C3([H])[H])C([H])([H])C1([H])[H])n2[H]

$$$$
68:0:0
     RDKit          3D

 23 25  0  0  1  0  0  0  0  0999 V2000
   -4.3686   -8.6126   -5.1095 C   0  0  0  0  0  0  0  0  0  0  0  0
   -5.5300   -8.1087   -5.8117 N   0  0  0  0  0  0  0  0  0  0  0  0
   -6.0156   -8.8839   -6.8429 N   0  0  0  0  0  0  0  0  0  0  0  0
   -7.0577   -8.2161   -7.2941 C   0  0  0  0  0  0  0  0  0  0  0  0
   -7.2412   -7.0137   -6.5788 C   0  0  0  0  0  0  0  0  0  0  0  0
   -8.1476   -5.8519   -6.5594 C   0  0  0  0  0  0  0  0  0  0  0  0
   -9.2108   -5.7811   -7.4916 C   0  0  0  0  0  0  0  0  0  0  0  0
  -10.1220   -4.7132   -7.5090 C   0  0  0  0  0  0  0  0  0  0  0  0
   -9.9384   -3.6987   -6.5644 C   0  0  0  0  0  0  0  0  0  0  0  0
   -8.9359   -3.7256   -5.6741 N   0  0  0  0  0  0  0  0  0  0  0  0
   -8.0513   -4.7490   -5.6414 C   0  0  0  0  0  0  0  0  0  0  0  0
   -7.0058   -4.7715   -4.7021 C   0  0  0  0  0  0  0  0  0  0  0  0
   -6.1088   -5.8486   -4.6718 C   0  0  0  0  0  0  0  0  0  0  0  0
   -6.2404   -6.9249   -5.5869 C   0  0  0  0  0  0  0  0  0  0  0  0
   -4.0598   -7.9228   -4.3217 H   0  0  0  0  0  0  0  0  0  0  0  0
   -3.5472   -8.7387   -5.8119 H   0  0  0  0  0  0  0  0  0  0  0  0
   -4.5982   -9.5850   -4.6697 H   0  0  0  0  0  0  0  0  0  0  0  0
   -7.6972   -8.5241   -8.1049 H   0  0  0  0  0  0  0  0  0  0  0  0
   -9.3534   -6.5876   -8.1974 H   0  0  0  0  0  0  0  0  0  0  0  0
  -10.9488   -4.7031   -8.2070 H   0  0  0  0  0  0  0  0  0  0  0  0
  -10.5993   -2.8459   -6.5313 H   0  0  0  0  0  0  0  0  0  0  0  0
   -6.8987   -3.9588   -3.9945 H   0  0  0  0  0  0  0  0  0  0  0  0
   -5.3179   -5.8632   -3.9415 H   0  0  0  0  0  0  0  0  0  0  0  0
  1  2  1  0
  1 15  1  0
  1 16  1  0
  1 17  1  0
  2 14  1  0
  2  3  1  0
  3  4  2  0
  4  5  1  0
  4 18  1  0
  5 14  2  0
  5  6  1  0
  6 11  2  0
  6  7  1  0
  7  8  2  0
  7 19  1  0
  8  9  1  0
  8 20  1  0
  9 10  2  0
  9 21  1  0
 10 11  1  0
 11 12  1  0
 12 13  2  0
 12 22  1  0
 13 14  1  0
 13 23  1  0
M  END
>  <i_m_ct_stereo_status>  (243) 
1

>  <s_m_source_file>  (243) 
/var/tmp/pbs.5076255.sched01/tmptyawoosb/846vw0lfia.sdf

>  <i_m_source_file_index>  (243) 
15

>  <i_lp_mmshare_version>  (243) 
48012

>  <i_f3d_flags>  (243) 
0

>  <s_epik_input>  (243) 
W2NIXTFubihbQ0gzXSljMltjSF1bY0hdYyhjM2MxMiluW2NIXVtjSF1bY0hdMw==

>  <s_epik_cmdline>  (243) 
J2VwaWtfcHl0aG9uJywgJy1waHQnLCAnMi4wJywgJy1waCcsICc3LjAnLCAnLXRuJywgJzgnLCAnLW1hJywgJzIwMCcsICctaW1hZScsICc8aW5maWxlLm1hZT4nLCAnLW9tYWUnLCAnPG91dGZpbGUubWFlPic=

>  <r_lp_tautomer_probability>  (243) 
1

>  <r_epik_Ionization_Penalty>  (243) 
2.29804e-05

>  <r_epik_Ionization_Penalty_Charging>  (243) 
0

>  <r_epik_Ionization_Penalty_Neutral>  (243) 
2.29804e-05

>  <r_epik_State_Penalty>  (243) 
-0

>  <r_epik_Charging_Adjusted_Penalty>  (243) 
0

>  <i_epik_Tot_Q>  (243) 
0

>  <i_epik_Tot_abs_Q>  (243) 
0

>  <s_lp_Force_Field>  (243) 
OPLS3e

>  <r_lp_Energy>  (243) 
20.8583

>  <b_lp_Chiralities_Consistent>  (243) 
1

>  <s_lp_Variant>  (243) 
68:0-1

>  <s_i_glide_gridfile>  (243) 
pfpi4k_grid

>  <i_i_glide_lignum>  (243) 
15

>  <i_i_glide_rotatable_bonds>  (243) 
0

>  <r_i_docking_score>  (243) 
-6.86052

>  <r_i_glide_ligand_efficiency>  (243) 
-0.490037

>  <r_i_glide_ligand_efficiency_sa>  (243) 
-1.18106

>  <r_i_glide_ligand_efficiency_ln>  (243) 
-1.88525

>  <r_i_glide_gscore>  (243) 
-6.86052

>  <r_i_glide_lipo>  (243) 
-2.37876

>  <r_i_glide_hbond>  (243) 
0

>  <r_i_glide_metal>  (243) 
-0

>  <r_i_glide_rewards>  (243) 
-3.04633

>  <r_i_glide_evdw>  (243) 
-27.9724

>  <r_i_glide_ecoul>  (243) 
-0.245355

>  <r_i_glide_erotb>  (243) 
0

>  <r_i_glide_esite>  (243) 
0

>  <r_i_glide_emodel>  (243) 
-39.6752

>  <r_i_glide_energy>  (243) 
-28.2178

>  <r_i_glide_einternal>  (243) 
0

>  <r_i_glide_intrahb_reward>  (243) 
-0

>  <i_i_glide_confnum>  (243) 
1

>  <i_i_glide_posenum>  (243) 
1

>  <r_i_glide_eff_state_penalty>  (243) 
0

>  <ligand_id>  (243) 
68

>  <original_smiles>  (243) 
Cn1ncc2c3cccnc3ccc21

>  <smiles>  (243) 
[H]c1nc2c([H])c([H])c3c(c([H])nn3C([H])([H])[H])c2c([H])c1[H]

$$$$
68:0:1
     RDKit          3D

 23 25  0  0  1  0  0  0  0  0999 V2000
    2.5103   -1.6692    1.8251 C   0  0  0  0  0  0  0  0  0  0  0  0
    1.7833   -0.5397    2.3665 N   0  0  0  0  0  0  0  0  0  0  0  0
    1.9737    0.6755    1.7452 N   0  0  0  0  0  0  0  0  0  0  0  0
    1.1950    1.5101    2.4020 C   0  0  0  0  0  0  0  0  0  0  0  0
    0.5281    0.8507    3.4643 C   0  0  0  0  0  0  0  0  0  0  0  0
   -0.4163    1.1527    4.5517 C   0  0  0  0  0  0  0  0  0  0  0  0
   -0.8928    2.4787    4.7092 C   0  0  0  0  0  0  0  0  0  0  0  0
   -1.7826    2.8407    5.7289 C   0  0  0  0  0  0  0  0  0  0  0  0
   -2.1902    1.8336    6.6044 C   0  0  0  0  0  0  0  0  0  0  0  0
   -1.7856    0.5546    6.4842 N   0  0  0  0  0  0  0  0  0  0  0  0
   -0.9190    0.1985    5.5060 C   0  0  0  0  0  0  0  0  0  0  0  0
   -0.4700   -1.1301    5.3926 C   0  0  0  0  0  0  0  0  0  0  0  0
    0.4328   -1.4815    4.3789 C   0  0  0  0  0  0  0  0  0  0  0  0
    0.9059   -0.5087    3.4552 C   0  0  0  0  0  0  0  0  0  0  0  0
    2.3026   -2.5774    2.3928 H   0  0  0  0  0  0  0  0  0  0  0  0
    3.5801   -1.4588    1.8597 H   0  0  0  0  0  0  0  0  0  0  0  0
    2.2149   -1.8264    0.7872 H   0  0  0  0  0  0  0  0  0  0  0  0
    1.0727    2.5611    2.1937 H   0  0  0  0  0  0  0  0  0  0  0  0
   -0.5557    3.2454    4.0241 H   0  0  0  0  0  0  0  0  0  0  0  0
   -2.1399    3.8583    5.8319 H   0  0  0  0  0  0  0  0  0  0  0  0
   -2.8896    2.0471    7.4007 H   0  0  0  0  0  0  0  0  0  0  0  0
   -0.8136   -1.8817    6.0907 H   0  0  0  0  0  0  0  0  0  0  0  0
    0.7752   -2.5019    4.2974 H   0  0  0  0  0  0  0  0  0  0  0  0
  1  2  1  0
  1 15  1  0
  1 16  1  0
  1 17  1  0
  2 14  1  0
  2  3  1  0
  3  4  2  0
  4  5  1  0
  4 18  1  0
  5 14  2  0
  5  6  1  0
  6 11  2  0
  6  7  1  0
  7  8  2  0
  7 19  1  0
  8  9  1  0
  8 20  1  0
  9 10  2  0
  9 21  1  0
 10 11  1  0
 11 12  1  0
 12 13  2  0
 12 22  1  0
 13 14  1  0
 13 23  1  0
M  END
>  <i_m_ct_stereo_status>  (244) 
1

>  <s_m_source_file>  (244) 
/var/tmp/pbs.5076255.sched01/tmptyawoosb/846vw0lfia.sdf

>  <i_m_source_file_index>  (244) 
15

>  <i_lp_mmshare_version>  (244) 
48012

>  <i_f3d_flags>  (244) 
0

>  <s_epik_input>  (244) 
W2NIXTFubihbQ0gzXSljMltjSF1bY0hdYyhjM2MxMiluW2NIXVtjSF1bY0hdMw==

>  <s_epik_cmdline>  (244) 
J2VwaWtfcHl0aG9uJywgJy1waHQnLCAnMi4wJywgJy1waCcsICc3LjAnLCAnLXRuJywgJzgnLCAnLW1hJywgJzIwMCcsICctaW1hZScsICc8aW5maWxlLm1hZT4nLCAnLW9tYWUnLCAnPG91dGZpbGUubWFlPic=

>  <r_lp_tautomer_probability>  (244) 
1

>  <r_epik_Ionization_Penalty>  (244) 
2.29804e-05

>  <r_epik_Ionization_Penalty_Charging>  (244) 
0

>  <r_epik_Ionization_Penalty_Neutral>  (244) 
2.29804e-05

>  <r_epik_State_Penalty>  (244) 
-0

>  <r_epik_Charging_Adjusted_Penalty>  (244) 
0

>  <i_epik_Tot_Q>  (244) 
0

>  <i_epik_Tot_abs_Q>  (244) 
0

>  <s_lp_Force_Field>  (244) 
OPLS3e

>  <r_lp_Energy>  (244) 
20.8583

>  <b_lp_Chiralities_Consistent>  (244) 
1

>  <s_lp_Variant>  (244) 
68:0-1

>  <s_i_glide_gridfile>  (244) 
pfpi4k_grid

>  <i_i_glide_lignum>  (244) 
15

>  <i_i_glide_rotatable_bonds>  (244) 
0

>  <r_i_docking_score>  (244) 
-3.66352

>  <r_i_glide_ligand_efficiency>  (244) 
-0.26168

>  <r_i_glide_ligand_efficiency_sa>  (244) 
-0.630687

>  <r_i_glide_ligand_efficiency_ln>  (244) 
-1.00672

>  <r_i_glide_gscore>  (244) 
-3.66352

>  <r_i_glide_lipo>  (244) 
-0.0398842

>  <r_i_glide_hbond>  (244) 
-0.16

>  <r_i_glide_metal>  (244) 
-0

>  <r_i_glide_rewards>  (244) 
-2.15994

>  <r_i_glide_evdw>  (244) 
-15.7147

>  <r_i_glide_ecoul>  (244) 
-3.23307

>  <r_i_glide_erotb>  (244) 
0

>  <r_i_glide_esite>  (244) 
-0.0330076

>  <r_i_glide_emodel>  (244) 
-25.0518

>  <r_i_glide_energy>  (244) 
-18.9478

>  <r_i_glide_einternal>  (244) 
0

>  <r_i_glide_intrahb_reward>  (244) 
-0

>  <i_i_glide_confnum>  (244) 
1

>  <i_i_glide_posenum>  (244) 
2

>  <r_i_glide_eff_state_penalty>  (244) 
0

>  <ligand_id>  (244) 
68

>  <original_smiles>  (244) 
Cn1ncc2c3cccnc3ccc21

>  <smiles>  (244) 
[H]c1nc2c([H])c([H])c3c(c([H])nn3C([H])([H])[H])c2c([H])c1[H]

$$$$
68:0:2
     RDKit          3D

 23 25  0  0  1  0  0  0  0  0999 V2000
    4.3728   -3.4734    3.5993 C   0  0  0  0  0  0  0  0  0  0  0  0
    4.5685   -2.7524    2.3564 N   0  0  0  0  0  0  0  0  0  0  0  0
    5.4503   -1.7007    2.3650 N   0  0  0  0  0  0  0  0  0  0  0  0
    5.4393   -1.2364    1.1331 C   0  0  0  0  0  0  0  0  0  0  0  0
    4.5581   -1.9665    0.3245 C   0  0  0  0  0  0  0  0  0  0  0  0
    4.0928   -1.9773   -1.0666 C   0  0  0  0  0  0  0  0  0  0  0  0
    4.6005   -1.0236   -1.9829 C   0  0  0  0  0  0  0  0  0  0  0  0
    4.1821   -0.9905   -3.3184 C   0  0  0  0  0  0  0  0  0  0  0  0
    3.2368   -1.9374   -3.7139 C   0  0  0  0  0  0  0  0  0  0  0  0
    2.7411   -2.8637   -2.8825 N   0  0  0  0  0  0  0  0  0  0  0  0
    3.1302   -2.9001   -1.5870 C   0  0  0  0  0  0  0  0  0  0  0  0
    2.6001   -3.8573   -0.7076 C   0  0  0  0  0  0  0  0  0  0  0  0
    3.0169   -3.9057    0.6328 C   0  0  0  0  0  0  0  0  0  0  0  0
    3.9608   -2.9812    1.1130 C   0  0  0  0  0  0  0  0  0  0  0  0
    3.6468   -4.2794    3.4684 H   0  0  0  0  0  0  0  0  0  0  0  0
    4.0090   -2.7819    4.3601 H   0  0  0  0  0  0  0  0  0  0  0  0
    5.3250   -3.8958    3.9221 H   0  0  0  0  0  0  0  0  0  0  0  0
    6.0356   -0.4005    0.7949 H   0  0  0  0  0  0  0  0  0  0  0  0
    5.3196   -0.2909   -1.6436 H   0  0  0  0  0  0  0  0  0  0  0  0
    4.5633   -0.2548   -4.0093 H   0  0  0  0  0  0  0  0  0  0  0  0
    2.8779   -1.9556   -4.7230 H   0  0  0  0  0  0  0  0  0  0  0  0
    1.8814   -4.5743   -1.0815 H   0  0  0  0  0  0  0  0  0  0  0  0
    2.6106   -4.6584    1.2883 H   0  0  0  0  0  0  0  0  0  0  0  0
  1  2  1  0
  1 15  1  0
  1 16  1  0
  1 17  1  0
  2 14  1  0
  2  3  1  0
  3  4  2  0
  4  5  1  0
  4 18  1  0
  5 14  2  0
  5  6  1  0
  6 11  2  0
  6  7  1  0
  7  8  2  0
  7 19  1  0
  8  9  1  0
  8 20  1  0
  9 10  2  0
  9 21  1  0
 10 11  1  0
 11 12  1  0
 12 13  2  0
 12 22  1  0
 13 14  1  0
 13 23  1  0
M  END
>  <i_m_ct_stereo_status>  (245) 
1

>  <s_m_source_file>  (245) 
/var/tmp/pbs.5076255.sched01/tmptyawoosb/846vw0lfia.sdf

>  <i_m_source_file_index>  (245) 
15

>  <i_lp_mmshare_version>  (245) 
48012

>  <i_f3d_flags>  (245) 
0

>  <s_epik_input>  (245) 
W2NIXTFubihbQ0gzXSljMltjSF1bY0hdYyhjM2MxMiluW2NIXVtjSF1bY0hdMw==

>  <s_epik_cmdline>  (245) 
J2VwaWtfcHl0aG9uJywgJy1waHQnLCAnMi4wJywgJy1waCcsICc3LjAnLCAnLXRuJywgJzgnLCAnLW1hJywgJzIwMCcsICctaW1hZScsICc8aW5maWxlLm1hZT4nLCAnLW9tYWUnLCAnPG91dGZpbGUubWFlPic=

>  <r_lp_tautomer_probability>  (245) 
1

>  <r_epik_Ionization_Penalty>  (245) 
2.29804e-05

>  <r_epik_Ionization_Penalty_Charging>  (245) 
0

>  <r_epik_Ionization_Penalty_Neutral>  (245) 
2.29804e-05

>  <r_epik_State_Penalty>  (245) 
-0

>  <r_epik_Charging_Adjusted_Penalty>  (245) 
0

>  <i_epik_Tot_Q>  (245) 
0

>  <i_epik_Tot_abs_Q>  (245) 
0

>  <s_lp_Force_Field>  (245) 
OPLS3e

>  <r_lp_Energy>  (245) 
20.8583

>  <b_lp_Chiralities_Consistent>  (245) 
1

>  <s_lp_Variant>  (245) 
68:0-1

>  <s_i_glide_gridfile>  (245) 
pfpi4k_grid

>  <i_i_glide_lignum>  (245) 
15

>  <i_i_glide_rotatable_bonds>  (245) 
0

>  <r_i_docking_score>  (245) 
-3.46034

>  <r_i_glide_ligand_efficiency>  (245) 
-0.247167

>  <r_i_glide_ligand_efficiency_sa>  (245) 
-0.595709

>  <r_i_glide_ligand_efficiency_ln>  (245) 
-0.95089

>  <r_i_glide_gscore>  (245) 
-3.46034

>  <r_i_glide_lipo>  (245) 
-0.48639

>  <r_i_glide_hbond>  (245) 
0

>  <r_i_glide_metal>  (245) 
-0

>  <r_i_glide_rewards>  (245) 
-2.19676

>  <r_i_glide_evdw>  (245) 
-19.6752

>  <r_i_glide_ecoul>  (245) 
1.37709

>  <r_i_glide_erotb>  (245) 
0

>  <r_i_glide_esite>  (245) 
0

>  <r_i_glide_emodel>  (245) 
-24.0691

>  <r_i_glide_energy>  (245) 
-18.2981

>  <r_i_glide_einternal>  (245) 
0

>  <r_i_glide_intrahb_reward>  (245) 
-0

>  <i_i_glide_confnum>  (245) 
1

>  <i_i_glide_posenum>  (245) 
6

>  <r_i_glide_eff_state_penalty>  (245) 
0

>  <ligand_id>  (245) 
68

>  <original_smiles>  (245) 
Cn1ncc2c3cccnc3ccc21

>  <smiles>  (245) 
[H]c1nc2c([H])c([H])c3c(c([H])nn3C([H])([H])[H])c2c([H])c1[H]

$$$$
69:0:0
     RDKit          3D

 38 40  0  0  1  0  0  0  0  0999 V2000
    1.0190   -4.2503    3.9257 C   0  0  0  0  0  0  0  0  0  0  0  0
    1.9550   -4.0792    2.8727 O   0  0  0  0  0  0  0  0  0  0  0  0
    2.6795   -2.8586    2.9768 C   0  0  0  0  0  0  0  0  0  0  0  0
    3.7264   -2.7534    1.8432 C   0  0  2  0  0  0  0  0  0  0  0  0
    3.0519   -2.5451    0.4734 C   0  0  0  0  0  0  0  0  0  0  0  0
    4.0625   -2.5307   -0.6197 N   0  0  2  0  0  0  0  0  0  0  0  0
    3.4982   -2.0299   -1.9039 C   0  0  2  0  0  0  0  0  0  0  0  0
    2.4611   -2.9655   -2.5291 C   0  0  0  0  0  0  0  0  0  0  0  0
    3.0481   -3.2837   -3.8994 C   0  0  0  0  0  0  0  0  0  0  0  0
    3.8443   -2.1481   -4.2053 O   0  0  0  0  0  0  0  0  0  0  0  0
    4.5465   -1.8043   -3.0199 C   0  0  0  0  0  0  0  0  0  0  0  0
    4.7625   -3.8471   -0.7538 C   0  0  0  0  0  0  0  0  0  0  0  0
    5.2006   -4.4161    0.5772 C   0  0  0  0  0  0  0  0  0  0  0  0
    6.0814   -5.4336    0.5098 N   0  0  0  0  0  0  0  0  0  0  0  0
    6.4570   -5.9786    1.6631 C   0  0  0  0  0  0  0  0  0  0  0  0
    6.0541   -5.6178    2.8796 N   0  0  0  0  0  0  0  0  0  0  0  0
    5.1706   -4.6003    2.9568 C   0  0  0  0  0  0  0  0  0  0  0  0
    4.6974   -3.9418    1.8012 C   0  0  0  0  0  0  0  0  0  0  0  0
    0.4952   -5.1962    3.7923 H   0  0  0  0  0  0  0  0  0  0  0  0
    0.2782   -3.4511    3.9328 H   0  0  0  0  0  0  0  0  0  0  0  0
    1.5147   -4.2772    4.8963 H   0  0  0  0  0  0  0  0  0  0  0  0
    1.9928   -2.0089    2.9336 H   0  0  0  0  0  0  0  0  0  0  0  0
    3.1794   -2.8092    3.9486 H   0  0  0  0  0  0  0  0  0  0  0  0
    4.3396   -1.8770    2.0498 H   0  0  0  0  0  0  0  0  0  0  0  0
    2.3177   -3.3343    0.2906 H   0  0  0  0  0  0  0  0  0  0  0  0
    2.5078   -1.5948    0.4968 H   0  0  0  0  0  0  0  0  0  0  0  0
    3.0163   -1.0711   -1.7198 H   0  0  0  0  0  0  0  0  0  0  0  0
    2.2659   -3.8721   -1.9551 H   0  0  0  0  0  0  0  0  0  0  0  0
    1.5030   -2.4579   -2.6377 H   0  0  0  0  0  0  0  0  0  0  0  0
    3.6797   -4.1739   -3.8445 H   0  0  0  0  0  0  0  0  0  0  0  0
    2.2753   -3.4601   -4.6452 H   0  0  0  0  0  0  0  0  0  0  0  0
    4.9144   -0.7742   -3.0476 H   0  0  0  0  0  0  0  0  0  0  0  0
    5.4076   -2.4600   -2.9446 H   0  0  0  0  0  0  0  0  0  0  0  0
    4.1126   -4.6070   -1.1970 H   0  0  0  0  0  0  0  0  0  0  0  0
    5.6665   -3.7577   -1.3726 H   0  0  0  0  0  0  0  0  0  0  0  0
    7.1616   -6.7975    1.5836 H   0  0  0  0  0  0  0  0  0  0  0  0
    4.8655   -4.3092    3.9484 H   0  0  0  0  0  0  0  0  0  0  0  0
    4.7502   -1.8601   -0.3164 H   0  0  0  0  0  0  0  0  0  0  0  0
  1  2  1  0
  1 19  1  0
  1 20  1  0
  1 21  1  0
  2  3  1  0
  3  4  1  0
  3 22  1  0
  3 23  1  0
  4 18  1  0
  4  5  1  0
  4 24  1  1
  5  6  1  0
  5 25  1  0
  5 26  1  0
  6  7  1  0
  6 12  1  0
  6 38  1  1
  7 11  1  0
  7  8  1  0
  7 27  1  1
  8  9  1  0
  8 28  1  0
  8 29  1  0
  9 10  1  0
  9 30  1  0
  9 31  1  0
 10 11  1  0
 11 32  1  0
 11 33  1  0
 12 13  1  0
 12 34  1  0
 12 35  1  0
 13 18  2  0
 13 14  1  0
 14 15  2  0
 15 16  1  0
 15 36  1  0
 16 17  2  0
 17 18  1  0
 17 37  1  0
M  CHG  1   6   1
M  END
>  <i_m_ct_stereo_status>  (246) 
1

>  <s_m_source_file>  (246) 
/var/tmp/pbs.5076255.sched01/tmptyawoosb/846vw0lfia.sdf

>  <i_m_source_file_index>  (246) 
16

>  <i_lp_mmshare_version>  (246) 
48012

>  <i_f3d_flags>  (246) 
0

>  <s_epik_input>  (246) 
bjFbY0hdbltjSF1jKGMxMilbQ0BIXShbQ0gyXU9bQ0gzXSlbQ0gyXU4oW0NIMl0yKVtDQEBIXTNbQ0gyXVtDSDJdT1tDSDJdMw==

>  <s_epik_cmdline>  (246) 
J2VwaWtfcHl0aG9uJywgJy1waHQnLCAnMi4wJywgJy1waCcsICc3LjAnLCAnLXRuJywgJzgnLCAnLW1hJywgJzIwMCcsICctaW1hZScsICc8aW5maWxlLm1hZT4nLCAnLW9tYWUnLCAnPG91dGZpbGUubWFlPic=

>  <r_lp_tautomer_probability>  (246) 
1

>  <r_epik_Ionization_Penalty>  (246) 
0.330801

>  <r_epik_Ionization_Penalty_Charging>  (246) 
0.330801

>  <r_epik_Ionization_Penalty_Neutral>  (246) 
2.22776e-08

>  <r_epik_State_Penalty>  (246) 
0.325885

>  <r_epik_Charging_Adjusted_Penalty>  (246) 
0.656686

>  <i_epik_Tot_Q>  (246) 
1

>  <i_epik_Tot_abs_Q>  (246) 
1

>  <s_epik_Chemistry_Notes>  (246) 
This compound contains an electron-poor aromatic ring that is susceptible to covalent hydrolysis at low pH, typically resulting in measured values for nitrogen ring protonation that are around two units higher than predicted values.

>  <s_lp_Force_Field>  (246) 
OPLS3e

>  <r_lp_Energy>  (246) 
30.1149

>  <b_lp_Chiralities_Consistent>  (246) 
1

>  <s_lp_Variant>  (246) 
69:0-1

>  <s_i_glide_gridfile>  (246) 
pfpi4k_grid

>  <i_i_glide_lignum>  (246) 
16

>  <i_i_glide_rotatable_bonds>  (246) 
3

>  <r_i_docking_score>  (246) 
-3.61192

>  <r_i_glide_ligand_efficiency>  (246) 
-0.200662

>  <r_i_glide_ligand_efficiency_sa>  (246) 
-0.525883

>  <r_i_glide_ligand_efficiency_ln>  (246) 
-0.928424

>  <r_i_glide_gscore>  (246) 
-3.61192

>  <r_i_glide_lipo>  (246) 
-0.268065

>  <r_i_glide_hbond>  (246) 
-0.32

>  <r_i_glide_metal>  (246) 
-0

>  <r_i_glide_rewards>  (246) 
-1.80328

>  <r_i_glide_evdw>  (246) 
-18.546

>  <r_i_glide_ecoul>  (246) 
-5.56265

>  <r_i_glide_erotb>  (246) 
0.558785

>  <r_i_glide_esite>  (246) 
-0.0176561

>  <r_i_glide_emodel>  (246) 
-27.1427

>  <r_i_glide_energy>  (246) 
-24.1086

>  <r_i_glide_einternal>  (246) 
7.58716

>  <r_i_glide_intrahb_reward>  (246) 
-0

>  <i_i_glide_confnum>  (246) 
2

>  <i_i_glide_posenum>  (246) 
24

>  <r_i_glide_eff_state_penalty>  (246) 
0

>  <ligand_id>  (246) 
69

>  <original_smiles>  (246) 
COCC1CN(C2CCOC2)Cc2ncncc21

>  <smiles>  (246) 
[H]c1nc([H])c2c(n1)C([H])([H])[N+]([H])(C1([H])C([H])([H])OC([H])([H])C1([H])[H])C([H])([H])C2([H])C([H])([H])OC([H])([H])[H]

$$$$
69:0:1
     RDKit          3D

 38 40  0  0  1  0  0  0  0  0999 V2000
    4.3624   -0.6855   -2.7693 C   0  0  0  0  0  0  0  0  0  0  0  0
    5.2204   -1.3634   -1.8546 O   0  0  0  0  0  0  0  0  0  0  0  0
    5.1304   -0.9446   -0.4911 C   0  0  0  0  0  0  0  0  0  0  0  0
    3.7826   -1.3237    0.1410 C   0  0  2  0  0  0  0  0  0  0  0  0
    3.4250   -0.3954    1.3120 C   0  0  0  0  0  0  0  0  0  0  0  0
    2.0981   -0.7921    1.8505 N   0  0  2  0  0  0  0  0  0  0  0  0
    1.5244    0.2563    2.7550 C   0  0  2  0  0  0  0  0  0  0  0  0
    0.1500   -0.1087    3.3140 C   0  0  0  0  0  0  0  0  0  0  0  0
   -0.7722    1.0415    2.9067 C   0  0  0  0  0  0  0  0  0  0  0  0
    0.1248    2.1206    2.7471 O   0  0  0  0  0  0  0  0  0  0  0  0
    1.2488    1.5998    2.0589 C   0  0  0  0  0  0  0  0  0  0  0  0
    2.1772   -2.1393    2.4850 C   0  0  0  0  0  0  0  0  0  0  0  0
    2.8773   -3.1732    1.6091 C   0  0  0  0  0  0  0  0  0  0  0  0
    2.6896   -4.4595    1.9367 N   0  0  0  0  0  0  0  0  0  0  0  0
    3.3292   -5.3593    1.1951 C   0  0  0  0  0  0  0  0  0  0  0  0
    4.1121   -5.1229    0.1456 N   0  0  0  0  0  0  0  0  0  0  0  0
    4.2779   -3.8309   -0.2161 C   0  0  0  0  0  0  0  0  0  0  0  0
    3.6737   -2.7863    0.5203 C   0  0  0  0  0  0  0  0  0  0  0  0
    4.5743   -1.0477   -3.7779 H   0  0  0  0  0  0  0  0  0  0  0  0
    4.5472    0.3889   -2.7560 H   0  0  0  0  0  0  0  0  0  0  0  0
    3.3051   -0.8626   -2.5757 H   0  0  0  0  0  0  0  0  0  0  0  0
    5.9471   -1.3988    0.0807 H   0  0  0  0  0  0  0  0  0  0  0  0
    5.2865    0.1247   -0.3946 H   0  0  0  0  0  0  0  0  0  0  0  0
    2.9895   -1.1632   -0.5783 H   0  0  0  0  0  0  0  0  0  0  0  0
    4.1820   -0.4127    2.1084 H   0  0  0  0  0  0  0  0  0  0  0  0
    3.3925    0.6108    0.9053 H   0  0  0  0  0  0  0  0  0  0  0  0
    2.1992    0.4287    3.5956 H   0  0  0  0  0  0  0  0  0  0  0  0
   -0.2132   -1.0499    2.9263 H   0  0  0  0  0  0  0  0  0  0  0  0
    0.2033   -0.1953    4.4001 H   0  0  0  0  0  0  0  0  0  0  0  0
   -1.2622    0.8230    1.9556 H   0  0  0  0  0  0  0  0  0  0  0  0
   -1.5412    1.2532    3.6512 H   0  0  0  0  0  0  0  0  0  0  0  0
    2.0937    2.2877    2.1101 H   0  0  0  0  0  0  0  0  0  0  0  0
    0.9835    1.4422    1.0114 H   0  0  0  0  0  0  0  0  0  0  0  0
    2.7471   -2.0689    3.4155 H   0  0  0  0  0  0  0  0  0  0  0  0
    1.2001   -2.5736    2.7117 H   0  0  0  0  0  0  0  0  0  0  0  0
    3.2031   -6.3922    1.4786 H   0  0  0  0  0  0  0  0  0  0  0  0
    4.8796   -3.6607   -1.0922 H   0  0  0  0  0  0  0  0  0  0  0  0
    1.4835   -0.8665    1.0381 H   0  0  0  0  0  0  0  0  0  0  0  0
  1  2  1  0
  1 19  1  0
  1 20  1  0
  1 21  1  0
  2  3  1  0
  3  4  1  0
  3 22  1  0
  3 23  1  0
  4 18  1  0
  4  5  1  0
  4 24  1  6
  5  6  1  0
  5 25  1  0
  5 26  1  0
  6  7  1  0
  6 12  1  0
  6 38  1  6
  7 11  1  0
  7  8  1  0
  7 27  1  1
  8  9  1  0
  8 28  1  0
  8 29  1  0
  9 10  1  0
  9 30  1  0
  9 31  1  0
 10 11  1  0
 11 32  1  0
 11 33  1  0
 12 13  1  0
 12 34  1  0
 12 35  1  0
 13 18  2  0
 13 14  1  0
 14 15  2  0
 15 16  1  0
 15 36  1  0
 16 17  2  0
 17 18  1  0
 17 37  1  0
M  CHG  1   6   1
M  END
>  <i_m_ct_stereo_status>  (247) 
1

>  <s_m_source_file>  (247) 
/var/tmp/pbs.5076255.sched01/tmptyawoosb/846vw0lfia.sdf

>  <i_m_source_file_index>  (247) 
16

>  <i_lp_mmshare_version>  (247) 
48012

>  <i_f3d_flags>  (247) 
0

>  <s_epik_input>  (247) 
bjFbY0hdbltjSF1jKGMxMilbQ0BIXShbQ0gyXU9bQ0gzXSlbQ0gyXU4oW0NIMl0yKVtDQEBIXTNbQ0gyXVtDSDJdT1tDSDJdMw==

>  <s_epik_cmdline>  (247) 
J2VwaWtfcHl0aG9uJywgJy1waHQnLCAnMi4wJywgJy1waCcsICc3LjAnLCAnLXRuJywgJzgnLCAnLW1hJywgJzIwMCcsICctaW1hZScsICc8aW5maWxlLm1hZT4nLCAnLW9tYWUnLCAnPG91dGZpbGUubWFlPic=

>  <r_lp_tautomer_probability>  (247) 
1

>  <r_epik_Ionization_Penalty>  (247) 
0.330801

>  <r_epik_Ionization_Penalty_Charging>  (247) 
0.330801

>  <r_epik_Ionization_Penalty_Neutral>  (247) 
2.22776e-08

>  <r_epik_State_Penalty>  (247) 
0.325885

>  <r_epik_Charging_Adjusted_Penalty>  (247) 
0.656686

>  <i_epik_Tot_Q>  (247) 
1

>  <i_epik_Tot_abs_Q>  (247) 
1

>  <s_epik_Chemistry_Notes>  (247) 
This compound contains an electron-poor aromatic ring that is susceptible to covalent hydrolysis at low pH, typically resulting in measured values for nitrogen ring protonation that are around two units higher than predicted values.

>  <s_lp_Force_Field>  (247) 
OPLS3e

>  <r_lp_Energy>  (247) 
30.1149

>  <b_lp_Chiralities_Consistent>  (247) 
1

>  <s_lp_Variant>  (247) 
69:0-1

>  <s_i_glide_gridfile>  (247) 
pfpi4k_grid

>  <i_i_glide_lignum>  (247) 
16

>  <i_i_glide_rotatable_bonds>  (247) 
3

>  <r_i_docking_score>  (247) 
-3.23082

>  <r_i_glide_ligand_efficiency>  (247) 
-0.17949

>  <r_i_glide_ligand_efficiency_sa>  (247) 
-0.470397

>  <r_i_glide_ligand_efficiency_ln>  (247) 
-0.830466

>  <r_i_glide_gscore>  (247) 
-3.23082

>  <r_i_glide_lipo>  (247) 
-0.0687349

>  <r_i_glide_hbond>  (247) 
-0.2

>  <r_i_glide_metal>  (247) 
-0

>  <r_i_glide_rewards>  (247) 
-1.70239

>  <r_i_glide_evdw>  (247) 
-17.908

>  <r_i_glide_ecoul>  (247) 
-5.70518

>  <r_i_glide_erotb>  (247) 
0.558785

>  <r_i_glide_esite>  (247) 
-0.0673077

>  <r_i_glide_emodel>  (247) 
-28.092

>  <r_i_glide_energy>  (247) 
-23.6132

>  <r_i_glide_einternal>  (247) 
2.49997

>  <r_i_glide_intrahb_reward>  (247) 
-0

>  <i_i_glide_confnum>  (247) 
4

>  <i_i_glide_posenum>  (247) 
2

>  <r_i_glide_eff_state_penalty>  (247) 
0

>  <ligand_id>  (247) 
69

>  <original_smiles>  (247) 
COCC1CN(C2CCOC2)Cc2ncncc21

>  <smiles>  (247) 
[H]c1nc([H])c2c(n1)C([H])([H])[N+]([H])(C1([H])C([H])([H])OC([H])([H])C1([H])[H])C([H])([H])C2([H])C([H])([H])OC([H])([H])[H]

$$$$
69:0:2
     RDKit          3D

 38 40  0  0  1  0  0  0  0  0999 V2000
    4.4651   -0.7915   -2.4605 C   0  0  0  0  0  0  0  0  0  0  0  0
    5.3985   -1.0476   -1.4156 O   0  0  0  0  0  0  0  0  0  0  0  0
    5.2670   -2.3279   -0.8054 C   0  0  0  0  0  0  0  0  0  0  0  0
    3.9274   -2.4786   -0.0440 C   0  0  2  0  0  0  0  0  0  0  0  0
    3.7681   -1.3570    0.9993 C   0  0  0  0  0  0  0  0  0  0  0  0
    2.4786   -1.5051    1.7109 N   0  0  2  0  0  0  0  0  0  0  0  0
    2.1124   -0.2985    2.5110 C   0  0  2  0  0  0  0  0  0  0  0  0
    0.7086   -0.3790    3.1117 C   0  0  0  0  0  0  0  0  0  0  0  0
   -0.0233    0.8587    2.5907 C   0  0  0  0  0  0  0  0  0  0  0  0
    1.0285    1.7532    2.2986 O   0  0  0  0  0  0  0  0  0  0  0  0
    2.0419    0.9842    1.6808 C   0  0  0  0  0  0  0  0  0  0  0  0
    2.4664   -2.7523    2.5207 C   0  0  0  0  0  0  0  0  0  0  0  0
    2.9790   -3.9741    1.7634 C   0  0  0  0  0  0  0  0  0  0  0  0
    2.6810   -5.1686    2.2870 N   0  0  0  0  0  0  0  0  0  0  0  0
    3.1534   -6.2402    1.6400 C   0  0  0  0  0  0  0  0  0  0  0  0
    3.8587   -6.2393    0.5182 N   0  0  0  0  0  0  0  0  0  0  0  0
    4.1434   -5.0440   -0.0332 C   0  0  0  0  0  0  0  0  0  0  0  0
    3.7187   -3.8378    0.5821 C   0  0  0  0  0  0  0  0  0  0  0  0
    4.6556    0.1878   -2.8924 H   0  0  0  0  0  0  0  0  0  0  0  0
    3.4340   -0.7582   -2.1112 H   0  0  0  0  0  0  0  0  0  0  0  0
    4.5408   -1.5408   -3.2494 H   0  0  0  0  0  0  0  0  0  0  0  0
    5.3890   -3.0882   -1.5822 H   0  0  0  0  0  0  0  0  0  0  0  0
    6.1023   -2.4630   -0.1095 H   0  0  0  0  0  0  0  0  0  0  0  0
    3.0940   -2.4196   -0.7451 H   0  0  0  0  0  0  0  0  0  0  0  0
    4.5862   -1.3666    1.7203 H   0  0  0  0  0  0  0  0  0  0  0  0
    3.8316   -0.4111    0.4712 H   0  0  0  0  0  0  0  0  0  0  0  0
    2.8322   -0.1522    3.3140 H   0  0  0  0  0  0  0  0  0  0  0  0
    0.1590   -1.2746    2.8416 H   0  0  0  0  0  0  0  0  0  0  0  0
    0.7702   -0.3561    4.2006 H   0  0  0  0  0  0  0  0  0  0  0  0
   -0.5747    0.6219    1.6780 H   0  0  0  0  0  0  0  0  0  0  0  0
   -0.7201    1.2804    3.3150 H   0  0  0  0  0  0  0  0  0  0  0  0
    2.9896    1.5243    1.6663 H   0  0  0  0  0  0  0  0  0  0  0  0
    1.7396    0.7622    0.6560 H   0  0  0  0  0  0  0  0  0  0  0  0
    3.1088   -2.6240    3.3911 H   0  0  0  0  0  0  0  0  0  0  0  0
    1.4729   -2.9992    2.8919 H   0  0  0  0  0  0  0  0  0  0  0  0
    2.9404   -7.2046    2.0720 H   0  0  0  0  0  0  0  0  0  0  0  0
    4.6646   -5.0595   -0.9747 H   0  0  0  0  0  0  0  0  0  0  0  0
    1.7799   -1.5814    0.9770 H   0  0  0  0  0  0  0  0  0  0  0  0
  1  2  1  0
  1 19  1  0
  1 20  1  0
  1 21  1  0
  2  3  1  0
  3  4  1  0
  3 22  1  0
  3 23  1  0
  4 18  1  0
  4  5  1  0
  4 24  1  6
  5  6  1  0
  5 25  1  0
  5 26  1  0
  6  7  1  0
  6 12  1  0
  6 38  1  6
  7 11  1  0
  7  8  1  0
  7 27  1  1
  8  9  1  0
  8 28  1  0
  8 29  1  0
  9 10  1  0
  9 30  1  0
  9 31  1  0
 10 11  1  0
 11 32  1  0
 11 33  1  0
 12 13  1  0
 12 34  1  0
 12 35  1  0
 13 18  2  0
 13 14  1  0
 14 15  2  0
 15 16  1  0
 15 36  1  0
 16 17  2  0
 17 18  1  0
 17 37  1  0
M  CHG  1   6   1
M  END
>  <i_m_ct_stereo_status>  (248) 
1

>  <s_m_source_file>  (248) 
/var/tmp/pbs.5076255.sched01/tmptyawoosb/846vw0lfia.sdf

>  <i_m_source_file_index>  (248) 
16

>  <i_lp_mmshare_version>  (248) 
48012

>  <i_f3d_flags>  (248) 
0

>  <s_epik_input>  (248) 
bjFbY0hdbltjSF1jKGMxMilbQ0BIXShbQ0gyXU9bQ0gzXSlbQ0gyXU4oW0NIMl0yKVtDQEBIXTNbQ0gyXVtDSDJdT1tDSDJdMw==

>  <s_epik_cmdline>  (248) 
J2VwaWtfcHl0aG9uJywgJy1waHQnLCAnMi4wJywgJy1waCcsICc3LjAnLCAnLXRuJywgJzgnLCAnLW1hJywgJzIwMCcsICctaW1hZScsICc8aW5maWxlLm1hZT4nLCAnLW9tYWUnLCAnPG91dGZpbGUubWFlPic=

>  <r_lp_tautomer_probability>  (248) 
1

>  <r_epik_Ionization_Penalty>  (248) 
0.330801

>  <r_epik_Ionization_Penalty_Charging>  (248) 
0.330801

>  <r_epik_Ionization_Penalty_Neutral>  (248) 
2.22776e-08

>  <r_epik_State_Penalty>  (248) 
0.325885

>  <r_epik_Charging_Adjusted_Penalty>  (248) 
0.656686

>  <i_epik_Tot_Q>  (248) 
1

>  <i_epik_Tot_abs_Q>  (248) 
1

>  <s_epik_Chemistry_Notes>  (248) 
This compound contains an electron-poor aromatic ring that is susceptible to covalent hydrolysis at low pH, typically resulting in measured values for nitrogen ring protonation that are around two units higher than predicted values.

>  <s_lp_Force_Field>  (248) 
OPLS3e

>  <r_lp_Energy>  (248) 
30.1149

>  <b_lp_Chiralities_Consistent>  (248) 
1

>  <s_lp_Variant>  (248) 
69:0-1

>  <s_i_glide_gridfile>  (248) 
pfpi4k_grid

>  <i_i_glide_lignum>  (248) 
16

>  <i_i_glide_rotatable_bonds>  (248) 
3

>  <r_i_docking_score>  (248) 
-3.18987

>  <r_i_glide_ligand_efficiency>  (248) 
-0.177215

>  <r_i_glide_ligand_efficiency_sa>  (248) 
-0.464435

>  <r_i_glide_ligand_efficiency_ln>  (248) 
-0.81994

>  <r_i_glide_gscore>  (248) 
-3.18987

>  <r_i_glide_lipo>  (248) 
-0.0012164

>  <r_i_glide_hbond>  (248) 
-0.153053

>  <r_i_glide_metal>  (248) 
-0

>  <r_i_glide_rewards>  (248) 
-1.75109

>  <r_i_glide_evdw>  (248) 
-17.9973

>  <r_i_glide_ecoul>  (248) 
-5.93986

>  <r_i_glide_erotb>  (248) 
0.558785

>  <r_i_glide_esite>  (248) 
-0.0524532

>  <r_i_glide_emodel>  (248) 
-28.6885

>  <r_i_glide_energy>  (248) 
-23.9371

>  <r_i_glide_einternal>  (248) 
2.27776

>  <r_i_glide_intrahb_reward>  (248) 
-0

>  <i_i_glide_confnum>  (248) 
5

>  <i_i_glide_posenum>  (248) 
10

>  <r_i_glide_eff_state_penalty>  (248) 
0

>  <ligand_id>  (248) 
69

>  <original_smiles>  (248) 
COCC1CN(C2CCOC2)Cc2ncncc21

>  <smiles>  (248) 
[H]c1nc([H])c2c(n1)C([H])([H])[N+]([H])(C1([H])C([H])([H])OC([H])([H])C1([H])[H])C([H])([H])C2([H])C([H])([H])OC([H])([H])[H]

$$$$
69:1:0
     RDKit          3D

 37 39  0  0  1  0  0  0  0  0999 V2000
    6.0703   -7.0796    1.7837 C   0  0  0  0  0  0  0  0  0  0  0  0
    5.3312   -5.9437    1.3738 O   0  0  0  0  0  0  0  0  0  0  0  0
    4.2435   -6.2737    0.5220 C   0  0  0  0  0  0  0  0  0  0  0  0
    3.4769   -4.9913    0.1550 C   0  0  2  0  0  0  0  0  0  0  0  0
    4.3211   -4.0917   -0.7656 C   0  0  0  0  0  0  0  0  0  0  0  0
    3.6599   -2.8108   -1.0337 N   0  0  0  0  0  0  0  0  0  0  0  0
    4.2859   -2.0678   -2.1297 C   0  0  2  0  0  0  0  0  0  0  0  0
    3.5522   -0.7869   -2.5222 C   0  0  0  0  0  0  0  0  0  0  0  0
    3.2316   -0.9287   -3.9995 C   0  0  0  0  0  0  0  0  0  0  0  0
    4.2132   -1.8306   -4.4488 O   0  0  0  0  0  0  0  0  0  0  0  0
    4.3308   -2.8336   -3.4561 C   0  0  0  0  0  0  0  0  0  0  0  0
    3.6067   -2.0308    0.2149 C   0  0  0  0  0  0  0  0  0  0  0  0
    3.0062   -2.8075    1.3721 C   0  0  0  0  0  0  0  0  0  0  0  0
    2.5338   -2.0924    2.4115 N   0  0  0  0  0  0  0  0  0  0  0  0
    2.0042   -2.7840    3.4199 C   0  0  0  0  0  0  0  0  0  0  0  0
    1.8891   -4.1068    3.5111 N   0  0  0  0  0  0  0  0  0  0  0  0
    2.3844   -4.8323    2.4832 C   0  0  0  0  0  0  0  0  0  0  0  0
    2.9673   -4.2169    1.3622 C   0  0  0  0  0  0  0  0  0  0  0  0
    6.8984   -6.7638    2.4176 H   0  0  0  0  0  0  0  0  0  0  0  0
    6.4845   -7.6114    0.9269 H   0  0  0  0  0  0  0  0  0  0  0  0
    5.4468   -7.7672    2.3561 H   0  0  0  0  0  0  0  0  0  0  0  0
    4.6044   -6.7652   -0.3854 H   0  0  0  0  0  0  0  0  0  0  0  0
    3.5820   -6.9838    1.0215 H   0  0  0  0  0  0  0  0  0  0  0  0
    2.5851   -5.2861   -0.3969 H   0  0  0  0  0  0  0  0  0  0  0  0
    5.3019   -3.9191   -0.3228 H   0  0  0  0  0  0  0  0  0  0  0  0
    4.5000   -4.6478   -1.6848 H   0  0  0  0  0  0  0  0  0  0  0  0
    5.3067   -1.8035   -1.8521 H   0  0  0  0  0  0  0  0  0  0  0  0
    2.6185   -0.6576   -1.9849 H   0  0  0  0  0  0  0  0  0  0  0  0
    4.1983    0.0723   -2.3376 H   0  0  0  0  0  0  0  0  0  0  0  0
    2.2488   -1.3752   -4.1411 H   0  0  0  0  0  0  0  0  0  0  0  0
    3.2732    0.0179   -4.5335 H   0  0  0  0  0  0  0  0  0  0  0  0
    5.2523   -3.4036   -3.5789 H   0  0  0  0  0  0  0  0  0  0  0  0
    3.4856   -3.5173   -3.5499 H   0  0  0  0  0  0  0  0  0  0  0  0
    4.6055   -1.7136    0.5115 H   0  0  0  0  0  0  0  0  0  0  0  0
    3.0160   -1.1208    0.0895 H   0  0  0  0  0  0  0  0  0  0  0  0
    1.6400   -2.2066    4.2567 H   0  0  0  0  0  0  0  0  0  0  0  0
    2.2724   -5.9045    2.5584 H   0  0  0  0  0  0  0  0  0  0  0  0
  1  2  1  0
  1 19  1  0
  1 20  1  0
  1 21  1  0
  2  3  1  0
  3  4  1  0
  3 22  1  0
  3 23  1  0
  4 18  1  0
  4  5  1  0
  4 24  1  6
  5  6  1  0
  5 25  1  0
  5 26  1  0
  6  7  1  0
  6 12  1  0
  7 11  1  0
  7  8  1  0
  7 27  1  1
  8  9  1  0
  8 28  1  0
  8 29  1  0
  9 10  1  0
  9 30  1  0
  9 31  1  0
 10 11  1  0
 11 32  1  0
 11 33  1  0
 12 13  1  0
 12 34  1  0
 12 35  1  0
 13 18  2  0
 13 14  1  0
 14 15  2  0
 15 16  1  0
 15 36  1  0
 16 17  2  0
 17 18  1  0
 17 37  1  0
M  END
>  <i_m_ct_stereo_status>  (249) 
1

>  <s_m_source_file>  (249) 
/var/tmp/pbs.5076255.sched01/tmptyawoosb/846vw0lfia.sdf

>  <i_m_source_file_index>  (249) 
17

>  <i_lp_mmshare_version>  (249) 
48012

>  <i_f3d_flags>  (249) 
0

>  <s_epik_input>  (249) 
bjFbY0hdbltjSF1jKGMxMilbQ0BIXShbQ0gyXU9bQ0gzXSlbQ0gyXU4oW0NIMl0yKVtDQEBIXTNbQ0gyXVtDSDJdT1tDSDJdMw==

>  <s_epik_cmdline>  (249) 
J2VwaWtfcHl0aG9uJywgJy1waHQnLCAnMi4wJywgJy1waCcsICc3LjAnLCAnLXRuJywgJzgnLCAnLW1hJywgJzIwMCcsICctaW1hZScsICc8aW5maWxlLm1hZT4nLCAnLW9tYWUnLCAnPG91dGZpbGUubWFlPic=

>  <r_lp_tautomer_probability>  (249) 
1

>  <r_epik_Ionization_Penalty>  (249) 
0.503062

>  <r_epik_Ionization_Penalty_Charging>  (249) 
0

>  <r_epik_Ionization_Penalty_Neutral>  (249) 
0.503062

>  <r_epik_State_Penalty>  (249) 
0.50967

>  <r_epik_Charging_Adjusted_Penalty>  (249) 
0.50967

>  <i_epik_Tot_Q>  (249) 
0

>  <i_epik_Tot_abs_Q>  (249) 
0

>  <s_epik_Chemistry_Notes>  (249) 
This compound contains an electron-poor aromatic ring that is susceptible to covalent hydrolysis at low pH, typically resulting in measured values for nitrogen ring protonation that are around two units higher than predicted values.

>  <s_lp_Force_Field>  (249) 
OPLS3e

>  <r_lp_Energy>  (249) 
24.4401

>  <b_lp_Chiralities_Consistent>  (249) 
1

>  <s_lp_Variant>  (249) 
69:0-2

>  <s_i_glide_gridfile>  (249) 
pfpi4k_grid

>  <i_i_glide_lignum>  (249) 
17

>  <i_i_glide_rotatable_bonds>  (249) 
3

>  <r_i_docking_score>  (249) 
-3.46883

>  <r_i_glide_ligand_efficiency>  (249) 
-0.192713

>  <r_i_glide_ligand_efficiency_sa>  (249) 
-0.505051

>  <r_i_glide_ligand_efficiency_ln>  (249) 
-0.891646

>  <r_i_glide_gscore>  (249) 
-3.46883

>  <r_i_glide_lipo>  (249) 
-0.539387

>  <r_i_glide_hbond>  (249) 
-0.32

>  <r_i_glide_metal>  (249) 
-0

>  <r_i_glide_rewards>  (249) 
-1.72107

>  <r_i_glide_evdw>  (249) 
-19.0864

>  <r_i_glide_ecoul>  (249) 
-3.3115

>  <r_i_glide_erotb>  (249) 
0.562664

>  <r_i_glide_esite>  (249) 
0

>  <r_i_glide_emodel>  (249) 
-27.6913

>  <r_i_glide_energy>  (249) 
-22.3979

>  <r_i_glide_einternal>  (249) 
0.00850827

>  <r_i_glide_intrahb_reward>  (249) 
-0

>  <i_i_glide_confnum>  (249) 
1

>  <i_i_glide_posenum>  (249) 
26

>  <r_i_glide_eff_state_penalty>  (249) 
0

>  <ligand_id>  (249) 
69

>  <original_smiles>  (249) 
COCC1CN(C2CCOC2)Cc2ncncc21

>  <smiles>  (249) 
[H]c1nc([H])c2c(n1)C([H])([H])N(C1([H])C([H])([H])OC([H])([H])C1([H])[H])C([H])([H])C2([H])C([H])([H])OC([H])([H])[H]

$$$$
69:1:1
     RDKit          3D

 37 39  0  0  1  0  0  0  0  0999 V2000
    3.9276   -8.7755    1.4885 C   0  0  0  0  0  0  0  0  0  0  0  0
    3.3291   -7.5123    1.2672 O   0  0  0  0  0  0  0  0  0  0  0  0
    4.2260   -6.5460    0.7370 C   0  0  0  0  0  0  0  0  0  0  0  0
    3.4458   -5.2807    0.3260 C   0  0  2  0  0  0  0  0  0  0  0  0
    4.3020   -4.3726   -0.5842 C   0  0  0  0  0  0  0  0  0  0  0  0
    3.6199   -3.1088   -0.8994 N   0  0  0  0  0  0  0  0  0  0  0  0
    4.2623   -2.3767   -1.9964 C   0  0  2  0  0  0  0  0  0  0  0  0
    3.5455   -1.0897   -2.4158 C   0  0  0  0  0  0  0  0  0  0  0  0
    3.2338   -1.2598   -3.8954 C   0  0  0  0  0  0  0  0  0  0  0  0
    4.2215   -2.1676   -4.3228 O   0  0  0  0  0  0  0  0  0  0  0  0
    4.3232   -3.1579   -3.3170 C   0  0  0  0  0  0  0  0  0  0  0  0
    3.5195   -2.3148    0.3349 C   0  0  0  0  0  0  0  0  0  0  0  0
    2.8996   -3.0850    1.4893 C   0  0  0  0  0  0  0  0  0  0  0  0
    2.3876   -2.3571    2.5008 N   0  0  0  0  0  0  0  0  0  0  0  0
    1.8390   -3.0272    3.5074 C   0  0  0  0  0  0  0  0  0  0  0  0
    1.7392   -4.3462    3.6274 N   0  0  0  0  0  0  0  0  0  0  0  0
    2.2663   -5.0934    2.6336 C   0  0  0  0  0  0  0  0  0  0  0  0
    2.8801   -4.4965    1.5060 C   0  0  0  0  0  0  0  0  0  0  0  0
    3.1861   -9.4495    1.9142 H   0  0  0  0  0  0  0  0  0  0  0  0
    4.7563   -8.6930    2.1908 H   0  0  0  0  0  0  0  0  0  0  0  0
    4.2889   -9.2184    0.5595 H   0  0  0  0  0  0  0  0  0  0  0  0
    5.0009   -6.2977    1.4678 H   0  0  0  0  0  0  0  0  0  0  0  0
    4.7260   -6.9626   -0.1411 H   0  0  0  0  0  0  0  0  0  0  0  0
    2.5887   -5.6051   -0.2686 H   0  0  0  0  0  0  0  0  0  0  0  0
    5.2619   -4.1760   -0.1032 H   0  0  0  0  0  0  0  0  0  0  0  0
    4.5321   -4.9338   -1.4889 H   0  0  0  0  0  0  0  0  0  0  0  0
    5.2791   -2.1122   -1.7052 H   0  0  0  0  0  0  0  0  0  0  0  0
    2.6181   -0.9034   -1.8925 H   0  0  0  0  0  0  0  0  0  0  0  0
    4.2059   -0.2408   -2.2391 H   0  0  0  0  0  0  0  0  0  0  0  0
    2.2441   -1.7051   -4.0305 H   0  0  0  0  0  0  0  0  0  0  0  0
    3.2710   -0.3139   -4.4362 H   0  0  0  0  0  0  0  0  0  0  0  0
    5.2466   -3.7271   -3.4274 H   0  0  0  0  0  0  0  0  0  0  0  0
    3.4780   -3.8434   -3.4167 H   0  0  0  0  0  0  0  0  0  0  0  0
    4.5028   -1.9703    0.6588 H   0  0  0  0  0  0  0  0  0  0  0  0
    2.9098   -1.4212    0.1895 H   0  0  0  0  0  0  0  0  0  0  0  0
    1.4436   -2.4406    4.3254 H   0  0  0  0  0  0  0  0  0  0  0  0
    2.1532   -6.1596    2.7586 H   0  0  0  0  0  0  0  0  0  0  0  0
  1  2  1  0
  1 19  1  0
  1 20  1  0
  1 21  1  0
  2  3  1  0
  3  4  1  0
  3 22  1  0
  3 23  1  0
  4 18  1  0
  4  5  1  0
  4 24  1  6
  5  6  1  0
  5 25  1  0
  5 26  1  0
  6  7  1  0
  6 12  1  0
  7 11  1  0
  7  8  1  0
  7 27  1  1
  8  9  1  0
  8 28  1  0
  8 29  1  0
  9 10  1  0
  9 30  1  0
  9 31  1  0
 10 11  1  0
 11 32  1  0
 11 33  1  0
 12 13  1  0
 12 34  1  0
 12 35  1  0
 13 18  2  0
 13 14  1  0
 14 15  2  0
 15 16  1  0
 15 36  1  0
 16 17  2  0
 17 18  1  0
 17 37  1  0
M  END
>  <i_m_ct_stereo_status>  (250) 
1

>  <s_m_source_file>  (250) 
/var/tmp/pbs.5076255.sched01/tmptyawoosb/846vw0lfia.sdf

>  <i_m_source_file_index>  (250) 
17

>  <i_lp_mmshare_version>  (250) 
48012

>  <i_f3d_flags>  (250) 
0

>  <s_epik_input>  (250) 
bjFbY0hdbltjSF1jKGMxMilbQ0BIXShbQ0gyXU9bQ0gzXSlbQ0gyXU4oW0NIMl0yKVtDQEBIXTNbQ0gyXVtDSDJdT1tDSDJdMw==

>  <s_epik_cmdline>  (250) 
J2VwaWtfcHl0aG9uJywgJy1waHQnLCAnMi4wJywgJy1waCcsICc3LjAnLCAnLXRuJywgJzgnLCAnLW1hJywgJzIwMCcsICctaW1hZScsICc8aW5maWxlLm1hZT4nLCAnLW9tYWUnLCAnPG91dGZpbGUubWFlPic=

>  <r_lp_tautomer_probability>  (250) 
1

>  <r_epik_Ionization_Penalty>  (250) 
0.503062

>  <r_epik_Ionization_Penalty_Charging>  (250) 
0

>  <r_epik_Ionization_Penalty_Neutral>  (250) 
0.503062

>  <r_epik_State_Penalty>  (250) 
0.50967

>  <r_epik_Charging_Adjusted_Penalty>  (250) 
0.50967

>  <i_epik_Tot_Q>  (250) 
0

>  <i_epik_Tot_abs_Q>  (250) 
0

>  <s_epik_Chemistry_Notes>  (250) 
This compound contains an electron-poor aromatic ring that is susceptible to covalent hydrolysis at low pH, typically resulting in measured values for nitrogen ring protonation that are around two units higher than predicted values.

>  <s_lp_Force_Field>  (250) 
OPLS3e

>  <r_lp_Energy>  (250) 
24.4401

>  <b_lp_Chiralities_Consistent>  (250) 
1

>  <s_lp_Variant>  (250) 
69:0-2

>  <s_i_glide_gridfile>  (250) 
pfpi4k_grid

>  <i_i_glide_lignum>  (250) 
17

>  <i_i_glide_rotatable_bonds>  (250) 
3

>  <r_i_docking_score>  (250) 
-3.41775

>  <r_i_glide_ligand_efficiency>  (250) 
-0.189875

>  <r_i_glide_ligand_efficiency_sa>  (250) 
-0.497613

>  <r_i_glide_ligand_efficiency_ln>  (250) 
-0.878514

>  <r_i_glide_gscore>  (250) 
-3.41775

>  <r_i_glide_lipo>  (250) 
-0.407463

>  <r_i_glide_hbond>  (250) 
-0.32

>  <r_i_glide_metal>  (250) 
-0

>  <r_i_glide_rewards>  (250) 
-1.73298

>  <r_i_glide_evdw>  (250) 
-20.1057

>  <r_i_glide_ecoul>  (250) 
-3.43122

>  <r_i_glide_erotb>  (250) 
0.562664

>  <r_i_glide_esite>  (250) 
0

>  <r_i_glide_emodel>  (250) 
-28.2425

>  <r_i_glide_energy>  (250) 
-23.5369

>  <r_i_glide_einternal>  (250) 
0.906551

>  <r_i_glide_intrahb_reward>  (250) 
-0

>  <i_i_glide_confnum>  (250) 
2

>  <i_i_glide_posenum>  (250) 
1

>  <r_i_glide_eff_state_penalty>  (250) 
0

>  <ligand_id>  (250) 
69

>  <original_smiles>  (250) 
COCC1CN(C2CCOC2)Cc2ncncc21

>  <smiles>  (250) 
[H]c1nc([H])c2c(n1)C([H])([H])N(C1([H])C([H])([H])OC([H])([H])C1([H])[H])C([H])([H])C2([H])C([H])([H])OC([H])([H])[H]

$$$$
69:1:2
     RDKit          3D

 37 39  0  0  1  0  0  0  0  0999 V2000
    4.8074   -7.9642    0.9020 C   0  0  0  0  0  0  0  0  0  0  0  0
    4.2664   -6.7581    0.3903 O   0  0  0  0  0  0  0  0  0  0  0  0
    3.9972   -5.8001    1.4025 C   0  0  0  0  0  0  0  0  0  0  0  0
    3.2886   -4.5834    0.7789 C   0  0  2  0  0  0  0  0  0  0  0  0
    4.1766   -3.9098   -0.2814 C   0  0  0  0  0  0  0  0  0  0  0  0
    3.5827   -2.6710   -0.7923 N   0  0  0  0  0  0  0  0  0  0  0  0
    4.2403   -2.1753   -2.0018 C   0  0  2  0  0  0  0  0  0  0  0  0
    3.5532   -0.9625   -2.6442 C   0  0  0  0  0  0  0  0  0  0  0  0
    3.2534   -1.3887   -4.0725 C   0  0  0  0  0  0  0  0  0  0  0  0
    4.2126   -2.3907   -4.3226 O   0  0  0  0  0  0  0  0  0  0  0  0
    4.2703   -3.1853   -3.1609 C   0  0  0  0  0  0  0  0  0  0  0  0
    3.5558   -1.6672    0.2832 C   0  0  0  0  0  0  0  0  0  0  0  0
    2.9155   -2.1823    1.5575 C   0  0  0  0  0  0  0  0  0  0  0  0
    2.4817   -1.2626    2.4387 N   0  0  0  0  0  0  0  0  0  0  0  0
    1.9161   -1.7210    3.5502 C   0  0  0  0  0  0  0  0  0  0  0  0
    1.7400   -2.9955    3.8941 N   0  0  0  0  0  0  0  0  0  0  0  0
    2.1946   -3.9242    3.0279 C   0  0  0  0  0  0  0  0  0  0  0  0
    2.8159   -3.5675    1.8130 C   0  0  0  0  0  0  0  0  0  0  0  0
    4.9887   -8.6548    0.0797 H   0  0  0  0  0  0  0  0  0  0  0  0
    4.1179   -8.4457    1.5963 H   0  0  0  0  0  0  0  0  0  0  0  0
    5.7541   -7.7862    1.4126 H   0  0  0  0  0  0  0  0  0  0  0  0
    3.3606   -6.2711    2.1522 H   0  0  0  0  0  0  0  0  0  0  0  0
    4.9242   -5.4980    1.8951 H   0  0  0  0  0  0  0  0  0  0  0  0
    2.3906   -4.9410    0.2722 H   0  0  0  0  0  0  0  0  0  0  0  0
    5.1653   -3.7023    0.1318 H   0  0  0  0  0  0  0  0  0  0  0  0
    4.3267   -4.6336   -1.0809 H   0  0  0  0  0  0  0  0  0  0  0  0
    5.2697   -1.9023   -1.7663 H   0  0  0  0  0  0  0  0  0  0  0  0
    2.6164   -0.6634   -2.1678 H   0  0  0  0  0  0  0  0  0  0  0  0
    4.2300   -0.1079   -2.6227 H   0  0  0  0  0  0  0  0  0  0  0  0
    2.2522   -1.8164   -4.1357 H   0  0  0  0  0  0  0  0  0  0  0  0
    3.3300   -0.5665   -4.7816 H   0  0  0  0  0  0  0  0  0  0  0  0
    5.1648   -3.8110   -3.1486 H   0  0  0  0  0  0  0  0  0  0  0  0
    3.3976   -3.8432   -3.1329 H   0  0  0  0  0  0  0  0  0  0  0  0
    4.5691   -1.3428    0.5256 H   0  0  0  0  0  0  0  0  0  0  0  0
    3.0140   -0.7717   -0.0220 H   0  0  0  0  0  0  0  0  0  0  0  0
    1.5763   -0.9793    4.2631 H   0  0  0  0  0  0  0  0  0  0  0  0
    2.0268   -4.9532    3.3084 H   0  0  0  0  0  0  0  0  0  0  0  0
  1  2  1  0
  1 19  1  0
  1 20  1  0
  1 21  1  0
  2  3  1  0
  3  4  1  0
  3 22  1  0
  3 23  1  0
  4 18  1  0
  4  5  1  0
  4 24  1  6
  5  6  1  0
  5 25  1  0
  5 26  1  0
  6  7  1  0
  6 12  1  0
  7 11  1  0
  7  8  1  0
  7 27  1  1
  8  9  1  0
  8 28  1  0
  8 29  1  0
  9 10  1  0
  9 30  1  0
  9 31  1  0
 10 11  1  0
 11 32  1  0
 11 33  1  0
 12 13  1  0
 12 34  1  0
 12 35  1  0
 13 18  2  0
 13 14  1  0
 14 15  2  0
 15 16  1  0
 15 36  1  0
 16 17  2  0
 17 18  1  0
 17 37  1  0
M  END
>  <i_m_ct_stereo_status>  (251) 
1

>  <s_m_source_file>  (251) 
/var/tmp/pbs.5076255.sched01/tmptyawoosb/846vw0lfia.sdf

>  <i_m_source_file_index>  (251) 
17

>  <i_lp_mmshare_version>  (251) 
48012

>  <i_f3d_flags>  (251) 
0

>  <s_epik_input>  (251) 
bjFbY0hdbltjSF1jKGMxMilbQ0BIXShbQ0gyXU9bQ0gzXSlbQ0gyXU4oW0NIMl0yKVtDQEBIXTNbQ0gyXVtDSDJdT1tDSDJdMw==

>  <s_epik_cmdline>  (251) 
J2VwaWtfcHl0aG9uJywgJy1waHQnLCAnMi4wJywgJy1waCcsICc3LjAnLCAnLXRuJywgJzgnLCAnLW1hJywgJzIwMCcsICctaW1hZScsICc8aW5maWxlLm1hZT4nLCAnLW9tYWUnLCAnPG91dGZpbGUubWFlPic=

>  <r_lp_tautomer_probability>  (251) 
1

>  <r_epik_Ionization_Penalty>  (251) 
0.503062

>  <r_epik_Ionization_Penalty_Charging>  (251) 
0

>  <r_epik_Ionization_Penalty_Neutral>  (251) 
0.503062

>  <r_epik_State_Penalty>  (251) 
0.50967

>  <r_epik_Charging_Adjusted_Penalty>  (251) 
0.50967

>  <i_epik_Tot_Q>  (251) 
0

>  <i_epik_Tot_abs_Q>  (251) 
0

>  <s_epik_Chemistry_Notes>  (251) 
This compound contains an electron-poor aromatic ring that is susceptible to covalent hydrolysis at low pH, typically resulting in measured values for nitrogen ring protonation that are around two units higher than predicted values.

>  <s_lp_Force_Field>  (251) 
OPLS3e

>  <r_lp_Energy>  (251) 
24.4401

>  <b_lp_Chiralities_Consistent>  (251) 
1

>  <s_lp_Variant>  (251) 
69:0-2

>  <s_i_glide_gridfile>  (251) 
pfpi4k_grid

>  <i_i_glide_lignum>  (251) 
17

>  <i_i_glide_rotatable_bonds>  (251) 
3

>  <r_i_docking_score>  (251) 
-3.05606

>  <r_i_glide_ligand_efficiency>  (251) 
-0.169781

>  <r_i_glide_ligand_efficiency_sa>  (251) 
-0.444953

>  <r_i_glide_ligand_efficiency_ln>  (251) 
-0.785545

>  <r_i_glide_gscore>  (251) 
-3.05606

>  <r_i_glide_lipo>  (251) 
-0.205208

>  <r_i_glide_hbond>  (251) 
-0.32

>  <r_i_glide_metal>  (251) 
-0

>  <r_i_glide_rewards>  (251) 
-1.71124

>  <r_i_glide_evdw>  (251) 
-20.1148

>  <r_i_glide_ecoul>  (251) 
-2.51026

>  <r_i_glide_erotb>  (251) 
0.562664

>  <r_i_glide_esite>  (251) 
0

>  <r_i_glide_emodel>  (251) 
-26.6214

>  <r_i_glide_energy>  (251) 
-22.625

>  <r_i_glide_einternal>  (251) 
1.35709

>  <r_i_glide_intrahb_reward>  (251) 
-0

>  <i_i_glide_confnum>  (251) 
3

>  <i_i_glide_posenum>  (251) 
29

>  <r_i_glide_eff_state_penalty>  (251) 
0

>  <ligand_id>  (251) 
69

>  <original_smiles>  (251) 
COCC1CN(C2CCOC2)Cc2ncncc21

>  <smiles>  (251) 
[H]c1nc([H])c2c(n1)C([H])([H])N(C1([H])C([H])([H])OC([H])([H])C1([H])[H])C([H])([H])C2([H])C([H])([H])OC([H])([H])[H]

$$$$
70:0:0
     RDKit          3D

 54 59  0  0  1  0  0  0  0  0999 V2000
   -1.4975    1.6543    4.8712 C   0  0  0  0  0  0  0  0  0  0  0  0
   -0.0651    2.1710    4.9673 C   0  0  1  0  0  0  0  0  0  0  0  0
    0.2940    2.7196    6.3619 C   0  0  0  0  0  0  0  0  0  0  0  0
    1.6698    2.0895    6.2495 C   0  0  2  0  0  0  0  0  0  0  0  0
    2.8388    2.9858    5.8235 C   0  0  0  0  0  0  0  0  0  0  0  0
    2.7689    3.2925    4.3244 C   0  0  1  0  0  0  0  0  0  0  0  0
    2.9467    1.9932    3.5362 C   0  0  0  0  0  0  0  0  0  0  0  0
    2.1310    0.7537    4.0386 C   0  0  1  0  0  0  0  0  0  0  0  0
    1.4837    0.1493    2.9417 O   0  0  0  0  0  0  0  0  0  0  0  0
    2.3529   -0.3118    1.9193 C   0  0  0  0  0  0  0  0  0  0  0  0
    3.4388   -1.2549    2.4520 C   0  0  1  0  0  0  0  0  0  0  0  0
    2.7946   -2.4417    2.8482 O   0  0  0  0  0  0  0  0  0  0  0  0
    4.4667   -1.5784    1.3498 C   0  0  0  0  0  0  0  0  0  0  0  0
    5.8520   -1.3854    1.5391 C   0  0  0  0  0  0  0  0  0  0  0  0
    6.7809   -1.7259    0.5272 C   0  0  0  0  0  0  0  0  0  0  0  0
    6.3304   -2.2655   -0.6905 C   0  0  0  0  0  0  0  0  0  0  0  0
    4.9558   -2.4473   -0.9088 C   0  0  0  0  0  0  0  0  0  0  0  0
    4.0252   -2.1096    0.1057 C   0  0  0  0  0  0  0  0  0  0  0  0
    4.0652   -0.5503    3.5180 O   0  0  0  0  0  0  0  0  0  0  0  0
    3.0387   -0.2020    4.5509 O   0  0  0  0  0  0  0  0  0  0  0  0
    1.0969    1.0963    5.1845 C   0  0  2  0  0  0  0  0  0  0  0  0
    0.5712   -0.2148    5.8163 C   0  0  0  0  0  0  0  0  0  0  0  0
    1.4329    3.8945    3.9390 C   0  0  0  0  0  0  0  0  0  0  0  0
    0.9516    5.1324    3.7272 C   0  0  0  0  0  0  0  0  0  0  0  0
   -0.4716    4.5969    3.8875 C   0  0  1  0  0  0  0  0  0  0  0  0
   -1.3587    5.0435    2.8900 O   0  0  0  0  0  0  0  0  0  0  0  0
    0.1273    3.1644    3.7934 C   0  0  2  0  0  0  0  0  0  0  0  0
    0.0572    2.5428    2.5145 O   0  0  0  0  0  0  0  0  0  0  0  0
   -2.1976    2.4776    4.7212 H   0  0  0  0  0  0  0  0  0  0  0  0
   -1.8325    1.1294    5.7628 H   0  0  0  0  0  0  0  0  0  0  0  0
   -1.6167    0.9902    4.0145 H   0  0  0  0  0  0  0  0  0  0  0  0
    0.3276    3.7983    6.4534 H   0  0  0  0  0  0  0  0  0  0  0  0
   -0.3035    2.2836    7.1605 H   0  0  0  0  0  0  0  0  0  0  0  0
    1.8893    1.5814    7.1799 H   0  0  0  0  0  0  0  0  0  0  0  0
    2.8571    3.9103    6.4027 H   0  0  0  0  0  0  0  0  0  0  0  0
    3.7821    2.4832    6.0450 H   0  0  0  0  0  0  0  0  0  0  0  0
    3.5786    3.9863    4.0493 H   0  0  0  0  0  0  0  0  0  0  0  0
    2.6581    2.2931    2.5368 H   0  0  0  0  0  0  0  0  0  0  0  0
    4.0022    1.7723    3.4835 H   0  0  0  0  0  0  0  0  0  0  0  0
    1.7523   -0.8042    1.1684 H   0  0  0  0  0  0  0  0  0  0  0  0
    2.8397    0.4989    1.3867 H   0  0  0  0  0  0  0  0  0  0  0  0
    2.3620   -2.7813    2.0703 H   0  0  0  0  0  0  0  0  0  0  0  0
    6.2291   -0.9887    2.4722 H   0  0  0  0  0  0  0  0  0  0  0  0
    7.8366   -1.6002    0.7116 H   0  0  0  0  0  0  0  0  0  0  0  0
    7.0370   -2.5590   -1.4568 H   0  0  0  0  0  0  0  0  0  0  0  0
    4.5931   -2.8721   -1.8403 H   0  0  0  0  0  0  0  0  0  0  0  0
    2.9707   -2.2657   -0.0877 H   0  0  0  0  0  0  0  0  0  0  0  0
    1.3657   -0.8291    6.2399 H   0  0  0  0  0  0  0  0  0  0  0  0
    0.0216   -0.8133    5.0899 H   0  0  0  0  0  0  0  0  0  0  0  0
   -0.1089   -0.0176    6.6412 H   0  0  0  0  0  0  0  0  0  0  0  0
    1.3883    6.1267    3.7264 H   0  0  0  0  0  0  0  0  0  0  0  0
   -0.9312    4.7670    4.8619 H   0  0  0  0  0  0  0  0  0  0  0  0
   -0.9120    4.8964    2.0484 H   0  0  0  0  0  0  0  0  0  0  0  0
    0.2188    3.2304    1.8514 H   0  0  0  0  0  0  0  0  0  0  0  0
  2  1  1  1
  1 29  1  0
  1 30  1  0
  1 31  1  0
  2 21  1  0
  2 27  1  0
  2  3  1  0
  3  4  1  0
  3 32  1  0
  3 33  1  0
  4 21  1  0
  4  5  1  0
  4 34  1  1
  5  6  1  0
  5 35  1  0
  5 36  1  0
  6  7  1  0
  6 23  1  0
  6 37  1  6
  7  8  1  0
  7 38  1  0
  7 39  1  0
  8 20  1  1
  8  9  1  0
  8 21  1  0
  9 10  1  0
 10 11  1  0
 10 40  1  0
 10 41  1  0
 11 12  1  1
 11 13  1  0
 11 19  1  0
 12 42  1  0
 13 18  1  0
 13 14  2  0
 14 15  1  0
 14 43  1  0
 15 16  2  0
 15 44  1  0
 16 17  1  0
 16 45  1  0
 17 18  2  0
 17 46  1  0
 18 47  1  0
 19 20  1  0
 21 22  1  1
 22 48  1  0
 22 49  1  0
 22 50  1  0
 23 27  1  0
 23 24  2  0
 24 25  1  0
 24 51  1  0
 25 26  1  0
 25 27  1  0
 25 52  1  1
 26 53  1  0
 27 28  1  6
 28 54  1  0
M  END
>  <i_m_ct_stereo_status>  (252) 
1

>  <s_m_source_file>  (252) 
/var/tmp/pbs.5076255.sched01/tmptyawoosb/846vw0lfia.sdf

>  <i_m_source_file_index>  (252) 
18

>  <i_lp_mmshare_version>  (252) 
48012

>  <i_f3d_flags>  (252) 
0

>  <s_epik_input>  (252) 
W0NIMl0xW0NAQEhdMltDSDJdW0NAQEhdKFtDSDJdMylDKD1bQ0hdW0NASF00W09IXSlbQ0BAXTQoW09IXSlbQ0BAXTEoW0NIM10pW0NAQF0yKFtDSDNdKVtDQEBdMzVPW0NIMl1bQ0BdKFtPSF0pKE9PNSljNltjSF1bY0hdW2NIXVtjSF1bY0hdNg==

>  <s_epik_cmdline>  (252) 
J2VwaWtfcHl0aG9uJywgJy1waHQnLCAnMi4wJywgJy1waCcsICc3LjAnLCAnLXRuJywgJzgnLCAnLW1hJywgJzIwMCcsICctaW1hZScsICc8aW5maWxlLm1hZT4nLCAnLW9tYWUnLCAnPG91dGZpbGUubWFlPic=

>  <r_lp_tautomer_probability>  (252) 
1

>  <r_epik_Ionization_Penalty>  (252) 
0.00022599

>  <r_epik_Ionization_Penalty_Charging>  (252) 
0

>  <r_epik_Ionization_Penalty_Neutral>  (252) 
0.00022599

>  <r_epik_State_Penalty>  (252) 
-0

>  <r_epik_Charging_Adjusted_Penalty>  (252) 
0

>  <i_epik_Tot_Q>  (252) 
0

>  <i_epik_Tot_abs_Q>  (252) 
0

>  <s_lp_Force_Field>  (252) 
OPLS3e

>  <r_lp_Energy>  (252) 
50.9513

>  <b_lp_Chiralities_Consistent>  (252) 
1

>  <s_lp_Variant>  (252) 
70:0-1

>  <s_i_glide_gridfile>  (252) 
pfpi4k_grid

>  <i_i_glide_lignum>  (252) 
18

>  <i_i_glide_rotatable_bonds>  (252) 
4

>  <r_i_docking_score>  (252) 
-3.55763

>  <r_i_glide_ligand_efficiency>  (252) 
-0.127058

>  <r_i_glide_ligand_efficiency_sa>  (252) 
-0.385823

>  <r_i_glide_ligand_efficiency_ln>  (252) 
-0.821204

>  <r_i_glide_gscore>  (252) 
-3.55763

>  <r_i_glide_lipo>  (252) 
-0.191933

>  <r_i_glide_hbond>  (252) 
0

>  <r_i_glide_metal>  (252) 
-0

>  <r_i_glide_rewards>  (252) 
-0.774285

>  <r_i_glide_evdw>  (252) 
-17.6285

>  <r_i_glide_ecoul>  (252) 
-12.2451

>  <r_i_glide_erotb>  (252) 
0.130334

>  <r_i_glide_esite>  (252) 
-0.00355459

>  <r_i_glide_emodel>  (252) 
-34.6151

>  <r_i_glide_energy>  (252) 
-29.8736

>  <r_i_glide_einternal>  (252) 
4.60007

>  <r_i_glide_intrahb_reward>  (252) 
-0

>  <i_i_glide_confnum>  (252) 
4

>  <i_i_glide_posenum>  (252) 
12

>  <r_i_glide_eff_state_penalty>  (252) 
0

>  <ligand_id>  (252) 
70

>  <original_smiles>  (252) 
CC12CC3CC(CC4(OCC(O)(c5ccccc5)OO4)C31C)C1=CC(O)C12O

>  <smiles>  (252) 
[H]OC1([H])C([H])=C2C3([H])C([H])([H])C4(OOC(O[H])(c5c([H])c([H])c([H])c([H])c5[H])C([H])([H])O4)C4(C([H])([H])[H])C([H])(C3([H])[H])C([H])([H])C4(C([H])([H])[H])C21O[H]

$$$$
70:0:1
     RDKit          3D

 54 59  0  0  1  0  0  0  0  0999 V2000
    1.7989  -10.0833    2.1107 C   0  0  0  0  0  0  0  0  0  0  0  0
    1.6393   -9.0106    3.1823 C   0  0  1  0  0  0  0  0  0  0  0  0
    1.7325   -9.5871    4.6122 C   0  0  0  0  0  0  0  0  0  0  0  0
    2.5259   -8.3633    5.0356 C   0  0  2  0  0  0  0  0  0  0  0  0
    1.7789   -7.2388    5.7532 C   0  0  0  0  0  0  0  0  0  0  0  0
    0.9345   -6.4217    4.7678 C   0  0  1  0  0  0  0  0  0  0  0  0
    1.8415   -5.7326    3.7622 C   0  0  0  0  0  0  0  0  0  0  0  0
    3.0025   -6.6033    3.1497 C   0  0  1  0  0  0  0  0  0  0  0  0
    3.0098   -6.4581    1.7376 O   0  0  0  0  0  0  0  0  0  0  0  0
    3.2353   -5.1176    1.2851 C   0  0  0  0  0  0  0  0  0  0  0  0
    4.4978   -4.4870    1.9098 C   0  0  1  0  0  0  0  0  0  0  0  0
    5.6152   -5.1537    1.3584 O   0  0  0  0  0  0  0  0  0  0  0  0
    4.5508   -2.9929    1.5588 C   0  0  0  0  0  0  0  0  0  0  0  0
    4.5676   -2.5849    0.2104 C   0  0  0  0  0  0  0  0  0  0  0  0
    4.6220   -1.2221   -0.1383 C   0  0  0  0  0  0  0  0  0  0  0  0
    4.6625   -0.2496    0.8741 C   0  0  0  0  0  0  0  0  0  0  0  0
    4.6409   -0.6289    2.2308 C   0  0  0  0  0  0  0  0  0  0  0  0
    4.5793   -1.9989    2.5730 C   0  0  0  0  0  0  0  0  0  0  0  0
    4.3718   -4.6547    3.3073 O   0  0  0  0  0  0  0  0  0  0  0  0
    4.2474   -6.1176    3.6314 O   0  0  0  0  0  0  0  0  0  0  0  0
    2.9195   -8.1452    3.5486 C   0  0  2  0  0  0  0  0  0  0  0  0
    4.2426   -8.8368    3.1633 C   0  0  0  0  0  0  0  0  0  0  0  0
   -0.0352   -7.3396    4.0166 C   0  0  0  0  0  0  0  0  0  0  0  0
   -1.3015   -7.6706    4.0903 C   0  0  0  0  0  0  0  0  0  0  0  0
   -1.0476   -8.8802    3.1837 C   0  0  1  0  0  0  0  0  0  0  0  0
   -1.9300   -8.9649    2.0915 O   0  0  0  0  0  0  0  0  0  0  0  0
    0.3395   -8.2414    2.8794 C   0  0  2  0  0  0  0  0  0  0  0  0
    0.3534   -7.5072    1.6679 O   0  0  0  0  0  0  0  0  0  0  0  0
    0.8549  -10.6122    1.9840 H   0  0  0  0  0  0  0  0  0  0  0  0
    2.5434  -10.8374    2.3529 H   0  0  0  0  0  0  0  0  0  0  0  0
    2.0653   -9.6413    1.1548 H   0  0  0  0  0  0  0  0  0  0  0  0
    0.7853   -9.6934    5.1413 H   0  0  0  0  0  0  0  0  0  0  0  0
    2.3078  -10.5077    4.6761 H   0  0  0  0  0  0  0  0  0  0  0  0
    3.3725   -8.7037    5.6242 H   0  0  0  0  0  0  0  0  0  0  0  0
    1.1532   -7.6268    6.5632 H   0  0  0  0  0  0  0  0  0  0  0  0
    2.4957   -6.5701    6.2323 H   0  0  0  0  0  0  0  0  0  0  0  0
    0.3449   -5.6767    5.3037 H   0  0  0  0  0  0  0  0  0  0  0  0
    1.1533   -5.4096    2.9902 H   0  0  0  0  0  0  0  0  0  0  0  0
    2.2078   -4.8161    4.2169 H   0  0  0  0  0  0  0  0  0  0  0  0
    3.2807   -5.1403    0.2018 H   0  0  0  0  0  0  0  0  0  0  0  0
    2.3914   -4.4749    1.5319 H   0  0  0  0  0  0  0  0  0  0  0  0
    5.4776   -6.0745    1.5028 H   0  0  0  0  0  0  0  0  0  0  0  0
    4.5379   -3.3272   -0.5837 H   0  0  0  0  0  0  0  0  0  0  0  0
    4.6373   -0.9187   -1.1827 H   0  0  0  0  0  0  0  0  0  0  0  0
    4.6986    0.7916    0.6063 H   0  0  0  0  0  0  0  0  0  0  0  0
    4.6776    0.1269    2.9992 H   0  0  0  0  0  0  0  0  0  0  0  0
    4.5610   -2.2601    3.6193 H   0  0  0  0  0  0  0  0  0  0  0  0
    5.1123   -8.4099    3.6620 H   0  0  0  0  0  0  0  0  0  0  0  0
    4.4136   -8.8256    2.0875 H   0  0  0  0  0  0  0  0  0  0  0  0
    4.2380   -9.8882    3.4607 H   0  0  0  0  0  0  0  0  0  0  0  0
   -2.1601   -7.3822    4.7269 H   0  0  0  0  0  0  0  0  0  0  0  0
   -0.9590   -9.8572    3.6606 H   0  0  0  0  0  0  0  0  0  0  0  0
   -1.5455   -9.5899    1.5015 H   0  0  0  0  0  0  0  0  0  0  0  0
    0.3189   -8.1627    0.9846 H   0  0  0  0  0  0  0  0  0  0  0  0
  2  1  1  6
  1 29  1  0
  1 30  1  0
  1 31  1  0
  2 21  1  0
  2 27  1  0
  2  3  1  0
  3  4  1  0
  3 32  1  0
  3 33  1  0
  4 21  1  0
  4  5  1  0
  4 34  1  1
  5  6  1  0
  5 35  1  0
  5 36  1  0
  6  7  1  0
  6 23  1  0
  6 37  1  1
  7  8  1  0
  7 38  1  0
  7 39  1  0
  8 20  1  1
  8  9  1  0
  8 21  1  0
  9 10  1  0
 10 11  1  0
 10 40  1  0
 10 41  1  0
 11 12  1  6
 11 13  1  0
 11 19  1  0
 12 42  1  0
 13 18  1  0
 13 14  2  0
 14 15  1  0
 14 43  1  0
 15 16  2  0
 15 44  1  0
 16 17  1  0
 16 45  1  0
 17 18  2  0
 17 46  1  0
 18 47  1  0
 19 20  1  0
 21 22  1  1
 22 48  1  0
 22 49  1  0
 22 50  1  0
 23 27  1  0
 23 24  2  0
 24 25  1  0
 24 51  1  0
 25 26  1  0
 25 27  1  0
 25 52  1  1
 26 53  1  0
 27 28  1  6
 28 54  1  0
M  END
>  <i_m_ct_stereo_status>  (253) 
1

>  <s_m_source_file>  (253) 
/var/tmp/pbs.5076255.sched01/tmptyawoosb/846vw0lfia.sdf

>  <i_m_source_file_index>  (253) 
18

>  <i_lp_mmshare_version>  (253) 
48012

>  <i_f3d_flags>  (253) 
0

>  <s_epik_input>  (253) 
W0NIMl0xW0NAQEhdMltDSDJdW0NAQEhdKFtDSDJdMylDKD1bQ0hdW0NASF00W09IXSlbQ0BAXTQoW09IXSlbQ0BAXTEoW0NIM10pW0NAQF0yKFtDSDNdKVtDQEBdMzVPW0NIMl1bQ0BdKFtPSF0pKE9PNSljNltjSF1bY0hdW2NIXVtjSF1bY0hdNg==

>  <s_epik_cmdline>  (253) 
J2VwaWtfcHl0aG9uJywgJy1waHQnLCAnMi4wJywgJy1waCcsICc3LjAnLCAnLXRuJywgJzgnLCAnLW1hJywgJzIwMCcsICctaW1hZScsICc8aW5maWxlLm1hZT4nLCAnLW9tYWUnLCAnPG91dGZpbGUubWFlPic=

>  <r_lp_tautomer_probability>  (253) 
1

>  <r_epik_Ionization_Penalty>  (253) 
0.00022599

>  <r_epik_Ionization_Penalty_Charging>  (253) 
0

>  <r_epik_Ionization_Penalty_Neutral>  (253) 
0.00022599

>  <r_epik_State_Penalty>  (253) 
-0

>  <r_epik_Charging_Adjusted_Penalty>  (253) 
0

>  <i_epik_Tot_Q>  (253) 
0

>  <i_epik_Tot_abs_Q>  (253) 
0

>  <s_lp_Force_Field>  (253) 
OPLS3e

>  <r_lp_Energy>  (253) 
50.9513

>  <b_lp_Chiralities_Consistent>  (253) 
1

>  <s_lp_Variant>  (253) 
70:0-1

>  <s_i_glide_gridfile>  (253) 
pfpi4k_grid

>  <i_i_glide_lignum>  (253) 
18

>  <i_i_glide_rotatable_bonds>  (253) 
4

>  <r_i_docking_score>  (253) 
-3.15582

>  <r_i_glide_ligand_efficiency>  (253) 
-0.112708

>  <r_i_glide_ligand_efficiency_sa>  (253) 
-0.342248

>  <r_i_glide_ligand_efficiency_ln>  (253) 
-0.728457

>  <r_i_glide_gscore>  (253) 
-3.15582

>  <r_i_glide_lipo>  (253) 
-0.379889

>  <r_i_glide_hbond>  (253) 
0

>  <r_i_glide_metal>  (253) 
-0

>  <r_i_glide_rewards>  (253) 
-0.796691

>  <r_i_glide_evdw>  (253) 
-23.9127

>  <r_i_glide_ecoul>  (253) 
-6.08986

>  <r_i_glide_erotb>  (253) 
0.130334

>  <r_i_glide_esite>  (253) 
-0.000464036

>  <r_i_glide_emodel>  (253) 
-35.8367

>  <r_i_glide_energy>  (253) 
-30.0026

>  <r_i_glide_einternal>  (253) 
0.445982

>  <r_i_glide_intrahb_reward>  (253) 
-0

>  <i_i_glide_confnum>  (253) 
1

>  <i_i_glide_posenum>  (253) 
15

>  <r_i_glide_eff_state_penalty>  (253) 
0

>  <ligand_id>  (253) 
70

>  <original_smiles>  (253) 
CC12CC3CC(CC4(OCC(O)(c5ccccc5)OO4)C31C)C1=CC(O)C12O

>  <smiles>  (253) 
[H]OC1([H])C([H])=C2C3([H])C([H])([H])C4(OOC(O[H])(c5c([H])c([H])c([H])c([H])c5[H])C([H])([H])O4)C4(C([H])([H])[H])C([H])(C3([H])[H])C([H])([H])C4(C([H])([H])[H])C21O[H]

$$$$
70:0:2
     RDKit          3D

 54 59  0  0  1  0  0  0  0  0999 V2000
    1.4999   -9.9688    2.6807 C   0  0  0  0  0  0  0  0  0  0  0  0
    1.5922   -8.6635    3.4602 C   0  0  1  0  0  0  0  0  0  0  0  0
    1.8997   -8.8645    4.9571 C   0  0  0  0  0  0  0  0  0  0  0  0
    2.8212   -7.6594    4.9267 C   0  0  2  0  0  0  0  0  0  0  0  0
    2.2695   -6.3215    5.4369 C   0  0  0  0  0  0  0  0  0  0  0  0
    1.3067   -5.7057    4.4227 C   0  0  1  0  0  0  0  0  0  0  0  0
    2.0648   -5.3584    3.1420 C   0  0  0  0  0  0  0  0  0  0  0  0
    3.0485   -6.4621    2.6056 C   0  0  1  0  0  0  0  0  0  0  0  0
    2.8190   -6.6389    1.2154 O   0  0  0  0  0  0  0  0  0  0  0  0
    3.0374   -5.4744    0.4259 C   0  0  0  0  0  0  0  0  0  0  0  0
    4.4271   -4.8595    0.6458 C   0  0  1  0  0  0  0  0  0  0  0  0
    5.3823   -5.7543    0.1393 O   0  0  0  0  0  0  0  0  0  0  0  0
    4.5246   -3.5076   -0.0750 C   0  0  0  0  0  0  0  0  0  0  0  0
    4.4976   -2.2748    0.6256 C   0  0  0  0  0  0  0  0  0  0  0  0
    4.6135   -1.0497   -0.0616 C   0  0  0  0  0  0  0  0  0  0  0  0
    4.7297   -1.0400   -1.4668 C   0  0  0  0  0  0  0  0  0  0  0  0
    4.7248   -2.2454   -2.1827 C   0  0  0  0  0  0  0  0  0  0  0  0
    4.6141   -3.4669   -1.4919 C   0  0  0  0  0  0  0  0  0  0  0  0
    4.5329   -4.6686    2.0492 O   0  0  0  0  0  0  0  0  0  0  0  0
    4.3799   -5.9899    2.7349 O   0  0  0  0  0  0  0  0  0  0  0  0
    2.9558   -7.8361    3.3783 C   0  0  2  0  0  0  0  0  0  0  0  0
    4.1551   -8.7353    2.9908 C   0  0  0  0  0  0  0  0  0  0  0  0
    0.2049   -6.6727    4.0787 C   0  0  0  0  0  0  0  0  0  0  0  0
   -1.0737   -6.8657    4.4698 C   0  0  0  0  0  0  0  0  0  0  0  0
   -1.0379   -8.2702    3.8646 C   0  0  1  0  0  0  0  0  0  0  0  0
   -2.1497   -8.5330    3.0444 O   0  0  0  0  0  0  0  0  0  0  0  0
    0.2911   -7.8695    3.1743 C   0  0  2  0  0  0  0  0  0  0  0  0
    0.1376   -7.4512    1.8284 O   0  0  0  0  0  0  0  0  0  0  0  0
    0.5230  -10.4347    2.8120 H   0  0  0  0  0  0  0  0  0  0  0  0
    2.2340  -10.7120    2.9888 H   0  0  0  0  0  0  0  0  0  0  0  0
    1.6259   -9.7948    1.6155 H   0  0  0  0  0  0  0  0  0  0  0  0
    1.0601   -8.7484    5.6347 H   0  0  0  0  0  0  0  0  0  0  0  0
    2.4313   -9.7963    5.1631 H   0  0  0  0  0  0  0  0  0  0  0  0
    3.7359   -7.9210    5.4351 H   0  0  0  0  0  0  0  0  0  0  0  0
    1.7781   -6.4413    6.4070 H   0  0  0  0  0  0  0  0  0  0  0  0
    3.0938   -5.6297    5.6097 H   0  0  0  0  0  0  0  0  0  0  0  0
    0.8617   -4.7906    4.8323 H   0  0  0  0  0  0  0  0  0  0  0  0
    1.2606   -5.1754    2.4448 H   0  0  0  0  0  0  0  0  0  0  0  0
    2.5456   -4.4015    3.2853 H   0  0  0  0  0  0  0  0  0  0  0  0
    2.8773   -5.7290   -0.6120 H   0  0  0  0  0  0  0  0  0  0  0  0
    2.2873   -4.7135    0.6163 H   0  0  0  0  0  0  0  0  0  0  0  0
    5.1867   -6.6089    0.5031 H   0  0  0  0  0  0  0  0  0  0  0  0
    4.4018   -2.2555    1.7043 H   0  0  0  0  0  0  0  0  0  0  0  0
    4.6182   -0.1147    0.4849 H   0  0  0  0  0  0  0  0  0  0  0  0
    4.8199   -0.1012   -1.9938 H   0  0  0  0  0  0  0  0  0  0  0  0
    4.8154   -2.2389   -3.2676 H   0  0  0  0  0  0  0  0  0  0  0  0
    4.6111   -4.3975   -2.0538 H   0  0  0  0  0  0  0  0  0  0  0  0
    5.1181   -8.2774    3.2190 H   0  0  0  0  0  0  0  0  0  0  0  0
    4.1344   -8.9960    1.9318 H   0  0  0  0  0  0  0  0  0  0  0  0
    4.1481   -9.6705    3.5399 H   0  0  0  0  0  0  0  0  0  0  0  0
   -1.7593   -6.3497    5.1355 H   0  0  0  0  0  0  0  0  0  0  0  0
   -0.9157   -9.0929    4.5790 H   0  0  0  0  0  0  0  0  0  0  0  0
   -2.2048   -9.4785    3.0107 H   0  0  0  0  0  0  0  0  0  0  0  0
    0.0659   -8.2461    1.3263 H   0  0  0  0  0  0  0  0  0  0  0  0
  2  1  1  6
  1 29  1  0
  1 30  1  0
  1 31  1  0
  2 21  1  0
  2 27  1  0
  2  3  1  0
  3  4  1  0
  3 32  1  0
  3 33  1  0
  4 21  1  0
  4  5  1  0
  4 34  1  1
  5  6  1  0
  5 35  1  0
  5 36  1  0
  6  7  1  0
  6 23  1  0
  6 37  1  1
  7  8  1  0
  7 38  1  0
  7 39  1  0
  8 20  1  6
  8  9  1  0
  8 21  1  0
  9 10  1  0
 10 11  1  0
 10 40  1  0
 10 41  1  0
 11 12  1  6
 11 13  1  0
 11 19  1  0
 12 42  1  0
 13 18  1  0
 13 14  2  0
 14 15  1  0
 14 43  1  0
 15 16  2  0
 15 44  1  0
 16 17  1  0
 16 45  1  0
 17 18  2  0
 17 46  1  0
 18 47  1  0
 19 20  1  0
 21 22  1  1
 22 48  1  0
 22 49  1  0
 22 50  1  0
 23 27  1  0
 23 24  2  0
 24 25  1  0
 24 51  1  0
 25 26  1  0
 25 27  1  0
 25 52  1  1
 26 53  1  0
 27 28  1  6
 28 54  1  0
M  END
>  <i_m_ct_stereo_status>  (254) 
1

>  <s_m_source_file>  (254) 
/var/tmp/pbs.5076255.sched01/tmptyawoosb/846vw0lfia.sdf

>  <i_m_source_file_index>  (254) 
18

>  <i_lp_mmshare_version>  (254) 
48012

>  <i_f3d_flags>  (254) 
0

>  <s_epik_input>  (254) 
W0NIMl0xW0NAQEhdMltDSDJdW0NAQEhdKFtDSDJdMylDKD1bQ0hdW0NASF00W09IXSlbQ0BAXTQoW09IXSlbQ0BAXTEoW0NIM10pW0NAQF0yKFtDSDNdKVtDQEBdMzVPW0NIMl1bQ0BdKFtPSF0pKE9PNSljNltjSF1bY0hdW2NIXVtjSF1bY0hdNg==

>  <s_epik_cmdline>  (254) 
J2VwaWtfcHl0aG9uJywgJy1waHQnLCAnMi4wJywgJy1waCcsICc3LjAnLCAnLXRuJywgJzgnLCAnLW1hJywgJzIwMCcsICctaW1hZScsICc8aW5maWxlLm1hZT4nLCAnLW9tYWUnLCAnPG91dGZpbGUubWFlPic=

>  <r_lp_tautomer_probability>  (254) 
1

>  <r_epik_Ionization_Penalty>  (254) 
0.00022599

>  <r_epik_Ionization_Penalty_Charging>  (254) 
0

>  <r_epik_Ionization_Penalty_Neutral>  (254) 
0.00022599

>  <r_epik_State_Penalty>  (254) 
-0

>  <r_epik_Charging_Adjusted_Penalty>  (254) 
0

>  <i_epik_Tot_Q>  (254) 
0

>  <i_epik_Tot_abs_Q>  (254) 
0

>  <s_lp_Force_Field>  (254) 
OPLS3e

>  <r_lp_Energy>  (254) 
50.9513

>  <b_lp_Chiralities_Consistent>  (254) 
1

>  <s_lp_Variant>  (254) 
70:0-1

>  <s_i_glide_gridfile>  (254) 
pfpi4k_grid

>  <i_i_glide_lignum>  (254) 
18

>  <i_i_glide_rotatable_bonds>  (254) 
4

>  <r_i_docking_score>  (254) 
-2.92943

>  <r_i_glide_ligand_efficiency>  (254) 
-0.104622

>  <r_i_glide_ligand_efficiency_sa>  (254) 
-0.317695

>  <r_i_glide_ligand_efficiency_ln>  (254) 
-0.676198

>  <r_i_glide_gscore>  (254) 
-2.92943

>  <r_i_glide_lipo>  (254) 
-0.170139

>  <r_i_glide_hbond>  (254) 
0

>  <r_i_glide_metal>  (254) 
-0

>  <r_i_glide_rewards>  (254) 
-0.833427

>  <r_i_glide_evdw>  (254) 
-24.5103

>  <r_i_glide_ecoul>  (254) 
-5.53374

>  <r_i_glide_erotb>  (254) 
0.130334

>  <r_i_glide_esite>  (254) 
-0.000620172

>  <r_i_glide_emodel>  (254) 
-35.3026

>  <r_i_glide_energy>  (254) 
-30.044

>  <r_i_glide_einternal>  (254) 
0.871925

>  <r_i_glide_intrahb_reward>  (254) 
-0

>  <i_i_glide_confnum>  (254) 
2

>  <i_i_glide_posenum>  (254) 
10

>  <r_i_glide_eff_state_penalty>  (254) 
0

>  <ligand_id>  (254) 
70

>  <original_smiles>  (254) 
CC12CC3CC(CC4(OCC(O)(c5ccccc5)OO4)C31C)C1=CC(O)C12O

>  <smiles>  (254) 
[H]OC1([H])C([H])=C2C3([H])C([H])([H])C4(OOC(O[H])(c5c([H])c([H])c([H])c([H])c5[H])C([H])([H])O4)C4(C([H])([H])[H])C([H])(C3([H])[H])C([H])([H])C4(C([H])([H])[H])C21O[H]

$$$$
72:0:0
     RDKit          3D

 51 55  0  0  1  0  0  0  0  0999 V2000
    2.8851   -2.9067   -3.3963 C   0  0  0  0  0  0  0  0  0  0  0  0
    3.3828   -2.6665   -1.9661 C   0  0  0  0  0  0  0  0  0  0  0  0
    3.6067   -1.1708   -1.7054 C   0  0  0  0  0  0  0  0  0  0  0  0
    4.2792   -0.9468   -0.3354 C   0  0  0  0  0  0  0  0  0  0  0  0
    3.3115   -1.2329    0.8213 C   0  0  0  0  0  0  0  0  0  0  0  0
    3.8638   -0.8090    2.1162 N   0  0  0  0  0  0  0  0  0  0  0  0
    5.1243   -1.2048    2.4435 N   0  0  0  0  0  0  0  0  0  0  0  0
    5.3884   -0.7142    3.6214 N   0  0  0  0  0  0  0  0  0  0  0  0
    4.3188   -0.0117    4.1145 N   0  0  0  0  0  0  0  0  0  0  0  0
    3.3637   -0.1230    3.1764 C   0  0  0  0  0  0  0  0  0  0  0  0
    1.9969    0.5096    3.3673 C   0  0  2  0  0  0  0  0  0  0  0  0
    1.4601    0.1712    4.8010 C   0  0  0  0  0  0  0  0  0  0  0  0
    0.0679    0.8039    5.0251 C   0  0  1  0  0  0  0  0  0  0  0  0
    0.1743    2.3366    4.8739 C   0  0  0  0  0  0  0  0  0  0  0  0
    0.6591    2.6779    3.4550 C   0  0  2  0  0  0  0  0  0  0  0  0
   -0.3522    2.1076    2.4394 C   0  0  0  0  0  0  0  0  0  0  0  0
   -0.4550    0.5917    2.6078 C   0  0  2  0  0  0  0  0  0  0  0  0
   -0.9439    0.2328    4.0133 C   0  0  0  0  0  0  0  0  0  0  0  0
    0.9338    0.0079    2.3517 C   0  0  0  0  0  0  0  0  0  0  0  0
    2.0639    2.0593    3.2240 C   0  0  0  0  0  0  0  0  0  0  0  0
    4.4522   -0.5720   -2.8213 C   0  0  0  0  0  0  0  0  0  0  0  0
    3.8999   -0.9352   -4.2021 C   0  0  0  0  0  0  0  0  0  0  0  0
    3.8126   -2.3466   -4.3248 O   0  0  0  0  0  0  0  0  0  0  0  0
    1.8880   -2.4881   -3.5392 H   0  0  0  0  0  0  0  0  0  0  0  0
    2.8076   -3.9742   -3.5858 H   0  0  0  0  0  0  0  0  0  0  0  0
    2.6610   -3.0825   -1.2596 H   0  0  0  0  0  0  0  0  0  0  0  0
    4.3176   -3.2054   -1.8134 H   0  0  0  0  0  0  0  0  0  0  0  0
    2.6388   -0.6676   -1.7654 H   0  0  0  0  0  0  0  0  0  0  0  0
    5.2048   -1.5377   -0.2594 H   0  0  0  0  0  0  0  0  0  0  0  0
    4.5732    0.0989   -0.2503 H   0  0  0  0  0  0  0  0  0  0  0  0
    2.4476   -0.6784    0.5291 H   0  0  0  0  0  0  0  0  0  0  0  0
    3.0674   -2.3021    0.9043 H   0  0  0  0  0  0  0  0  0  0  0  0
    1.4122   -0.9123    4.9103 H   0  0  0  0  0  0  0  0  0  0  0  0
    2.1519    0.5168    5.5744 H   0  0  0  0  0  0  0  0  0  0  0  0
   -0.2771    0.5645    6.0250 H   0  0  0  0  0  0  0  0  0  0  0  0
   -0.7921    2.8125    5.0659 H   0  0  0  0  0  0  0  0  0  0  0  0
    0.8704    2.7346    5.6092 H   0  0  0  0  0  0  0  0  0  0  0  0
    0.7184    3.7586    3.3271 H   0  0  0  0  0  0  0  0  0  0  0  0
   -1.3266    2.5892    2.5116 H   0  0  0  0  0  0  0  0  0  0  0  0
    0.0092    2.2733    1.4283 H   0  0  0  0  0  0  0  0  0  0  0  0
   -1.1301    0.2119    1.8522 H   0  0  0  0  0  0  0  0  0  0  0  0
   -1.0050   -0.8499    4.1013 H   0  0  0  0  0  0  0  0  0  0  0  0
   -1.9571    0.6313    4.1642 H   0  0  0  0  0  0  0  0  0  0  0  0
    1.1681    0.3867    1.3681 H   0  0  0  0  0  0  0  0  0  0  0  0
    0.8900   -1.0800    2.3130 H   0  0  0  0  0  0  0  0  0  0  0  0
    2.7752    2.4821    3.9348 H   0  0  0  0  0  0  0  0  0  0  0  0
    2.4371    2.3377    2.2339 H   0  0  0  0  0  0  0  0  0  0  0  0
    4.5204    0.5136   -2.7266 H   0  0  0  0  0  0  0  0  0  0  0  0
    5.4498   -0.9768   -2.7133 H   0  0  0  0  0  0  0  0  0  0  0  0
    2.9302   -0.4654   -4.3729 H   0  0  0  0  0  0  0  0  0  0  0  0
    4.5795   -0.5662   -4.9680 H   0  0  0  0  0  0  0  0  0  0  0  0
  1 23  1  0
  1  2  1  0
  1 24  1  0
  1 25  1  0
  2  3  1  0
  2 26  1  0
  2 27  1  0
  3  4  1  0
  3 21  1  0
  3 28  1  0
  4  5  1  0
  4 29  1  0
  4 30  1  0
  5  6  1  0
  5 31  1  0
  5 32  1  0
  6 10  1  0
  6  7  1  0
  7  8  2  0
  8  9  1  0
  9 10  2  0
 11 10  1  6
 11 19  1  0
 11 20  1  0
 11 12  1  0
 12 13  1  0
 12 33  1  0
 12 34  1  0
 13 18  1  0
 13 14  1  0
 13 35  1  1
 14 15  1  0
 14 36  1  0
 14 37  1  0
 15 16  1  0
 15 20  1  0
 15 38  1  1
 16 17  1  0
 16 39  1  0
 16 40  1  0
 17 18  1  0
 17 19  1  0
 17 41  1  6
 18 42  1  0
 18 43  1  0
 19 44  1  0
 19 45  1  0
 20 46  1  0
 20 47  1  0
 21 22  1  0
 21 48  1  0
 21 49  1  0
 22 23  1  0
 22 50  1  0
 22 51  1  0
M  END
>  <i_m_ct_stereo_status>  (255) 
1

>  <s_m_source_file>  (255) 
/var/tmp/pbs.5076255.sched01/tmptyawoosb/846vw0lfia.sdf

>  <i_m_source_file_index>  (255) 
20

>  <i_lp_mmshare_version>  (255) 
48012

>  <i_f3d_flags>  (255) 
0

>  <s_epik_input>  (255) 
W0NIMl0xW0NIMl1PW0NIMl1bQ0gyXVtDSF0xW0NIMl1bQ0gyXW4ybm5uYzJDMzRbQ0gyXVtDQEBIXTVbQ0gyXVtDQEhdKFtDSDJdNClbQ0gyXVtDQEBIXShbQ0gyXTUpW0NIMl0z

>  <s_epik_cmdline>  (255) 
J2VwaWtfcHl0aG9uJywgJy1waHQnLCAnMi4wJywgJy1waCcsICc3LjAnLCAnLXRuJywgJzgnLCAnLW1hJywgJzIwMCcsICctaW1hZScsICc8aW5maWxlLm1hZT4nLCAnLW9tYWUnLCAnPG91dGZpbGUubWFlPic=

>  <r_lp_tautomer_probability>  (255) 
1

>  <r_epik_Ionization_Penalty>  (255) 
2.59974e-07

>  <r_epik_Ionization_Penalty_Charging>  (255) 
0

>  <r_epik_Ionization_Penalty_Neutral>  (255) 
2.59974e-07

>  <r_epik_State_Penalty>  (255) 
-0

>  <r_epik_Charging_Adjusted_Penalty>  (255) 
0

>  <i_epik_Tot_Q>  (255) 
0

>  <i_epik_Tot_abs_Q>  (255) 
0

>  <s_lp_Force_Field>  (255) 
OPLS3e

>  <r_lp_Energy>  (255) 
13.8207

>  <b_lp_Chiralities_Consistent>  (255) 
1

>  <s_lp_Variant>  (255) 
72:0-1

>  <s_i_glide_gridfile>  (255) 
pfpi4k_grid

>  <i_i_glide_lignum>  (255) 
20

>  <i_i_glide_rotatable_bonds>  (255) 
4

>  <r_i_docking_score>  (255) 
-3.1257

>  <r_i_glide_ligand_efficiency>  (255) 
-0.1359

>  <r_i_glide_ligand_efficiency_sa>  (255) 
-0.386482

>  <r_i_glide_ligand_efficiency_ln>  (255) 
-0.755823

>  <r_i_glide_gscore>  (255) 
-3.1257

>  <r_i_glide_lipo>  (255) 
-0.340642

>  <r_i_glide_hbond>  (255) 
-0.32

>  <r_i_glide_metal>  (255) 
-0

>  <r_i_glide_rewards>  (255) 
-1.28034

>  <r_i_glide_evdw>  (255) 
-24.0401

>  <r_i_glide_ecoul>  (255) 
-4.84256

>  <r_i_glide_erotb>  (255) 
0.743669

>  <r_i_glide_esite>  (255) 
0

>  <r_i_glide_emodel>  (255) 
-32.4671

>  <r_i_glide_energy>  (255) 
-28.8826

>  <r_i_glide_einternal>  (255) 
1.23447

>  <r_i_glide_intrahb_reward>  (255) 
-0

>  <i_i_glide_confnum>  (255) 
2

>  <i_i_glide_posenum>  (255) 
33

>  <r_i_glide_eff_state_penalty>  (255) 
0

>  <ligand_id>  (255) 
72

>  <original_smiles>  (255) 
C1CC(CCn2nnnc2C23CC4CC(CC(C4)C2)C3)CCO1

>  <smiles>  (255) 
[H]C1([H])OC([H])([H])C([H])([H])C([H])(C([H])([H])C([H])([H])n2nnnc2C23C([H])([H])C4([H])C([H])([H])C([H])(C([H])([H])C([H])(C4([H])[H])C2([H])[H])C3([H])[H])C1([H])[H]

$$$$
72:0:1
     RDKit          3D

 51 55  0  0  1  0  0  0  0  0999 V2000
    2.8076   -3.0671   -3.5094 C   0  0  0  0  0  0  0  0  0  0  0  0
    3.2629   -3.0415   -2.0434 C   0  0  0  0  0  0  0  0  0  0  0  0
    3.5835   -1.6091   -1.5855 C   0  0  0  0  0  0  0  0  0  0  0  0
    4.2053   -1.6001   -0.1744 C   0  0  0  0  0  0  0  0  0  0  0  0
    3.1801   -2.0291    0.8940 C   0  0  0  0  0  0  0  0  0  0  0  0
    3.6714   -1.7294    2.2478 N   0  0  0  0  0  0  0  0  0  0  0  0
    4.8059   -2.3803    2.6537 N   0  0  0  0  0  0  0  0  0  0  0  0
    5.0478   -2.0005    3.8749 N   0  0  0  0  0  0  0  0  0  0  0  0
    4.1207   -1.0738    4.3067 N   0  0  0  0  0  0  0  0  0  0  0  0
    3.2496   -0.9686    3.2892 C   0  0  0  0  0  0  0  0  0  0  0  0
    2.0289   -0.0618    3.4292 C   0  0  2  0  0  0  0  0  0  0  0  0
    1.3476   -0.3026    4.8118 C   0  0  0  0  0  0  0  0  0  0  0  0
    0.1100    0.5969    4.9549 C   0  0  1  0  0  0  0  0  0  0  0  0
    0.5280    2.0752    4.8420 C   0  0  0  0  0  0  0  0  0  0  0  0
    1.1689    2.3271    3.4646 C   0  0  2  0  0  0  0  0  0  0  0  0
    0.1397    1.9971    2.3661 C   0  0  0  0  0  0  0  0  0  0  0  0
   -0.2842    0.5298    2.5047 C   0  0  2  0  0  0  0  0  0  0  0  0
   -0.9308    0.2622    3.8683 C   0  0  0  0  0  0  0  0  0  0  0  0
    0.9690   -0.3201    2.3281 C   0  0  0  0  0  0  0  0  0  0  0  0
    2.4325    1.4359    3.3152 C   0  0  0  0  0  0  0  0  0  0  0  0
    4.5132   -0.9351   -2.5930 C   0  0  0  0  0  0  0  0  0  0  0  0
    3.9767   -1.0845   -4.0230 C   0  0  0  0  0  0  0  0  0  0  0  0
    3.7977   -2.4585   -4.3221 O   0  0  0  0  0  0  0  0  0  0  0  0
    1.8453   -2.5683   -3.6228 H   0  0  0  0  0  0  0  0  0  0  0  0
    2.6657   -4.0959   -3.8353 H   0  0  0  0  0  0  0  0  0  0  0  0
    2.4866   -3.4920   -1.4161 H   0  0  0  0  0  0  0  0  0  0  0  0
    4.1530   -3.6611   -1.9303 H   0  0  0  0  0  0  0  0  0  0  0  0
    2.6574   -1.0351   -1.6157 H   0  0  0  0  0  0  0  0  0  0  0  0
    5.1048   -2.2258   -0.1440 H   0  0  0  0  0  0  0  0  0  0  0  0
    4.5349   -0.5806    0.0540 H   0  0  0  0  0  0  0  0  0  0  0  0
    2.2547   -1.4992    0.6212 H   0  0  0  0  0  0  0  0  0  0  0  0
    2.9910   -3.1096    0.8648 H   0  0  0  0  0  0  0  0  0  0  0  0
    1.0937   -1.3623    4.8881 H   0  0  0  0  0  0  0  0  0  0  0  0
    2.0503   -0.1235    5.6368 H   0  0  0  0  0  0  0  0  0  0  0  0
   -0.3495    0.4249    5.9204 H   0  0  0  0  0  0  0  0  0  0  0  0
   -0.3286    2.7350    4.9734 H   0  0  0  0  0  0  0  0  0  0  0  0
    1.2367    2.3164    5.6267 H   0  0  0  0  0  0  0  0  0  0  0  0
    1.4591    3.3722    3.3692 H   0  0  0  0  0  0  0  0  0  0  0  0
   -0.7315    2.6524    2.4052 H   0  0  0  0  0  0  0  0  0  0  0  0
    0.5906    2.1599    1.3873 H   0  0  0  0  0  0  0  0  0  0  0  0
   -0.9825    0.3019    1.7051 H   0  0  0  0  0  0  0  0  0  0  0  0
   -1.2130   -0.7886    3.9323 H   0  0  0  0  0  0  0  0  0  0  0  0
   -1.8543    0.8486    3.9653 H   0  0  0  0  0  0  0  0  0  0  0  0
    1.3564    0.0200    1.3766 H   0  0  0  0  0  0  0  0  0  0  0  0
    0.6995   -1.3692    2.2529 H   0  0  0  0  0  0  0  0  0  0  0  0
    3.1692    1.6949    4.0819 H   0  0  0  0  0  0  0  0  0  0  0  0
    2.9262    1.6367    2.3554 H   0  0  0  0  0  0  0  0  0  0  0  0
    4.6313    0.1231   -2.3467 H   0  0  0  0  0  0  0  0  0  0  0  0
    5.4880   -1.4077   -2.5101 H   0  0  0  0  0  0  0  0  0  0  0  0
    3.0438   -0.5342   -4.1534 H   0  0  0  0  0  0  0  0  0  0  0  0
    4.6929   -0.6660   -4.7226 H   0  0  0  0  0  0  0  0  0  0  0  0
  1 23  1  0
  1  2  1  0
  1 24  1  0
  1 25  1  0
  2  3  1  0
  2 26  1  0
  2 27  1  0
  3  4  1  0
  3 21  1  0
  3 28  1  0
  4  5  1  0
  4 29  1  0
  4 30  1  0
  5  6  1  0
  5 31  1  0
  5 32  1  0
  6 10  1  0
  6  7  1  0
  7  8  2  0
  8  9  1  0
  9 10  2  0
 11 10  1  6
 11 19  1  0
 11 20  1  0
 11 12  1  0
 12 13  1  0
 12 33  1  0
 12 34  1  0
 13 18  1  0
 13 14  1  0
 13 35  1  1
 14 15  1  0
 14 36  1  0
 14 37  1  0
 15 16  1  0
 15 20  1  0
 15 38  1  1
 16 17  1  0
 16 39  1  0
 16 40  1  0
 17 18  1  0
 17 19  1  0
 17 41  1  6
 18 42  1  0
 18 43  1  0
 19 44  1  0
 19 45  1  0
 20 46  1  0
 20 47  1  0
 21 22  1  0
 21 48  1  0
 21 49  1  0
 22 23  1  0
 22 50  1  0
 22 51  1  0
M  END
>  <i_m_ct_stereo_status>  (256) 
1

>  <s_m_source_file>  (256) 
/var/tmp/pbs.5076255.sched01/tmptyawoosb/846vw0lfia.sdf

>  <i_m_source_file_index>  (256) 
20

>  <i_lp_mmshare_version>  (256) 
48012

>  <i_f3d_flags>  (256) 
0

>  <s_epik_input>  (256) 
W0NIMl0xW0NIMl1PW0NIMl1bQ0gyXVtDSF0xW0NIMl1bQ0gyXW4ybm5uYzJDMzRbQ0gyXVtDQEBIXTVbQ0gyXVtDQEhdKFtDSDJdNClbQ0gyXVtDQEBIXShbQ0gyXTUpW0NIMl0z

>  <s_epik_cmdline>  (256) 
J2VwaWtfcHl0aG9uJywgJy1waHQnLCAnMi4wJywgJy1waCcsICc3LjAnLCAnLXRuJywgJzgnLCAnLW1hJywgJzIwMCcsICctaW1hZScsICc8aW5maWxlLm1hZT4nLCAnLW9tYWUnLCAnPG91dGZpbGUubWFlPic=

>  <r_lp_tautomer_probability>  (256) 
1

>  <r_epik_Ionization_Penalty>  (256) 
2.59974e-07

>  <r_epik_Ionization_Penalty_Charging>  (256) 
0

>  <r_epik_Ionization_Penalty_Neutral>  (256) 
2.59974e-07

>  <r_epik_State_Penalty>  (256) 
-0

>  <r_epik_Charging_Adjusted_Penalty>  (256) 
0

>  <i_epik_Tot_Q>  (256) 
0

>  <i_epik_Tot_abs_Q>  (256) 
0

>  <s_lp_Force_Field>  (256) 
OPLS3e

>  <r_lp_Energy>  (256) 
13.8207

>  <b_lp_Chiralities_Consistent>  (256) 
1

>  <s_lp_Variant>  (256) 
72:0-1

>  <s_i_glide_gridfile>  (256) 
pfpi4k_grid

>  <i_i_glide_lignum>  (256) 
20

>  <i_i_glide_rotatable_bonds>  (256) 
4

>  <r_i_docking_score>  (256) 
-3.04184

>  <r_i_glide_ligand_efficiency>  (256) 
-0.132254

>  <r_i_glide_ligand_efficiency_sa>  (256) 
-0.376112

>  <r_i_glide_ligand_efficiency_ln>  (256) 
-0.735544

>  <r_i_glide_gscore>  (256) 
-3.04184

>  <r_i_glide_lipo>  (256) 
-0.314082

>  <r_i_glide_hbond>  (256) 
-0.32

>  <r_i_glide_metal>  (256) 
-0

>  <r_i_glide_rewards>  (256) 
-1.25218

>  <r_i_glide_evdw>  (256) 
-22.9048

>  <r_i_glide_ecoul>  (256) 
-5.00903

>  <r_i_glide_erotb>  (256) 
0.743669

>  <r_i_glide_esite>  (256) 
-0.00265535

>  <r_i_glide_emodel>  (256) 
-31.8371

>  <r_i_glide_energy>  (256) 
-27.9138

>  <r_i_glide_einternal>  (256) 
0.828479

>  <r_i_glide_intrahb_reward>  (256) 
-0

>  <i_i_glide_confnum>  (256) 
2

>  <i_i_glide_posenum>  (256) 
1

>  <r_i_glide_eff_state_penalty>  (256) 
0

>  <ligand_id>  (256) 
72

>  <original_smiles>  (256) 
C1CC(CCn2nnnc2C23CC4CC(CC(C4)C2)C3)CCO1

>  <smiles>  (256) 
[H]C1([H])OC([H])([H])C([H])([H])C([H])(C([H])([H])C([H])([H])n2nnnc2C23C([H])([H])C4([H])C([H])([H])C([H])(C([H])([H])C([H])(C4([H])[H])C2([H])[H])C3([H])[H])C1([H])[H]

$$$$
72:0:2
     RDKit          3D

 51 55  0  0  1  0  0  0  0  0999 V2000
   -1.5539    1.1092    5.3392 C   0  0  0  0  0  0  0  0  0  0  0  0
   -0.0916    0.7639    5.0319 C   0  0  0  0  0  0  0  0  0  0  0  0
    0.0199   -0.5761    4.2881 C   0  0  0  0  0  0  0  0  0  0  0  0
    1.4918   -0.9738    4.0965 C   0  0  0  0  0  0  0  0  0  0  0  0
    2.1767   -0.1753    2.9643 C   0  0  0  0  0  0  0  0  0  0  0  0
    3.6230   -0.3570    3.0212 N   0  0  0  0  0  0  0  0  0  0  0  0
    4.3081    0.4343    3.8969 N   0  0  0  0  0  0  0  0  0  0  0  0
    5.5664    0.1306    3.7777 N   0  0  0  0  0  0  0  0  0  0  0  0
    5.7500   -0.9000    2.8783 N   0  0  0  0  0  0  0  0  0  0  0  0
    4.5136   -1.1644    2.4171 C   0  0  0  0  0  0  0  0  0  0  0  0
    4.2769   -2.2671    1.3875 C   0  0  2  0  0  0  0  0  0  0  0  0
    5.2692   -2.0933    0.1965 C   0  0  0  0  0  0  0  0  0  0  0  0
    5.0386   -3.1701   -0.8648 C   0  0  1  0  0  0  0  0  0  0  0  0
    5.2364   -4.5667   -0.2364 C   0  0  0  0  0  0  0  0  0  0  0  0
    4.2324   -4.7725    0.9173 C   0  0  2  0  0  0  0  0  0  0  0  0
    2.7960   -4.6672    0.3677 C   0  0  0  0  0  0  0  0  0  0  0  0
    2.6135   -3.2761   -0.2711 C   0  0  2  0  0  0  0  0  0  0  0  0
    3.6069   -3.0619   -1.4239 C   0  0  0  0  0  0  0  0  0  0  0  0
    2.8384   -2.2133    0.8025 C   0  0  0  0  0  0  0  0  0  0  0  0
    4.4731   -3.6892    1.9988 C   0  0  0  0  0  0  0  0  0  0  0  0
   -0.7614   -1.6482    5.0563 C   0  0  0  0  0  0  0  0  0  0  0  0
   -2.1897   -1.1712    5.3588 C   0  0  0  0  0  0  0  0  0  0  0  0
   -2.1581    0.0541    6.0794 O   0  0  0  0  0  0  0  0  0  0  0  0
   -2.1098    1.2966    4.4178 H   0  0  0  0  0  0  0  0  0  0  0  0
   -1.5907    2.0242    5.9299 H   0  0  0  0  0  0  0  0  0  0  0  0
    0.3525    1.5719    4.4504 H   0  0  0  0  0  0  0  0  0  0  0  0
    0.4708    0.7111    5.9636 H   0  0  0  0  0  0  0  0  0  0  0  0
   -0.4443   -0.4705    3.3087 H   0  0  0  0  0  0  0  0  0  0  0  0
    2.0177   -0.8738    5.0499 H   0  0  0  0  0  0  0  0  0  0  0  0
    1.5694   -2.0338    3.8627 H   0  0  0  0  0  0  0  0  0  0  0  0
    1.7494   -0.4534    2.0013 H   0  0  0  0  0  0  0  0  0  0  0  0
    2.0044    0.8982    3.1307 H   0  0  0  0  0  0  0  0  0  0  0  0
    5.1398   -1.0886   -0.2051 H   0  0  0  0  0  0  0  0  0  0  0  0
    6.3036   -2.1157    0.5519 H   0  0  0  0  0  0  0  0  0  0  0  0
    5.7401   -3.0357   -1.6840 H   0  0  0  0  0  0  0  0  0  0  0  0
    5.1020   -5.3472   -0.9895 H   0  0  0  0  0  0  0  0  0  0  0  0
    6.2560   -4.6600    0.1337 H   0  0  0  0  0  0  0  0  0  0  0  0
    4.3753   -5.7620    1.3508 H   0  0  0  0  0  0  0  0  0  0  0  0
    2.5855   -5.4628   -0.3473 H   0  0  0  0  0  0  0  0  0  0  0  0
    2.0833   -4.7973    1.1815 H   0  0  0  0  0  0  0  0  0  0  0  0
    1.6104   -3.1871   -0.6757 H   0  0  0  0  0  0  0  0  0  0  0  0
    3.4426   -2.0761   -1.8556 H   0  0  0  0  0  0  0  0  0  0  0  0
    3.4243   -3.7818   -2.2304 H   0  0  0  0  0  0  0  0  0  0  0  0
    2.1162   -2.3561    1.6027 H   0  0  0  0  0  0  0  0  0  0  0  0
    2.6312   -1.2250    0.3879 H   0  0  0  0  0  0  0  0  0  0  0  0
    5.4793   -3.7916    2.4099 H   0  0  0  0  0  0  0  0  0  0  0  0
    3.7943   -3.8445    2.8375 H   0  0  0  0  0  0  0  0  0  0  0  0
   -0.7938   -2.5746    4.4808 H   0  0  0  0  0  0  0  0  0  0  0  0
   -0.2476   -1.8724    5.9904 H   0  0  0  0  0  0  0  0  0  0  0  0
   -2.7757   -1.0518    4.4458 H   0  0  0  0  0  0  0  0  0  0  0  0
   -2.6939   -1.9225    5.9646 H   0  0  0  0  0  0  0  0  0  0  0  0
  1 23  1  0
  1  2  1  0
  1 24  1  0
  1 25  1  0
  2  3  1  0
  2 26  1  0
  2 27  1  0
  3  4  1  0
  3 21  1  0
  3 28  1  0
  4  5  1  0
  4 29  1  0
  4 30  1  0
  5  6  1  0
  5 31  1  0
  5 32  1  0
  6 10  1  0
  6  7  1  0
  7  8  2  0
  8  9  1  0
  9 10  2  0
 11 10  1  1
 11 19  1  0
 11 20  1  0
 11 12  1  0
 12 13  1  0
 12 33  1  0
 12 34  1  0
 13 18  1  0
 13 14  1  0
 13 35  1  6
 14 15  1  0
 14 36  1  0
 14 37  1  0
 15 16  1  0
 15 20  1  0
 15 38  1  1
 16 17  1  0
 16 39  1  0
 16 40  1  0
 17 18  1  0
 17 19  1  0
 17 41  1  6
 18 42  1  0
 18 43  1  0
 19 44  1  0
 19 45  1  0
 20 46  1  0
 20 47  1  0
 21 22  1  0
 21 48  1  0
 21 49  1  0
 22 23  1  0
 22 50  1  0
 22 51  1  0
M  END
>  <i_m_ct_stereo_status>  (257) 
1

>  <s_m_source_file>  (257) 
/var/tmp/pbs.5076255.sched01/tmptyawoosb/846vw0lfia.sdf

>  <i_m_source_file_index>  (257) 
20

>  <i_lp_mmshare_version>  (257) 
48012

>  <i_f3d_flags>  (257) 
0

>  <s_epik_input>  (257) 
W0NIMl0xW0NIMl1PW0NIMl1bQ0gyXVtDSF0xW0NIMl1bQ0gyXW4ybm5uYzJDMzRbQ0gyXVtDQEBIXTVbQ0gyXVtDQEhdKFtDSDJdNClbQ0gyXVtDQEBIXShbQ0gyXTUpW0NIMl0z

>  <s_epik_cmdline>  (257) 
J2VwaWtfcHl0aG9uJywgJy1waHQnLCAnMi4wJywgJy1waCcsICc3LjAnLCAnLXRuJywgJzgnLCAnLW1hJywgJzIwMCcsICctaW1hZScsICc8aW5maWxlLm1hZT4nLCAnLW9tYWUnLCAnPG91dGZpbGUubWFlPic=

>  <r_lp_tautomer_probability>  (257) 
1

>  <r_epik_Ionization_Penalty>  (257) 
2.59974e-07

>  <r_epik_Ionization_Penalty_Charging>  (257) 
0

>  <r_epik_Ionization_Penalty_Neutral>  (257) 
2.59974e-07

>  <r_epik_State_Penalty>  (257) 
-0

>  <r_epik_Charging_Adjusted_Penalty>  (257) 
0

>  <i_epik_Tot_Q>  (257) 
0

>  <i_epik_Tot_abs_Q>  (257) 
0

>  <s_lp_Force_Field>  (257) 
OPLS3e

>  <r_lp_Energy>  (257) 
13.8207

>  <b_lp_Chiralities_Consistent>  (257) 
1

>  <s_lp_Variant>  (257) 
72:0-1

>  <s_i_glide_gridfile>  (257) 
pfpi4k_grid

>  <i_i_glide_lignum>  (257) 
20

>  <i_i_glide_rotatable_bonds>  (257) 
4

>  <r_i_docking_score>  (257) 
-2.51706

>  <r_i_glide_ligand_efficiency>  (257) 
-0.109438

>  <r_i_glide_ligand_efficiency_sa>  (257) 
-0.311226

>  <r_i_glide_ligand_efficiency_ln>  (257) 
-0.608649

>  <r_i_glide_gscore>  (257) 
-2.51706

>  <r_i_glide_lipo>  (257) 
-0.159988

>  <r_i_glide_hbond>  (257) 
-0.16

>  <r_i_glide_metal>  (257) 
-0

>  <r_i_glide_rewards>  (257) 
-1.34492

>  <r_i_glide_evdw>  (257) 
-20.2874

>  <r_i_glide_ecoul>  (257) 
-3.87636

>  <r_i_glide_erotb>  (257) 
0.743669

>  <r_i_glide_esite>  (257) 
0

>  <r_i_glide_emodel>  (257) 
-27.0947

>  <r_i_glide_energy>  (257) 
-24.1637

>  <r_i_glide_einternal>  (257) 
1.2385

>  <r_i_glide_intrahb_reward>  (257) 
-0

>  <i_i_glide_confnum>  (257) 
2

>  <i_i_glide_posenum>  (257) 
3

>  <r_i_glide_eff_state_penalty>  (257) 
0

>  <ligand_id>  (257) 
72

>  <original_smiles>  (257) 
C1CC(CCn2nnnc2C23CC4CC(CC(C4)C2)C3)CCO1

>  <smiles>  (257) 
[H]C1([H])OC([H])([H])C([H])([H])C([H])(C([H])([H])C([H])([H])n2nnnc2C23C([H])([H])C4([H])C([H])([H])C([H])(C([H])([H])C([H])(C4([H])[H])C2([H])[H])C3([H])[H])C1([H])[H]

$$$$
73:0:0
     RDKit          3D

 58 62  0  0  1  0  0  0  0  0999 V2000
   -0.4122   -7.9491    2.4624 C   0  0  0  0  0  0  0  0  0  0  0  0
    0.8048   -7.9009    3.0474 C   0  0  0  0  0  0  0  0  0  0  0  0
    2.0290   -8.1491    2.2464 C   0  0  0  0  0  0  0  0  0  0  0  0
    2.0678   -8.9122    1.2846 O   0  0  0  0  0  0  0  0  0  0  0  0
    3.2848   -7.4064    2.6495 C   0  0  1  0  0  0  0  0  0  0  0  0
    4.6139   -8.0200    2.2240 C   0  0  0  0  0  0  0  0  0  0  0  0
    5.5918   -6.8306    2.0878 C   0  0  0  0  0  0  0  0  0  0  0  0
    4.6902   -5.6211    1.7644 C   0  0  2  0  0  0  0  0  0  0  0  0
    5.1723   -4.1776    2.0926 C   0  0  1  0  0  0  0  0  0  0  0  0
    5.2318   -3.9645    3.6314 C   0  0  0  0  0  0  0  0  0  0  0  0
    6.6069   -3.9143    1.5776 C   0  0  0  0  0  0  0  0  0  0  0  0
    6.7174   -3.6606    0.0820 C   0  0  0  0  0  0  0  0  0  0  0  0
    5.8968   -2.4162   -0.2550 C   0  0  1  0  0  0  0  0  0  0  0  0
    6.1872   -2.0358   -1.5880 O   0  0  0  0  0  0  0  0  0  0  0  0
    4.3774   -2.6146    0.0173 C   0  0  0  0  0  0  0  0  0  0  0  0
    3.7321   -1.2137   -0.0999 C   0  0  0  0  0  0  0  0  0  0  0  0
    3.7465   -3.5141   -1.0730 C   0  0  0  0  0  0  0  0  0  0  0  0
    4.1417   -3.1443    1.4961 C   0  0  1  0  0  0  0  0  0  0  0  0
    2.6649   -3.5315    1.8626 C   0  0  0  0  0  0  0  0  0  0  0  0
    2.2738   -5.0375    1.8045 C   0  0  1  0  0  0  0  0  0  0  0  0
    1.8973   -5.4519    0.5045 O   0  0  0  0  0  0  0  0  0  0  0  0
    3.3537   -5.9316    2.4102 C   0  0  1  0  0  0  0  0  0  0  0  0
    3.2412   -6.4732    3.8439 C   0  0  1  0  0  0  0  0  0  0  0  0
    1.9855   -6.3903    4.7082 C   0  0  0  0  0  0  0  0  0  0  0  0
    1.0538   -7.6039    4.5230 C   0  0  1  0  0  0  0  0  0  0  0  0
   -0.1531   -7.3803    5.2313 O   0  0  0  0  0  0  0  0  0  0  0  0
   -1.3179   -7.7792    3.0200 H   0  0  0  0  0  0  0  0  0  0  0  0
   -0.5135   -8.1544    1.4097 H   0  0  0  0  0  0  0  0  0  0  0  0
    4.9653   -8.7342    2.9670 H   0  0  0  0  0  0  0  0  0  0  0  0
    4.5196   -8.5447    1.2749 H   0  0  0  0  0  0  0  0  0  0  0  0
    6.1243   -6.6747    3.0251 H   0  0  0  0  0  0  0  0  0  0  0  0
    6.3417   -7.0028    1.3142 H   0  0  0  0  0  0  0  0  0  0  0  0
    4.5368   -5.6860    0.6913 H   0  0  0  0  0  0  0  0  0  0  0  0
    5.5985   -2.9678    3.8785 H   0  0  0  0  0  0  0  0  0  0  0  0
    5.8998   -4.6783    4.1130 H   0  0  0  0  0  0  0  0  0  0  0  0
    4.2597   -4.0482    4.1119 H   0  0  0  0  0  0  0  0  0  0  0  0
    6.9942   -3.0202    2.0727 H   0  0  0  0  0  0  0  0  0  0  0  0
    7.2800   -4.7191    1.8686 H   0  0  0  0  0  0  0  0  0  0  0  0
    7.7661   -3.4862   -0.1676 H   0  0  0  0  0  0  0  0  0  0  0  0
    6.3988   -4.5342   -0.4844 H   0  0  0  0  0  0  0  0  0  0  0  0
    6.2585   -1.5963    0.3665 H   0  0  0  0  0  0  0  0  0  0  0  0
    5.8814   -2.7243   -2.1594 H   0  0  0  0  0  0  0  0  0  0  0  0
    2.6592   -1.2432    0.0834 H   0  0  0  0  0  0  0  0  0  0  0  0
    3.8707   -0.7842   -1.0935 H   0  0  0  0  0  0  0  0  0  0  0  0
    4.1558   -0.5072    0.6154 H   0  0  0  0  0  0  0  0  0  0  0  0
    2.6635   -3.5714   -0.9712 H   0  0  0  0  0  0  0  0  0  0  0  0
    4.1486   -4.5255   -1.0669 H   0  0  0  0  0  0  0  0  0  0  0  0
    3.9149   -3.1222   -2.0765 H   0  0  0  0  0  0  0  0  0  0  0  0
    4.3162   -2.2401    2.0796 H   0  0  0  0  0  0  0  0  0  0  0  0
    2.5019   -3.2155    2.8963 H   0  0  0  0  0  0  0  0  0  0  0  0
    1.9443   -2.9444    1.2937 H   0  0  0  0  0  0  0  0  0  0  0  0
    1.3612   -5.1528    2.3841 H   0  0  0  0  0  0  0  0  0  0  0  0
    2.6348   -5.3573   -0.0810 H   0  0  0  0  0  0  0  0  0  0  0  0
    4.1463   -6.5006    4.4463 H   0  0  0  0  0  0  0  0  0  0  0  0
    2.2979   -6.3346    5.7519 H   0  0  0  0  0  0  0  0  0  0  0  0
    1.4554   -5.4580    4.5157 H   0  0  0  0  0  0  0  0  0  0  0  0
    1.5263   -8.4933    4.9495 H   0  0  0  0  0  0  0  0  0  0  0  0
   -0.6090   -8.2093    5.2860 H   0  0  0  0  0  0  0  0  0  0  0  0
  1  2  2  0
  1 27  1  0
  1 28  1  0
  2 25  1  0
  2  3  1  0
  3  4  2  0
  3  5  1  0
 22  5  1  6
  5 23  1  0
  5  6  1  1
  6  7  1  0
  6 29  1  0
  6 30  1  0
  7  8  1  0
  7 31  1  0
  7 32  1  0
  8 22  1  0
  8  9  1  0
  8 33  1  6
  9 18  1  0
  9 10  1  1
  9 11  1  0
 10 34  1  0
 10 35  1  0
 10 36  1  0
 11 12  1  0
 11 37  1  0
 11 38  1  0
 12 13  1  0
 12 39  1  0
 12 40  1  0
 13 14  1  0
 13 15  1  0
 13 41  1  1
 14 42  1  0
 15 16  1  0
 15 17  1  0
 15 18  1  0
 16 43  1  0
 16 44  1  0
 16 45  1  0
 17 46  1  0
 17 47  1  0
 17 48  1  0
 18 19  1  0
 18 49  1  1
 19 20  1  0
 19 50  1  0
 19 51  1  0
 20 21  1  0
 20 22  1  0
 20 52  1  1
 21 53  1  0
 22 23  1  0
 23 24  1  0
 23 54  1  1
 24 25  1  0
 24 55  1  0
 24 56  1  0
 25 26  1  0
 25 57  1  1
 26 58  1  0
M  END
>  <i_m_ct_stereo_status>  (258) 
1

>  <s_m_source_file>  (258) 
/var/tmp/pbs.5076255.sched01/tmptyawoosb/846vw0lfia.sdf

>  <i_m_source_file_index>  (258) 
21

>  <i_lp_mmshare_version>  (258) 
48012

>  <i_f3d_flags>  (258) 
0

>  <s_epik_input>  (258) 
Tz1DMUMoPVtDSDJdKVtDQEhdKFtPSF0pW0NIMl1bQ0BASF0yW0NAXTMoW0NAXTEyNClbQ0BIXShbQ0gyXVtDSDJdNClbQ0BdNShbQ0gzXSlbQ0BIXShbQ0gyXVtDQEhdM1tPSF0pQyhbQ0gzXSkoW0NIM10pW0NASF0oW09IXSlbQ0gyXVtDSDJdNQ==

>  <s_epik_cmdline>  (258) 
J2VwaWtfcHl0aG9uJywgJy1waHQnLCAnMi4wJywgJy1waCcsICc3LjAnLCAnLXRuJywgJzgnLCAnLW1hJywgJzIwMCcsICctaW1hZScsICc8aW5maWxlLm1hZT4nLCAnLW9tYWUnLCAnPG91dGZpbGUubWFlPic=

>  <r_lp_tautomer_probability>  (258) 
1

>  <r_epik_Ionization_Penalty>  (258) 
2.9015e-06

>  <r_epik_Ionization_Penalty_Charging>  (258) 
0

>  <r_epik_Ionization_Penalty_Neutral>  (258) 
2.9015e-06

>  <r_epik_State_Penalty>  (258) 
-0

>  <r_epik_Charging_Adjusted_Penalty>  (258) 
0

>  <i_epik_Tot_Q>  (258) 
0

>  <i_epik_Tot_abs_Q>  (258) 
0

>  <s_lp_Force_Field>  (258) 
OPLS3e

>  <r_lp_Energy>  (258) 
106.907

>  <b_lp_Chiralities_Consistent>  (258) 
1

>  <s_lp_Variant>  (258) 
73:0-1

>  <s_i_glide_gridfile>  (258) 
pfpi4k_grid

>  <i_i_glide_lignum>  (258) 
21

>  <i_i_glide_rotatable_bonds>  (258) 
3

>  <r_i_docking_score>  (258) 
-3.52784

>  <r_i_glide_ligand_efficiency>  (258) 
-0.135686

>  <r_i_glide_ligand_efficiency_sa>  (258) 
-0.40197

>  <r_i_glide_ligand_efficiency_ln>  (258) 
-0.828502

>  <r_i_glide_gscore>  (258) 
-3.52784

>  <r_i_glide_lipo>  (258) 
-0.309581

>  <r_i_glide_hbond>  (258) 
-0.197816

>  <r_i_glide_metal>  (258) 
-0

>  <r_i_glide_rewards>  (258) 
-0.951224

>  <r_i_glide_evdw>  (258) 
-23.2565

>  <r_i_glide_ecoul>  (258) 
-5.93752

>  <r_i_glide_erotb>  (258) 
0

>  <r_i_glide_esite>  (258) 
-0.0157684

>  <r_i_glide_emodel>  (258) 
-35.7509

>  <r_i_glide_energy>  (258) 
-29.194

>  <r_i_glide_einternal>  (258) 
0.355441

>  <r_i_glide_intrahb_reward>  (258) 
-0

>  <i_i_glide_confnum>  (258) 
1

>  <i_i_glide_posenum>  (258) 
24

>  <r_i_glide_eff_state_penalty>  (258) 
0

>  <ligand_id>  (258) 
73

>  <original_smiles>  (258) 
C=C1C(=O)C23CCC4C5(C)CCC(O)C(C)(C)C5CC(O)C42C3CC1O

>  <smiles>  (258) 
[H]OC1([H])C(=C([H])[H])C(=O)C23C([H])([H])C([H])([H])C4([H])C5(C([H])([H])[H])C([H])([H])C([H])([H])C([H])(O[H])C(C([H])([H])[H])(C([H])([H])[H])C5([H])C([H])([H])C([H])(O[H])C42C3([H])C1([H])[H]

$$$$
73:0:1
     RDKit          3D

 58 62  0  0  1  0  0  0  0  0999 V2000
    4.1625   -9.5766    2.5352 C   0  0  0  0  0  0  0  0  0  0  0  0
    3.8813   -8.5360    3.3402 C   0  0  0  0  0  0  0  0  0  0  0  0
    4.9027   -7.4784    3.5597 C   0  0  0  0  0  0  0  0  0  0  0  0
    6.1102   -7.6931    3.5335 O   0  0  0  0  0  0  0  0  0  0  0  0
    4.3861   -6.0705    3.8007 C   0  0  1  0  0  0  0  0  0  0  0  0
    5.3020   -5.1036    4.5521 C   0  0  0  0  0  0  0  0  0  0  0  0
    4.9212   -3.6979    4.0306 C   0  0  0  0  0  0  0  0  0  0  0  0
    4.3527   -3.9328    2.6187 C   0  0  2  0  0  0  0  0  0  0  0  0
    3.3837   -2.8892    1.9805 C   0  0  1  0  0  0  0  0  0  0  0  0
    2.0293   -2.8963    2.7368 C   0  0  0  0  0  0  0  0  0  0  0  0
    3.9047   -1.4319    2.1012 C   0  0  0  0  0  0  0  0  0  0  0  0
    5.0087   -1.0806    1.1129 C   0  0  0  0  0  0  0  0  0  0  0  0
    4.4609   -1.2585   -0.3000 C   0  0  1  0  0  0  0  0  0  0  0  0
    5.4095   -0.7485   -1.2061 O   0  0  0  0  0  0  0  0  0  0  0  0
    4.0818   -2.7230   -0.6392 C   0  0  0  0  0  0  0  0  0  0  0  0
    3.3077   -2.6773   -1.9869 C   0  0  0  0  0  0  0  0  0  0  0  0
    5.3583   -3.5618   -0.8815 C   0  0  0  0  0  0  0  0  0  0  0  0
    3.1240   -3.2991    0.4861 C   0  0  1  0  0  0  0  0  0  0  0  0
    2.7699   -4.8185    0.3718 C   0  0  0  0  0  0  0  0  0  0  0  0
    3.5779   -5.8252    1.2286 C   0  0  1  0  0  0  0  0  0  0  0  0
    4.8091   -6.1676    0.6167 O   0  0  0  0  0  0  0  0  0  0  0  0
    3.7584   -5.3261    2.6490 C   0  0  1  0  0  0  0  0  0  0  0  0
    2.8805   -5.8097    3.7863 C   0  0  1  0  0  0  0  0  0  0  0  0
    1.9082   -6.9823    3.7051 C   0  0  0  0  0  0  0  0  0  0  0  0
    2.5613   -8.3251    4.0786 C   0  0  1  0  0  0  0  0  0  0  0  0
    1.6327   -9.3593    3.8210 O   0  0  0  0  0  0  0  0  0  0  0  0
    3.4519  -10.3659    2.3440 H   0  0  0  0  0  0  0  0  0  0  0  0
    5.1137   -9.6532    2.0286 H   0  0  0  0  0  0  0  0  0  0  0  0
    5.1341   -5.1824    5.6213 H   0  0  0  0  0  0  0  0  0  0  0  0
    6.3427   -5.3231    4.3412 H   0  0  0  0  0  0  0  0  0  0  0  0
    4.1651   -3.2432    4.6759 H   0  0  0  0  0  0  0  0  0  0  0  0
    5.7810   -3.0185    4.0292 H   0  0  0  0  0  0  0  0  0  0  0  0
    5.2415   -3.9831    1.9912 H   0  0  0  0  0  0  0  0  0  0  0  0
    1.3427   -2.1590    2.3188 H   0  0  0  0  0  0  0  0  0  0  0  0
    2.1443   -2.6653    3.7962 H   0  0  0  0  0  0  0  0  0  0  0  0
    1.5121   -3.8521    2.6644 H   0  0  0  0  0  0  0  0  0  0  0  0
    3.0764   -0.7370    1.9235 H   0  0  0  0  0  0  0  0  0  0  0  0
    4.2381   -1.2253    3.1158 H   0  0  0  0  0  0  0  0  0  0  0  0
    5.3043   -0.0444    1.2741 H   0  0  0  0  0  0  0  0  0  0  0  0
    5.9011   -1.6841    1.2828 H   0  0  0  0  0  0  0  0  0  0  0  0
    3.5628   -0.6447   -0.3946 H   0  0  0  0  0  0  0  0  0  0  0  0
    5.3885    0.2003   -1.1367 H   0  0  0  0  0  0  0  0  0  0  0  0
    2.9847   -3.6634   -2.3219 H   0  0  0  0  0  0  0  0  0  0  0  0
    3.9061   -2.2435   -2.7918 H   0  0  0  0  0  0  0  0  0  0  0  0
    2.4109   -2.0614   -1.9205 H   0  0  0  0  0  0  0  0  0  0  0  0
    5.1149   -4.5589   -1.2405 H   0  0  0  0  0  0  0  0  0  0  0  0
    5.9745   -3.6487    0.0073 H   0  0  0  0  0  0  0  0  0  0  0  0
    5.9926   -3.1286   -1.6566 H   0  0  0  0  0  0  0  0  0  0  0  0
    2.1917   -2.7987    0.2367 H   0  0  0  0  0  0  0  0  0  0  0  0
    1.7325   -4.9450    0.6738 H   0  0  0  0  0  0  0  0  0  0  0  0
    2.7901   -5.1403   -0.6573 H   0  0  0  0  0  0  0  0  0  0  0  0
    3.0229   -6.7592    1.2376 H   0  0  0  0  0  0  0  0  0  0  0  0
    4.6218   -6.5084   -0.2532 H   0  0  0  0  0  0  0  0  0  0  0  0
    2.5770   -5.0914    4.5183 H   0  0  0  0  0  0  0  0  0  0  0  0
    1.0756   -6.7845    4.3915 H   0  0  0  0  0  0  0  0  0  0  0  0
    1.4607   -7.0256    2.7154 H   0  0  0  0  0  0  0  0  0  0  0  0
    2.7859   -8.3402    5.1474 H   0  0  0  0  0  0  0  0  0  0  0  0
    1.9411  -10.1586    4.2300 H   0  0  0  0  0  0  0  0  0  0  0  0
  1  2  2  0
  1 27  1  0
  1 28  1  0
  2 25  1  0
  2  3  1  0
  3  4  2  0
  3  5  1  0
 22  5  1  1
  5 23  1  0
  5  6  1  1
  6  7  1  0
  6 29  1  0
  6 30  1  0
  7  8  1  0
  7 31  1  0
  7 32  1  0
  8 22  1  0
  8  9  1  0
  8 33  1  6
  9 18  1  0
  9 10  1  1
  9 11  1  0
 10 34  1  0
 10 35  1  0
 10 36  1  0
 11 12  1  0
 11 37  1  0
 11 38  1  0
 12 13  1  0
 12 39  1  0
 12 40  1  0
 13 14  1  0
 13 15  1  0
 13 41  1  1
 14 42  1  0
 15 16  1  0
 15 17  1  0
 15 18  1  0
 16 43  1  0
 16 44  1  0
 16 45  1  0
 17 46  1  0
 17 47  1  0
 17 48  1  0
 18 19  1  0
 18 49  1  6
 19 20  1  0
 19 50  1  0
 19 51  1  0
 20 21  1  0
 20 22  1  0
 20 52  1  1
 21 53  1  0
 22 23  1  0
 23 24  1  0
 23 54  1  1
 24 25  1  0
 24 55  1  0
 24 56  1  0
 25 26  1  0
 25 57  1  1
 26 58  1  0
M  END
>  <i_m_ct_stereo_status>  (259) 
1

>  <s_m_source_file>  (259) 
/var/tmp/pbs.5076255.sched01/tmptyawoosb/846vw0lfia.sdf

>  <i_m_source_file_index>  (259) 
21

>  <i_lp_mmshare_version>  (259) 
48012

>  <i_f3d_flags>  (259) 
0

>  <s_epik_input>  (259) 
Tz1DMUMoPVtDSDJdKVtDQEhdKFtPSF0pW0NIMl1bQ0BASF0yW0NAXTMoW0NAXTEyNClbQ0BIXShbQ0gyXVtDSDJdNClbQ0BdNShbQ0gzXSlbQ0BIXShbQ0gyXVtDQEhdM1tPSF0pQyhbQ0gzXSkoW0NIM10pW0NASF0oW09IXSlbQ0gyXVtDSDJdNQ==

>  <s_epik_cmdline>  (259) 
J2VwaWtfcHl0aG9uJywgJy1waHQnLCAnMi4wJywgJy1waCcsICc3LjAnLCAnLXRuJywgJzgnLCAnLW1hJywgJzIwMCcsICctaW1hZScsICc8aW5maWxlLm1hZT4nLCAnLW9tYWUnLCAnPG91dGZpbGUubWFlPic=

>  <r_lp_tautomer_probability>  (259) 
1

>  <r_epik_Ionization_Penalty>  (259) 
2.9015e-06

>  <r_epik_Ionization_Penalty_Charging>  (259) 
0

>  <r_epik_Ionization_Penalty_Neutral>  (259) 
2.9015e-06

>  <r_epik_State_Penalty>  (259) 
-0

>  <r_epik_Charging_Adjusted_Penalty>  (259) 
0

>  <i_epik_Tot_Q>  (259) 
0

>  <i_epik_Tot_abs_Q>  (259) 
0

>  <s_lp_Force_Field>  (259) 
OPLS3e

>  <r_lp_Energy>  (259) 
106.907

>  <b_lp_Chiralities_Consistent>  (259) 
1

>  <s_lp_Variant>  (259) 
73:0-1

>  <s_i_glide_gridfile>  (259) 
pfpi4k_grid

>  <i_i_glide_lignum>  (259) 
21

>  <i_i_glide_rotatable_bonds>  (259) 
3

>  <r_i_docking_score>  (259) 
-3.42111

>  <r_i_glide_ligand_efficiency>  (259) 
-0.131581

>  <r_i_glide_ligand_efficiency_sa>  (259) 
-0.389808

>  <r_i_glide_ligand_efficiency_ln>  (259) 
-0.803436

>  <r_i_glide_gscore>  (259) 
-3.42111

>  <r_i_glide_lipo>  (259) 
-0.224857

>  <r_i_glide_hbond>  (259) 
-0.325214

>  <r_i_glide_metal>  (259) 
-0

>  <r_i_glide_rewards>  (259) 
-0.951224

>  <r_i_glide_evdw>  (259) 
-22.757

>  <r_i_glide_ecoul>  (259) 
-5.21309

>  <r_i_glide_erotb>  (259) 
0

>  <r_i_glide_esite>  (259) 
0

>  <r_i_glide_emodel>  (259) 
-33.7959

>  <r_i_glide_energy>  (259) 
-27.9701

>  <r_i_glide_einternal>  (259) 
1.17297

>  <r_i_glide_intrahb_reward>  (259) 
-0

>  <i_i_glide_confnum>  (259) 
2

>  <i_i_glide_posenum>  (259) 
28

>  <r_i_glide_eff_state_penalty>  (259) 
0

>  <ligand_id>  (259) 
73

>  <original_smiles>  (259) 
C=C1C(=O)C23CCC4C5(C)CCC(O)C(C)(C)C5CC(O)C42C3CC1O

>  <smiles>  (259) 
[H]OC1([H])C(=C([H])[H])C(=O)C23C([H])([H])C([H])([H])C4([H])C5(C([H])([H])[H])C([H])([H])C([H])([H])C([H])(O[H])C(C([H])([H])[H])(C([H])([H])[H])C5([H])C([H])([H])C([H])(O[H])C42C3([H])C1([H])[H]

$$$$
73:0:2
     RDKit          3D

 58 62  0  0  1  0  0  0  0  0999 V2000
    3.4947   -9.5617    2.2421 C   0  0  0  0  0  0  0  0  0  0  0  0
    3.4316   -8.4788    3.0377 C   0  0  0  0  0  0  0  0  0  0  0  0
    4.5916   -7.5511    3.1086 C   0  0  0  0  0  0  0  0  0  0  0  0
    5.7545   -7.9240    2.9709 O   0  0  0  0  0  0  0  0  0  0  0  0
    4.2803   -6.0850    3.3534 C   0  0  1  0  0  0  0  0  0  0  0  0
    5.3784   -5.2283    3.9731 C   0  0  0  0  0  0  0  0  0  0  0  0
    5.1172   -3.7949    3.4572 C   0  0  0  0  0  0  0  0  0  0  0  0
    4.3905   -3.9866    2.1159 C   0  0  2  0  0  0  0  0  0  0  0  0
    3.4900   -2.8431    1.5536 C   0  0  1  0  0  0  0  0  0  0  0  0
    2.2295   -2.6634    2.4435 C   0  0  0  0  0  0  0  0  0  0  0  0
    4.2000   -1.4626    1.5705 C   0  0  0  0  0  0  0  0  0  0  0  0
    5.2273   -1.2696    0.4617 C   0  0  0  0  0  0  0  0  0  0  0  0
    4.5136   -1.3972   -0.8836 C   0  0  1  0  0  0  0  0  0  0  0  0
    5.4093   -1.0280   -1.9109 O   0  0  0  0  0  0  0  0  0  0  0  0
    3.9172   -2.8100   -1.1330 C   0  0  0  0  0  0  0  0  0  0  0  0
    3.0163   -2.6891   -2.3938 C   0  0  0  0  0  0  0  0  0  0  0  0
    5.0525   -3.8055   -1.4753 C   0  0  0  0  0  0  0  0  0  0  0  0
    3.0264   -3.2473    0.1044 C   0  0  1  0  0  0  0  0  0  0  0  0
    2.4819   -4.7155    0.0722 C   0  0  0  0  0  0  0  0  0  0  0  0
    3.2463   -5.8027    0.8700 C   0  0  1  0  0  0  0  0  0  0  0  0
    4.3543   -6.2912    0.1466 O   0  0  0  0  0  0  0  0  0  0  0  0
    3.6476   -5.2995    2.2496 C   0  0  1  0  0  0  0  0  0  0  0  0
    2.8344   -5.6447    3.5089 C   0  0  1  0  0  0  0  0  0  0  0  0
    1.7184   -6.6801    3.5596 C   0  0  0  0  0  0  0  0  0  0  0  0
    2.2360   -8.0890    3.9039 C   0  0  1  0  0  0  0  0  0  0  0  0
    1.1622   -9.0004    3.7811 O   0  0  0  0  0  0  0  0  0  0  0  0
    2.6757  -10.2560    2.1567 H   0  0  0  0  0  0  0  0  0  0  0  0
    4.3686   -9.7702    1.6422 H   0  0  0  0  0  0  0  0  0  0  0  0
    5.3335   -5.2656    5.0606 H   0  0  0  0  0  0  0  0  0  0  0  0
    6.3643   -5.5770    3.6644 H   0  0  0  0  0  0  0  0  0  0  0  0
    4.4984   -3.2397    4.1634 H   0  0  0  0  0  0  0  0  0  0  0  0
    6.0298   -3.2209    3.3167 H   0  0  0  0  0  0  0  0  0  0  0  0
    5.1904   -4.1601    1.4030 H   0  0  0  0  0  0  0  0  0  0  0  0
    1.5998   -1.8528    2.0727 H   0  0  0  0  0  0  0  0  0  0  0  0
    2.4901   -2.4256    3.4740 H   0  0  0  0  0  0  0  0  0  0  0  0
    1.5970   -3.5480    2.4617 H   0  0  0  0  0  0  0  0  0  0  0  0
    3.4545   -0.6716    1.4558 H   0  0  0  0  0  0  0  0  0  0  0  0
    4.6640   -1.2773    2.5377 H   0  0  0  0  0  0  0  0  0  0  0  0
    5.6668   -0.2742    0.5552 H   0  0  0  0  0  0  0  0  0  0  0  0
    6.0485   -1.9778    0.5534 H   0  0  0  0  0  0  0  0  0  0  0  0
    3.7034   -0.6622   -0.8975 H   0  0  0  0  0  0  0  0  0  0  0  0
    4.9021   -0.9109   -2.6971 H   0  0  0  0  0  0  0  0  0  0  0  0
    2.5363   -3.6308   -2.6529 H   0  0  0  0  0  0  0  0  0  0  0  0
    3.5757   -2.3666   -3.2733 H   0  0  0  0  0  0  0  0  0  0  0  0
    2.2205   -1.9569   -2.2480 H   0  0  0  0  0  0  0  0  0  0  0  0
    4.6506   -4.7695   -1.7702 H   0  0  0  0  0  0  0  0  0  0  0  0
    5.7461   -3.9573   -0.6505 H   0  0  0  0  0  0  0  0  0  0  0  0
    5.6489   -3.4782   -2.3291 H   0  0  0  0  0  0  0  0  0  0  0  0
    2.1339   -2.6533   -0.0554 H   0  0  0  0  0  0  0  0  0  0  0  0
    1.4835   -4.7106    0.4939 H   0  0  0  0  0  0  0  0  0  0  0  0
    2.2958   -5.0388   -0.9449 H   0  0  0  0  0  0  0  0  0  0  0  0
    2.5782   -6.6573    0.9722 H   0  0  0  0  0  0  0  0  0  0  0  0
    4.0681   -6.4799   -0.7406 H   0  0  0  0  0  0  0  0  0  0  0  0
    2.6938   -4.8636    4.2459 H   0  0  0  0  0  0  0  0  0  0  0  0
    0.9968   -6.3664    4.3179 H   0  0  0  0  0  0  0  0  0  0  0  0
    1.1630   -6.6852    2.6207 H   0  0  0  0  0  0  0  0  0  0  0  0
    2.5711   -8.1097    4.9446 H   0  0  0  0  0  0  0  0  0  0  0  0
    1.4276   -9.8330    4.1524 H   0  0  0  0  0  0  0  0  0  0  0  0
  1  2  2  0
  1 27  1  0
  1 28  1  0
  2 25  1  0
  2  3  1  0
  3  4  2  0
  3  5  1  0
 22  5  1  1
  5 23  1  0
  5  6  1  1
  6  7  1  0
  6 29  1  0
  6 30  1  0
  7  8  1  0
  7 31  1  0
  7 32  1  0
  8 22  1  0
  8  9  1  0
  8 33  1  6
  9 18  1  0
  9 10  1  1
  9 11  1  0
 10 34  1  0
 10 35  1  0
 10 36  1  0
 11 12  1  0
 11 37  1  0
 11 38  1  0
 12 13  1  0
 12 39  1  0
 12 40  1  0
 13 14  1  0
 13 15  1  0
 13 41  1  1
 14 42  1  0
 15 16  1  0
 15 17  1  0
 15 18  1  0
 16 43  1  0
 16 44  1  0
 16 45  1  0
 17 46  1  0
 17 47  1  0
 17 48  1  0
 18 19  1  0
 18 49  1  6
 19 20  1  0
 19 50  1  0
 19 51  1  0
 20 21  1  0
 20 22  1  0
 20 52  1  1
 21 53  1  0
 22 23  1  0
 23 24  1  0
 23 54  1  1
 24 25  1  0
 24 55  1  0
 24 56  1  0
 25 26  1  0
 25 57  1  1
 26 58  1  0
M  END
>  <i_m_ct_stereo_status>  (260) 
1

>  <s_m_source_file>  (260) 
/var/tmp/pbs.5076255.sched01/tmptyawoosb/846vw0lfia.sdf

>  <i_m_source_file_index>  (260) 
21

>  <i_lp_mmshare_version>  (260) 
48012

>  <i_f3d_flags>  (260) 
0

>  <s_epik_input>  (260) 
Tz1DMUMoPVtDSDJdKVtDQEhdKFtPSF0pW0NIMl1bQ0BASF0yW0NAXTMoW0NAXTEyNClbQ0BIXShbQ0gyXVtDSDJdNClbQ0BdNShbQ0gzXSlbQ0BIXShbQ0gyXVtDQEhdM1tPSF0pQyhbQ0gzXSkoW0NIM10pW0NASF0oW09IXSlbQ0gyXVtDSDJdNQ==

>  <s_epik_cmdline>  (260) 
J2VwaWtfcHl0aG9uJywgJy1waHQnLCAnMi4wJywgJy1waCcsICc3LjAnLCAnLXRuJywgJzgnLCAnLW1hJywgJzIwMCcsICctaW1hZScsICc8aW5maWxlLm1hZT4nLCAnLW9tYWUnLCAnPG91dGZpbGUubWFlPic=

>  <r_lp_tautomer_probability>  (260) 
1

>  <r_epik_Ionization_Penalty>  (260) 
2.9015e-06

>  <r_epik_Ionization_Penalty_Charging>  (260) 
0

>  <r_epik_Ionization_Penalty_Neutral>  (260) 
2.9015e-06

>  <r_epik_State_Penalty>  (260) 
-0

>  <r_epik_Charging_Adjusted_Penalty>  (260) 
0

>  <i_epik_Tot_Q>  (260) 
0

>  <i_epik_Tot_abs_Q>  (260) 
0

>  <s_lp_Force_Field>  (260) 
OPLS3e

>  <r_lp_Energy>  (260) 
106.907

>  <b_lp_Chiralities_Consistent>  (260) 
1

>  <s_lp_Variant>  (260) 
73:0-1

>  <s_i_glide_gridfile>  (260) 
pfpi4k_grid

>  <i_i_glide_lignum>  (260) 
21

>  <i_i_glide_rotatable_bonds>  (260) 
3

>  <r_i_docking_score>  (260) 
-2.96576

>  <r_i_glide_ligand_efficiency>  (260) 
-0.114068

>  <r_i_glide_ligand_efficiency_sa>  (260) 
-0.337925

>  <r_i_glide_ligand_efficiency_ln>  (260) 
-0.696499

>  <r_i_glide_gscore>  (260) 
-2.96576

>  <r_i_glide_lipo>  (260) 
-0.130455

>  <r_i_glide_hbond>  (260) 
-0.220806

>  <r_i_glide_metal>  (260) 
-0

>  <r_i_glide_rewards>  (260) 
-0.951224

>  <r_i_glide_evdw>  (260) 
-23.0329

>  <r_i_glide_ecoul>  (260) 
-3.40994

>  <r_i_glide_erotb>  (260) 
0

>  <r_i_glide_esite>  (260) 
-0.000138135

>  <r_i_glide_emodel>  (260) 
-31.4632

>  <r_i_glide_energy>  (260) 
-26.4429

>  <r_i_glide_einternal>  (260) 
1.21202

>  <r_i_glide_intrahb_reward>  (260) 
-0

>  <i_i_glide_confnum>  (260) 
1

>  <i_i_glide_posenum>  (260) 
13

>  <r_i_glide_eff_state_penalty>  (260) 
0

>  <ligand_id>  (260) 
73

>  <original_smiles>  (260) 
C=C1C(=O)C23CCC4C5(C)CCC(O)C(C)(C)C5CC(O)C42C3CC1O

>  <smiles>  (260) 
[H]OC1([H])C(=C([H])[H])C(=O)C23C([H])([H])C([H])([H])C4([H])C5(C([H])([H])[H])C([H])([H])C([H])([H])C([H])(O[H])C(C([H])([H])[H])(C([H])([H])[H])C5([H])C([H])([H])C([H])(O[H])C42C3([H])C1([H])[H]

$$$$
74:0:0
     RDKit          3D

 51 54  0  0  1  0  0  0  0  0999 V2000
    1.5622   -0.3751    6.1705 C   0  0  0  0  0  0  0  0  0  0  0  0
    0.5744   -0.4802    4.9860 C   0  0  2  0  0  0  0  0  0  0  0  0
    0.4123   -1.9326    4.5120 C   0  0  0  0  0  0  0  0  0  0  0  0
    1.7116   -2.5269    3.9440 C   0  0  0  0  0  0  0  0  0  0  0  0
    2.5937   -1.5387    3.1237 C   0  0  2  0  0  0  0  0  0  0  0  0
    1.8247   -0.2677    2.6645 C   0  0  2  0  0  0  0  0  0  0  0  0
    2.8200    0.7593    2.0846 C   0  0  0  0  0  0  0  0  0  0  0  0
    3.8390    0.1409    1.1585 C   0  0  0  0  0  0  0  0  0  0  0  0
    4.1235   -1.1749    1.0928 C   0  0  0  0  0  0  0  0  0  0  0  0
    5.0011   -1.7199   -0.0276 C   0  0  0  0  0  0  0  0  0  0  0  0
    4.1446   -2.6050   -0.9490 C   0  0  1  0  0  0  0  0  0  0  0  0
    4.9522   -3.1632   -1.9753 O   0  0  0  0  0  0  0  0  0  0  0  0
    4.4056   -3.3763   -3.1828 C   0  0  0  0  0  0  0  0  0  0  0  0
    5.0087   -3.8587   -4.1427 O   0  0  0  0  0  0  0  0  0  0  0  0
    3.4446   -3.7194   -0.1487 C   0  0  0  0  0  0  0  0  0  0  0  0
    2.6487   -3.1511    1.0463 C   0  0  0  0  0  0  0  0  0  0  0  0
    3.4648   -2.2251    1.9964 C   0  0  2  0  0  0  0  0  0  0  0  0
    4.5475   -3.0648    2.7216 C   0  0  0  0  0  0  0  0  0  0  0  0
    0.9710    0.4179    3.7856 C   0  0  1  0  0  0  0  0  0  0  0  0
   -0.3521    1.0196    3.2485 C   0  0  0  0  0  0  0  0  0  0  0  0
   -1.2915    1.1478    4.4513 C   0  0  0  0  0  0  0  0  0  0  0  0
   -0.7813    0.0912    5.4107 C   0  0  0  0  0  0  0  0  0  0  0  0
   -1.3845   -0.2484    6.4368 O   0  0  0  0  0  0  0  0  0  0  0  0
    2.5911   -0.5625    5.8718 H   0  0  0  0  0  0  0  0  0  0  0  0
    1.3164   -1.0957    6.9503 H   0  0  0  0  0  0  0  0  0  0  0  0
    1.5391    0.6142    6.6287 H   0  0  0  0  0  0  0  0  0  0  0  0
    0.0320   -2.5679    5.3163 H   0  0  0  0  0  0  0  0  0  0  0  0
   -0.3438   -1.9660    3.7252 H   0  0  0  0  0  0  0  0  0  0  0  0
    2.3175   -2.8999    4.7716 H   0  0  0  0  0  0  0  0  0  0  0  0
    1.4354   -3.4130    3.3809 H   0  0  0  0  0  0  0  0  0  0  0  0
    3.3159   -1.1386    3.8360 H   0  0  0  0  0  0  0  0  0  0  0  0
    1.1588   -0.5819    1.8577 H   0  0  0  0  0  0  0  0  0  0  0  0
    2.2716    1.5199    1.5300 H   0  0  0  0  0  0  0  0  0  0  0  0
    3.3710    1.2722    2.8747 H   0  0  0  0  0  0  0  0  0  0  0  0
    4.3225    0.8244    0.4782 H   0  0  0  0  0  0  0  0  0  0  0  0
    5.4328   -0.9032   -0.6046 H   0  0  0  0  0  0  0  0  0  0  0  0
    5.8377   -2.2832    0.3852 H   0  0  0  0  0  0  0  0  0  0  0  0
    3.3854   -1.9621   -1.3989 H   0  0  0  0  0  0  0  0  0  0  0  0
    3.3637   -3.0603   -3.2092 H   0  0  0  0  0  0  0  0  0  0  0  0
    2.7661   -4.2660   -0.8063 H   0  0  0  0  0  0  0  0  0  0  0  0
    4.1739   -4.4548    0.1950 H   0  0  0  0  0  0  0  0  0  0  0  0
    1.8175   -2.5702    0.6456 H   0  0  0  0  0  0  0  0  0  0  0  0
    2.2214   -4.0013    1.5714 H   0  0  0  0  0  0  0  0  0  0  0  0
    4.0996   -3.8196    3.3666 H   0  0  0  0  0  0  0  0  0  0  0  0
    5.1850   -2.4335    3.3424 H   0  0  0  0  0  0  0  0  0  0  0  0
    5.2028   -3.5999    2.0356 H   0  0  0  0  0  0  0  0  0  0  0  0
    1.5405    1.2499    4.2056 H   0  0  0  0  0  0  0  0  0  0  0  0
   -0.1969    1.9750    2.7445 H   0  0  0  0  0  0  0  0  0  0  0  0
   -0.8176    0.3474    2.5236 H   0  0  0  0  0  0  0  0  0  0  0  0
   -1.1967    2.1259    4.9218 H   0  0  0  0  0  0  0  0  0  0  0  0
   -2.3359    0.9881    4.1905 H   0  0  0  0  0  0  0  0  0  0  0  0
  2  1  1  1
  1 24  1  0
  1 25  1  0
  1 26  1  0
  2 19  1  0
  2 22  1  0
  2  3  1  0
  3  4  1  0
  3 27  1  0
  3 28  1  0
  4  5  1  0
  4 29  1  0
  4 30  1  0
  5 17  1  0
  5  6  1  0
  5 31  1  1
  6  7  1  0
  6 19  1  0
  6 32  1  6
  7  8  1  0
  7 33  1  0
  7 34  1  0
  8  9  2  0
  8 35  1  0
  9 17  1  0
  9 10  1  0
 10 11  1  0
 10 36  1  0
 10 37  1  0
 11 12  1  0
 11 15  1  0
 11 38  1  6
 12 13  1  0
 13 14  2  0
 13 39  1  0
 15 16  1  0
 15 40  1  0
 15 41  1  0
 16 17  1  0
 16 42  1  0
 16 43  1  0
 17 18  1  1
 18 44  1  0
 18 45  1  0
 18 46  1  0
 19 20  1  0
 19 47  1  1
 20 21  1  0
 20 48  1  0
 20 49  1  0
 21 22  1  0
 21 50  1  0
 21 51  1  0
 22 23  2  0
M  END
>  <i_m_ct_stereo_status>  (261) 
1

>  <s_m_source_file>  (261) 
/var/tmp/pbs.5076255.sched01/tmptyawoosb/846vw0lfia.sdf

>  <i_m_source_file_index>  (261) 
22

>  <i_lp_mmshare_version>  (261) 
48012

>  <i_f3d_flags>  (261) 
0

>  <s_epik_input>  (261) 
Tz1DMVtDSDJdW0NIMl1bQ0BASF0oW0NAQF0xMltDSDNdKVtDQEBIXTNbQ0BASF0oW0NIMl1bQ0gyXTIpW0NAXTQoW0NIM10pQyg9W0NIXVtDSDJdMylbQ0gyXVtDQEBIXShPW0NIXT1PKVtDSDJdW0NIMl00

>  <s_epik_cmdline>  (261) 
J2VwaWtfcHl0aG9uJywgJy1waHQnLCAnMi4wJywgJy1waCcsICc3LjAnLCAnLXRuJywgJzgnLCAnLW1hJywgJzIwMCcsICctaW1hZScsICc8aW5maWxlLm1hZT4nLCAnLW9tYWUnLCAnPG91dGZpbGUubWFlPic=

>  <r_lp_tautomer_probability>  (261) 
1

>  <r_epik_Ionization_Penalty>  (261) 
2.55223e-14

>  <r_epik_Ionization_Penalty_Charging>  (261) 
0

>  <r_epik_Ionization_Penalty_Neutral>  (261) 
2.55223e-14

>  <r_epik_State_Penalty>  (261) 
-0

>  <r_epik_Charging_Adjusted_Penalty>  (261) 
0

>  <i_epik_Tot_Q>  (261) 
0

>  <i_epik_Tot_abs_Q>  (261) 
0

>  <s_epik_Chemistry_Notes>  (261) 
This compound has an ester and may undergo hydrolysis at high or low pH.

>  <s_lp_Force_Field>  (261) 
OPLS3e

>  <r_lp_Energy>  (261) 
25.8171

>  <b_lp_Chiralities_Consistent>  (261) 
1

>  <s_lp_Variant>  (261) 
74:0-1

>  <s_i_glide_gridfile>  (261) 
pfpi4k_grid

>  <i_i_glide_lignum>  (261) 
22

>  <i_i_glide_rotatable_bonds>  (261) 
2

>  <r_i_docking_score>  (261) 
-3.80019

>  <r_i_glide_ligand_efficiency>  (261) 
-0.165226

>  <r_i_glide_ligand_efficiency_sa>  (261) 
-0.46988

>  <r_i_glide_ligand_efficiency_ln>  (261) 
-0.918921

>  <r_i_glide_gscore>  (261) 
-3.80019

>  <r_i_glide_lipo>  (261) 
-0.141151

>  <r_i_glide_hbond>  (261) 
-0.129248

>  <r_i_glide_metal>  (261) 
-0

>  <r_i_glide_rewards>  (261) 
-1.41035

>  <r_i_glide_evdw>  (261) 
-25.8858

>  <r_i_glide_ecoul>  (261) 
-6.55952

>  <r_i_glide_erotb>  (261) 
0.185924

>  <r_i_glide_esite>  (261) 
-0.0271511

>  <r_i_glide_emodel>  (261) 
-38.957

>  <r_i_glide_energy>  (261) 
-32.4453

>  <r_i_glide_einternal>  (261) 
2.74737

>  <r_i_glide_intrahb_reward>  (261) 
-0

>  <i_i_glide_confnum>  (261) 
5

>  <i_i_glide_posenum>  (261) 
18

>  <r_i_glide_eff_state_penalty>  (261) 
0

>  <ligand_id>  (261) 
74

>  <original_smiles>  (261) 
CC12CCC3C(CC=C4CC(OC=O)CCC43C)C1CCC2=O

>  <smiles>  (261) 
[H]C(=O)OC1([H])C([H])([H])C2=C([H])C([H])([H])C3([H])C4([H])C([H])([H])C([H])([H])C(=O)C4(C([H])([H])[H])C([H])([H])C([H])([H])C3([H])C2(C([H])([H])[H])C([H])([H])C1([H])[H]

$$$$
74:0:1
     RDKit          3D

 51 54  0  0  1  0  0  0  0  0999 V2000
   -0.8368    2.1729    5.2246 C   0  0  0  0  0  0  0  0  0  0  0  0
   -0.0958    2.7460    3.9981 C   0  0  2  0  0  0  0  0  0  0  0  0
   -0.3341    1.8909    2.7445 C   0  0  0  0  0  0  0  0  0  0  0  0
    0.2374    0.4696    2.8676 C   0  0  0  0  0  0  0  0  0  0  0  0
    1.5926    0.3619    3.6328 C   0  0  2  0  0  0  0  0  0  0  0  0
    2.3349    1.7186    3.7668 C   0  0  2  0  0  0  0  0  0  0  0  0
    3.5275    1.5660    4.7414 C   0  0  0  0  0  0  0  0  0  0  0  0
    4.3319    0.3099    4.5042 C   0  0  0  0  0  0  0  0  0  0  0  0
    3.9068   -0.7524    3.7973 C   0  0  0  0  0  0  0  0  0  0  0  0
    4.8620   -1.8771    3.4252 C   0  0  0  0  0  0  0  0  0  0  0  0
    5.0796   -1.8747    1.9018 C   0  0  1  0  0  0  0  0  0  0  0  0
    5.9281   -2.9515    1.5202 O   0  0  0  0  0  0  0  0  0  0  0  0
    6.7242   -2.8423    0.4310 C   0  0  0  0  0  0  0  0  0  0  0  0
    6.8211   -1.8555   -0.3038 O   0  0  0  0  0  0  0  0  0  0  0  0
    3.7356   -1.9704    1.1610 C   0  0  0  0  0  0  0  0  0  0  0  0
    2.7438   -0.8839    1.6298 C   0  0  0  0  0  0  0  0  0  0  0  0
    2.5054   -0.8374    3.1669 C   0  0  2  0  0  0  0  0  0  0  0  0
    1.7890   -2.1373    3.6203 C   0  0  0  0  0  0  0  0  0  0  0  0
    1.4303    2.9111    4.2339 C   0  0  1  0  0  0  0  0  0  0  0  0
    1.8197    4.2547    3.5708 C   0  0  0  0  0  0  0  0  0  0  0  0
    0.5934    5.1639    3.6811 C   0  0  0  0  0  0  0  0  0  0  0  0
   -0.5642    4.1893    3.7615 C   0  0  0  0  0  0  0  0  0  0  0  0
   -1.7443    4.5403    3.6892 O   0  0  0  0  0  0  0  0  0  0  0  0
   -0.3975    1.2430    5.5756 H   0  0  0  0  0  0  0  0  0  0  0  0
   -1.8812    1.9689    4.9893 H   0  0  0  0  0  0  0  0  0  0  0  0
   -0.8236    2.8682    6.0638 H   0  0  0  0  0  0  0  0  0  0  0  0
   -1.3967    1.8502    2.4878 H   0  0  0  0  0  0  0  0  0  0  0  0
    0.1558    2.3676    1.8943 H   0  0  0  0  0  0  0  0  0  0  0  0
   -0.4911   -0.1579    3.3870 H   0  0  0  0  0  0  0  0  0  0  0  0
    0.2868    0.0685    1.8589 H   0  0  0  0  0  0  0  0  0  0  0  0
    1.3195    0.1322    4.6625 H   0  0  0  0  0  0  0  0  0  0  0  0
    2.7344    1.9513    2.7769 H   0  0  0  0  0  0  0  0  0  0  0  0
    4.1934    2.4226    4.6338 H   0  0  0  0  0  0  0  0  0  0  0  0
    3.1888    1.5462    5.7791 H   0  0  0  0  0  0  0  0  0  0  0  0
    5.3343    0.3160    4.9073 H   0  0  0  0  0  0  0  0  0  0  0  0
    5.8107   -1.7402    3.9295 H   0  0  0  0  0  0  0  0  0  0  0  0
    4.4716   -2.8365    3.7615 H   0  0  0  0  0  0  0  0  0  0  0  0
    5.5575   -0.9242    1.6467 H   0  0  0  0  0  0  0  0  0  0  0  0
    7.2788   -3.7715    0.2965 H   0  0  0  0  0  0  0  0  0  0  0  0
    3.8946   -1.8700    0.0860 H   0  0  0  0  0  0  0  0  0  0  0  0
    3.3037   -2.9610    1.3000 H   0  0  0  0  0  0  0  0  0  0  0  0
    3.0965    0.0907    1.2846 H   0  0  0  0  0  0  0  0  0  0  0  0
    1.8165   -1.0807    1.1050 H   0  0  0  0  0  0  0  0  0  0  0  0
    0.7954   -2.2228    3.1786 H   0  0  0  0  0  0  0  0  0  0  0  0
    1.6693   -2.1652    4.7043 H   0  0  0  0  0  0  0  0  0  0  0  0
    2.3232   -3.0440    3.3394 H   0  0  0  0  0  0  0  0  0  0  0  0
    1.5564    3.0504    5.3097 H   0  0  0  0  0  0  0  0  0  0  0  0
    2.7023    4.7055    4.0273 H   0  0  0  0  0  0  0  0  0  0  0  0
    2.0396    4.1150    2.5079 H   0  0  0  0  0  0  0  0  0  0  0  0
    0.6163    5.7670    4.5887 H   0  0  0  0  0  0  0  0  0  0  0  0
    0.4910    5.8289    2.8245 H   0  0  0  0  0  0  0  0  0  0  0  0
  2  1  1  1
  1 24  1  0
  1 25  1  0
  1 26  1  0
  2 19  1  0
  2 22  1  0
  2  3  1  0
  3  4  1  0
  3 27  1  0
  3 28  1  0
  4  5  1  0
  4 29  1  0
  4 30  1  0
  5 17  1  0
  5  6  1  0
  5 31  1  1
  6  7  1  0
  6 19  1  0
  6 32  1  6
  7  8  1  0
  7 33  1  0
  7 34  1  0
  8  9  2  0
  8 35  1  0
  9 17  1  0
  9 10  1  0
 10 11  1  0
 10 36  1  0
 10 37  1  0
 11 12  1  0
 11 15  1  0
 11 38  1  6
 12 13  1  0
 13 14  2  0
 13 39  1  0
 15 16  1  0
 15 40  1  0
 15 41  1  0
 16 17  1  0
 16 42  1  0
 16 43  1  0
 17 18  1  1
 18 44  1  0
 18 45  1  0
 18 46  1  0
 19 20  1  0
 19 47  1  1
 20 21  1  0
 20 48  1  0
 20 49  1  0
 21 22  1  0
 21 50  1  0
 21 51  1  0
 22 23  2  0
M  END
>  <i_m_ct_stereo_status>  (262) 
1

>  <s_m_source_file>  (262) 
/var/tmp/pbs.5076255.sched01/tmptyawoosb/846vw0lfia.sdf

>  <i_m_source_file_index>  (262) 
22

>  <i_lp_mmshare_version>  (262) 
48012

>  <i_f3d_flags>  (262) 
0

>  <s_epik_input>  (262) 
Tz1DMVtDSDJdW0NIMl1bQ0BASF0oW0NAQF0xMltDSDNdKVtDQEBIXTNbQ0BASF0oW0NIMl1bQ0gyXTIpW0NAXTQoW0NIM10pQyg9W0NIXVtDSDJdMylbQ0gyXVtDQEBIXShPW0NIXT1PKVtDSDJdW0NIMl00

>  <s_epik_cmdline>  (262) 
J2VwaWtfcHl0aG9uJywgJy1waHQnLCAnMi4wJywgJy1waCcsICc3LjAnLCAnLXRuJywgJzgnLCAnLW1hJywgJzIwMCcsICctaW1hZScsICc8aW5maWxlLm1hZT4nLCAnLW9tYWUnLCAnPG91dGZpbGUubWFlPic=

>  <r_lp_tautomer_probability>  (262) 
1

>  <r_epik_Ionization_Penalty>  (262) 
2.55223e-14

>  <r_epik_Ionization_Penalty_Charging>  (262) 
0

>  <r_epik_Ionization_Penalty_Neutral>  (262) 
2.55223e-14

>  <r_epik_State_Penalty>  (262) 
-0

>  <r_epik_Charging_Adjusted_Penalty>  (262) 
0

>  <i_epik_Tot_Q>  (262) 
0

>  <i_epik_Tot_abs_Q>  (262) 
0

>  <s_epik_Chemistry_Notes>  (262) 
This compound has an ester and may undergo hydrolysis at high or low pH.

>  <s_lp_Force_Field>  (262) 
OPLS3e

>  <r_lp_Energy>  (262) 
25.8171

>  <b_lp_Chiralities_Consistent>  (262) 
1

>  <s_lp_Variant>  (262) 
74:0-1

>  <s_i_glide_gridfile>  (262) 
pfpi4k_grid

>  <i_i_glide_lignum>  (262) 
22

>  <i_i_glide_rotatable_bonds>  (262) 
2

>  <r_i_docking_score>  (262) 
-3.72121

>  <r_i_glide_ligand_efficiency>  (262) 
-0.161792

>  <r_i_glide_ligand_efficiency_sa>  (262) 
-0.460114

>  <r_i_glide_ligand_efficiency_ln>  (262) 
-0.899821

>  <r_i_glide_gscore>  (262) 
-3.72121

>  <r_i_glide_lipo>  (262) 
-0.173451

>  <r_i_glide_hbond>  (262) 
-0.290055

>  <r_i_glide_metal>  (262) 
-0

>  <r_i_glide_rewards>  (262) 
-1.39327

>  <r_i_glide_evdw>  (262) 
-23.7132

>  <r_i_glide_ecoul>  (262) 
-5.09796

>  <r_i_glide_erotb>  (262) 
0.185924

>  <r_i_glide_esite>  (262) 
-0.1

>  <r_i_glide_emodel>  (262) 
-36.4318

>  <r_i_glide_energy>  (262) 
-28.8112

>  <r_i_glide_einternal>  (262) 
0.19426

>  <r_i_glide_intrahb_reward>  (262) 
-0

>  <i_i_glide_confnum>  (262) 
3

>  <i_i_glide_posenum>  (262) 
26

>  <r_i_glide_eff_state_penalty>  (262) 
0

>  <ligand_id>  (262) 
74

>  <original_smiles>  (262) 
CC12CCC3C(CC=C4CC(OC=O)CCC43C)C1CCC2=O

>  <smiles>  (262) 
[H]C(=O)OC1([H])C([H])([H])C2=C([H])C([H])([H])C3([H])C4([H])C([H])([H])C([H])([H])C(=O)C4(C([H])([H])[H])C([H])([H])C([H])([H])C3([H])C2(C([H])([H])[H])C([H])([H])C1([H])[H]

$$$$
74:0:2
     RDKit          3D

 51 54  0  0  1  0  0  0  0  0999 V2000
    6.6903   -2.7782    1.0319 C   0  0  0  0  0  0  0  0  0  0  0  0
    5.5566   -2.4184    0.0534 C   0  0  2  0  0  0  0  0  0  0  0  0
    5.3641   -0.9057   -0.0713 C   0  0  0  0  0  0  0  0  0  0  0  0
    4.9178   -0.2537    1.2436 C   0  0  0  0  0  0  0  0  0  0  0  0
    3.9191   -1.0830    2.0951 C   0  0  2  0  0  0  0  0  0  0  0  0
    3.2389   -2.2148    1.2904 C   0  0  2  0  0  0  0  0  0  0  0  0
    2.4753   -3.1376    2.2596 C   0  0  0  0  0  0  0  0  0  0  0  0
    1.6493   -2.3785    3.2724 C   0  0  0  0  0  0  0  0  0  0  0  0
    1.8255   -1.0777    3.5835 C   0  0  0  0  0  0  0  0  0  0  0  0
    0.8275   -0.3424    4.4682 C   0  0  0  0  0  0  0  0  0  0  0  0
    0.1095    0.7350    3.6319 C   0  0  1  0  0  0  0  0  0  0  0  0
   -0.7800    1.4834    4.4533 O   0  0  0  0  0  0  0  0  0  0  0  0
   -1.7675    2.1974    3.8758 C   0  0  0  0  0  0  0  0  0  0  0  0
   -2.5561    2.9191    4.4884 O   0  0  0  0  0  0  0  0  0  0  0  0
    1.1312    1.6756    2.9597 C   0  0  0  0  0  0  0  0  0  0  0  0
    2.1932    0.9010    2.1507 C   0  0  0  0  0  0  0  0  0  0  0  0
    2.9327   -0.2080    2.9617 C   0  0  2  0  0  0  0  0  0  0  0  0
    3.7909    0.4436    4.0786 C   0  0  0  0  0  0  0  0  0  0  0  0
    4.2084   -3.0800    0.4151 C   0  0  1  0  0  0  0  0  0  0  0  0
    3.5829   -3.5069   -0.9335 C   0  0  0  0  0  0  0  0  0  0  0  0
    4.7477   -3.8423   -1.8705 C   0  0  0  0  0  0  0  0  0  0  0  0
    5.8825   -3.0058   -1.3175 C   0  0  0  0  0  0  0  0  0  0  0  0
    6.9448   -2.8081   -1.9086 O   0  0  0  0  0  0  0  0  0  0  0  0
    6.4224   -2.5640    2.0635 H   0  0  0  0  0  0  0  0  0  0  0  0
    7.5955   -2.2118    0.8112 H   0  0  0  0  0  0  0  0  0  0  0  0
    6.9521   -3.8360    0.9817 H   0  0  0  0  0  0  0  0  0  0  0  0
    6.2778   -0.4192   -0.4071 H   0  0  0  0  0  0  0  0  0  0  0  0
    4.6165   -0.7001   -0.8393 H   0  0  0  0  0  0  0  0  0  0  0  0
    5.7982   -0.0682    1.8590 H   0  0  0  0  0  0  0  0  0  0  0  0
    4.5317    0.7200    0.9733 H   0  0  0  0  0  0  0  0  0  0  0  0
    4.5367   -1.6260    2.8123 H   0  0  0  0  0  0  0  0  0  0  0  0
    2.5245   -1.7242    0.6264 H   0  0  0  0  0  0  0  0  0  0  0  0
    1.8198   -3.7817    1.6749 H   0  0  0  0  0  0  0  0  0  0  0  0
    3.1563   -3.7903    2.8097 H   0  0  0  0  0  0  0  0  0  0  0  0
    0.8470   -2.9333    3.7323 H   0  0  0  0  0  0  0  0  0  0  0  0
    0.0984   -1.0415    4.8796 H   0  0  0  0  0  0  0  0  0  0  0  0
    1.3372    0.1062    5.3210 H   0  0  0  0  0  0  0  0  0  0  0  0
   -0.4733    0.2191    2.8634 H   0  0  0  0  0  0  0  0  0  0  0  0
   -1.7633    2.0514    2.7935 H   0  0  0  0  0  0  0  0  0  0  0  0
    0.6196    2.3697    2.2910 H   0  0  0  0  0  0  0  0  0  0  0  0
    1.6072    2.2989    3.7172 H   0  0  0  0  0  0  0  0  0  0  0  0
    1.7113    0.4525    1.2797 H   0  0  0  0  0  0  0  0  0  0  0  0
    2.8821    1.6486    1.7698 H   0  0  0  0  0  0  0  0  0  0  0  0
    4.5813    1.0715    3.6696 H   0  0  0  0  0  0  0  0  0  0  0  0
    4.2720   -0.3131    4.6998 H   0  0  0  0  0  0  0  0  0  0  0  0
    3.2149    1.0846    4.7432 H   0  0  0  0  0  0  0  0  0  0  0  0
    4.4603   -3.9934    0.9581 H   0  0  0  0  0  0  0  0  0  0  0  0
    2.9068   -4.3550   -0.8121 H   0  0  0  0  0  0  0  0  0  0  0  0
    3.0088   -2.6918   -1.3813 H   0  0  0  0  0  0  0  0  0  0  0  0
    5.0137   -4.8972   -1.8039 H   0  0  0  0  0  0  0  0  0  0  0  0
    4.5404   -3.6103   -2.9154 H   0  0  0  0  0  0  0  0  0  0  0  0
  2  1  1  1
  1 24  1  0
  1 25  1  0
  1 26  1  0
  2 19  1  0
  2 22  1  0
  2  3  1  0
  3  4  1  0
  3 27  1  0
  3 28  1  0
  4  5  1  0
  4 29  1  0
  4 30  1  0
  5 17  1  0
  5  6  1  0
  5 31  1  1
  6  7  1  0
  6 19  1  0
  6 32  1  6
  7  8  1  0
  7 33  1  0
  7 34  1  0
  8  9  2  0
  8 35  1  0
  9 17  1  0
  9 10  1  0
 10 11  1  0
 10 36  1  0
 10 37  1  0
 11 12  1  0
 11 15  1  0
 11 38  1  6
 12 13  1  0
 13 14  2  0
 13 39  1  0
 15 16  1  0
 15 40  1  0
 15 41  1  0
 16 17  1  0
 16 42  1  0
 16 43  1  0
 17 18  1  1
 18 44  1  0
 18 45  1  0
 18 46  1  0
 19 20  1  0
 19 47  1  1
 20 21  1  0
 20 48  1  0
 20 49  1  0
 21 22  1  0
 21 50  1  0
 21 51  1  0
 22 23  2  0
M  END
>  <i_m_ct_stereo_status>  (263) 
1

>  <s_m_source_file>  (263) 
/var/tmp/pbs.5076255.sched01/tmptyawoosb/846vw0lfia.sdf

>  <i_m_source_file_index>  (263) 
22

>  <i_lp_mmshare_version>  (263) 
48012

>  <i_f3d_flags>  (263) 
0

>  <s_epik_input>  (263) 
Tz1DMVtDSDJdW0NIMl1bQ0BASF0oW0NAQF0xMltDSDNdKVtDQEBIXTNbQ0BASF0oW0NIMl1bQ0gyXTIpW0NAXTQoW0NIM10pQyg9W0NIXVtDSDJdMylbQ0gyXVtDQEBIXShPW0NIXT1PKVtDSDJdW0NIMl00

>  <s_epik_cmdline>  (263) 
J2VwaWtfcHl0aG9uJywgJy1waHQnLCAnMi4wJywgJy1waCcsICc3LjAnLCAnLXRuJywgJzgnLCAnLW1hJywgJzIwMCcsICctaW1hZScsICc8aW5maWxlLm1hZT4nLCAnLW9tYWUnLCAnPG91dGZpbGUubWFlPic=

>  <r_lp_tautomer_probability>  (263) 
1

>  <r_epik_Ionization_Penalty>  (263) 
2.55223e-14

>  <r_epik_Ionization_Penalty_Charging>  (263) 
0

>  <r_epik_Ionization_Penalty_Neutral>  (263) 
2.55223e-14

>  <r_epik_State_Penalty>  (263) 
-0

>  <r_epik_Charging_Adjusted_Penalty>  (263) 
0

>  <i_epik_Tot_Q>  (263) 
0

>  <i_epik_Tot_abs_Q>  (263) 
0

>  <s_epik_Chemistry_Notes>  (263) 
This compound has an ester and may undergo hydrolysis at high or low pH.

>  <s_lp_Force_Field>  (263) 
OPLS3e

>  <r_lp_Energy>  (263) 
25.8171

>  <b_lp_Chiralities_Consistent>  (263) 
1

>  <s_lp_Variant>  (263) 
74:0-1

>  <s_i_glide_gridfile>  (263) 
pfpi4k_grid

>  <i_i_glide_lignum>  (263) 
22

>  <i_i_glide_rotatable_bonds>  (263) 
2

>  <r_i_docking_score>  (263) 
-3.3808

>  <r_i_glide_ligand_efficiency>  (263) 
-0.146991

>  <r_i_glide_ligand_efficiency_sa>  (263) 
-0.418023

>  <r_i_glide_ligand_efficiency_ln>  (263) 
-0.817508

>  <r_i_glide_gscore>  (263) 
-3.3808

>  <r_i_glide_lipo>  (263) 
-0.302051

>  <r_i_glide_hbond>  (263) 
-0.0352037

>  <r_i_glide_metal>  (263) 
-0

>  <r_i_glide_rewards>  (263) 
-1.31557

>  <r_i_glide_evdw>  (263) 
-28.1966

>  <r_i_glide_ecoul>  (263) 
-3.1703

>  <r_i_glide_erotb>  (263) 
0.185924

>  <r_i_glide_esite>  (263) 
-0.0285229

>  <r_i_glide_emodel>  (263) 
-36.717

>  <r_i_glide_energy>  (263) 
-31.3668

>  <r_i_glide_einternal>  (263) 
3.13005

>  <r_i_glide_intrahb_reward>  (263) 
-0

>  <i_i_glide_confnum>  (263) 
3

>  <i_i_glide_posenum>  (263) 
16

>  <r_i_glide_eff_state_penalty>  (263) 
0

>  <ligand_id>  (263) 
74

>  <original_smiles>  (263) 
CC12CCC3C(CC=C4CC(OC=O)CCC43C)C1CCC2=O

>  <smiles>  (263) 
[H]C(=O)OC1([H])C([H])([H])C2=C([H])C([H])([H])C3([H])C4([H])C([H])([H])C([H])([H])C(=O)C4(C([H])([H])[H])C([H])([H])C([H])([H])C3([H])C2(C([H])([H])[H])C([H])([H])C1([H])[H]

$$$$
75:0:0
     RDKit          3D

 58 63  0  0  1  0  0  0  0  0999 V2000
    2.3754   -3.8138   -4.2066 C   0  0  0  0  0  0  0  0  0  0  0  0
    2.4979   -3.2762   -2.8295 C   0  0  0  0  0  0  0  0  0  0  0  0
    2.0949   -3.8035   -1.6899 C   0  0  0  0  0  0  0  0  0  0  0  0
    2.5464   -3.0316   -0.4911 C   0  0  2  0  0  0  0  0  0  0  0  0
    3.3085   -1.7898   -1.1639 C   0  0  1  0  0  0  0  0  0  0  0  0
    4.7062   -1.3633   -0.7282 C   0  0  0  0  0  0  0  0  0  0  0  0
    5.7211   -1.6059   -1.3843 O   0  0  0  0  0  0  0  0  0  0  0  0
    4.6813   -0.7189    0.4845 O   0  0  0  0  0  0  0  0  0  0  0  0
    5.4144   -1.2086    1.6301 C   0  0  2  0  0  0  0  0  0  0  0  0
    6.8182   -1.4371    1.2256 C   0  0  0  0  0  0  0  0  0  0  0  0
    7.1180   -2.7067    1.1513 C   0  0  0  0  0  0  0  0  0  0  0  0
    6.0722   -3.5757    1.7038 C   0  0  1  0  0  0  0  0  0  0  0  0
    4.8973   -2.6074    2.1868 C   0  0  1  0  0  0  0  0  0  0  0  0
    4.8494   -2.8537    3.7067 C   0  0  1  0  0  0  0  0  0  0  0  0
    4.1121   -1.8332    4.3613 O   0  0  0  0  0  0  0  0  0  0  0  0
    4.3456   -4.3073    4.0711 C   0  0  1  0  0  0  0  0  0  0  0  0
    2.9974   -4.2945    4.5021 O   0  0  0  0  0  0  0  0  0  0  0  0
    4.5928   -5.5702    3.1345 C   0  0  0  0  0  0  0  0  0  0  0  0
    4.6556   -5.5906    1.5424 C   0  0  1  0  0  0  0  0  0  0  0  0
    4.8511   -6.9622    1.2253 O   0  0  0  0  0  0  0  0  0  0  0  0
    3.3907   -5.2233    0.6997 C   0  0  1  0  0  0  0  0  0  0  0  0
    2.1570   -6.0658    1.0811 C   0  0  0  0  0  0  0  0  0  0  0  0
    3.1034   -3.7353    0.7354 C   0  0  2  0  0  0  0  0  0  0  0  0
    2.4853   -3.5960    2.0196 O   0  0  0  0  0  0  0  0  0  0  0  0
    3.4805   -2.6756    1.7012 C   0  0  1  0  0  0  0  0  0  0  0  0
    5.9146   -4.8854    0.9826 C   0  0  0  0  0  0  0  0  0  0  0  0
    5.8415   -4.5956   -0.5113 C   0  0  0  0  0  0  0  0  0  0  0  0
    7.2353   -5.7199    1.2312 C   0  0  0  0  0  0  0  0  0  0  0  0
    3.2005   -2.0211   -2.6333 C   0  0  0  0  0  0  0  0  0  0  0  0
    3.6528   -1.2609   -3.4919 O   0  0  0  0  0  0  0  0  0  0  0  0
    1.7027   -3.1536   -4.7593 H   0  0  0  0  0  0  0  0  0  0  0  0
    1.9184   -4.7627   -4.2527 H   0  0  0  0  0  0  0  0  0  0  0  0
    3.3888   -3.8620   -4.6309 H   0  0  0  0  0  0  0  0  0  0  0  0
    1.4908   -4.7269   -1.5804 H   0  0  0  0  0  0  0  0  0  0  0  0
    1.6419   -2.6575   -0.0846 H   0  0  0  0  0  0  0  0  0  0  0  0
    2.6820   -0.9047   -1.0002 H   0  0  0  0  0  0  0  0  0  0  0  0
    5.4022   -0.4432    2.4080 H   0  0  0  0  0  0  0  0  0  0  0  0
    7.5124   -0.6833    0.8953 H   0  0  0  0  0  0  0  0  0  0  0  0
    8.1105   -3.0362    0.8752 H   0  0  0  0  0  0  0  0  0  0  0  0
    6.5936   -3.9137    2.5772 H   0  0  0  0  0  0  0  0  0  0  0  0
    5.8320   -2.7333    4.1386 H   0  0  0  0  0  0  0  0  0  0  0  0
    3.2558   -1.7927    3.9703 H   0  0  0  0  0  0  0  0  0  0  0  0
    4.8815   -4.5658    4.9797 H   0  0  0  0  0  0  0  0  0  0  0  0
    2.4631   -4.0292    3.7684 H   0  0  0  0  0  0  0  0  0  0  0  0
    5.5332   -6.0086    3.4771 H   0  0  0  0  0  0  0  0  0  0  0  0
    3.8641   -6.3264    3.4310 H   0  0  0  0  0  0  0  0  0  0  0  0
    4.1480   -7.4431    1.6187 H   0  0  0  0  0  0  0  0  0  0  0  0
    3.5739   -5.4964   -0.3325 H   0  0  0  0  0  0  0  0  0  0  0  0
    1.9002   -5.9842    2.1374 H   0  0  0  0  0  0  0  0  0  0  0  0
    2.3300   -7.1263    0.8896 H   0  0  0  0  0  0  0  0  0  0  0  0
    1.2936   -5.7754    0.4883 H   0  0  0  0  0  0  0  0  0  0  0  0
    2.9661   -1.7045    1.7147 H   0  0  0  0  0  0  0  0  0  0  0  0
    5.8537   -5.5681   -0.9812 H   0  0  0  0  0  0  0  0  0  0  0  0
    6.7848   -4.2034   -0.8654 H   0  0  0  0  0  0  0  0  0  0  0  0
    5.0507   -3.9381   -0.8752 H   0  0  0  0  0  0  0  0  0  0  0  0
    7.2543   -6.6491    0.6685 H   0  0  0  0  0  0  0  0  0  0  0  0
    7.3958   -5.9957    2.2687 H   0  0  0  0  0  0  0  0  0  0  0  0
    8.1429   -5.2050    0.9302 H   0  0  0  0  0  0  0  0  0  0  0  0
  1  2  1  0
  1 31  1  0
  1 32  1  0
  1 33  1  0
  2 29  1  0
  2  3  2  0
  3  4  1  0
  3 34  1  0
  4 23  1  0
  4  5  1  0
  4 35  1  1
  5  6  1  0
  5 29  1  0
  5 36  1  6
  6  7  2  0
  6  8  1  0
  8  9  1  0
 13  9  1  1
  9 10  1  0
  9 37  1  1
 10 11  2  0
 10 38  1  0
 11 12  1  0
 11 39  1  0
 12 26  1  0
 12 13  1  0
 12 40  1  1
 13 25  1  0
 13 14  1  0
 14 15  1  0
 14 16  1  0
 14 41  1  1
 15 42  1  0
 16 17  1  0
 16 18  1  0
 16 43  1  1
 17 44  1  0
 18 19  1  0
 18 45  1  0
 18 46  1  0
 19 20  1  1
 19 21  1  0
 19 26  1  0
 20 47  1  0
 21 22  1  0
 21 23  1  0
 21 48  1  6
 22 49  1  0
 22 50  1  0
 22 51  1  0
 23 25  1  0
 23 24  1  1
 24 25  1  0
 25 52  1  6
 26 27  1  0
 26 28  1  0
 27 53  1  0
 27 54  1  0
 27 55  1  0
 28 56  1  0
 28 57  1  0
 28 58  1  0
 29 30  2  0
M  END
>  <i_m_ct_stereo_status>  (264) 
1

>  <s_m_source_file>  (264) 
/var/tmp/pbs.5076255.sched01/tmptyawoosb/846vw0lfia.sdf

>  <i_m_source_file_index>  (264) 
23

>  <i_lp_mmshare_version>  (264) 
48012

>  <i_f3d_flags>  (264) 
2

>  <s_epik_input>  (264) 
W0NAXTEyM1tDQEhdNE9DKD1PKVtDQEhdNVtDQEBIXShbQ0hdPUMoW0NIM10pQzU9TylbQ0BAXTYoW0NASF0zTzYpW0NASF0oW0NIM10pW0NAXShbT0hdKShbQ0gyXVtDQEhdKFtPSF0pW0NAQEhdMltPSF0pQyhbQ0gzXSkoW0NIM10pW0NASF0xW0NIXT1bQ0hdNA==

>  <s_epik_cmdline>  (264) 
J2VwaWtfcHl0aG9uJywgJy1waHQnLCAnMi4wJywgJy1waCcsICc3LjAnLCAnLXRuJywgJzgnLCAnLW1hJywgJzIwMCcsICctaW1hZScsICc8aW5maWxlLm1hZT4nLCAnLW9tYWUnLCAnPG91dGZpbGUubWFlPic=

>  <r_lp_tautomer_probability>  (264) 
1

>  <r_epik_Ionization_Penalty>  (264) 
0.000449403

>  <r_epik_Ionization_Penalty_Charging>  (264) 
0

>  <r_epik_Ionization_Penalty_Neutral>  (264) 
0.000449403

>  <r_epik_State_Penalty>  (264) 
-0

>  <r_epik_Charging_Adjusted_Penalty>  (264) 
0

>  <i_epik_Tot_Q>  (264) 
0

>  <i_epik_Tot_abs_Q>  (264) 
0

>  <s_epik_Chemistry_Notes>  (264) 
This compound has an ester and may undergo hydrolysis at high or low pH.

>  <s_lp_Force_Field>  (264) 
OPLS3e

>  <r_lp_Energy>  (264) 
101.242

>  <b_lp_Chiralities_Consistent>  (264) 
0

>  <s_lp_Variant>  (264) 
75:0-1

>  <s_i_glide_gridfile>  (264) 
pfpi4k_grid

>  <i_i_glide_lignum>  (264) 
23

>  <i_i_glide_rotatable_bonds>  (264) 
3

>  <r_i_docking_score>  (264) 
-2.51803

>  <r_i_glide_ligand_efficiency>  (264) 
-0.0839343

>  <r_i_glide_ligand_efficiency_sa>  (264) 
-0.260803

>  <r_i_glide_ligand_efficiency_ln>  (264) 
-0.572123

>  <r_i_glide_gscore>  (264) 
-2.51803

>  <r_i_glide_lipo>  (264) 
-0.710472

>  <r_i_glide_hbond>  (264) 
-0.0408212

>  <r_i_glide_metal>  (264) 
-0

>  <r_i_glide_rewards>  (264) 
-1.06956

>  <r_i_glide_evdw>  (264) 
-0.530247

>  <r_i_glide_ecoul>  (264) 
-3.91858

>  <r_i_glide_erotb>  (264) 
0

>  <r_i_glide_esite>  (264) 
-0.0828741

>  <r_i_glide_emodel>  (264) 
-10.8165

>  <r_i_glide_energy>  (264) 
-4.44882

>  <r_i_glide_einternal>  (264) 
0.262391

>  <r_i_glide_intrahb_reward>  (264) 
-0.5

>  <i_i_glide_confnum>  (264) 
2

>  <i_i_glide_posenum>  (264) 
29

>  <r_i_glide_eff_state_penalty>  (264) 
0

>  <ligand_id>  (264) 
75

>  <original_smiles>  (264) 
CC1=CC2C(C(=O)OC3C=CC4C35C(O)C(O)CC(O)(C(C)C23OC35)C4(C)C)C1=O

>  <smiles>  (264) 
[H]OC1([H])C([H])([H])C2(O[H])C([H])(C([H])([H])[H])C34OC3([H])C3(C([H])(OC(=O)C5([H])C(=O)C(C([H])([H])[H])=C([H])C54[H])C([H])=C([H])C3([H])C2(C([H])([H])[H])C([H])([H])[H])C1([H])O[H]

$$$$
75:0:1
     RDKit          3D

 58 63  0  0  1  0  0  0  0  0999 V2000
    2.3754   -3.8416   -4.2137 C   0  0  0  0  0  0  0  0  0  0  0  0
    2.4827   -3.2975   -2.8479 C   0  0  0  0  0  0  0  0  0  0  0  0
    2.0765   -3.8107   -1.6842 C   0  0  0  0  0  0  0  0  0  0  0  0
    2.5294   -3.0378   -0.5047 C   0  0  2  0  0  0  0  0  0  0  0  0
    3.2876   -1.7981   -1.1757 C   0  0  1  0  0  0  0  0  0  0  0  0
    4.6979   -1.3847   -0.7324 C   0  0  0  0  0  0  0  0  0  0  0  0
    5.7076   -1.6438   -1.3915 O   0  0  0  0  0  0  0  0  0  0  0  0
    4.6780   -0.7313    0.4700 O   0  0  0  0  0  0  0  0  0  0  0  0
    5.4114   -1.2125    1.6219 C   0  0  2  0  0  0  0  0  0  0  0  0
    6.8230   -1.4415    1.2251 C   0  0  0  0  0  0  0  0  0  0  0  0
    7.1339   -2.7085    1.1736 C   0  0  0  0  0  0  0  0  0  0  0  0
    6.0626   -3.5802    1.7064 C   0  0  1  0  0  0  0  0  0  0  0  0
    4.8972   -2.6113    2.1838 C   0  0  1  0  0  0  0  0  0  0  0  0
    4.8305   -2.8520    3.7070 C   0  0  1  0  0  0  0  0  0  0  0  0
    4.0727   -1.8426    4.3510 O   0  0  0  0  0  0  0  0  0  0  0  0
    4.3329   -4.3084    4.0714 C   0  0  1  0  0  0  0  0  0  0  0  0
    2.9852   -4.3251    4.5050 O   0  0  0  0  0  0  0  0  0  0  0  0
    4.5780   -5.5716    3.1392 C   0  0  0  0  0  0  0  0  0  0  0  0
    4.6427   -5.5998    1.5485 C   0  0  1  0  0  0  0  0  0  0  0  0
    4.8185   -6.9801    1.2506 O   0  0  0  0  0  0  0  0  0  0  0  0
    3.3755   -5.2208    0.7045 C   0  0  1  0  0  0  0  0  0  0  0  0
    2.1407   -6.0655    1.0865 C   0  0  0  0  0  0  0  0  0  0  0  0
    3.0818   -3.7326    0.7317 C   0  0  2  0  0  0  0  0  0  0  0  0
    2.4689   -3.5871    2.0183 O   0  0  0  0  0  0  0  0  0  0  0  0
    3.4661   -2.6733    1.7008 C   0  0  1  0  0  0  0  0  0  0  0  0
    5.9101   -4.8975    0.9900 C   0  0  0  0  0  0  0  0  0  0  0  0
    5.8489   -4.6138   -0.5105 C   0  0  0  0  0  0  0  0  0  0  0  0
    7.2256   -5.7340    1.2431 C   0  0  0  0  0  0  0  0  0  0  0  0
    3.1811   -2.0532   -2.6418 C   0  0  0  0  0  0  0  0  0  0  0  0
    3.6402   -1.2929   -3.5179 O   0  0  0  0  0  0  0  0  0  0  0  0
    1.7200   -3.1989   -4.8036 H   0  0  0  0  0  0  0  0  0  0  0  0
    1.8938   -4.7971   -4.2533 H   0  0  0  0  0  0  0  0  0  0  0  0
    3.3791   -3.9235   -4.6289 H   0  0  0  0  0  0  0  0  0  0  0  0
    1.4888   -4.7441   -1.5751 H   0  0  0  0  0  0  0  0  0  0  0  0
    1.6031   -2.6809   -0.0999 H   0  0  0  0  0  0  0  0  0  0  0  0
    2.6721   -0.9077   -1.0124 H   0  0  0  0  0  0  0  0  0  0  0  0
    5.3811   -0.4424    2.3909 H   0  0  0  0  0  0  0  0  0  0  0  0
    7.5175   -0.6723    0.9252 H   0  0  0  0  0  0  0  0  0  0  0  0
    8.1255   -3.0420    0.9112 H   0  0  0  0  0  0  0  0  0  0  0  0
    6.5677   -3.9242    2.5933 H   0  0  0  0  0  0  0  0  0  0  0  0
    5.8140   -2.7225    4.1441 H   0  0  0  0  0  0  0  0  0  0  0  0
    4.4864   -1.0100    4.1828 H   0  0  0  0  0  0  0  0  0  0  0  0
    4.8650   -4.5548    4.9881 H   0  0  0  0  0  0  0  0  0  0  0  0
    2.4477   -4.0641    3.7686 H   0  0  0  0  0  0  0  0  0  0  0  0
    5.5136   -6.0101    3.4870 H   0  0  0  0  0  0  0  0  0  0  0  0
    3.8472   -6.3255    3.4268 H   0  0  0  0  0  0  0  0  0  0  0  0
    4.8505   -7.0612    0.3096 H   0  0  0  0  0  0  0  0  0  0  0  0
    3.5559   -5.4968   -0.3294 H   0  0  0  0  0  0  0  0  0  0  0  0
    1.8842   -5.9797    2.1429 H   0  0  0  0  0  0  0  0  0  0  0  0
    2.3125   -7.1271    0.8960 H   0  0  0  0  0  0  0  0  0  0  0  0
    1.2762   -5.7750    0.4969 H   0  0  0  0  0  0  0  0  0  0  0  0
    2.9638   -1.7012    1.7150 H   0  0  0  0  0  0  0  0  0  0  0  0
    5.8452   -5.5921   -0.9762 H   0  0  0  0  0  0  0  0  0  0  0  0
    6.7833   -4.2125   -0.8639 H   0  0  0  0  0  0  0  0  0  0  0  0
    5.0478   -3.9696   -0.8775 H   0  0  0  0  0  0  0  0  0  0  0  0
    7.2456   -6.6668    0.6873 H   0  0  0  0  0  0  0  0  0  0  0  0
    7.3801   -6.0039    2.2858 H   0  0  0  0  0  0  0  0  0  0  0  0
    8.1371   -5.2221    0.9431 H   0  0  0  0  0  0  0  0  0  0  0  0
  1  2  1  0
  1 31  1  0
  1 32  1  0
  1 33  1  0
  2 29  1  0
  2  3  2  0
  3  4  1  0
  3 34  1  0
  4 23  1  0
  4  5  1  0
  4 35  1  1
  5  6  1  0
  5 29  1  0
  5 36  1  6
  6  7  2  0
  6  8  1  0
  8  9  1  0
 13  9  1  1
  9 10  1  0
  9 37  1  1
 10 11  2  0
 10 38  1  0
 11 12  1  0
 11 39  1  0
 12 26  1  0
 12 13  1  0
 12 40  1  1
 13 25  1  0
 13 14  1  0
 14 15  1  0
 14 16  1  0
 14 41  1  1
 15 42  1  0
 16 17  1  0
 16 18  1  0
 16 43  1  1
 17 44  1  0
 18 19  1  0
 18 45  1  0
 18 46  1  0
 19 20  1  1
 19 21  1  0
 19 26  1  0
 20 47  1  0
 21 22  1  0
 21 23  1  0
 21 48  1  6
 22 49  1  0
 22 50  1  0
 22 51  1  0
 23 25  1  0
 23 24  1  1
 24 25  1  0
 25 52  1  6
 26 27  1  0
 26 28  1  0
 27 53  1  0
 27 54  1  0
 27 55  1  0
 28 56  1  0
 28 57  1  0
 28 58  1  0
 29 30  2  0
M  END
>  <i_m_ct_stereo_status>  (265) 
1

>  <s_m_source_file>  (265) 
/var/tmp/pbs.5076255.sched01/tmptyawoosb/846vw0lfia.sdf

>  <i_m_source_file_index>  (265) 
23

>  <i_lp_mmshare_version>  (265) 
48012

>  <i_f3d_flags>  (265) 
2

>  <s_epik_input>  (265) 
W0NAXTEyM1tDQEhdNE9DKD1PKVtDQEhdNVtDQEBIXShbQ0hdPUMoW0NIM10pQzU9TylbQ0BAXTYoW0NASF0zTzYpW0NASF0oW0NIM10pW0NAXShbT0hdKShbQ0gyXVtDQEhdKFtPSF0pW0NAQEhdMltPSF0pQyhbQ0gzXSkoW0NIM10pW0NASF0xW0NIXT1bQ0hdNA==

>  <s_epik_cmdline>  (265) 
J2VwaWtfcHl0aG9uJywgJy1waHQnLCAnMi4wJywgJy1waCcsICc3LjAnLCAnLXRuJywgJzgnLCAnLW1hJywgJzIwMCcsICctaW1hZScsICc8aW5maWxlLm1hZT4nLCAnLW9tYWUnLCAnPG91dGZpbGUubWFlPic=

>  <r_lp_tautomer_probability>  (265) 
1

>  <r_epik_Ionization_Penalty>  (265) 
0.000449403

>  <r_epik_Ionization_Penalty_Charging>  (265) 
0

>  <r_epik_Ionization_Penalty_Neutral>  (265) 
0.000449403

>  <r_epik_State_Penalty>  (265) 
-0

>  <r_epik_Charging_Adjusted_Penalty>  (265) 
0

>  <i_epik_Tot_Q>  (265) 
0

>  <i_epik_Tot_abs_Q>  (265) 
0

>  <s_epik_Chemistry_Notes>  (265) 
This compound has an ester and may undergo hydrolysis at high or low pH.

>  <s_lp_Force_Field>  (265) 
OPLS3e

>  <r_lp_Energy>  (265) 
101.242

>  <b_lp_Chiralities_Consistent>  (265) 
0

>  <s_lp_Variant>  (265) 
75:0-1

>  <s_i_glide_gridfile>  (265) 
pfpi4k_grid

>  <i_i_glide_lignum>  (265) 
23

>  <i_i_glide_rotatable_bonds>  (265) 
3

>  <r_i_docking_score>  (265) 
-2.27464

>  <r_i_glide_ligand_efficiency>  (265) 
-0.0758213

>  <r_i_glide_ligand_efficiency_sa>  (265) 
-0.235594

>  <r_i_glide_ligand_efficiency_ln>  (265) 
-0.516823

>  <r_i_glide_gscore>  (265) 
-2.27464

>  <r_i_glide_lipo>  (265) 
-0.706813

>  <r_i_glide_hbond>  (265) 
-0.0340138

>  <r_i_glide_metal>  (265) 
-0

>  <r_i_glide_rewards>  (265) 
-1.06956

>  <r_i_glide_evdw>  (265) 
2.11778

>  <r_i_glide_ecoul>  (265) 
-3.25734

>  <r_i_glide_erotb>  (265) 
0

>  <r_i_glide_esite>  (265) 
-0.0815374

>  <r_i_glide_emodel>  (265) 
-7.98072

>  <r_i_glide_energy>  (265) 
-1.13957

>  <r_i_glide_einternal>  (265) 
0.364396

>  <r_i_glide_intrahb_reward>  (265) 
-0.5

>  <i_i_glide_confnum>  (265) 
2

>  <i_i_glide_posenum>  (265) 
17

>  <r_i_glide_eff_state_penalty>  (265) 
0

>  <ligand_id>  (265) 
75

>  <original_smiles>  (265) 
CC1=CC2C(C(=O)OC3C=CC4C35C(O)C(O)CC(O)(C(C)C23OC35)C4(C)C)C1=O

>  <smiles>  (265) 
[H]OC1([H])C([H])([H])C2(O[H])C([H])(C([H])([H])[H])C34OC3([H])C3(C([H])(OC(=O)C5([H])C(=O)C(C([H])([H])[H])=C([H])C54[H])C([H])=C([H])C3([H])C2(C([H])([H])[H])C([H])([H])[H])C1([H])O[H]

$$$$
75:0:2
     RDKit          3D

 58 63  0  0  1  0  0  0  0  0999 V2000
    2.3596   -3.8047   -4.2170 C   0  0  0  0  0  0  0  0  0  0  0  0
    2.4389   -3.3256   -2.8374 C   0  0  0  0  0  0  0  0  0  0  0  0
    2.0332   -3.8454   -1.6834 C   0  0  0  0  0  0  0  0  0  0  0  0
    2.4850   -3.0570   -0.4933 C   0  0  2  0  0  0  0  0  0  0  0  0
    3.2779   -1.8229   -1.1175 C   0  0  1  0  0  0  0  0  0  0  0  0
    4.6884   -1.4300   -0.6953 C   0  0  0  0  0  0  0  0  0  0  0  0
    5.6793   -1.6943   -1.3779 O   0  0  0  0  0  0  0  0  0  0  0  0
    4.6847   -0.8036    0.5147 O   0  0  0  0  0  0  0  0  0  0  0  0
    5.4430   -1.2973    1.6396 C   0  0  2  0  0  0  0  0  0  0  0  0
    6.8392   -1.5295    1.1999 C   0  0  0  0  0  0  0  0  0  0  0  0
    7.1265   -2.7981    1.1492 C   0  0  0  0  0  0  0  0  0  0  0  0
    6.0594   -3.6728    1.7019 C   0  0  1  0  0  0  0  0  0  0  0  0
    4.9059   -2.6988    2.1930 C   0  0  1  0  0  0  0  0  0  0  0  0
    4.8381   -2.9726    3.7122 C   0  0  1  0  0  0  0  0  0  0  0  0
    4.1168   -1.9553    4.3841 O   0  0  0  0  0  0  0  0  0  0  0  0
    4.3055   -4.4227    4.0579 C   0  0  1  0  0  0  0  0  0  0  0  0
    2.9679   -4.4115    4.5243 O   0  0  0  0  0  0  0  0  0  0  0  0
    4.5208   -5.6758    3.1042 C   0  0  0  0  0  0  0  0  0  0  0  0
    4.5765   -5.6744    1.5146 C   0  0  1  0  0  0  0  0  0  0  0  0
    4.7202   -7.0528    1.1924 O   0  0  0  0  0  0  0  0  0  0  0  0
    3.3111   -5.2657    0.6925 C   0  0  1  0  0  0  0  0  0  0  0  0
    2.0555   -6.0881    1.0658 C   0  0  0  0  0  0  0  0  0  0  0  0
    3.0585   -3.7782    0.7269 C   0  0  2  0  0  0  0  0  0  0  0  0
    2.4430   -3.6276    2.0178 O   0  0  0  0  0  0  0  0  0  0  0  0
    3.4674   -2.7355    1.7148 C   0  0  1  0  0  0  0  0  0  0  0  0
    5.8592   -4.9800    0.9649 C   0  0  0  0  0  0  0  0  0  0  0  0
    5.7848   -4.6483   -0.5241 C   0  0  0  0  0  0  0  0  0  0  0  0
    7.1499   -5.8558    1.1898 C   0  0  0  0  0  0  0  0  0  0  0  0
    3.1618   -2.0762   -2.6167 C   0  0  0  0  0  0  0  0  0  0  0  0
    3.6039   -1.2789   -3.4569 O   0  0  0  0  0  0  0  0  0  0  0  0
    1.6706   -3.1829   -4.6848 H   0  0  0  0  0  0  0  0  0  0  0  0
    1.8857   -4.8131   -4.2871 H   0  0  0  0  0  0  0  0  0  0  0  0
    3.3663   -3.7945   -4.6548 H   0  0  0  0  0  0  0  0  0  0  0  0
    1.4358   -4.7381   -1.6014 H   0  0  0  0  0  0  0  0  0  0  0  0
    1.5741   -2.6835   -0.0660 H   0  0  0  0  0  0  0  0  0  0  0  0
    2.6683   -0.9333   -0.9567 H   0  0  0  0  0  0  0  0  0  0  0  0
    5.4249   -0.5561    2.4369 H   0  0  0  0  0  0  0  0  0  0  0  0
    7.5569   -0.7744    0.9862 H   0  0  0  0  0  0  0  0  0  0  0  0
    8.1255   -3.1587    0.9293 H   0  0  0  0  0  0  0  0  0  0  0  0
    6.5925   -4.0213    2.5737 H   0  0  0  0  0  0  0  0  0  0  0  0
    5.8258   -2.8787    4.1502 H   0  0  0  0  0  0  0  0  0  0  0  0
    3.2190   -2.0073    4.0912 H   0  0  0  0  0  0  0  0  0  0  0  0
    4.8441   -4.6954    4.9635 H   0  0  0  0  0  0  0  0  0  0  0  0
    2.7920   -5.2498    4.9225 H   0  0  0  0  0  0  0  0  0  0  0  0
    5.4494   -6.1409    3.4405 H   0  0  0  0  0  0  0  0  0  0  0  0
    3.7772   -6.4224    3.3815 H   0  0  0  0  0  0  0  0  0  0  0  0
    4.7405   -7.1203    0.2519 H   0  0  0  0  0  0  0  0  0  0  0  0
    3.4803   -5.5374   -0.3467 H   0  0  0  0  0  0  0  0  0  0  0  0
    1.8081   -6.0118    2.1241 H   0  0  0  0  0  0  0  0  0  0  0  0
    2.2046   -7.1500    0.8670 H   0  0  0  0  0  0  0  0  0  0  0  0
    1.1948   -5.7748    0.4819 H   0  0  0  0  0  0  0  0  0  0  0  0
    2.9832   -1.7571    1.7522 H   0  0  0  0  0  0  0  0  0  0  0  0
    5.6900   -5.5935   -1.0198 H   0  0  0  0  0  0  0  0  0  0  0  0
    6.6796   -4.1290   -0.8710 H   0  0  0  0  0  0  0  0  0  0  0  0
    4.9433   -4.0647   -0.8866 H   0  0  0  0  0  0  0  0  0  0  0  0
    7.1487   -6.7816    0.6196 H   0  0  0  0  0  0  0  0  0  0  0  0
    7.3060   -6.1487    2.2268 H   0  0  0  0  0  0  0  0  0  0  0  0
    8.0680   -5.3549    0.8913 H   0  0  0  0  0  0  0  0  0  0  0  0
  1  2  1  0
  1 31  1  0
  1 32  1  0
  1 33  1  0
  2 29  1  0
  2  3  2  0
  3  4  1  0
  3 34  1  0
  4 23  1  0
  4  5  1  0
  4 35  1  1
  5  6  1  0
  5 29  1  0
  5 36  1  6
  6  7  2  0
  6  8  1  0
  8  9  1  0
 13  9  1  1
  9 10  1  0
  9 37  1  1
 10 11  2  0
 10 38  1  0
 11 12  1  0
 11 39  1  0
 12 26  1  0
 12 13  1  0
 12 40  1  1
 13 25  1  0
 13 14  1  0
 14 15  1  0
 14 16  1  0
 14 41  1  1
 15 42  1  0
 16 17  1  0
 16 18  1  0
 16 43  1  1
 17 44  1  0
 18 19  1  0
 18 45  1  0
 18 46  1  0
 19 20  1  6
 19 21  1  0
 19 26  1  0
 20 47  1  0
 21 22  1  0
 21 23  1  0
 21 48  1  6
 22 49  1  0
 22 50  1  0
 22 51  1  0
 23 25  1  0
 23 24  1  1
 24 25  1  0
 25 52  1  6
 26 27  1  0
 26 28  1  0
 27 53  1  0
 27 54  1  0
 27 55  1  0
 28 56  1  0
 28 57  1  0
 28 58  1  0
 29 30  2  0
M  END
>  <i_m_ct_stereo_status>  (266) 
1

>  <s_m_source_file>  (266) 
/var/tmp/pbs.5076255.sched01/tmptyawoosb/846vw0lfia.sdf

>  <i_m_source_file_index>  (266) 
23

>  <i_lp_mmshare_version>  (266) 
48012

>  <i_f3d_flags>  (266) 
2

>  <s_epik_input>  (266) 
W0NAXTEyM1tDQEhdNE9DKD1PKVtDQEhdNVtDQEBIXShbQ0hdPUMoW0NIM10pQzU9TylbQ0BAXTYoW0NASF0zTzYpW0NASF0oW0NIM10pW0NAXShbT0hdKShbQ0gyXVtDQEhdKFtPSF0pW0NAQEhdMltPSF0pQyhbQ0gzXSkoW0NIM10pW0NASF0xW0NIXT1bQ0hdNA==

>  <s_epik_cmdline>  (266) 
J2VwaWtfcHl0aG9uJywgJy1waHQnLCAnMi4wJywgJy1waCcsICc3LjAnLCAnLXRuJywgJzgnLCAnLW1hJywgJzIwMCcsICctaW1hZScsICc8aW5maWxlLm1hZT4nLCAnLW9tYWUnLCAnPG91dGZpbGUubWFlPic=

>  <r_lp_tautomer_probability>  (266) 
1

>  <r_epik_Ionization_Penalty>  (266) 
0.000449403

>  <r_epik_Ionization_Penalty_Charging>  (266) 
0

>  <r_epik_Ionization_Penalty_Neutral>  (266) 
0.000449403

>  <r_epik_State_Penalty>  (266) 
-0

>  <r_epik_Charging_Adjusted_Penalty>  (266) 
0

>  <i_epik_Tot_Q>  (266) 
0

>  <i_epik_Tot_abs_Q>  (266) 
0

>  <s_epik_Chemistry_Notes>  (266) 
This compound has an ester and may undergo hydrolysis at high or low pH.

>  <s_lp_Force_Field>  (266) 
OPLS3e

>  <r_lp_Energy>  (266) 
101.242

>  <b_lp_Chiralities_Consistent>  (266) 
0

>  <s_lp_Variant>  (266) 
75:0-1

>  <s_i_glide_gridfile>  (266) 
pfpi4k_grid

>  <i_i_glide_lignum>  (266) 
23

>  <i_i_glide_rotatable_bonds>  (266) 
3

>  <r_i_docking_score>  (266) 
-1.96402

>  <r_i_glide_ligand_efficiency>  (266) 
-0.0654672

>  <r_i_glide_ligand_efficiency_sa>  (266) 
-0.203422

>  <r_i_glide_ligand_efficiency_ln>  (266) 
-0.446246

>  <r_i_glide_gscore>  (266) 
-1.96402

>  <r_i_glide_lipo>  (266) 
-0.723222

>  <r_i_glide_hbond>  (266) 
-0.0209559

>  <r_i_glide_metal>  (266) 
-0

>  <r_i_glide_rewards>  (266) 
-0.569562

>  <r_i_glide_evdw>  (266) 
-2.40352

>  <r_i_glide_ecoul>  (266) 
-2.97803

>  <r_i_glide_erotb>  (266) 
0

>  <r_i_glide_esite>  (266) 
-0.0833941

>  <r_i_glide_emodel>  (266) 
-7.64738

>  <r_i_glide_energy>  (266) 
-5.38155

>  <r_i_glide_einternal>  (266) 
0.366888

>  <r_i_glide_intrahb_reward>  (266) 
-0

>  <i_i_glide_confnum>  (266) 
2

>  <i_i_glide_posenum>  (266) 
32

>  <r_i_glide_eff_state_penalty>  (266) 
0

>  <ligand_id>  (266) 
75

>  <original_smiles>  (266) 
CC1=CC2C(C(=O)OC3C=CC4C35C(O)C(O)CC(O)(C(C)C23OC35)C4(C)C)C1=O

>  <smiles>  (266) 
[H]OC1([H])C([H])([H])C2(O[H])C([H])(C([H])([H])[H])C34OC3([H])C3(C([H])(OC(=O)C5([H])C(=O)C(C([H])([H])[H])=C([H])C54[H])C([H])=C([H])C3([H])C2(C([H])([H])[H])C([H])([H])[H])C1([H])O[H]

$$$$
76:0:0
     RDKit          3D

 28 30  0  0  1  0  0  0  0  0999 V2000
    1.9721   -3.0036   -3.0448 C   0  0  0  0  0  0  0  0  0  0  0  0
    2.9924   -2.3772   -2.1257 N   0  0  1  0  0  0  0  0  0  0  0  0
    3.8345   -3.3135   -1.3927 C   0  0  1  0  0  0  0  0  0  0  0  0
    4.7311   -3.2599   -2.6312 C   0  0  0  0  0  0  0  0  0  0  0  0
    4.2099   -1.8220   -2.7232 C   0  0  2  0  0  0  0  0  0  0  0  0
    4.9103   -0.7849   -1.7845 C   0  0  0  0  0  0  0  0  0  0  0  0
    5.2870   -1.4425   -0.4336 C   0  0  0  0  0  0  0  0  0  0  0  0
    4.3539   -2.6492   -0.1093 C   0  0  0  0  0  0  0  0  0  0  0  0
    5.2282   -0.5073    0.5989 O   0  0  0  0  0  0  0  0  0  0  0  0
    6.0583   -1.0571    1.6035 C   0  0  0  0  0  0  0  0  0  0  0  0
    7.1597   -1.7236    0.7750 C   0  0  0  0  0  0  0  0  0  0  0  0
    6.6017   -1.8777   -0.5161 O   0  0  0  0  0  0  0  0  0  0  0  0
    2.4276   -3.7868   -3.6564 H   0  0  0  0  0  0  0  0  0  0  0  0
    1.4975   -2.2700   -3.6932 H   0  0  0  0  0  0  0  0  0  0  0  0
    1.1682   -3.4132   -2.4374 H   0  0  0  0  0  0  0  0  0  0  0  0
    3.3362   -4.2671   -1.2412 H   0  0  0  0  0  0  0  0  0  0  0  0
    5.8001   -3.3470   -2.4447 H   0  0  0  0  0  0  0  0  0  0  0  0
    4.3857   -3.9161   -3.4479 H   0  0  0  0  0  0  0  0  0  0  0  0
    4.0188   -1.4685   -3.7436 H   0  0  0  0  0  0  0  0  0  0  0  0
    5.8055   -0.4067   -2.2606 H   0  0  0  0  0  0  0  0  0  0  0  0
    4.3312    0.1058   -1.5993 H   0  0  0  0  0  0  0  0  0  0  0  0
    3.5418   -2.2976    0.5149 H   0  0  0  0  0  0  0  0  0  0  0  0
    4.8688   -3.3637    0.5189 H   0  0  0  0  0  0  0  0  0  0  0  0
    6.4322   -0.3292    2.3266 H   0  0  0  0  0  0  0  0  0  0  0  0
    5.4980   -1.8083    2.1627 H   0  0  0  0  0  0  0  0  0  0  0  0
    8.0545   -1.1050    0.7139 H   0  0  0  0  0  0  0  0  0  0  0  0
    7.4267   -2.7061    1.1573 H   0  0  0  0  0  0  0  0  0  0  0  0
    2.5226   -1.7040   -1.5111 H   0  0  0  0  0  0  0  0  0  0  0  0
  1  2  1  0
  1 13  1  0
  1 14  1  0
  1 15  1  0
  2  5  1  0
  2  3  1  0
  2 28  1  1
  3  8  1  0
  3  4  1  0
  3 16  1  1
  4  5  1  0
  4 17  1  0
  4 18  1  0
  5  6  1  0
  5 19  1  6
  6  7  1  0
  6 20  1  0
  6 21  1  0
  7 12  1  0
  7  8  1  0
  7  9  1  0
  8 22  1  0
  8 23  1  0
  9 10  1  0
 10 11  1  0
 10 24  1  0
 10 25  1  0
 11 12  1  0
 11 26  1  0
 11 27  1  0
M  CHG  1   2   1
M  END
>  <i_m_ct_stereo_status>  (267) 
1

>  <s_m_source_file>  (267) 
/var/tmp/pbs.5076255.sched01/tmptyawoosb/846vw0lfia.sdf

>  <i_m_source_file_index>  (267) 
24

>  <i_lp_mmshare_version>  (267) 
48012

>  <i_f3d_flags>  (267) 
0

>  <s_epik_input>  (267) 
W0NIMl0xW0NAQEhdKFtDSDJdMilOKFtDSDNdKVtDQEhdMVtDSDJdQzIzT1tDSDJdW0NIMl1PMw==

>  <s_epik_cmdline>  (267) 
J2VwaWtfcHl0aG9uJywgJy1waHQnLCAnMi4wJywgJy1waCcsICc3LjAnLCAnLXRuJywgJzgnLCAnLW1hJywgJzIwMCcsICctaW1hZScsICc8aW5maWxlLm1hZT4nLCAnLW9tYWUnLCAnPG91dGZpbGUubWFlPic=

>  <r_epik_Ionization_Penalty>  (267) 
0.00203333

>  <r_epik_Ionization_Penalty_Charging>  (267) 
0.00203333

>  <r_epik_Ionization_Penalty_Neutral>  (267) 
1.27612e-14

>  <r_epik_State_Penalty>  (267) 
0.00139052

>  <r_epik_Charging_Adjusted_Penalty>  (267) 
0.00342385

>  <i_epik_Tot_Q>  (267) 
1

>  <i_epik_Tot_abs_Q>  (267) 
1

>  <s_lp_Force_Field>  (267) 
OPLS3e

>  <r_lp_Energy>  (267) 
22.419

>  <b_lp_Chiralities_Consistent>  (267) 
1

>  <s_lp_Variant>  (267) 
76:0-1

>  <s_i_glide_gridfile>  (267) 
pfpi4k_grid

>  <i_i_glide_lignum>  (267) 
24

>  <i_i_glide_rotatable_bonds>  (267) 
0

>  <r_i_docking_score>  (267) 
-4.65797

>  <r_i_glide_ligand_efficiency>  (267) 
-0.388164

>  <r_i_glide_ligand_efficiency_sa>  (267) 
-0.888674

>  <r_i_glide_ligand_efficiency_ln>  (267) 
-1.33661

>  <r_i_glide_gscore>  (267) 
-4.65797

>  <r_i_glide_lipo>  (267) 
-0.372208

>  <r_i_glide_hbond>  (267) 
-0.313491

>  <r_i_glide_metal>  (267) 
-0

>  <r_i_glide_rewards>  (267) 
-2.24844

>  <r_i_glide_evdw>  (267) 
-13.8473

>  <r_i_glide_ecoul>  (267) 
-6.32137

>  <r_i_glide_erotb>  (267) 
0

>  <r_i_glide_esite>  (267) 
-0.0832605

>  <r_i_glide_emodel>  (267) 
-27.1584

>  <r_i_glide_energy>  (267) 
-20.1686

>  <r_i_glide_einternal>  (267) 
0

>  <r_i_glide_intrahb_reward>  (267) 
-0

>  <i_i_glide_confnum>  (267) 
1

>  <i_i_glide_posenum>  (267) 
1

>  <r_i_glide_eff_state_penalty>  (267) 
0

>  <ligand_id>  (267) 
76

>  <original_smiles>  (267) 
CN1C2CC1CC1(C2)OCCO1

>  <smiles>  (267) 
[H]C1([H])OC2(OC1([H])[H])C([H])([H])C1([H])C([H])([H])C([H])(C2([H])[H])[N+]1([H])C([H])([H])[H]

$$$$
76:0:1
     RDKit          3D

 28 30  0  0  1  0  0  0  0  0999 V2000
    2.2698   -2.8559   -2.9012 C   0  0  0  0  0  0  0  0  0  0  0  0
    3.5789   -3.0226   -2.1508 N   0  0  1  0  0  0  0  0  0  0  0  0
    4.7413   -2.3863   -2.7403 C   0  0  1  0  0  0  0  0  0  0  0  0
    4.3394   -1.1543   -1.9278 C   0  0  0  0  0  0  0  0  0  0  0  0
    3.8053   -2.2117   -0.9562 C   0  0  2  0  0  0  0  0  0  0  0  0
    4.8685   -2.8947   -0.0347 C   0  0  0  0  0  0  0  0  0  0  0  0
    6.2290   -3.0230   -0.7700 C   0  0  0  0  0  0  0  0  0  0  0  0
    6.0156   -3.1499   -2.3045 C   0  0  0  0  0  0  0  0  0  0  0  0
    6.9397   -4.1125   -0.2850 O   0  0  0  0  0  0  0  0  0  0  0  0
    8.2888   -3.8348   -0.6142 C   0  0  0  0  0  0  0  0  0  0  0  0
    8.3599   -2.3209   -0.4332 C   0  0  0  0  0  0  0  0  0  0  0  0
    7.0070   -1.8886   -0.5158 O   0  0  0  0  0  0  0  0  0  0  0  0
    2.1670   -1.8000   -3.1737 H   0  0  0  0  0  0  0  0  0  0  0  0
    1.4135   -3.1897   -2.3253 H   0  0  0  0  0  0  0  0  0  0  0  0
    2.2589   -3.4496   -3.8051 H   0  0  0  0  0  0  0  0  0  0  0  0
    4.6297   -2.2683   -3.8191 H   0  0  0  0  0  0  0  0  0  0  0  0
    5.1568   -0.5539   -1.5319 H   0  0  0  0  0  0  0  0  0  0  0  0
    3.5506   -0.5455   -2.3925 H   0  0  0  0  0  0  0  0  0  0  0  0
    2.8571   -1.9471   -0.4554 H   0  0  0  0  0  0  0  0  0  0  0  0
    5.0024   -2.3218    0.8770 H   0  0  0  0  0  0  0  0  0  0  0  0
    4.5128   -3.8758    0.2642 H   0  0  0  0  0  0  0  0  0  0  0  0
    5.9522   -4.1991   -2.5525 H   0  0  0  0  0  0  0  0  0  0  0  0
    6.8888   -2.7899   -2.8207 H   0  0  0  0  0  0  0  0  0  0  0  0
    9.0132   -4.3914   -0.0126 H   0  0  0  0  0  0  0  0  0  0  0  0
    8.4947   -4.0655   -1.6631 H   0  0  0  0  0  0  0  0  0  0  0  0
    8.7945   -2.0524    0.5274 H   0  0  0  0  0  0  0  0  0  0  0  0
    8.9491   -1.8594   -1.2236 H   0  0  0  0  0  0  0  0  0  0  0  0
    3.7357   -4.0147   -1.9567 H   0  0  0  0  0  0  0  0  0  0  0  0
  1  2  1  0
  1 13  1  0
  1 14  1  0
  1 15  1  0
  2  5  1  0
  2  3  1  0
  2 28  1  1
  3  8  1  0
  3  4  1  0
  3 16  1  6
  4  5  1  0
  4 17  1  0
  4 18  1  0
  5  6  1  0
  5 19  1  1
  6  7  1  0
  6 20  1  0
  6 21  1  0
  7 12  1  0
  7  8  1  0
  7  9  1  0
  8 22  1  0
  8 23  1  0
  9 10  1  0
 10 11  1  0
 10 24  1  0
 10 25  1  0
 11 12  1  0
 11 26  1  0
 11 27  1  0
M  CHG  1   2   1
M  END
>  <i_m_ct_stereo_status>  (268) 
1

>  <s_m_source_file>  (268) 
/var/tmp/pbs.5076255.sched01/tmptyawoosb/846vw0lfia.sdf

>  <i_m_source_file_index>  (268) 
24

>  <i_lp_mmshare_version>  (268) 
48012

>  <i_f3d_flags>  (268) 
0

>  <s_epik_input>  (268) 
W0NIMl0xW0NAQEhdKFtDSDJdMilOKFtDSDNdKVtDQEhdMVtDSDJdQzIzT1tDSDJdW0NIMl1PMw==

>  <s_epik_cmdline>  (268) 
J2VwaWtfcHl0aG9uJywgJy1waHQnLCAnMi4wJywgJy1waCcsICc3LjAnLCAnLXRuJywgJzgnLCAnLW1hJywgJzIwMCcsICctaW1hZScsICc8aW5maWxlLm1hZT4nLCAnLW9tYWUnLCAnPG91dGZpbGUubWFlPic=

>  <r_epik_Ionization_Penalty>  (268) 
0.00203333

>  <r_epik_Ionization_Penalty_Charging>  (268) 
0.00203333

>  <r_epik_Ionization_Penalty_Neutral>  (268) 
1.27612e-14

>  <r_epik_State_Penalty>  (268) 
0.00139052

>  <r_epik_Charging_Adjusted_Penalty>  (268) 
0.00342385

>  <i_epik_Tot_Q>  (268) 
1

>  <i_epik_Tot_abs_Q>  (268) 
1

>  <s_lp_Force_Field>  (268) 
OPLS3e

>  <r_lp_Energy>  (268) 
22.419

>  <b_lp_Chiralities_Consistent>  (268) 
1

>  <s_lp_Variant>  (268) 
76:0-1

>  <s_i_glide_gridfile>  (268) 
pfpi4k_grid

>  <i_i_glide_lignum>  (268) 
24

>  <i_i_glide_rotatable_bonds>  (268) 
0

>  <r_i_docking_score>  (268) 
-4.61434

>  <r_i_glide_ligand_efficiency>  (268) 
-0.384528

>  <r_i_glide_ligand_efficiency_sa>  (268) 
-0.880349

>  <r_i_glide_ligand_efficiency_ln>  (268) 
-1.32409

>  <r_i_glide_gscore>  (268) 
-4.61434

>  <r_i_glide_lipo>  (268) 
-0.498124

>  <r_i_glide_hbond>  (268) 
-0.16

>  <r_i_glide_metal>  (268) 
-0

>  <r_i_glide_rewards>  (268) 
-2.30275

>  <r_i_glide_evdw>  (268) 
-13.8449

>  <r_i_glide_ecoul>  (268) 
-6.27673

>  <r_i_glide_erotb>  (268) 
0

>  <r_i_glide_esite>  (268) 
-0.0197052

>  <r_i_glide_emodel>  (268) 
-27.4636

>  <r_i_glide_energy>  (268) 
-20.1216

>  <r_i_glide_einternal>  (268) 
0

>  <r_i_glide_intrahb_reward>  (268) 
-0

>  <i_i_glide_confnum>  (268) 
1

>  <i_i_glide_posenum>  (268) 
8

>  <r_i_glide_eff_state_penalty>  (268) 
0

>  <ligand_id>  (268) 
76

>  <original_smiles>  (268) 
CN1C2CC1CC1(C2)OCCO1

>  <smiles>  (268) 
[H]C1([H])OC2(OC1([H])[H])C([H])([H])C1([H])C([H])([H])C([H])(C2([H])[H])[N+]1([H])C([H])([H])[H]

$$$$
76:0:2
     RDKit          3D

 28 30  0  0  1  0  0  0  0  0999 V2000
    2.9943   -1.0039   -3.5685 C   0  0  0  0  0  0  0  0  0  0  0  0
    3.1201   -1.6153   -2.2070 N   0  0  1  0  0  0  0  0  0  0  0  0
    3.6365   -2.9888   -2.1621 C   0  0  1  0  0  0  0  0  0  0  0  0
    5.0161   -2.3458   -2.1456 C   0  0  0  0  0  0  0  0  0  0  0  0
    4.2915   -1.2310   -1.3979 C   0  0  2  0  0  0  0  0  0  0  0  0
    4.0260   -1.4836    0.1153 C   0  0  0  0  0  0  0  0  0  0  0  0
    3.7970   -2.9898    0.3913 C   0  0  0  0  0  0  0  0  0  0  0  0
    3.1855   -3.6730   -0.8582 C   0  0  0  0  0  0  0  0  0  0  0  0
    2.9562   -3.1779    1.4885 O   0  0  0  0  0  0  0  0  0  0  0  0
    3.2232   -4.5012    1.9078 C   0  0  0  0  0  0  0  0  0  0  0  0
    4.7226   -4.6378    1.6315 C   0  0  0  0  0  0  0  0  0  0  0  0
    5.0061   -3.6123    0.6953 O   0  0  0  0  0  0  0  0  0  0  0  0
    3.9066   -1.1446   -4.1481 H   0  0  0  0  0  0  0  0  0  0  0  0
    2.7354    0.0527   -3.5003 H   0  0  0  0  0  0  0  0  0  0  0  0
    2.1962   -1.4876   -4.1103 H   0  0  0  0  0  0  0  0  0  0  0  0
    3.4024   -3.5501   -3.0704 H   0  0  0  0  0  0  0  0  0  0  0  0
    5.7750   -2.8593   -1.5627 H   0  0  0  0  0  0  0  0  0  0  0  0
    5.3781   -2.0500   -3.1351 H   0  0  0  0  0  0  0  0  0  0  0  0
    4.6166   -0.2234   -1.6367 H   0  0  0  0  0  0  0  0  0  0  0  0
    4.8675   -1.1466    0.7138 H   0  0  0  0  0  0  0  0  0  0  0  0
    3.1611   -0.9159    0.4516 H   0  0  0  0  0  0  0  0  0  0  0  0
    2.1116   -3.6836   -0.7679 H   0  0  0  0  0  0  0  0  0  0  0  0
    3.4660   -4.7121   -0.8546 H   0  0  0  0  0  0  0  0  0  0  0  0
    2.9577   -4.6963    2.9479 H   0  0  0  0  0  0  0  0  0  0  0  0
    2.6588   -5.1950    1.2821 H   0  0  0  0  0  0  0  0  0  0  0  0
    5.3138   -4.4842    2.5335 H   0  0  0  0  0  0  0  0  0  0  0  0
    4.9820   -5.6089    1.2116 H   0  0  0  0  0  0  0  0  0  0  0  0
    2.2653   -1.5019   -1.6619 H   0  0  0  0  0  0  0  0  0  0  0  0
  1  2  1  0
  1 13  1  0
  1 14  1  0
  1 15  1  0
  2  5  1  0
  2  3  1  0
  2 28  1  1
  3  8  1  0
  3  4  1  0
  3 16  1  6
  4  5  1  0
  4 17  1  0
  4 18  1  0
  5  6  1  0
  5 19  1  1
  6  7  1  0
  6 20  1  0
  6 21  1  0
  7 12  1  0
  7  8  1  0
  7  9  1  0
  8 22  1  0
  8 23  1  0
  9 10  1  0
 10 11  1  0
 10 24  1  0
 10 25  1  0
 11 12  1  0
 11 26  1  0
 11 27  1  0
M  CHG  1   2   1
M  END
>  <i_m_ct_stereo_status>  (269) 
1

>  <s_m_source_file>  (269) 
/var/tmp/pbs.5076255.sched01/tmptyawoosb/846vw0lfia.sdf

>  <i_m_source_file_index>  (269) 
24

>  <i_lp_mmshare_version>  (269) 
48012

>  <i_f3d_flags>  (269) 
0

>  <s_epik_input>  (269) 
W0NIMl0xW0NAQEhdKFtDSDJdMilOKFtDSDNdKVtDQEhdMVtDSDJdQzIzT1tDSDJdW0NIMl1PMw==

>  <s_epik_cmdline>  (269) 
J2VwaWtfcHl0aG9uJywgJy1waHQnLCAnMi4wJywgJy1waCcsICc3LjAnLCAnLXRuJywgJzgnLCAnLW1hJywgJzIwMCcsICctaW1hZScsICc8aW5maWxlLm1hZT4nLCAnLW9tYWUnLCAnPG91dGZpbGUubWFlPic=

>  <r_epik_Ionization_Penalty>  (269) 
0.00203333

>  <r_epik_Ionization_Penalty_Charging>  (269) 
0.00203333

>  <r_epik_Ionization_Penalty_Neutral>  (269) 
1.27612e-14

>  <r_epik_State_Penalty>  (269) 
0.00139052

>  <r_epik_Charging_Adjusted_Penalty>  (269) 
0.00342385

>  <i_epik_Tot_Q>  (269) 
1

>  <i_epik_Tot_abs_Q>  (269) 
1

>  <s_lp_Force_Field>  (269) 
OPLS3e

>  <r_lp_Energy>  (269) 
22.419

>  <b_lp_Chiralities_Consistent>  (269) 
1

>  <s_lp_Variant>  (269) 
76:0-1

>  <s_i_glide_gridfile>  (269) 
pfpi4k_grid

>  <i_i_glide_lignum>  (269) 
24

>  <i_i_glide_rotatable_bonds>  (269) 
0

>  <r_i_docking_score>  (269) 
-4.12294

>  <r_i_glide_ligand_efficiency>  (269) 
-0.343578

>  <r_i_glide_ligand_efficiency_sa>  (269) 
-0.786598

>  <r_i_glide_ligand_efficiency_ln>  (269) 
-1.18308

>  <r_i_glide_gscore>  (269) 
-4.12294

>  <r_i_glide_lipo>  (269) 
-0.289994

>  <r_i_glide_hbond>  (269) 
-0.2

>  <r_i_glide_metal>  (269) 
-0

>  <r_i_glide_rewards>  (269) 
-2.24844

>  <r_i_glide_evdw>  (269) 
-11.2506

>  <r_i_glide_ecoul>  (269) 
-4.86503

>  <r_i_glide_erotb>  (269) 
0

>  <r_i_glide_esite>  (269) 
-0.0922227

>  <r_i_glide_emodel>  (269) 
-22.7132

>  <r_i_glide_energy>  (269) 
-16.1156

>  <r_i_glide_einternal>  (269) 
0

>  <r_i_glide_intrahb_reward>  (269) 
-0

>  <i_i_glide_confnum>  (269) 
1

>  <i_i_glide_posenum>  (269) 
10

>  <r_i_glide_eff_state_penalty>  (269) 
0

>  <ligand_id>  (269) 
76

>  <original_smiles>  (269) 
CN1C2CC1CC1(C2)OCCO1

>  <smiles>  (269) 
[H]C1([H])OC2(OC1([H])[H])C([H])([H])C1([H])C([H])([H])C([H])(C2([H])[H])[N+]1([H])C([H])([H])[H]

$$$$
76:1:0
     RDKit          3D

 28 30  0  0  1  0  0  0  0  0999 V2000
    2.8782   -2.5638   -0.8660 C   0  0  0  0  0  0  0  0  0  0  0  0
    3.6481   -3.2728   -1.9253 N   0  0  2  0  0  0  0  0  0  0  0  0
    4.8213   -2.6304   -2.5277 C   0  0  1  0  0  0  0  0  0  0  0  0
    4.5776   -3.6734   -3.6396 C   0  0  0  0  0  0  0  0  0  0  0  0
    3.0950   -3.4265   -3.2890 C   0  0  2  0  0  0  0  0  0  0  0  0
    2.3790   -2.1927   -3.7686 C   0  0  0  0  0  0  0  0  0  0  0  0
    3.3339   -0.9994   -3.8504 C   0  0  0  0  0  0  0  0  0  0  0  0
    4.5232   -1.1438   -2.8448 C   0  0  0  0  0  0  0  0  0  0  0  0
    3.8520   -0.9795   -5.1190 O   0  0  0  0  0  0  0  0  0  0  0  0
    3.6265    0.3221   -5.6180 C   0  0  0  0  0  0  0  0  0  0  0  0
    2.4056    0.7667   -4.8484 C   0  0  0  0  0  0  0  0  0  0  0  0
    2.6488    0.1493   -3.6058 O   0  0  0  0  0  0  0  0  0  0  0  0
    2.6532   -1.5336   -1.1329 H   0  0  0  0  0  0  0  0  0  0  0  0
    3.3897   -2.4526    0.0866 H   0  0  0  0  0  0  0  0  0  0  0  0
    1.9125   -3.0499   -0.6950 H   0  0  0  0  0  0  0  0  0  0  0  0
    5.7301   -2.8188   -1.9497 H   0  0  0  0  0  0  0  0  0  0  0  0
    4.8025   -3.3697   -4.6557 H   0  0  0  0  0  0  0  0  0  0  0  0
    4.9495   -4.6868   -3.4192 H   0  0  0  0  0  0  0  0  0  0  0  0
    2.4158   -4.2513   -3.4073 H   0  0  0  0  0  0  0  0  0  0  0  0
    1.8572   -2.4149   -4.7048 H   0  0  0  0  0  0  0  0  0  0  0  0
    1.5804   -2.0020   -3.0814 H   0  0  0  0  0  0  0  0  0  0  0  0
    4.3191   -0.5295   -1.9608 H   0  0  0  0  0  0  0  0  0  0  0  0
    5.4009   -0.6569   -3.2181 H   0  0  0  0  0  0  0  0  0  0  0  0
    4.4857    0.9379   -5.3538 H   0  0  0  0  0  0  0  0  0  0  0  0
    3.4804    0.3756   -6.7018 H   0  0  0  0  0  0  0  0  0  0  0  0
    2.3325    1.8476   -4.7783 H   0  0  0  0  0  0  0  0  0  0  0  0
    1.4898    0.3718   -5.2798 H   0  0  0  0  0  0  0  0  0  0  0  0
    3.9067   -4.1952   -1.6217 H   0  0  0  0  0  0  0  0  0  0  0  0
  1  2  1  0
  1 13  1  0
  1 14  1  0
  1 15  1  0
  2  5  1  0
  2  3  1  0
  2 28  1  1
  3  8  1  0
  3  4  1  0
  3 16  1  1
  4  5  1  0
  4 17  1  0
  4 18  1  0
  5  6  1  0
  5 19  1  1
  6  7  1  0
  6 20  1  0
  6 21  1  0
  7 12  1  0
  7  8  1  0
  7  9  1  0
  8 22  1  0
  8 23  1  0
  9 10  1  0
 10 11  1  0
 10 24  1  0
 10 25  1  0
 11 12  1  0
 11 26  1  0
 11 27  1  0
M  CHG  1   2   1
M  END
>  <i_m_ct_stereo_status>  (270) 
1

>  <s_m_source_file>  (270) 
/var/tmp/pbs.5076255.sched01/tmptyawoosb/846vw0lfia.sdf

>  <i_m_source_file_index>  (270) 
25

>  <i_lp_mmshare_version>  (270) 
48012

>  <i_f3d_flags>  (270) 
0

>  <s_epik_input>  (270) 
W0NIMl0xW0NAQEhdKFtDSDJdMilOKFtDSDNdKVtDQEhdMVtDSDJdQzIzT1tDSDJdW0NIMl1PMw==

>  <s_epik_cmdline>  (270) 
J2VwaWtfcHl0aG9uJywgJy1waHQnLCAnMi4wJywgJy1waCcsICc3LjAnLCAnLXRuJywgJzgnLCAnLW1hJywgJzIwMCcsICctaW1hZScsICc8aW5maWxlLm1hZT4nLCAnLW9tYWUnLCAnPG91dGZpbGUubWFlPic=

>  <r_epik_Ionization_Penalty>  (270) 
0.00203333

>  <r_epik_Ionization_Penalty_Charging>  (270) 
0.00203333

>  <r_epik_Ionization_Penalty_Neutral>  (270) 
1.27612e-14

>  <r_epik_State_Penalty>  (270) 
0.00139052

>  <r_epik_Charging_Adjusted_Penalty>  (270) 
0.00342385

>  <i_epik_Tot_Q>  (270) 
1

>  <i_epik_Tot_abs_Q>  (270) 
1

>  <s_lp_Force_Field>  (270) 
OPLS3e

>  <r_lp_Energy>  (270) 
26.0001

>  <b_lp_Chiralities_Consistent>  (270) 
1

>  <s_lp_Variant>  (270) 
76:0-2

>  <s_i_glide_gridfile>  (270) 
pfpi4k_grid

>  <i_i_glide_lignum>  (270) 
25

>  <i_i_glide_rotatable_bonds>  (270) 
0

>  <r_i_docking_score>  (270) 
-4.50017

>  <r_i_glide_ligand_efficiency>  (270) 
-0.375014

>  <r_i_glide_ligand_efficiency_sa>  (270) 
-0.858567

>  <r_i_glide_ligand_efficiency_ln>  (270) 
-1.29133

>  <r_i_glide_gscore>  (270) 
-4.50017

>  <r_i_glide_lipo>  (270) 
-0.658995

>  <r_i_glide_hbond>  (270) 
-0.32

>  <r_i_glide_metal>  (270) 
-0

>  <r_i_glide_rewards>  (270) 
-2.57006

>  <r_i_glide_evdw>  (270) 
-1.81901

>  <r_i_glide_ecoul>  (270) 
-5.66906

>  <r_i_glide_erotb>  (270) 
0

>  <r_i_glide_esite>  (270) 
-0.00980353

>  <r_i_glide_emodel>  (270) 
-10.4683

>  <r_i_glide_energy>  (270) 
-7.48807

>  <r_i_glide_einternal>  (270) 
0

>  <r_i_glide_intrahb_reward>  (270) 
-0

>  <i_i_glide_confnum>  (270) 
6

>  <i_i_glide_posenum>  (270) 
31

>  <r_i_glide_eff_state_penalty>  (270) 
0

>  <ligand_id>  (270) 
76

>  <original_smiles>  (270) 
CN1C2CC1CC1(C2)OCCO1

>  <smiles>  (270) 
[H]C1([H])OC2(OC1([H])[H])C([H])([H])C1([H])C([H])([H])C([H])(C2([H])[H])[N+]1([H])C([H])([H])[H]

$$$$
76:1:1
     RDKit          3D

 28 30  0  0  1  0  0  0  0  0999 V2000
    2.9322   -3.3289   -0.7856 C   0  0  0  0  0  0  0  0  0  0  0  0
    4.2608   -3.5165   -1.4441 N   0  0  2  0  0  0  0  0  0  0  0  0
    5.2051   -2.3904   -1.5359 C   0  0  1  0  0  0  0  0  0  0  0  0
    5.7980   -3.2150   -2.6815 C   0  0  0  0  0  0  0  0  0  0  0  0
    4.3390   -3.6367   -2.9085 C   0  0  2  0  0  0  0  0  0  0  0  0
    3.3777   -2.6621   -3.6281 C   0  0  0  0  0  0  0  0  0  0  0  0
    3.7668   -1.1984   -3.2907 C   0  0  0  0  0  0  0  0  0  0  0  0
    4.5041   -1.0726   -1.9199 C   0  0  0  0  0  0  0  0  0  0  0  0
    4.5883   -0.7429   -4.3126 O   0  0  0  0  0  0  0  0  0  0  0  0
    4.0312    0.4877   -4.7344 C   0  0  0  0  0  0  0  0  0  0  0  0
    2.5645    0.2674   -4.4611 C   0  0  0  0  0  0  0  0  0  0  0  0
    2.6435   -0.4196   -3.2410 O   0  0  0  0  0  0  0  0  0  0  0  0
    2.3723   -2.4649   -1.1310 H   0  0  0  0  0  0  0  0  0  0  0  0
    3.0379   -3.2099    0.2945 H   0  0  0  0  0  0  0  0  0  0  0  0
    2.2941   -4.1920   -0.9768 H   0  0  0  0  0  0  0  0  0  0  0  0
    5.8618   -2.3279   -0.6639 H   0  0  0  0  0  0  0  0  0  0  0  0
    6.2279   -2.6690   -3.5144 H   0  0  0  0  0  0  0  0  0  0  0  0
    6.4702   -4.0050   -2.3550 H   0  0  0  0  0  0  0  0  0  0  0  0
    4.2932   -4.6575   -3.2769 H   0  0  0  0  0  0  0  0  0  0  0  0
    3.3877   -2.8147   -4.7134 H   0  0  0  0  0  0  0  0  0  0  0  0
    2.3333   -2.8339   -3.3571 H   0  0  0  0  0  0  0  0  0  0  0  0
    3.7899   -0.7739   -1.1527 H   0  0  0  0  0  0  0  0  0  0  0  0
    5.2141   -0.2490   -1.9714 H   0  0  0  0  0  0  0  0  0  0  0  0
    4.4102    1.3077   -4.1222 H   0  0  0  0  0  0  0  0  0  0  0  0
    4.1977    0.7165   -5.7841 H   0  0  0  0  0  0  0  0  0  0  0  0
    1.9886    1.1853   -4.4062 H   0  0  0  0  0  0  0  0  0  0  0  0
    2.1054   -0.3340   -5.2372 H   0  0  0  0  0  0  0  0  0  0  0  0
    4.7364   -4.3100   -1.0485 H   0  0  0  0  0  0  0  0  0  0  0  0
  1  2  1  0
  1 13  1  0
  1 14  1  0
  1 15  1  0
  2  5  1  0
  2  3  1  0
  2 28  1  1
  3  8  1  0
  3  4  1  0
  3 16  1  1
  4  5  1  0
  4 17  1  0
  4 18  1  0
  5  6  1  0
  5 19  1  1
  6  7  1  0
  6 20  1  0
  6 21  1  0
  7 12  1  0
  7  8  1  0
  7  9  1  0
  8 22  1  0
  8 23  1  0
  9 10  1  0
 10 11  1  0
 10 24  1  0
 10 25  1  0
 11 12  1  0
 11 26  1  0
 11 27  1  0
M  CHG  1   2   1
M  END
>  <i_m_ct_stereo_status>  (271) 
1

>  <s_m_source_file>  (271) 
/var/tmp/pbs.5076255.sched01/tmptyawoosb/846vw0lfia.sdf

>  <i_m_source_file_index>  (271) 
25

>  <i_lp_mmshare_version>  (271) 
48012

>  <i_f3d_flags>  (271) 
0

>  <s_epik_input>  (271) 
W0NIMl0xW0NAQEhdKFtDSDJdMilOKFtDSDNdKVtDQEhdMVtDSDJdQzIzT1tDSDJdW0NIMl1PMw==

>  <s_epik_cmdline>  (271) 
J2VwaWtfcHl0aG9uJywgJy1waHQnLCAnMi4wJywgJy1waCcsICc3LjAnLCAnLXRuJywgJzgnLCAnLW1hJywgJzIwMCcsICctaW1hZScsICc8aW5maWxlLm1hZT4nLCAnLW9tYWUnLCAnPG91dGZpbGUubWFlPic=

>  <r_epik_Ionization_Penalty>  (271) 
0.00203333

>  <r_epik_Ionization_Penalty_Charging>  (271) 
0.00203333

>  <r_epik_Ionization_Penalty_Neutral>  (271) 
1.27612e-14

>  <r_epik_State_Penalty>  (271) 
0.00139052

>  <r_epik_Charging_Adjusted_Penalty>  (271) 
0.00342385

>  <i_epik_Tot_Q>  (271) 
1

>  <i_epik_Tot_abs_Q>  (271) 
1

>  <s_lp_Force_Field>  (271) 
OPLS3e

>  <r_lp_Energy>  (271) 
26.0001

>  <b_lp_Chiralities_Consistent>  (271) 
1

>  <s_lp_Variant>  (271) 
76:0-2

>  <s_i_glide_gridfile>  (271) 
pfpi4k_grid

>  <i_i_glide_lignum>  (271) 
25

>  <i_i_glide_rotatable_bonds>  (271) 
0

>  <r_i_docking_score>  (271) 
-4.21706

>  <r_i_glide_ligand_efficiency>  (271) 
-0.351421

>  <r_i_glide_ligand_efficiency_sa>  (271) 
-0.804554

>  <r_i_glide_ligand_efficiency_ln>  (271) 
-1.21009

>  <r_i_glide_gscore>  (271) 
-4.21706

>  <r_i_glide_lipo>  (271) 
-0.737449

>  <r_i_glide_hbond>  (271) 
0

>  <r_i_glide_metal>  (271) 
-0

>  <r_i_glide_rewards>  (271) 
-2.40902

>  <r_i_glide_evdw>  (271) 
-8.68188

>  <r_i_glide_ecoul>  (271) 
-4.13247

>  <r_i_glide_erotb>  (271) 
0

>  <r_i_glide_esite>  (271) 
-0.0166234

>  <r_i_glide_emodel>  (271) 
-15.9809

>  <r_i_glide_energy>  (271) 
-12.8143

>  <r_i_glide_einternal>  (271) 
0

>  <r_i_glide_intrahb_reward>  (271) 
-0

>  <i_i_glide_confnum>  (271) 
3

>  <i_i_glide_posenum>  (271) 
1

>  <r_i_glide_eff_state_penalty>  (271) 
0

>  <ligand_id>  (271) 
76

>  <original_smiles>  (271) 
CN1C2CC1CC1(C2)OCCO1

>  <smiles>  (271) 
[H]C1([H])OC2(OC1([H])[H])C([H])([H])C1([H])C([H])([H])C([H])(C2([H])[H])[N+]1([H])C([H])([H])[H]

$$$$
76:1:2
     RDKit          3D

 28 30  0  0  1  0  0  0  0  0999 V2000
    1.9377   -3.3242   -1.7831 C   0  0  0  0  0  0  0  0  0  0  0  0
    3.4242   -3.3792   -1.8617 N   0  0  2  0  0  0  0  0  0  0  0  0
    4.2392   -2.1752   -1.6191 C   0  0  1  0  0  0  0  0  0  0  0  0
    5.2898   -2.9257   -2.4330 C   0  0  0  0  0  0  0  0  0  0  0  0
    4.0519   -3.4540   -3.1820 C   0  0  2  0  0  0  0  0  0  0  0  0
    3.3402   -2.5345   -4.1903 C   0  0  0  0  0  0  0  0  0  0  0  0
    3.4661   -1.0604   -3.8067 C   0  0  0  0  0  0  0  0  0  0  0  0
    3.6334   -0.8991   -2.2580 C   0  0  0  0  0  0  0  0  0  0  0  0
    4.5566   -0.5513   -4.4498 O   0  0  0  0  0  0  0  0  0  0  0  0
    4.1324    0.6942   -4.9915 C   0  0  0  0  0  0  0  0  0  0  0  0
    2.7183    0.4002   -5.3624 C   0  0  0  0  0  0  0  0  0  0  0  0
    2.3637   -0.3871   -4.2774 O   0  0  0  0  0  0  0  0  0  0  0  0
    1.4516   -2.5052   -2.3181 H   0  0  0  0  0  0  0  0  0  0  0  0
    1.6279   -3.2299   -0.7431 H   0  0  0  0  0  0  0  0  0  0  0  0
    1.4894   -4.2290   -2.1954 H   0  0  0  0  0  0  0  0  0  0  0  0
    4.5011   -2.0887   -0.5613 H   0  0  0  0  0  0  0  0  0  0  0  0
    5.9362   -2.2975   -3.0418 H   0  0  0  0  0  0  0  0  0  0  0  0
    5.8614   -3.6860   -1.9025 H   0  0  0  0  0  0  0  0  0  0  0  0
    4.2087   -4.4750   -3.5278 H   0  0  0  0  0  0  0  0  0  0  0  0
    3.8330   -2.6587   -5.1021 H   0  0  0  0  0  0  0  0  0  0  0  0
    2.2977   -2.8037   -4.3864 H   0  0  0  0  0  0  0  0  0  0  0  0
    2.6595   -0.6635   -1.8341 H   0  0  0  0  0  0  0  0  0  0  0  0
    4.2528   -0.0239   -2.0576 H   0  0  0  0  0  0  0  0  0  0  0  0
    4.2055    1.4951   -4.2497 H   0  0  0  0  0  0  0  0  0  0  0  0
    4.6171    0.9847   -5.9069 H   0  0  0  0  0  0  0  0  0  0  0  0
    2.0908    1.2825   -5.4703 H   0  0  0  0  0  0  0  0  0  0  0  0
    2.6983   -0.1992   -6.2625 H   0  0  0  0  0  0  0  0  0  0  0  0
    3.7981   -4.1459   -1.3450 H   0  0  0  0  0  0  0  0  0  0  0  0
  1  2  1  0
  1 13  1  0
  1 14  1  0
  1 15  1  0
  2  5  1  0
  2  3  1  0
  2 28  1  1
  3  8  1  0
  3  4  1  0
  3 16  1  1
  4  5  1  0
  4 17  1  0
  4 18  1  0
  5  6  1  0
  5 19  1  6
  6  7  1  0
  6 20  1  0
  6 21  1  0
  7 12  1  0
  7  8  1  0
  7  9  1  0
  8 22  1  0
  8 23  1  0
  9 10  1  0
 10 11  1  0
 10 24  1  0
 10 25  1  0
 11 12  1  0
 11 26  1  0
 11 27  1  0
M  CHG  1   2   1
M  END
>  <i_m_ct_stereo_status>  (272) 
1

>  <s_m_source_file>  (272) 
/var/tmp/pbs.5076255.sched01/tmptyawoosb/846vw0lfia.sdf

>  <i_m_source_file_index>  (272) 
25

>  <i_lp_mmshare_version>  (272) 
48012

>  <i_f3d_flags>  (272) 
0

>  <s_epik_input>  (272) 
W0NIMl0xW0NAQEhdKFtDSDJdMilOKFtDSDNdKVtDQEhdMVtDSDJdQzIzT1tDSDJdW0NIMl1PMw==

>  <s_epik_cmdline>  (272) 
J2VwaWtfcHl0aG9uJywgJy1waHQnLCAnMi4wJywgJy1waCcsICc3LjAnLCAnLXRuJywgJzgnLCAnLW1hJywgJzIwMCcsICctaW1hZScsICc8aW5maWxlLm1hZT4nLCAnLW9tYWUnLCAnPG91dGZpbGUubWFlPic=

>  <r_epik_Ionization_Penalty>  (272) 
0.00203333

>  <r_epik_Ionization_Penalty_Charging>  (272) 
0.00203333

>  <r_epik_Ionization_Penalty_Neutral>  (272) 
1.27612e-14

>  <r_epik_State_Penalty>  (272) 
0.00139052

>  <r_epik_Charging_Adjusted_Penalty>  (272) 
0.00342385

>  <i_epik_Tot_Q>  (272) 
1

>  <i_epik_Tot_abs_Q>  (272) 
1

>  <s_lp_Force_Field>  (272) 
OPLS3e

>  <r_lp_Energy>  (272) 
26.0001

>  <b_lp_Chiralities_Consistent>  (272) 
1

>  <s_lp_Variant>  (272) 
76:0-2

>  <s_i_glide_gridfile>  (272) 
pfpi4k_grid

>  <i_i_glide_lignum>  (272) 
25

>  <i_i_glide_rotatable_bonds>  (272) 
0

>  <r_i_docking_score>  (272) 
-3.83594

>  <r_i_glide_ligand_efficiency>  (272) 
-0.319662

>  <r_i_glide_ligand_efficiency_sa>  (272) 
-0.731843

>  <r_i_glide_ligand_efficiency_ln>  (272) 
-1.10073

>  <r_i_glide_gscore>  (272) 
-3.83594

>  <r_i_glide_lipo>  (272) 
-0.532468

>  <r_i_glide_hbond>  (272) 
0

>  <r_i_glide_metal>  (272) 
-0

>  <r_i_glide_rewards>  (272) 
-2.50697

>  <r_i_glide_evdw>  (272) 
-4.28566

>  <r_i_glide_ecoul>  (272) 
-3.88147

>  <r_i_glide_erotb>  (272) 
0

>  <r_i_glide_esite>  (272) 
0

>  <r_i_glide_emodel>  (272) 
-10.3624

>  <r_i_glide_energy>  (272) 
-8.16713

>  <r_i_glide_einternal>  (272) 
0

>  <r_i_glide_intrahb_reward>  (272) 
-0

>  <i_i_glide_confnum>  (272) 
3

>  <i_i_glide_posenum>  (272) 
15

>  <r_i_glide_eff_state_penalty>  (272) 
0

>  <ligand_id>  (272) 
76

>  <original_smiles>  (272) 
CN1C2CC1CC1(C2)OCCO1

>  <smiles>  (272) 
[H]C1([H])OC2(OC1([H])[H])C([H])([H])C1([H])C([H])([H])C([H])(C2([H])[H])[N+]1([H])C([H])([H])[H]

$$$$
77:0:0
     RDKit          3D

 24 26  0  0  1  0  0  0  0  0999 V2000
    2.2631    2.1953    2.8402 N   0  0  0  0  0  0  0  0  0  0  0  0
    2.2939    0.8933    2.4305 C   0  0  0  0  0  0  0  0  0  0  0  0
    3.3027    0.5220    1.6446 N   0  0  0  0  0  0  0  0  0  0  0  0
    3.3275   -0.7710    1.2446 C   0  0  0  0  0  0  0  0  0  0  0  0
    4.4736   -1.1701    0.4444 C   0  0  0  0  0  0  0  0  0  0  0  0
    5.8052   -0.9804    0.6919 C   0  0  0  0  0  0  0  0  0  0  0  0
    6.5878   -1.5561   -0.2965 N   0  0  0  0  0  0  0  0  0  0  0  0
    5.7356   -2.1035   -1.1617 C   0  0  0  0  0  0  0  0  0  0  0  0
    6.0380   -2.7565   -2.2993 N   0  0  0  0  0  0  0  0  0  0  0  0
    5.0320   -3.2074   -3.0335 C   0  0  0  0  0  0  0  0  0  0  0  0
    3.6738   -3.0515   -2.6809 C   0  0  0  0  0  0  0  0  0  0  0  0
    3.3697   -2.3931   -1.5062 C   0  0  0  0  0  0  0  0  0  0  0  0
    4.3940   -1.8964   -0.7448 N   0  0  0  0  0  0  0  0  0  0  0  0
    2.3564   -1.6892    1.6903 C   0  0  0  0  0  0  0  0  0  0  0  0
    1.3511   -1.1683    2.5261 C   0  0  0  0  0  0  0  0  0  0  0  0
    1.3164    0.1245    2.8964 N   0  0  0  0  0  0  0  0  0  0  0  0
    2.9460    2.8479    2.4816 H   0  0  0  0  0  0  0  0  0  0  0  0
    1.4687    2.5256    3.3667 H   0  0  0  0  0  0  0  0  0  0  0  0
    6.2690   -0.4864    1.5294 H   0  0  0  0  0  0  0  0  0  0  0  0
    5.2976   -3.7255   -3.9521 H   0  0  0  0  0  0  0  0  0  0  0  0
    2.8811   -3.4572   -3.3091 H   0  0  0  0  0  0  0  0  0  0  0  0
    2.3533   -2.2519   -1.1562 H   0  0  0  0  0  0  0  0  0  0  0  0
    2.3838   -2.7336    1.4335 H   0  0  0  0  0  0  0  0  0  0  0  0
    0.5616   -1.7879    2.9231 H   0  0  0  0  0  0  0  0  0  0  0  0
  1  2  1  0
  1 18  1  0
  1 17  1  0
  2  3  2  0
  2 16  1  0
  3  4  1  0
  4  5  1  0
  4 14  2  0
  5 13  1  0
  5  6  2  0
  6  7  1  0
  6 19  1  0
  7  8  2  0
  8 13  1  0
  8  9  1  0
  9 10  2  0
 10 11  1  0
 10 20  1  0
 11 12  2  0
 11 21  1  0
 12 13  1  0
 12 22  1  0
 14 23  1  0
 14 15  1  0
 15 24  1  0
 15 16  2  0
M  END
>  <i_m_ct_stereo_status>  (273) 
1

>  <s_m_source_file>  (273) 
/var/tmp/pbs.5076255.sched01/tmptyawoosb/846vw0lfia.sdf

>  <i_m_source_file_index>  (273) 
26

>  <i_lp_mmshare_version>  (273) 
48012

>  <i_f3d_flags>  (273) 
0

>  <s_epik_input>  (273) 
W0hdL049YzFcbmMoW2NIXVtjSF1bbkhdMSktYyhbY0hdbjIpbihjMjMpW2NIXVtjSF1bY0hdbjM=

>  <s_epik_cmdline>  (273) 
J2VwaWtfcHl0aG9uJywgJy1waHQnLCAnMi4wJywgJy1waCcsICc3LjAnLCAnLXRuJywgJzgnLCAnLW1hJywgJzIwMCcsICctaW1hZScsICc8aW5maWxlLm1hZT4nLCAnLW9tYWUnLCAnPG91dGZpbGUubWFlPic=

>  <r_lp_tautomer_probability>  (273) 
1

>  <r_epik_Ionization_Penalty>  (273) 
0.000521951

>  <r_epik_Ionization_Penalty_Charging>  (273) 
1.77612e-05

>  <r_epik_Ionization_Penalty_Neutral>  (273) 
0.00050419

>  <r_epik_State_Penalty>  (273) 
0.000226521

>  <r_epik_Charging_Adjusted_Penalty>  (273) 
0.000244282

>  <i_epik_Tot_Q>  (273) 
0

>  <i_epik_Tot_abs_Q>  (273) 
0

>  <s_lp_Force_Field>  (273) 
OPLS3e

>  <r_lp_Energy>  (273) 
25.249

>  <b_lp_Chiralities_Consistent>  (273) 
1

>  <s_lp_Variant>  (273) 
77:0-1

>  <s_i_glide_gridfile>  (273) 
pfpi4k_grid

>  <i_i_glide_lignum>  (273) 
26

>  <i_i_glide_rotatable_bonds>  (273) 
1

>  <r_i_docking_score>  (273) 
-3.98798

>  <r_i_glide_ligand_efficiency>  (273) 
-0.249249

>  <r_i_glide_ligand_efficiency_sa>  (273) 
-0.628067

>  <r_i_glide_ligand_efficiency_ln>  (273) 
-1.05709

>  <r_i_glide_gscore>  (273) 
-3.98798

>  <r_i_glide_lipo>  (273) 
-0.33429

>  <r_i_glide_hbond>  (273) 
-0.117858

>  <r_i_glide_metal>  (273) 
-0

>  <r_i_glide_rewards>  (273) 
-1.9622

>  <r_i_glide_evdw>  (273) 
-22.6253

>  <r_i_glide_ecoul>  (273) 
-4.81111

>  <r_i_glide_erotb>  (273) 
0.369786

>  <r_i_glide_esite>  (273) 
-0.0904883

>  <r_i_glide_emodel>  (273) 
-33.0313

>  <r_i_glide_energy>  (273) 
-27.4364

>  <r_i_glide_einternal>  (273) 
3.016

>  <r_i_glide_intrahb_reward>  (273) 
-0

>  <i_i_glide_confnum>  (273) 
3

>  <i_i_glide_posenum>  (273) 
4

>  <r_i_glide_eff_state_penalty>  (273) 
0

>  <ligand_id>  (273) 
77

>  <original_smiles>  (273) 
N=c1nc(-c2cnc3ncccn23)cc[nH]1

>  <smiles>  (273) 
[H]c1nc(N([H])[H])nc(-c2c([H])nc3nc([H])c([H])c([H])n23)c1[H]

$$$$
77:0:1
     RDKit          3D

 24 26  0  0  1  0  0  0  0  0999 V2000
    5.2614    0.1817    4.6806 N   0  0  0  0  0  0  0  0  0  0  0  0
    4.5734   -0.0603    3.5375 C   0  0  0  0  0  0  0  0  0  0  0  0
    5.2197   -0.6370    2.5209 N   0  0  0  0  0  0  0  0  0  0  0  0
    4.5173   -0.8519    1.3798 C   0  0  0  0  0  0  0  0  0  0  0  0
    5.2731   -1.4997    0.2877 C   0  0  0  0  0  0  0  0  0  0  0  0
    6.6435   -1.6266    0.1672 C   0  0  0  0  0  0  0  0  0  0  0  0
    6.9903   -2.2500   -1.0209 N   0  0  0  0  0  0  0  0  0  0  0  0
    5.8421   -2.5486   -1.6451 C   0  0  0  0  0  0  0  0  0  0  0  0
    5.6824   -3.1698   -2.8268 N   0  0  0  0  0  0  0  0  0  0  0  0
    4.4437   -3.3709   -3.2673 C   0  0  0  0  0  0  0  0  0  0  0  0
    3.3016   -2.9469   -2.5619 C   0  0  0  0  0  0  0  0  0  0  0  0
    3.4746   -2.3360   -1.3440 C   0  0  0  0  0  0  0  0  0  0  0  0
    4.7400   -2.0999   -0.8634 N   0  0  0  0  0  0  0  0  0  0  0  0
    3.1763   -0.4141    1.2996 C   0  0  0  0  0  0  0  0  0  0  0  0
    2.6034    0.1470    2.4518 C   0  0  0  0  0  0  0  0  0  0  0  0
    3.3060    0.3207    3.5833 N   0  0  0  0  0  0  0  0  0  0  0  0
    6.2360   -0.0739    4.7535 H   0  0  0  0  0  0  0  0  0  0  0  0
    4.7727    0.6193    5.4446 H   0  0  0  0  0  0  0  0  0  0  0  0
    7.4093   -1.2792    0.8491 H   0  0  0  0  0  0  0  0  0  0  0  0
    4.3213   -3.9015   -4.2164 H   0  0  0  0  0  0  0  0  0  0  0  0
    2.2941   -3.1309   -2.9309 H   0  0  0  0  0  0  0  0  0  0  0  0
    2.6270   -2.0625   -0.7323 H   0  0  0  0  0  0  0  0  0  0  0  0
    2.5429   -0.4297    0.4310 H   0  0  0  0  0  0  0  0  0  0  0  0
    1.5737    0.4629    2.4372 H   0  0  0  0  0  0  0  0  0  0  0  0
  1  2  1  0
  1 18  1  0
  1 17  1  0
  2  3  2  0
  2 16  1  0
  3  4  1  0
  4  5  1  0
  4 14  2  0
  5 13  1  0
  5  6  2  0
  6  7  1  0
  6 19  1  0
  7  8  2  0
  8 13  1  0
  8  9  1  0
  9 10  2  0
 10 11  1  0
 10 20  1  0
 11 12  2  0
 11 21  1  0
 12 13  1  0
 12 22  1  0
 14 23  1  0
 14 15  1  0
 15 24  1  0
 15 16  2  0
M  END
>  <i_m_ct_stereo_status>  (274) 
1

>  <s_m_source_file>  (274) 
/var/tmp/pbs.5076255.sched01/tmptyawoosb/846vw0lfia.sdf

>  <i_m_source_file_index>  (274) 
26

>  <i_lp_mmshare_version>  (274) 
48012

>  <i_f3d_flags>  (274) 
0

>  <s_epik_input>  (274) 
W0hdL049YzFcbmMoW2NIXVtjSF1bbkhdMSktYyhbY0hdbjIpbihjMjMpW2NIXVtjSF1bY0hdbjM=

>  <s_epik_cmdline>  (274) 
J2VwaWtfcHl0aG9uJywgJy1waHQnLCAnMi4wJywgJy1waCcsICc3LjAnLCAnLXRuJywgJzgnLCAnLW1hJywgJzIwMCcsICctaW1hZScsICc8aW5maWxlLm1hZT4nLCAnLW9tYWUnLCAnPG91dGZpbGUubWFlPic=

>  <r_lp_tautomer_probability>  (274) 
1

>  <r_epik_Ionization_Penalty>  (274) 
0.000521951

>  <r_epik_Ionization_Penalty_Charging>  (274) 
1.77612e-05

>  <r_epik_Ionization_Penalty_Neutral>  (274) 
0.00050419

>  <r_epik_State_Penalty>  (274) 
0.000226521

>  <r_epik_Charging_Adjusted_Penalty>  (274) 
0.000244282

>  <i_epik_Tot_Q>  (274) 
0

>  <i_epik_Tot_abs_Q>  (274) 
0

>  <s_lp_Force_Field>  (274) 
OPLS3e

>  <r_lp_Energy>  (274) 
25.249

>  <b_lp_Chiralities_Consistent>  (274) 
1

>  <s_lp_Variant>  (274) 
77:0-1

>  <s_i_glide_gridfile>  (274) 
pfpi4k_grid

>  <i_i_glide_lignum>  (274) 
26

>  <i_i_glide_rotatable_bonds>  (274) 
1

>  <r_i_docking_score>  (274) 
-3.9591

>  <r_i_glide_ligand_efficiency>  (274) 
-0.247444

>  <r_i_glide_ligand_efficiency_sa>  (274) 
-0.623519

>  <r_i_glide_ligand_efficiency_ln>  (274) 
-1.04944

>  <r_i_glide_gscore>  (274) 
-3.9591

>  <r_i_glide_lipo>  (274) 
-0.279879

>  <r_i_glide_hbond>  (274) 
-0.16

>  <r_i_glide_metal>  (274) 
-0

>  <r_i_glide_rewards>  (274) 
-2.03315

>  <r_i_glide_evdw>  (274) 
-23.4075

>  <r_i_glide_ecoul>  (274) 
-4.27584

>  <r_i_glide_erotb>  (274) 
0.369786

>  <r_i_glide_esite>  (274) 
-0.044104

>  <r_i_glide_emodel>  (274) 
-34.0566

>  <r_i_glide_energy>  (274) 
-27.6833

>  <r_i_glide_einternal>  (274) 
0.892339

>  <r_i_glide_intrahb_reward>  (274) 
-0

>  <i_i_glide_confnum>  (274) 
3

>  <i_i_glide_posenum>  (274) 
18

>  <r_i_glide_eff_state_penalty>  (274) 
0

>  <ligand_id>  (274) 
77

>  <original_smiles>  (274) 
N=c1nc(-c2cnc3ncccn23)cc[nH]1

>  <smiles>  (274) 
[H]c1nc(N([H])[H])nc(-c2c([H])nc3nc([H])c([H])c([H])n23)c1[H]

$$$$
77:0:2
     RDKit          3D

 24 26  0  0  1  0  0  0  0  0999 V2000
    2.9506    1.6255    3.0027 N   0  0  0  0  0  0  0  0  0  0  0  0
    2.1160    2.5329    3.5840 C   0  0  0  0  0  0  0  0  0  0  0  0
    1.1863    2.0737    4.4211 N   0  0  0  0  0  0  0  0  0  0  0  0
    0.3703    2.9883    5.0015 C   0  0  0  0  0  0  0  0  0  0  0  0
   -0.6494    2.4375    5.8983 C   0  0  0  0  0  0  0  0  0  0  0  0
   -1.2240    1.1914    5.8754 C   0  0  0  0  0  0  0  0  0  0  0  0
   -2.1777    1.0480    6.8750 N   0  0  0  0  0  0  0  0  0  0  0  0
   -2.2004    2.2174    7.5162 C   0  0  0  0  0  0  0  0  0  0  0  0
   -2.9771    2.5519    8.5636 N   0  0  0  0  0  0  0  0  0  0  0  0
   -2.8396    3.7688    9.0736 C   0  0  0  0  0  0  0  0  0  0  0  0
   -1.9304    4.7275    8.5691 C   0  0  0  0  0  0  0  0  0  0  0  0
   -1.1214    4.3755    7.5094 C   0  0  0  0  0  0  0  0  0  0  0  0
   -1.2584    3.1241    6.9547 N   0  0  0  0  0  0  0  0  0  0  0  0
    0.4965    4.3601    4.6884 C   0  0  0  0  0  0  0  0  0  0  0  0
    1.5251    4.7154    3.7960 C   0  0  0  0  0  0  0  0  0  0  0  0
    2.3513    3.7983    3.2611 N   0  0  0  0  0  0  0  0  0  0  0  0
    2.8524    0.6412    3.1868 H   0  0  0  0  0  0  0  0  0  0  0  0
    3.6834    1.9797    2.4000 H   0  0  0  0  0  0  0  0  0  0  0  0
   -1.0224    0.3811    5.1938 H   0  0  0  0  0  0  0  0  0  0  0  0
   -3.4572    4.0152    9.9334 H   0  0  0  0  0  0  0  0  0  0  0  0
   -1.8511    5.7129    9.0243 H   0  0  0  0  0  0  0  0  0  0  0  0
   -0.3769    5.0590    7.1152 H   0  0  0  0  0  0  0  0  0  0  0  0
   -0.1629    5.1250    5.0459 H   0  0  0  0  0  0  0  0  0  0  0  0
    1.6896    5.7443    3.5090 H   0  0  0  0  0  0  0  0  0  0  0  0
  1  2  1  0
  1 18  1  0
  1 17  1  0
  2  3  2  0
  2 16  1  0
  3  4  1  0
  4  5  1  0
  4 14  2  0
  5 13  1  0
  5  6  2  0
  6  7  1  0
  6 19  1  0
  7  8  2  0
  8 13  1  0
  8  9  1  0
  9 10  2  0
 10 11  1  0
 10 20  1  0
 11 12  2  0
 11 21  1  0
 12 13  1  0
 12 22  1  0
 14 23  1  0
 14 15  1  0
 15 24  1  0
 15 16  2  0
M  END
>  <i_m_ct_stereo_status>  (275) 
1

>  <s_m_source_file>  (275) 
/var/tmp/pbs.5076255.sched01/tmptyawoosb/846vw0lfia.sdf

>  <i_m_source_file_index>  (275) 
26

>  <i_lp_mmshare_version>  (275) 
48012

>  <i_f3d_flags>  (275) 
0

>  <s_epik_input>  (275) 
W0hdL049YzFcbmMoW2NIXVtjSF1bbkhdMSktYyhbY0hdbjIpbihjMjMpW2NIXVtjSF1bY0hdbjM=

>  <s_epik_cmdline>  (275) 
J2VwaWtfcHl0aG9uJywgJy1waHQnLCAnMi4wJywgJy1waCcsICc3LjAnLCAnLXRuJywgJzgnLCAnLW1hJywgJzIwMCcsICctaW1hZScsICc8aW5maWxlLm1hZT4nLCAnLW9tYWUnLCAnPG91dGZpbGUubWFlPic=

>  <r_lp_tautomer_probability>  (275) 
1

>  <r_epik_Ionization_Penalty>  (275) 
0.000521951

>  <r_epik_Ionization_Penalty_Charging>  (275) 
1.77612e-05

>  <r_epik_Ionization_Penalty_Neutral>  (275) 
0.00050419

>  <r_epik_State_Penalty>  (275) 
0.000226521

>  <r_epik_Charging_Adjusted_Penalty>  (275) 
0.000244282

>  <i_epik_Tot_Q>  (275) 
0

>  <i_epik_Tot_abs_Q>  (275) 
0

>  <s_lp_Force_Field>  (275) 
OPLS3e

>  <r_lp_Energy>  (275) 
25.249

>  <b_lp_Chiralities_Consistent>  (275) 
1

>  <s_lp_Variant>  (275) 
77:0-1

>  <s_i_glide_gridfile>  (275) 
pfpi4k_grid

>  <i_i_glide_lignum>  (275) 
26

>  <i_i_glide_rotatable_bonds>  (275) 
1

>  <r_i_docking_score>  (275) 
-3.68395

>  <r_i_glide_ligand_efficiency>  (275) 
-0.230247

>  <r_i_glide_ligand_efficiency_sa>  (275) 
-0.580186

>  <r_i_glide_ligand_efficiency_ln>  (275) 
-0.976505

>  <r_i_glide_gscore>  (275) 
-3.68395

>  <r_i_glide_lipo>  (275) 
0

>  <r_i_glide_hbond>  (275) 
-0.48

>  <r_i_glide_metal>  (275) 
-0

>  <r_i_glide_rewards>  (275) 
-1.99053

>  <r_i_glide_evdw>  (275) 
-15.6616

>  <r_i_glide_ecoul>  (275) 
-5.05089

>  <r_i_glide_erotb>  (275) 
0.369786

>  <r_i_glide_esite>  (275) 
-0.0424925

>  <r_i_glide_emodel>  (275) 
-26.7351

>  <r_i_glide_energy>  (275) 
-20.7125

>  <r_i_glide_einternal>  (275) 
1.07873

>  <r_i_glide_intrahb_reward>  (275) 
-0

>  <i_i_glide_confnum>  (275) 
6

>  <i_i_glide_posenum>  (275) 
14

>  <r_i_glide_eff_state_penalty>  (275) 
0

>  <ligand_id>  (275) 
77

>  <original_smiles>  (275) 
N=c1nc(-c2cnc3ncccn23)cc[nH]1

>  <smiles>  (275) 
[H]c1nc(N([H])[H])nc(-c2c([H])nc3nc([H])c([H])c([H])n23)c1[H]

$$$$
78:0:0
     RDKit          3D

 53 56  0  0  1  0  0  0  0  0999 V2000
    0.6371  -12.1567    3.1056 C   0  0  0  0  0  0  0  0  0  0  0  0
    0.4075  -10.8449    3.7414 N   0  0  2  0  0  0  0  0  0  0  0  0
    0.9848   -9.7423    2.9404 C   0  0  0  0  0  0  0  0  0  0  0  0
    0.6173   -8.3841    3.5441 C   0  0  0  0  0  0  0  0  0  0  0  0
    1.0541   -8.2927    5.0256 C   0  0  1  0  0  0  0  0  0  0  0  0
    0.5951   -6.9756    5.6656 C   0  0  0  0  0  0  0  0  0  0  0  0
    1.1170   -5.9340    4.8626 O   0  0  0  0  0  0  0  0  0  0  0  0
    0.6803   -4.6502    5.0886 C   0  0  0  0  0  0  0  0  0  0  0  0
   -0.1496   -4.3717    6.1236 N   0  0  0  0  0  0  0  0  0  0  0  0
   -0.5299   -3.1023    6.3101 C   0  0  0  0  0  0  0  0  0  0  0  0
   -0.2264   -2.0146    5.6027 N   0  0  0  0  0  0  0  0  0  0  0  0
    0.6040   -2.3082    4.5546 C   0  0  0  0  0  0  0  0  0  0  0  0
    1.0937   -3.6081    4.2464 C   0  0  0  0  0  0  0  0  0  0  0  0
    1.9157   -3.5915    3.1386 N   0  0  0  0  0  0  0  0  0  0  0  0
    1.9103   -2.2978    2.8329 C   0  0  0  0  0  0  0  0  0  0  0  0
    1.1495   -1.4768    3.5938 N   0  0  0  0  0  0  0  0  0  0  0  0
    1.0513    0.0050    3.5067 C   0  0  2  0  0  0  0  0  0  0  0  0
   -0.2361    0.3899    3.8772 O   0  0  0  0  0  0  0  0  0  0  0  0
   -0.7300    1.4019    3.0071 C   0  0  1  0  0  0  0  0  0  0  0  0
   -1.3882    2.5550    3.7903 C   0  0  0  0  0  0  0  0  0  0  0  0
   -1.8333    3.5682    2.9077 O   0  0  0  0  0  0  0  0  0  0  0  0
    0.4764    1.7776    2.1298 C   0  0  1  0  0  0  0  0  0  0  0  0
    1.2757    2.8027    2.7148 O   0  0  0  0  0  0  0  0  0  0  0  0
    1.2462    0.4835    2.0742 C   0  0  1  0  0  0  0  0  0  0  0  0
    2.5950    0.7422    1.7465 O   0  0  0  0  0  0  0  0  0  0  0  0
    0.5168   -9.4965    5.8210 C   0  0  0  0  0  0  0  0  0  0  0  0
    0.8878  -10.8186    5.1421 C   0  0  0  0  0  0  0  0  0  0  0  0
    1.7161  -12.3009    3.0132 H   0  0  0  0  0  0  0  0  0  0  0  0
    0.2223  -12.2123    2.1048 H   0  0  0  0  0  0  0  0  0  0  0  0
    0.2062  -12.9628    3.7048 H   0  0  0  0  0  0  0  0  0  0  0  0
    2.0700   -9.8486    2.8881 H   0  0  0  0  0  0  0  0  0  0  0  0
    0.6194   -9.7935    1.9149 H   0  0  0  0  0  0  0  0  0  0  0  0
    1.0871   -7.5980    2.9468 H   0  0  0  0  0  0  0  0  0  0  0  0
   -0.4592   -8.2327    3.4652 H   0  0  0  0  0  0  0  0  0  0  0  0
    2.1463   -8.3314    5.0485 H   0  0  0  0  0  0  0  0  0  0  0  0
   -0.4960   -6.9412    5.6950 H   0  0  0  0  0  0  0  0  0  0  0  0
    0.9665   -6.8835    6.6892 H   0  0  0  0  0  0  0  0  0  0  0  0
   -1.1798   -2.9430    7.1522 H   0  0  0  0  0  0  0  0  0  0  0  0
    2.5065   -1.9299    2.0097 H   0  0  0  0  0  0  0  0  0  0  0  0
    1.7803    0.3866    4.2198 H   0  0  0  0  0  0  0  0  0  0  0  0
   -1.4769    0.9156    2.3782 H   0  0  0  0  0  0  0  0  0  0  0  0
   -2.2372    2.1965    4.3720 H   0  0  0  0  0  0  0  0  0  0  0  0
   -0.6909    2.9778    4.5101 H   0  0  0  0  0  0  0  0  0  0  0  0
   -1.1354    3.7682    2.2896 H   0  0  0  0  0  0  0  0  0  0  0  0
    0.1560    2.1126    1.1433 H   0  0  0  0  0  0  0  0  0  0  0  0
    1.0359    3.6151    2.2752 H   0  0  0  0  0  0  0  0  0  0  0  0
    0.7699   -0.2056    1.3763 H   0  0  0  0  0  0  0  0  0  0  0  0
    2.8651    1.4908    2.2645 H   0  0  0  0  0  0  0  0  0  0  0  0
    0.9082   -9.4862    6.8411 H   0  0  0  0  0  0  0  0  0  0  0  0
   -0.5683   -9.4247    5.9031 H   0  0  0  0  0  0  0  0  0  0  0  0
    0.4096  -11.6337    5.6738 H   0  0  0  0  0  0  0  0  0  0  0  0
    1.9647  -10.9777    5.1825 H   0  0  0  0  0  0  0  0  0  0  0  0
   -0.5964  -10.7067    3.8137 H   0  0  0  0  0  0  0  0  0  0  0  0
  1  2  1  0
  1 28  1  0
  1 29  1  0
  1 30  1  0
  2 27  1  0
  2  3  1  0
  2 53  1  1
  3  4  1  0
  3 31  1  0
  3 32  1  0
  4  5  1  0
  4 33  1  0
  4 34  1  0
  5  6  1  0
  5 26  1  0
  5 35  1  6
  6  7  1  0
  6 36  1  0
  6 37  1  0
  7  8  1  0
  8 13  1  0
  8  9  2  0
  9 10  1  0
 10 11  2  0
 10 38  1  0
 11 12  1  0
 12 16  1  0
 12 13  2  0
 13 14  1  0
 14 15  2  0
 15 16  1  0
 15 39  1  0
 16 17  1  0
 17 24  1  0
 17 18  1  0
 17 40  1  1
 18 19  1  0
 19 20  1  0
 19 22  1  0
 19 41  1  6
 20 21  1  0
 20 42  1  0
 20 43  1  0
 21 44  1  0
 22 23  1  0
 22 24  1  0
 22 45  1  6
 23 46  1  0
 24 25  1  0
 24 47  1  6
 25 48  1  0
 26 27  1  0
 26 49  1  0
 26 50  1  0
 27 51  1  0
 27 52  1  0
M  CHG  1   2   1
M  END
>  <i_m_ct_stereo_status>  (276) 
1

>  <s_m_source_file>  (276) 
/var/tmp/pbs.5076255.sched01/tmptyawoosb/846vw0lfia.sdf

>  <i_m_source_file_index>  (276) 
27

>  <i_lp_mmshare_version>  (276) 
48012

>  <i_f3d_flags>  (276) 
0

>  <s_epik_input>  (276) 
W0NIM11OMVtDSDJdW0NIMl1bQ0hdKFtDSDJdW0NIMl0xKVtDSDJdT2MobltjSF1uMiljKGMyMyluW2NIXW4zW0NAQEhdNE9bQ0BASF0oW0NIMl1bT0hdKVtDQEBIXShbT0hdKVtDQEhdNFtPSF0=

>  <s_epik_cmdline>  (276) 
J2VwaWtfcHl0aG9uJywgJy1waHQnLCAnMi4wJywgJy1waCcsICc3LjAnLCAnLXRuJywgJzgnLCAnLW1hJywgJzIwMCcsICctaW1hZScsICc8aW5maWxlLm1hZT4nLCAnLW9tYWUnLCAnPG91dGZpbGUubWFlPic=

>  <r_lp_tautomer_probability>  (276) 
1

>  <r_epik_Ionization_Penalty>  (276) 
0.0158982

>  <r_epik_Ionization_Penalty_Charging>  (276) 
0.00161127

>  <r_epik_Ionization_Penalty_Neutral>  (276) 
0.0142869

>  <r_epik_State_Penalty>  (276) 
0.000252075

>  <r_epik_Charging_Adjusted_Penalty>  (276) 
0.00186335

>  <i_epik_Tot_Q>  (276) 
1

>  <i_epik_Tot_abs_Q>  (276) 
1

>  <s_epik_Chemistry_Notes>  (276) 
This compound contains an acetal/aminal-like group ( X-CH(R)-Y where X, Y are N, S, or O) that may be acid/base labile, releasing an aldehyde.

>  <s_lp_Force_Field>  (276) 
OPLS3e

>  <r_lp_Energy>  (276) 
35.6505

>  <b_lp_Chiralities_Consistent>  (276) 
1

>  <s_lp_Variant>  (276) 
78:0-1

>  <s_i_glide_gridfile>  (276) 
pfpi4k_grid

>  <i_i_glide_lignum>  (276) 
27

>  <i_i_glide_rotatable_bonds>  (276) 
8

>  <r_i_docking_score>  (276) 
-3.5294

>  <r_i_glide_ligand_efficiency>  (276) 
-0.130718

>  <r_i_glide_ligand_efficiency_sa>  (276) 
-0.392155

>  <r_i_glide_ligand_efficiency_ln>  (276) 
-0.821585

>  <r_i_glide_gscore>  (276) 
-3.5294

>  <r_i_glide_lipo>  (276) 
-0.0793539

>  <r_i_glide_hbond>  (276) 
-0.143178

>  <r_i_glide_metal>  (276) 
-0

>  <r_i_glide_rewards>  (276) 
-0.859326

>  <r_i_glide_evdw>  (276) 
-23.8653

>  <r_i_glide_ecoul>  (276) 
-12.3573

>  <r_i_glide_erotb>  (276) 
0.670277

>  <r_i_glide_esite>  (276) 
-0.0709579

>  <r_i_glide_emodel>  (276) 
-46.2157

>  <r_i_glide_energy>  (276) 
-36.2226

>  <r_i_glide_einternal>  (276) 
3.22084

>  <r_i_glide_intrahb_reward>  (276) 
-0

>  <i_i_glide_confnum>  (276) 
6

>  <i_i_glide_posenum>  (276) 
39

>  <r_i_glide_eff_state_penalty>  (276) 
0

>  <ligand_id>  (276) 
78

>  <original_smiles>  (276) 
CN1CCC(COc2ncnc3c2ncn3C2OC(CO)C(O)C2O)CC1

>  <smiles>  (276) 
[H]OC([H])([H])C1([H])OC([H])(n2c([H])nc3c(OC([H])([H])C4([H])C([H])([H])C([H])([H])[N+]([H])(C([H])([H])[H])C([H])([H])C4([H])[H])nc([H])nc32)C([H])(O[H])C1([H])O[H]

$$$$
78:0:1
     RDKit          3D

 53 56  0  0  1  0  0  0  0  0999 V2000
    0.8502  -12.2391    4.4300 C   0  0  0  0  0  0  0  0  0  0  0  0
    1.4872  -10.9905    4.8623 N   0  0  2  0  0  0  0  0  0  0  0  0
    0.8009   -9.8093    4.2848 C   0  0  0  0  0  0  0  0  0  0  0  0
    1.4054   -8.5092    4.8262 C   0  0  0  0  0  0  0  0  0  0  0  0
    2.9236   -8.4701    4.5628 C   0  0  1  0  0  0  0  0  0  0  0  0
    3.5687   -7.2062    5.1627 C   0  0  0  0  0  0  0  0  0  0  0  0
    3.0931   -6.0326    4.5267 O   0  0  0  0  0  0  0  0  0  0  0  0
    3.6190   -5.6875    3.2989 C   0  0  0  0  0  0  0  0  0  0  0  0
    4.4645   -6.5165    2.6368 N   0  0  0  0  0  0  0  0  0  0  0  0
    4.9432   -6.1293    1.4457 C   0  0  0  0  0  0  0  0  0  0  0  0
    4.7142   -4.9989    0.7774 N   0  0  0  0  0  0  0  0  0  0  0  0
    3.8568   -4.1769    1.4545 C   0  0  0  0  0  0  0  0  0  0  0  0
    3.2704   -4.4643    2.7142 C   0  0  0  0  0  0  0  0  0  0  0  0
    2.4491   -3.4383    3.1406 N   0  0  0  0  0  0  0  0  0  0  0  0
    2.5735   -2.5769    2.1353 C   0  0  0  0  0  0  0  0  0  0  0  0
    3.3736   -2.9341    1.1101 N   0  0  0  0  0  0  0  0  0  0  0  0
    3.6371   -2.1591   -0.1204 C   0  0  2  0  0  0  0  0  0  0  0  0
    3.3412   -2.9650   -1.2169 O   0  0  0  0  0  0  0  0  0  0  0  0
    4.3657   -2.8644   -2.2006 C   0  0  1  0  0  0  0  0  0  0  0  0
    3.7560   -2.7169   -3.6106 C   0  0  0  0  0  0  0  0  0  0  0  0
    3.8405   -3.9316   -4.3014 O   0  0  0  0  0  0  0  0  0  0  0  0
    5.2110   -1.6761   -1.7410 C   0  0  1  0  0  0  0  0  0  0  0  0
    4.6429   -0.4696   -2.2314 O   0  0  0  0  0  0  0  0  0  0  0  0
    5.1010   -1.7655   -0.2341 C   0  0  1  0  0  0  0  0  0  0  0  0
    5.4054   -0.5285    0.3772 O   0  0  0  0  0  0  0  0  0  0  0  0
    3.6084   -9.7294    5.1141 C   0  0  0  0  0  0  0  0  0  0  0  0
    2.9385  -10.9922    4.5593 C   0  0  0  0  0  0  0  0  0  0  0  0
    0.8889  -12.3392    3.3467 H   0  0  0  0  0  0  0  0  0  0  0  0
   -0.1826  -12.2882    4.7530 H   0  0  0  0  0  0  0  0  0  0  0  0
    1.3645  -13.0656    4.8888 H   0  0  0  0  0  0  0  0  0  0  0  0
    0.8870   -9.8295    3.1960 H   0  0  0  0  0  0  0  0  0  0  0  0
   -0.2632   -9.8376    4.5157 H   0  0  0  0  0  0  0  0  0  0  0  0
    0.9152   -7.6545    4.3513 H   0  0  0  0  0  0  0  0  0  0  0  0
    1.2005   -8.4295    5.8949 H   0  0  0  0  0  0  0  0  0  0  0  0
    3.0557   -8.5017    3.4786 H   0  0  0  0  0  0  0  0  0  0  0  0
    3.2913   -7.1311    6.2140 H   0  0  0  0  0  0  0  0  0  0  0  0
    4.6613   -7.2482    5.1486 H   0  0  0  0  0  0  0  0  0  0  0  0
    5.5851   -6.8394    0.9504 H   0  0  0  0  0  0  0  0  0  0  0  0
    2.0524   -1.6291    2.1450 H   0  0  0  0  0  0  0  0  0  0  0  0
    2.9526   -1.3166   -0.0864 H   0  0  0  0  0  0  0  0  0  0  0  0
    4.9869   -3.7603   -2.1211 H   0  0  0  0  0  0  0  0  0  0  0  0
    2.7204   -2.3824   -3.5553 H   0  0  0  0  0  0  0  0  0  0  0  0
    4.2994   -2.0030   -4.2259 H   0  0  0  0  0  0  0  0  0  0  0  0
    3.4452   -4.6044   -3.7569 H   0  0  0  0  0  0  0  0  0  0  0  0
    6.2375   -1.7680   -2.0953 H   0  0  0  0  0  0  0  0  0  0  0  0
    3.7189   -0.4557   -2.0186 H   0  0  0  0  0  0  0  0  0  0  0  0
    5.7500   -2.5534    0.1513 H   0  0  0  0  0  0  0  0  0  0  0  0
    4.9330    0.1631   -0.0704 H   0  0  0  0  0  0  0  0  0  0  0  0
    4.6670   -9.7197    4.8390 H   0  0  0  0  0  0  0  0  0  0  0  0
    3.5681   -9.7321    6.2047 H   0  0  0  0  0  0  0  0  0  0  0  0
    3.4194  -11.8688    4.9972 H   0  0  0  0  0  0  0  0  0  0  0  0
    3.0962  -11.0482    3.4793 H   0  0  0  0  0  0  0  0  0  0  0  0
    1.3992  -10.9685    5.8738 H   0  0  0  0  0  0  0  0  0  0  0  0
  1  2  1  0
  1 28  1  0
  1 29  1  0
  1 30  1  0
  2 27  1  0
  2  3  1  0
  2 53  1  1
  3  4  1  0
  3 31  1  0
  3 32  1  0
  4  5  1  0
  4 33  1  0
  4 34  1  0
  5  6  1  0
  5 26  1  0
  5 35  1  6
  6  7  1  0
  6 36  1  0
  6 37  1  0
  7  8  1  0
  8 13  1  0
  8  9  2  0
  9 10  1  0
 10 11  2  0
 10 38  1  0
 11 12  1  0
 12 16  1  0
 12 13  2  0
 13 14  1  0
 14 15  2  0
 15 16  1  0
 15 39  1  0
 16 17  1  0
 17 24  1  0
 17 18  1  0
 17 40  1  1
 18 19  1  0
 19 20  1  0
 19 22  1  0
 19 41  1  6
 20 21  1  0
 20 42  1  0
 20 43  1  0
 21 44  1  0
 22 23  1  0
 22 24  1  0
 22 45  1  1
 23 46  1  0
 24 25  1  0
 24 47  1  1
 25 48  1  0
 26 27  1  0
 26 49  1  0
 26 50  1  0
 27 51  1  0
 27 52  1  0
M  CHG  1   2   1
M  END
>  <i_m_ct_stereo_status>  (277) 
1

>  <s_m_source_file>  (277) 
/var/tmp/pbs.5076255.sched01/tmptyawoosb/846vw0lfia.sdf

>  <i_m_source_file_index>  (277) 
27

>  <i_lp_mmshare_version>  (277) 
48012

>  <i_f3d_flags>  (277) 
0

>  <s_epik_input>  (277) 
W0NIM11OMVtDSDJdW0NIMl1bQ0hdKFtDSDJdW0NIMl0xKVtDSDJdT2MobltjSF1uMiljKGMyMyluW2NIXW4zW0NAQEhdNE9bQ0BASF0oW0NIMl1bT0hdKVtDQEBIXShbT0hdKVtDQEhdNFtPSF0=

>  <s_epik_cmdline>  (277) 
J2VwaWtfcHl0aG9uJywgJy1waHQnLCAnMi4wJywgJy1waCcsICc3LjAnLCAnLXRuJywgJzgnLCAnLW1hJywgJzIwMCcsICctaW1hZScsICc8aW5maWxlLm1hZT4nLCAnLW9tYWUnLCAnPG91dGZpbGUubWFlPic=

>  <r_lp_tautomer_probability>  (277) 
1

>  <r_epik_Ionization_Penalty>  (277) 
0.0158982

>  <r_epik_Ionization_Penalty_Charging>  (277) 
0.00161127

>  <r_epik_Ionization_Penalty_Neutral>  (277) 
0.0142869

>  <r_epik_State_Penalty>  (277) 
0.000252075

>  <r_epik_Charging_Adjusted_Penalty>  (277) 
0.00186335

>  <i_epik_Tot_Q>  (277) 
1

>  <i_epik_Tot_abs_Q>  (277) 
1

>  <s_epik_Chemistry_Notes>  (277) 
This compound contains an acetal/aminal-like group ( X-CH(R)-Y where X, Y are N, S, or O) that may be acid/base labile, releasing an aldehyde.

>  <s_lp_Force_Field>  (277) 
OPLS3e

>  <r_lp_Energy>  (277) 
35.6505

>  <b_lp_Chiralities_Consistent>  (277) 
1

>  <s_lp_Variant>  (277) 
78:0-1

>  <s_i_glide_gridfile>  (277) 
pfpi4k_grid

>  <i_i_glide_lignum>  (277) 
27

>  <i_i_glide_rotatable_bonds>  (277) 
8

>  <r_i_docking_score>  (277) 
-3.19228

>  <r_i_glide_ligand_efficiency>  (277) 
-0.118232

>  <r_i_glide_ligand_efficiency_sa>  (277) 
-0.354697

>  <r_i_glide_ligand_efficiency_ln>  (277) 
-0.743109

>  <r_i_glide_gscore>  (277) 
-3.19228

>  <r_i_glide_lipo>  (277) 
-0.225263

>  <r_i_glide_hbond>  (277) 
-0.0798142

>  <r_i_glide_metal>  (277) 
-0

>  <r_i_glide_rewards>  (277) 
-0.920288

>  <r_i_glide_evdw>  (277) 
-21.7582

>  <r_i_glide_ecoul>  (277) 
-9.55863

>  <r_i_glide_erotb>  (277) 
0.670277

>  <r_i_glide_esite>  (277) 
-0.115482

>  <r_i_glide_emodel>  (277) 
-41.1808

>  <r_i_glide_energy>  (277) 
-31.3169

>  <r_i_glide_einternal>  (277) 
1.56087

>  <r_i_glide_intrahb_reward>  (277) 
-0

>  <i_i_glide_confnum>  (277) 
5

>  <i_i_glide_posenum>  (277) 
2

>  <r_i_glide_eff_state_penalty>  (277) 
0

>  <ligand_id>  (277) 
78

>  <original_smiles>  (277) 
CN1CCC(COc2ncnc3c2ncn3C2OC(CO)C(O)C2O)CC1

>  <smiles>  (277) 
[H]OC([H])([H])C1([H])OC([H])(n2c([H])nc3c(OC([H])([H])C4([H])C([H])([H])C([H])([H])[N+]([H])(C([H])([H])[H])C([H])([H])C4([H])[H])nc([H])nc32)C([H])(O[H])C1([H])O[H]

$$$$
78:0:2
     RDKit          3D

 53 56  0  0  1  0  0  0  0  0999 V2000
   -1.9779    3.1049    2.9868 C   0  0  0  0  0  0  0  0  0  0  0  0
   -0.6523    2.5432    2.6705 N   0  0  2  0  0  0  0  0  0  0  0  0
   -0.7773    1.1723    2.1156 C   0  0  0  0  0  0  0  0  0  0  0  0
    0.5955    0.6464    1.6918 C   0  0  0  0  0  0  0  0  0  0  0  0
    1.5875    0.6922    2.8658 C   0  0  1  0  0  0  0  0  0  0  0  0
    2.9831    0.1864    2.4357 C   0  0  0  0  0  0  0  0  0  0  0  0
    2.9442   -1.0479    1.7360 O   0  0  0  0  0  0  0  0  0  0  0  0
    2.5663   -2.1896    2.3976 C   0  0  0  0  0  0  0  0  0  0  0  0
    2.0858   -2.1500    3.6640 N   0  0  0  0  0  0  0  0  0  0  0  0
    1.6921   -3.2873    4.2367 C   0  0  0  0  0  0  0  0  0  0  0  0
    1.6998   -4.5218    3.7470 N   0  0  0  0  0  0  0  0  0  0  0  0
    2.2104   -4.5594    2.4866 C   0  0  0  0  0  0  0  0  0  0  0  0
    2.6457   -3.4300    1.7483 C   0  0  0  0  0  0  0  0  0  0  0  0
    3.0825   -3.7893    0.4869 N   0  0  0  0  0  0  0  0  0  0  0  0
    2.9179   -5.1117    0.5136 C   0  0  0  0  0  0  0  0  0  0  0  0
    2.4003   -5.6350    1.6434 N   0  0  0  0  0  0  0  0  0  0  0  0
    2.0976   -7.0597    1.9101 C   0  0  2  0  0  0  0  0  0  0  0  0
    0.7842   -7.1426    2.3556 O   0  0  0  0  0  0  0  0  0  0  0  0
    0.7072   -8.0180    3.4795 C   0  0  1  0  0  0  0  0  0  0  0  0
   -0.5009   -8.9648    3.3402 C   0  0  0  0  0  0  0  0  0  0  0  0
   -1.6496   -8.4712    3.9896 O   0  0  0  0  0  0  0  0  0  0  0  0
    2.0770   -8.7138    3.5345 C   0  0  1  0  0  0  0  0  0  0  0  0
    2.1199   -9.8541    2.6833 O   0  0  0  0  0  0  0  0  0  0  0  0
    2.9928   -7.6239    3.0056 C   0  0  1  0  0  0  0  0  0  0  0  0
    4.1893   -8.1747    2.5063 O   0  0  0  0  0  0  0  0  0  0  0  0
    1.6706    2.1060    3.4520 C   0  0  0  0  0  0  0  0  0  0  0  0
    0.2657    2.5828    3.8406 C   0  0  0  0  0  0  0  0  0  0  0  0
   -2.4807    2.4797    3.7285 H   0  0  0  0  0  0  0  0  0  0  0  0
   -2.6044    3.1454    2.0933 H   0  0  0  0  0  0  0  0  0  0  0  0
   -1.8776    4.1127    3.3867 H   0  0  0  0  0  0  0  0  0  0  0  0
   -1.2008    0.4986    2.8713 H   0  0  0  0  0  0  0  0  0  0  0  0
   -1.4631    1.1595    1.2840 H   0  0  0  0  0  0  0  0  0  0  0  0
    0.4837   -0.3734    1.3211 H   0  0  0  0  0  0  0  0  0  0  0  0
    0.9794    1.2420    0.8721 H   0  0  0  0  0  0  0  0  0  0  0  0
    1.1604    0.0907    3.6665 H   0  0  0  0  0  0  0  0  0  0  0  0
    3.4264    0.9061    1.7457 H   0  0  0  0  0  0  0  0  0  0  0  0
    3.6671    0.1147    3.2829 H   0  0  0  0  0  0  0  0  0  0  0  0
    1.2654   -3.1872    5.2229 H   0  0  0  0  0  0  0  0  0  0  0  0
    3.1912   -5.7285   -0.3300 H   0  0  0  0  0  0  0  0  0  0  0  0
    2.1906   -7.5638    0.9506 H   0  0  0  0  0  0  0  0  0  0  0  0
    0.6158   -7.4038    4.3777 H   0  0  0  0  0  0  0  0  0  0  0  0
   -0.7120   -9.1885    2.2961 H   0  0  0  0  0  0  0  0  0  0  0  0
   -0.2919   -9.9092    3.8328 H   0  0  0  0  0  0  0  0  0  0  0  0
   -2.0675   -9.2168    4.4140 H   0  0  0  0  0  0  0  0  0  0  0  0
    2.3352   -9.0211    4.5466 H   0  0  0  0  0  0  0  0  0  0  0  0
    1.5471  -10.5197    3.0330 H   0  0  0  0  0  0  0  0  0  0  0  0
    3.1903   -6.8790    3.7762 H   0  0  0  0  0  0  0  0  0  0  0  0
    3.9576   -8.9214    1.9708 H   0  0  0  0  0  0  0  0  0  0  0  0
    2.3083    2.0765    4.3406 H   0  0  0  0  0  0  0  0  0  0  0  0
    2.1320    2.8031    2.7464 H   0  0  0  0  0  0  0  0  0  0  0  0
    0.3285    3.5910    4.2425 H   0  0  0  0  0  0  0  0  0  0  0  0
   -0.1358    1.9417    4.6304 H   0  0  0  0  0  0  0  0  0  0  0  0
   -0.2340    3.1303    1.9396 H   0  0  0  0  0  0  0  0  0  0  0  0
  1  2  1  0
  1 28  1  0
  1 29  1  0
  1 30  1  0
  2 27  1  0
  2  3  1  0
  2 53  1  6
  3  4  1  0
  3 31  1  0
  3 32  1  0
  4  5  1  0
  4 33  1  0
  4 34  1  0
  5  6  1  0
  5 26  1  0
  5 35  1  1
  6  7  1  0
  6 36  1  0
  6 37  1  0
  7  8  1  0
  8 13  1  0
  8  9  2  0
  9 10  1  0
 10 11  2  0
 10 38  1  0
 11 12  1  0
 12 16  1  0
 12 13  2  0
 13 14  1  0
 14 15  2  0
 15 16  1  0
 15 39  1  0
 16 17  1  0
 17 24  1  0
 17 18  1  0
 17 40  1  6
 18 19  1  0
 19 20  1  0
 19 22  1  0
 19 41  1  1
 20 21  1  0
 20 42  1  0
 20 43  1  0
 21 44  1  0
 22 23  1  0
 22 24  1  0
 22 45  1  1
 23 46  1  0
 24 25  1  0
 24 47  1  1
 25 48  1  0
 26 27  1  0
 26 49  1  0
 26 50  1  0
 27 51  1  0
 27 52  1  0
M  CHG  1   2   1
M  END
>  <i_m_ct_stereo_status>  (278) 
1

>  <s_m_source_file>  (278) 
/var/tmp/pbs.5076255.sched01/tmptyawoosb/846vw0lfia.sdf

>  <i_m_source_file_index>  (278) 
27

>  <i_lp_mmshare_version>  (278) 
48012

>  <i_f3d_flags>  (278) 
0

>  <s_epik_input>  (278) 
W0NIM11OMVtDSDJdW0NIMl1bQ0hdKFtDSDJdW0NIMl0xKVtDSDJdT2MobltjSF1uMiljKGMyMyluW2NIXW4zW0NAQEhdNE9bQ0BASF0oW0NIMl1bT0hdKVtDQEBIXShbT0hdKVtDQEhdNFtPSF0=

>  <s_epik_cmdline>  (278) 
J2VwaWtfcHl0aG9uJywgJy1waHQnLCAnMi4wJywgJy1waCcsICc3LjAnLCAnLXRuJywgJzgnLCAnLW1hJywgJzIwMCcsICctaW1hZScsICc8aW5maWxlLm1hZT4nLCAnLW9tYWUnLCAnPG91dGZpbGUubWFlPic=

>  <r_lp_tautomer_probability>  (278) 
1

>  <r_epik_Ionization_Penalty>  (278) 
0.0158982

>  <r_epik_Ionization_Penalty_Charging>  (278) 
0.00161127

>  <r_epik_Ionization_Penalty_Neutral>  (278) 
0.0142869

>  <r_epik_State_Penalty>  (278) 
0.000252075

>  <r_epik_Charging_Adjusted_Penalty>  (278) 
0.00186335

>  <i_epik_Tot_Q>  (278) 
1

>  <i_epik_Tot_abs_Q>  (278) 
1

>  <s_epik_Chemistry_Notes>  (278) 
This compound contains an acetal/aminal-like group ( X-CH(R)-Y where X, Y are N, S, or O) that may be acid/base labile, releasing an aldehyde.

>  <s_lp_Force_Field>  (278) 
OPLS3e

>  <r_lp_Energy>  (278) 
35.6505

>  <b_lp_Chiralities_Consistent>  (278) 
1

>  <s_lp_Variant>  (278) 
78:0-1

>  <s_i_glide_gridfile>  (278) 
pfpi4k_grid

>  <i_i_glide_lignum>  (278) 
27

>  <i_i_glide_rotatable_bonds>  (278) 
8

>  <r_i_docking_score>  (278) 
-3.12519

>  <r_i_glide_ligand_efficiency>  (278) 
-0.115748

>  <r_i_glide_ligand_efficiency_sa>  (278) 
-0.347244

>  <r_i_glide_ligand_efficiency_ln>  (278) 
-0.727494

>  <r_i_glide_gscore>  (278) 
-3.12519

>  <r_i_glide_lipo>  (278) 
-0.0271554

>  <r_i_glide_hbond>  (278) 
-0.2

>  <r_i_glide_metal>  (278) 
-0

>  <r_i_glide_rewards>  (278) 
-0.832214

>  <r_i_glide_evdw>  (278) 
-24.8279

>  <r_i_glide_ecoul>  (278) 
-8.78872

>  <r_i_glide_erotb>  (278) 
0.670277

>  <r_i_glide_esite>  (278) 
-0.176402

>  <r_i_glide_emodel>  (278) 
-42.249

>  <r_i_glide_energy>  (278) 
-33.6166

>  <r_i_glide_einternal>  (278) 
2.82045

>  <r_i_glide_intrahb_reward>  (278) 
-0

>  <i_i_glide_confnum>  (278) 
5

>  <i_i_glide_posenum>  (278) 
3

>  <r_i_glide_eff_state_penalty>  (278) 
0

>  <ligand_id>  (278) 
78

>  <original_smiles>  (278) 
CN1CCC(COc2ncnc3c2ncn3C2OC(CO)C(O)C2O)CC1

>  <smiles>  (278) 
[H]OC([H])([H])C1([H])OC([H])(n2c([H])nc3c(OC([H])([H])C4([H])C([H])([H])C([H])([H])[N+]([H])(C([H])([H])[H])C([H])([H])C4([H])[H])nc([H])nc32)C([H])(O[H])C1([H])O[H]

$$$$
79:0:0
     RDKit          3D

 27 28  0  0  1  0  0  0  0  0999 V2000
    2.6290    4.2961    2.4967 N   0  0  0  0  0  0  0  0  0  0  0  0
    1.9702    3.1775    2.9866 C   0  0  0  0  0  0  0  0  0  0  0  0
    2.4162    1.9743    2.5701 N   0  0  0  0  0  0  0  0  0  0  0  0
    1.8701    0.8697    3.0856 C   0  0  0  0  0  0  0  0  0  0  0  0
    0.9208    0.7739    4.0102 N   0  0  0  0  0  0  0  0  0  0  0  0
    0.4553    2.0018    4.4036 C   0  0  0  0  0  0  0  0  0  0  0  0
    0.9122    3.2631    3.9315 C   0  0  0  0  0  0  0  0  0  0  0  0
    0.1450    4.2707    4.6088 C   0  0  0  0  0  0  0  0  0  0  0  0
    0.2653    5.7370    4.4293 C   0  0  0  0  0  0  0  0  0  0  0  0
    0.1536    6.1422    3.1565 N   0  0  0  0  0  0  0  0  0  0  0  0
    0.4693    6.7703    5.7188 S   0  0  0  0  0  0  0  0  0  0  0  0
   -0.7003    3.6279    5.4681 C   0  0  0  0  0  0  0  0  0  0  0  0
   -0.5545    2.2428    5.3291 N   0  0  0  0  0  0  0  0  0  0  0  0
   -1.3121    1.2475    6.0744 C   0  0  0  0  0  0  0  0  0  0  0  0
   -2.1120    0.2824    5.1737 C   0  0  0  0  0  0  0  0  0  0  0  0
   -1.3427   -0.7113    4.5614 O   0  0  0  0  0  0  0  0  0  0  0  0
    2.3386    5.2334    2.7171 H   0  0  0  0  0  0  0  0  0  0  0  0
    2.2633   -0.0706    2.7162 H   0  0  0  0  0  0  0  0  0  0  0  0
    0.0696    5.4527    2.4076 H   0  0  0  0  0  0  0  0  0  0  0  0
    0.2170    7.1443    2.8923 H   0  0  0  0  0  0  0  0  0  0  0  0
   -1.4236    4.0432    6.1610 H   0  0  0  0  0  0  0  0  0  0  0  0
   -0.6419    0.7289    6.7568 H   0  0  0  0  0  0  0  0  0  0  0  0
   -2.0162    1.7776    6.7103 H   0  0  0  0  0  0  0  0  0  0  0  0
   -2.8590   -0.2526    5.7595 H   0  0  0  0  0  0  0  0  0  0  0  0
   -2.5907    0.8589    4.3811 H   0  0  0  0  0  0  0  0  0  0  0  0
   -0.5516   -0.2814    4.2316 H   0  0  0  0  0  0  0  0  0  0  0  0
    3.3775    4.1769    1.8183 H   0  0  0  0  0  0  0  0  0  0  0  0
  1  2  1  0
  1 17  1  0
  1 27  1  0
  2  7  2  0
  2  3  1  0
  3  4  2  0
  4  5  1  0
  4 18  1  0
  5  6  2  0
  6 13  1  0
  6  7  1  0
  7  8  1  0
  8  9  1  0
  8 12  2  0
  9 10  1  0
  9 11  2  0
 10 19  1  0
 10 20  1  0
 12 13  1  0
 12 21  1  0
 13 14  1  0
 14 15  1  0
 14 22  1  0
 14 23  1  0
 15 16  1  0
 15 24  1  0
 15 25  1  0
 16 26  1  0
M  END
>  <i_m_ct_stereo_status>  (279) 
1

>  <s_m_source_file>  (279) 
/var/tmp/pbs.5076255.sched01/tmptyawoosb/846vw0lfia.sdf

>  <i_m_source_file_index>  (279) 
28

>  <i_lp_mmshare_version>  (279) 
48012

>  <i_f3d_flags>  (279) 
0

>  <s_epik_input>  (279) 
bjFbY0hdW25IXS9jKD1OXFtIXSljKGMxMiljKEMoPVMpW05IMl0pW2NIXW4yW0NIMl1bQ0gyXVtPSF0=

>  <s_epik_cmdline>  (279) 
J2VwaWtfcHl0aG9uJywgJy1waHQnLCAnMi4wJywgJy1waCcsICc3LjAnLCAnLXRuJywgJzgnLCAnLW1hJywgJzIwMCcsICctaW1hZScsICc8aW5maWxlLm1hZT4nLCAnLW9tYWUnLCAnPG91dGZpbGUubWFlPic=

>  <r_epik_Ionization_Penalty>  (279) 
0.000562922

>  <r_epik_Ionization_Penalty_Charging>  (279) 
0

>  <r_epik_Ionization_Penalty_Neutral>  (279) 
0.000562922

>  <r_epik_State_Penalty>  (279) 
0.000322692

>  <r_epik_Charging_Adjusted_Penalty>  (279) 
0.000322692

>  <i_epik_Tot_Q>  (279) 
0

>  <i_epik_Tot_abs_Q>  (279) 
0

>  <s_lp_Force_Field>  (279) 
OPLS3e

>  <r_lp_Energy>  (279) 
19.0326

>  <b_lp_Chiralities_Consistent>  (279) 
1

>  <s_lp_Variant>  (279) 
79:0-1

>  <s_i_glide_gridfile>  (279) 
pfpi4k_grid

>  <i_i_glide_lignum>  (279) 
28

>  <i_i_glide_rotatable_bonds>  (279) 
4

>  <r_i_docking_score>  (279) 
-4.12845

>  <r_i_glide_ligand_efficiency>  (279) 
-0.258028

>  <r_i_glide_ligand_efficiency_sa>  (279) 
-0.650191

>  <r_i_glide_ligand_efficiency_ln>  (279) 
-1.09433

>  <r_i_glide_gscore>  (279) 
-4.12845

>  <r_i_glide_lipo>  (279) 
0

>  <r_i_glide_hbond>  (279) 
-0.30066

>  <r_i_glide_metal>  (279) 
-0

>  <r_i_glide_rewards>  (279) 
-2.29126

>  <r_i_glide_evdw>  (279) 
-13.9082

>  <r_i_glide_ecoul>  (279) 
-7.91516

>  <r_i_glide_erotb>  (279) 
0.612261

>  <r_i_glide_esite>  (279) 
-0.266115

>  <r_i_glide_emodel>  (279) 
-33.7558

>  <r_i_glide_energy>  (279) 
-21.8233

>  <r_i_glide_einternal>  (279) 
2.13711

>  <r_i_glide_intrahb_reward>  (279) 
-0.5

>  <i_i_glide_confnum>  (279) 
1

>  <i_i_glide_posenum>  (279) 
4

>  <r_i_glide_eff_state_penalty>  (279) 
0

>  <ligand_id>  (279) 
79

>  <original_smiles>  (279) 
N=c1[nH]cnc2c1c(C(N)=S)cn2CCO

>  <smiles>  (279) 
[H]OC([H])([H])C([H])([H])n1c([H])c(C(=S)N([H])[H])c2c(N([H])[H])nc([H])nc21

$$$$
79:0:1
     RDKit          3D

 27 28  0  0  1  0  0  0  0  0999 V2000
    3.4179   -0.6149    0.7584 N   0  0  0  0  0  0  0  0  0  0  0  0
    4.0629   -1.6978    1.3393 C   0  0  0  0  0  0  0  0  0  0  0  0
    4.3563   -1.5927    2.6536 N   0  0  0  0  0  0  0  0  0  0  0  0
    4.9393   -2.6154    3.2742 C   0  0  0  0  0  0  0  0  0  0  0  0
    5.2886   -3.8004    2.7724 N   0  0  0  0  0  0  0  0  0  0  0  0
    4.9977   -3.8993    1.4440 C   0  0  0  0  0  0  0  0  0  0  0  0
    4.3975   -2.8899    0.6364 C   0  0  0  0  0  0  0  0  0  0  0  0
    4.2878   -3.4144   -0.7008 C   0  0  0  0  0  0  0  0  0  0  0  0
    3.7345   -2.7441   -1.8988 C   0  0  0  0  0  0  0  0  0  0  0  0
    2.8022   -3.4538   -2.5525 N   0  0  0  0  0  0  0  0  0  0  0  0
    4.2302   -1.2695   -2.4777 S   0  0  0  0  0  0  0  0  0  0  0  0
    4.7792   -4.6920   -0.6582 C   0  0  0  0  0  0  0  0  0  0  0  0
    5.1959   -5.0078    0.6303 N   0  0  0  0  0  0  0  0  0  0  0  0
    5.7479   -6.2925    1.0369 C   0  0  0  0  0  0  0  0  0  0  0  0
    4.7548   -7.4276    0.7530 C   0  0  0  0  0  0  0  0  0  0  0  0
    5.3028   -8.6642    1.1450 O   0  0  0  0  0  0  0  0  0  0  0  0
    3.1176   -0.6437   -0.2092 H   0  0  0  0  0  0  0  0  0  0  0  0
    5.1371   -2.4524    4.3224 H   0  0  0  0  0  0  0  0  0  0  0  0
    2.6078   -4.4145   -2.2791 H   0  0  0  0  0  0  0  0  0  0  0  0
    2.3793   -3.0497   -3.3735 H   0  0  0  0  0  0  0  0  0  0  0  0
    4.8575   -5.4167   -1.4573 H   0  0  0  0  0  0  0  0  0  0  0  0
    6.6883   -6.4331    0.5086 H   0  0  0  0  0  0  0  0  0  0  0  0
    6.0085   -6.2691    2.0977 H   0  0  0  0  0  0  0  0  0  0  0  0
    3.8226   -7.2539    1.2952 H   0  0  0  0  0  0  0  0  0  0  0  0
    4.5363   -7.4841   -0.3132 H   0  0  0  0  0  0  0  0  0  0  0  0
    4.6818   -9.3499    0.9398 H   0  0  0  0  0  0  0  0  0  0  0  0
    3.1674    0.2091    1.2834 H   0  0  0  0  0  0  0  0  0  0  0  0
  1  2  1  0
  1 17  1  0
  1 27  1  0
  2  7  2  0
  2  3  1  0
  3  4  2  0
  4  5  1  0
  4 18  1  0
  5  6  2  0
  6 13  1  0
  6  7  1  0
  7  8  1  0
  8  9  1  0
  8 12  2  0
  9 10  1  0
  9 11  2  0
 10 19  1  0
 10 20  1  0
 12 13  1  0
 12 21  1  0
 13 14  1  0
 14 15  1  0
 14 22  1  0
 14 23  1  0
 15 16  1  0
 15 24  1  0
 15 25  1  0
 16 26  1  0
M  END
>  <i_m_ct_stereo_status>  (280) 
1

>  <s_m_source_file>  (280) 
/var/tmp/pbs.5076255.sched01/tmptyawoosb/846vw0lfia.sdf

>  <i_m_source_file_index>  (280) 
28

>  <i_lp_mmshare_version>  (280) 
48012

>  <i_f3d_flags>  (280) 
0

>  <s_epik_input>  (280) 
bjFbY0hdW25IXS9jKD1OXFtIXSljKGMxMiljKEMoPVMpW05IMl0pW2NIXW4yW0NIMl1bQ0gyXVtPSF0=

>  <s_epik_cmdline>  (280) 
J2VwaWtfcHl0aG9uJywgJy1waHQnLCAnMi4wJywgJy1waCcsICc3LjAnLCAnLXRuJywgJzgnLCAnLW1hJywgJzIwMCcsICctaW1hZScsICc8aW5maWxlLm1hZT4nLCAnLW9tYWUnLCAnPG91dGZpbGUubWFlPic=

>  <r_epik_Ionization_Penalty>  (280) 
0.000562922

>  <r_epik_Ionization_Penalty_Charging>  (280) 
0

>  <r_epik_Ionization_Penalty_Neutral>  (280) 
0.000562922

>  <r_epik_State_Penalty>  (280) 
0.000322692

>  <r_epik_Charging_Adjusted_Penalty>  (280) 
0.000322692

>  <i_epik_Tot_Q>  (280) 
0

>  <i_epik_Tot_abs_Q>  (280) 
0

>  <s_lp_Force_Field>  (280) 
OPLS3e

>  <r_lp_Energy>  (280) 
19.0326

>  <b_lp_Chiralities_Consistent>  (280) 
1

>  <s_lp_Variant>  (280) 
79:0-1

>  <s_i_glide_gridfile>  (280) 
pfpi4k_grid

>  <i_i_glide_lignum>  (280) 
28

>  <i_i_glide_rotatable_bonds>  (280) 
4

>  <r_i_docking_score>  (280) 
-4.0493

>  <r_i_glide_ligand_efficiency>  (280) 
-0.253081

>  <r_i_glide_ligand_efficiency_sa>  (280) 
-0.637725

>  <r_i_glide_ligand_efficiency_ln>  (280) 
-1.07335

>  <r_i_glide_gscore>  (280) 
-4.0493

>  <r_i_glide_lipo>  (280) 
-0.199615

>  <r_i_glide_hbond>  (280) 
-0.287912

>  <r_i_glide_metal>  (280) 
-0

>  <r_i_glide_rewards>  (280) 
-2.00631

>  <r_i_glide_evdw>  (280) 
-20.6761

>  <r_i_glide_ecoul>  (280) 
-6.90343

>  <r_i_glide_erotb>  (280) 
0.612261

>  <r_i_glide_esite>  (280) 
-0.0984087

>  <r_i_glide_emodel>  (280) 
-34.006

>  <r_i_glide_energy>  (280) 
-27.5795

>  <r_i_glide_einternal>  (280) 
3.58465

>  <r_i_glide_intrahb_reward>  (280) 
-0

>  <i_i_glide_confnum>  (280) 
4

>  <i_i_glide_posenum>  (280) 
5

>  <r_i_glide_eff_state_penalty>  (280) 
0

>  <ligand_id>  (280) 
79

>  <original_smiles>  (280) 
N=c1[nH]cnc2c1c(C(N)=S)cn2CCO

>  <smiles>  (280) 
[H]OC([H])([H])C([H])([H])n1c([H])c(C(=S)N([H])[H])c2c(N([H])[H])nc([H])nc21

$$$$
79:0:2
     RDKit          3D

 27 28  0  0  1  0  0  0  0  0999 V2000
    2.2831   -5.4490    0.0747 N   0  0  0  0  0  0  0  0  0  0  0  0
    2.6076   -4.3996    0.9279 C   0  0  0  0  0  0  0  0  0  0  0  0
    2.3492   -4.6217    2.2348 N   0  0  0  0  0  0  0  0  0  0  0  0
    2.6155   -3.6631    3.1188 C   0  0  0  0  0  0  0  0  0  0  0  0
    3.1203   -2.4526    2.8896 N   0  0  0  0  0  0  0  0  0  0  0  0
    3.3135   -2.2075    1.5613 C   0  0  0  0  0  0  0  0  0  0  0  0
    3.0802   -3.1264    0.5035 C   0  0  0  0  0  0  0  0  0  0  0  0
    3.4251   -2.4581   -0.7267 C   0  0  0  0  0  0  0  0  0  0  0  0
    3.3441   -3.0033   -2.0826 C   0  0  0  0  0  0  0  0  0  0  0  0
    2.1209   -3.4463   -2.4197 N   0  0  0  0  0  0  0  0  0  0  0  0
    4.6384   -3.0492   -3.1250 S   0  0  0  0  0  0  0  0  0  0  0  0
    3.8642   -1.2043   -0.3889 C   0  0  0  0  0  0  0  0  0  0  0  0
    3.7555   -1.0223    0.9819 N   0  0  0  0  0  0  0  0  0  0  0  0
    4.0863    0.2077    1.6716 C   0  0  0  0  0  0  0  0  0  0  0  0
    2.8540    1.0131    2.1283 C   0  0  0  0  0  0  0  0  0  0  0  0
    2.1074    0.3394    3.1187 O   0  0  0  0  0  0  0  0  0  0  0  0
    2.6225   -5.4350   -0.8875 H   0  0  0  0  0  0  0  0  0  0  0  0
    2.3777   -3.8902    4.1471 H   0  0  0  0  0  0  0  0  0  0  0  0
    1.3606   -3.3055   -1.7749 H   0  0  0  0  0  0  0  0  0  0  0  0
    1.9723   -3.8483   -3.3343 H   0  0  0  0  0  0  0  0  0  0  0  0
    4.2121   -0.4180   -1.0509 H   0  0  0  0  0  0  0  0  0  0  0  0
    4.7510   -0.0301    2.5005 H   0  0  0  0  0  0  0  0  0  0  0  0
    4.6653    0.8036    0.9694 H   0  0  0  0  0  0  0  0  0  0  0  0
    3.1882    1.9531    2.5676 H   0  0  0  0  0  0  0  0  0  0  0  0
    2.2082    1.2399    1.2771 H   0  0  0  0  0  0  0  0  0  0  0  0
    1.2877    0.7918    3.2371 H   0  0  0  0  0  0  0  0  0  0  0  0
    2.1585   -6.3816    0.4402 H   0  0  0  0  0  0  0  0  0  0  0  0
  1  2  1  0
  1 17  1  0
  1 27  1  0
  2  7  2  0
  2  3  1  0
  3  4  2  0
  4  5  1  0
  4 18  1  0
  5  6  2  0
  6 13  1  0
  6  7  1  0
  7  8  1  0
  8  9  1  0
  8 12  2  0
  9 10  1  0
  9 11  2  0
 10 19  1  0
 10 20  1  0
 12 13  1  0
 12 21  1  0
 13 14  1  0
 14 15  1  0
 14 22  1  0
 14 23  1  0
 15 16  1  0
 15 24  1  0
 15 25  1  0
 16 26  1  0
M  END
>  <i_m_ct_stereo_status>  (281) 
1

>  <s_m_source_file>  (281) 
/var/tmp/pbs.5076255.sched01/tmptyawoosb/846vw0lfia.sdf

>  <i_m_source_file_index>  (281) 
28

>  <i_lp_mmshare_version>  (281) 
48012

>  <i_f3d_flags>  (281) 
0

>  <s_epik_input>  (281) 
bjFbY0hdW25IXS9jKD1OXFtIXSljKGMxMiljKEMoPVMpW05IMl0pW2NIXW4yW0NIMl1bQ0gyXVtPSF0=

>  <s_epik_cmdline>  (281) 
J2VwaWtfcHl0aG9uJywgJy1waHQnLCAnMi4wJywgJy1waCcsICc3LjAnLCAnLXRuJywgJzgnLCAnLW1hJywgJzIwMCcsICctaW1hZScsICc8aW5maWxlLm1hZT4nLCAnLW9tYWUnLCAnPG91dGZpbGUubWFlPic=

>  <r_epik_Ionization_Penalty>  (281) 
0.000562922

>  <r_epik_Ionization_Penalty_Charging>  (281) 
0

>  <r_epik_Ionization_Penalty_Neutral>  (281) 
0.000562922

>  <r_epik_State_Penalty>  (281) 
0.000322692

>  <r_epik_Charging_Adjusted_Penalty>  (281) 
0.000322692

>  <i_epik_Tot_Q>  (281) 
0

>  <i_epik_Tot_abs_Q>  (281) 
0

>  <s_lp_Force_Field>  (281) 
OPLS3e

>  <r_lp_Energy>  (281) 
19.0326

>  <b_lp_Chiralities_Consistent>  (281) 
1

>  <s_lp_Variant>  (281) 
79:0-1

>  <s_i_glide_gridfile>  (281) 
pfpi4k_grid

>  <i_i_glide_lignum>  (281) 
28

>  <i_i_glide_rotatable_bonds>  (281) 
4

>  <r_i_docking_score>  (281) 
-3.89423

>  <r_i_glide_ligand_efficiency>  (281) 
-0.24339

>  <r_i_glide_ligand_efficiency_sa>  (281) 
-0.613303

>  <r_i_glide_ligand_efficiency_ln>  (281) 
-1.03224

>  <r_i_glide_gscore>  (281) 
-3.89423

>  <r_i_glide_lipo>  (281) 
-0.0506001

>  <r_i_glide_hbond>  (281) 
-0.355308

>  <r_i_glide_metal>  (281) 
-0

>  <r_i_glide_rewards>  (281) 
-1.982

>  <r_i_glide_evdw>  (281) 
-20.9494

>  <r_i_glide_ecoul>  (281) 
-6.35038

>  <r_i_glide_erotb>  (281) 
0.612261

>  <r_i_glide_esite>  (281) 
-0.118562

>  <r_i_glide_emodel>  (281) 
-34.192

>  <r_i_glide_energy>  (281) 
-27.2997

>  <r_i_glide_einternal>  (281) 
1.59613

>  <r_i_glide_intrahb_reward>  (281) 
-0

>  <i_i_glide_confnum>  (281) 
1

>  <i_i_glide_posenum>  (281) 
3

>  <r_i_glide_eff_state_penalty>  (281) 
0

>  <ligand_id>  (281) 
79

>  <original_smiles>  (281) 
N=c1[nH]cnc2c1c(C(N)=S)cn2CCO

>  <smiles>  (281) 
[H]OC([H])([H])C([H])([H])n1c([H])c(C(=S)N([H])[H])c2c(N([H])[H])nc([H])nc21

$$$$
80:0:0
     RDKit          3D

 37 39  0  0  1  0  0  0  0  0999 V2000
  -11.4623   -6.5241  -10.3832 C   0  0  0  0  0  0  0  0  0  0  0  0
  -10.4557   -7.3501   -9.6041 C   0  0  0  0  0  0  0  0  0  0  0  0
  -10.6093   -8.6839   -9.4658 C   0  0  0  0  0  0  0  0  0  0  0  0
   -9.6426   -9.5974   -8.7264 C   0  0  0  0  0  0  0  0  0  0  0  0
   -8.3187   -8.9039   -8.3449 C   0  0  0  0  0  0  0  0  0  0  0  0
   -8.6147   -7.4626   -7.8833 C   0  0  1  0  0  0  0  0  0  0  0  0
   -7.3990   -6.7543   -7.2143 C   0  0  0  0  0  0  0  0  0  0  0  0
   -7.7491   -5.3150   -6.7448 C   0  0  1  0  0  0  0  0  0  0  0  0
   -8.5867   -5.3140   -5.5049 C   0  0  0  0  0  0  0  0  0  0  0  0
   -7.9807   -4.7076   -4.5085 C   0  0  0  0  0  0  0  0  0  0  0  0
   -6.6700   -4.3053   -4.9757 C   0  0  0  0  0  0  0  0  0  0  0  0
   -5.7850   -3.7898   -4.3043 O   0  0  0  0  0  0  0  0  0  0  0  0
   -6.5822   -4.6344   -6.2853 O   0  0  0  0  0  0  0  0  0  0  0  0
   -8.4935   -4.4698   -7.7999 C   0  0  0  0  0  0  0  0  0  0  0  0
   -9.7029   -5.2417   -8.3708 C   0  0  0  0  0  0  0  0  0  0  0  0
   -9.2627   -6.5963   -9.0077 C   0  0  2  0  0  0  0  0  0  0  0  0
   -8.2695   -6.3473  -10.1652 C   0  0  0  0  0  0  0  0  0  0  0  0
  -10.9569   -5.9405  -11.1517 H   0  0  0  0  0  0  0  0  0  0  0  0
  -11.9992   -5.8382   -9.7275 H   0  0  0  0  0  0  0  0  0  0  0  0
  -12.2091   -7.1509  -10.8695 H   0  0  0  0  0  0  0  0  0  0  0  0
  -11.4627   -9.1692   -9.9204 H   0  0  0  0  0  0  0  0  0  0  0  0
  -10.1601   -9.9559   -7.8329 H   0  0  0  0  0  0  0  0  0  0  0  0
   -9.4275  -10.4667   -9.3436 H   0  0  0  0  0  0  0  0  0  0  0  0
   -7.8306   -9.4610   -7.5386 H   0  0  0  0  0  0  0  0  0  0  0  0
   -7.6204   -8.9057   -9.1904 H   0  0  0  0  0  0  0  0  0  0  0  0
   -9.4075   -7.5743   -7.1334 H   0  0  0  0  0  0  0  0  0  0  0  0
   -6.9916   -7.3462   -6.3898 H   0  0  0  0  0  0  0  0  0  0  0  0
   -6.5771   -6.6940   -7.9026 H   0  0  0  0  0  0  0  0  0  0  0  0
   -9.5854   -5.6994   -5.5065 H   0  0  0  0  0  0  0  0  0  0  0  0
   -8.3856   -4.5377   -3.5066 H   0  0  0  0  0  0  0  0  0  0  0  0
   -8.8231   -3.5203   -7.3670 H   0  0  0  0  0  0  0  0  0  0  0  0
   -7.8123   -4.1808   -8.5989 H   0  0  0  0  0  0  0  0  0  0  0  0
  -10.4598   -5.3988   -7.5880 H   0  0  0  0  0  0  0  0  0  0  0  0
  -10.1731   -4.6131   -9.1077 H   0  0  0  0  0  0  0  0  0  0  0  0
   -7.3426   -5.9157   -9.8089 H   0  0  0  0  0  0  0  0  0  0  0  0
   -8.6861   -5.6547  -10.8978 H   0  0  0  0  0  0  0  0  0  0  0  0
   -8.0109   -7.2815  -10.6659 H   0  0  0  0  0  0  0  0  0  0  0  0
  1  2  1  0
  1 18  1  0
  1 19  1  0
  1 20  1  0
  2 16  1  0
  2  3  2  0
  3  4  1  0
  3 21  1  0
  4  5  1  0
  4 22  1  0
  4 23  1  0
  5  6  1  0
  5 24  1  0
  5 25  1  0
  6 16  1  0
  6  7  1  0
  6 26  1  1
  7  8  1  0
  7 27  1  0
  7 28  1  0
  8 13  1  1
  8  9  1  0
  8 14  1  0
  9 10  2  0
  9 29  1  0
 10 11  1  0
 10 30  1  0
 11 12  2  0
 11 13  1  0
 14 15  1  0
 14 31  1  0
 14 32  1  0
 15 16  1  0
 15 33  1  0
 15 34  1  0
 16 17  1  6
 17 35  1  0
 17 36  1  0
 17 37  1  0
M  END
>  <i_m_ct_stereo_status>  (282) 
1

>  <s_m_source_file>  (282) 
/var/tmp/pbs.5076255.sched01/tmptyawoosb/846vw0lfia.sdf

>  <i_m_source_file_index>  (282) 
29

>  <i_lp_mmshare_version>  (282) 
48012

>  <i_f3d_flags>  (282) 
0

>  <s_epik_input>  (282) 
W0NIMl0xW0NIMl1bQ0hdPUMoW0NIM10pW0NAQF0oW0NIM10pKFtDSDJdW0NIMl0yKVtDQEBIXTFbQ0gyXVtDQF0yM1tDSF09W0NIXUMoPU8pTzM=

>  <s_epik_cmdline>  (282) 
J2VwaWtfcHl0aG9uJywgJy1waHQnLCAnMi4wJywgJy1waCcsICc3LjAnLCAnLXRuJywgJzgnLCAnLW1hJywgJzIwMCcsICctaW1hZScsICc8aW5maWxlLm1hZT4nLCAnLW9tYWUnLCAnPG91dGZpbGUubWFlPic=

>  <r_lp_tautomer_probability>  (282) 
1

>  <r_epik_Ionization_Penalty>  (282) 
0

>  <r_epik_Ionization_Penalty_Charging>  (282) 
0

>  <r_epik_Ionization_Penalty_Neutral>  (282) 
0

>  <r_epik_State_Penalty>  (282) 
-0

>  <r_epik_Charging_Adjusted_Penalty>  (282) 
0

>  <i_epik_Tot_Q>  (282) 
0

>  <i_epik_Tot_abs_Q>  (282) 
0

>  <s_epik_Chemistry_Notes>  (282) 
This compound has an ester and may undergo hydrolysis at high or low pH.

>  <s_lp_Force_Field>  (282) 
OPLS3e

>  <r_lp_Energy>  (282) 
14.2651

>  <b_lp_Chiralities_Consistent>  (282) 
1

>  <s_lp_Variant>  (282) 
80:0-1

>  <s_i_glide_gridfile>  (282) 
pfpi4k_grid

>  <i_i_glide_lignum>  (282) 
29

>  <i_i_glide_rotatable_bonds>  (282) 
0

>  <r_i_docking_score>  (282) 
-4.99496

>  <r_i_glide_ligand_efficiency>  (282) 
-0.293821

>  <r_i_glide_ligand_efficiency_sa>  (282) 
-0.755496

>  <r_i_glide_ligand_efficiency_ln>  (282) 
-1.30307

>  <r_i_glide_gscore>  (282) 
-4.99496

>  <r_i_glide_lipo>  (282) 
-1.63013

>  <r_i_glide_hbond>  (282) 
0

>  <r_i_glide_metal>  (282) 
-0

>  <r_i_glide_rewards>  (282) 
-2.89288

>  <r_i_glide_evdw>  (282) 
-13.0889

>  <r_i_glide_ecoul>  (282) 
1.21666

>  <r_i_glide_erotb>  (282) 
0

>  <r_i_glide_esite>  (282) 
0

>  <r_i_glide_emodel>  (282) 
-13.1862

>  <r_i_glide_energy>  (282) 
-11.8722

>  <r_i_glide_einternal>  (282) 
0

>  <r_i_glide_intrahb_reward>  (282) 
-0

>  <i_i_glide_confnum>  (282) 
1

>  <i_i_glide_posenum>  (282) 
2

>  <r_i_glide_eff_state_penalty>  (282) 
0

>  <ligand_id>  (282) 
80

>  <original_smiles>  (282) 
CC1=CCCC2CC3(C=CC(=O)O3)CCC12C

>  <smiles>  (282) 
[H]C1=C([H])C2(OC1=O)C([H])([H])C([H])([H])C1(C([H])([H])[H])C(C([H])([H])[H])=C([H])C([H])([H])C([H])([H])C1([H])C2([H])[H]

$$$$
80:0:1
     RDKit          3D

 37 39  0  0  1  0  0  0  0  0999 V2000
    3.1414   -4.7809    1.0898 C   0  0  0  0  0  0  0  0  0  0  0  0
    4.0897   -3.6313    0.7810 C   0  0  0  0  0  0  0  0  0  0  0  0
    4.7292   -2.9762    1.7719 C   0  0  0  0  0  0  0  0  0  0  0  0
    5.7184   -1.8382    1.5605 C   0  0  0  0  0  0  0  0  0  0  0  0
    6.1211   -1.6463    0.0869 C   0  0  0  0  0  0  0  0  0  0  0  0
    4.8987   -1.8488   -0.8322 C   0  0  1  0  0  0  0  0  0  0  0  0
    5.1857   -1.4995   -2.3144 C   0  0  0  0  0  0  0  0  0  0  0  0
    3.9572   -1.6868   -3.2426 C   0  0  1  0  0  0  0  0  0  0  0  0
    2.9577   -0.6415   -2.9141 C   0  0  0  0  0  0  0  0  0  0  0  0
    2.6131    0.0989   -3.9824 C   0  0  0  0  0  0  0  0  0  0  0  0
    3.4294   -0.3555   -5.0810 C   0  0  0  0  0  0  0  0  0  0  0  0
    3.3882    0.1458   -6.1966 O   0  0  0  0  0  0  0  0  0  0  0  0
    4.2087   -1.4054   -4.6384 O   0  0  0  0  0  0  0  0  0  0  0  0
    3.2428   -3.0466   -3.0304 C   0  0  0  0  0  0  0  0  0  0  0  0
    2.9901   -3.3346   -1.5230 C   0  0  0  0  0  0  0  0  0  0  0  0
    4.3124   -3.2890   -0.7016 C   0  0  2  0  0  0  0  0  0  0  0  0
    5.3013   -4.3498   -1.2445 C   0  0  0  0  0  0  0  0  0  0  0  0
    3.4313   -5.6708    0.5334 H   0  0  0  0  0  0  0  0  0  0  0  0
    2.1197   -4.5257    0.8097 H   0  0  0  0  0  0  0  0  0  0  0  0
    3.1414   -5.0338    2.1501 H   0  0  0  0  0  0  0  0  0  0  0  0
    4.5710   -3.2585    2.8060 H   0  0  0  0  0  0  0  0  0  0  0  0
    5.2590   -0.9232    1.9391 H   0  0  0  0  0  0  0  0  0  0  0  0
    6.6132   -2.0261    2.1524 H   0  0  0  0  0  0  0  0  0  0  0  0
    6.5568   -0.6517   -0.0396 H   0  0  0  0  0  0  0  0  0  0  0  0
    6.9175   -2.3448   -0.1749 H   0  0  0  0  0  0  0  0  0  0  0  0
    4.1536   -1.1405   -0.4499 H   0  0  0  0  0  0  0  0  0  0  0  0
    5.4944   -0.4495   -2.3372 H   0  0  0  0  0  0  0  0  0  0  0  0
    5.9984   -2.1178   -2.6970 H   0  0  0  0  0  0  0  0  0  0  0  0
    2.4617   -0.5371   -1.9539 H   0  0  0  0  0  0  0  0  0  0  0  0
    1.8753    0.8751   -4.0547 H   0  0  0  0  0  0  0  0  0  0  0  0
    2.2746   -3.0714   -3.5384 H   0  0  0  0  0  0  0  0  0  0  0  0
    3.8119   -3.8550   -3.4909 H   0  0  0  0  0  0  0  0  0  0  0  0
    2.2559   -2.6448   -1.0942 H   0  0  0  0  0  0  0  0  0  0  0  0
    2.4958   -4.3008   -1.4475 H   0  0  0  0  0  0  0  0  0  0  0  0
    5.6287   -4.1757   -2.2699 H   0  0  0  0  0  0  0  0  0  0  0  0
    4.8428   -5.3419   -1.2444 H   0  0  0  0  0  0  0  0  0  0  0  0
    6.2085   -4.4139   -0.6403 H   0  0  0  0  0  0  0  0  0  0  0  0
  1  2  1  0
  1 18  1  0
  1 19  1  0
  1 20  1  0
  2 16  1  0
  2  3  2  0
  3  4  1  0
  3 21  1  0
  4  5  1  0
  4 22  1  0
  4 23  1  0
  5  6  1  0
  5 24  1  0
  5 25  1  0
  6 16  1  0
  6  7  1  0
  6 26  1  1
  7  8  1  0
  7 27  1  0
  7 28  1  0
  8 13  1  6
  8  9  1  0
  8 14  1  0
  9 10  2  0
  9 29  1  0
 10 11  1  0
 10 30  1  0
 11 12  2  0
 11 13  1  0
 14 15  1  0
 14 31  1  0
 14 32  1  0
 15 16  1  0
 15 33  1  0
 15 34  1  0
 16 17  1  6
 17 35  1  0
 17 36  1  0
 17 37  1  0
M  END
>  <i_m_ct_stereo_status>  (283) 
1

>  <s_m_source_file>  (283) 
/var/tmp/pbs.5076255.sched01/tmptyawoosb/846vw0lfia.sdf

>  <i_m_source_file_index>  (283) 
29

>  <i_lp_mmshare_version>  (283) 
48012

>  <i_f3d_flags>  (283) 
0

>  <s_epik_input>  (283) 
W0NIMl0xW0NIMl1bQ0hdPUMoW0NIM10pW0NAQF0oW0NIM10pKFtDSDJdW0NIMl0yKVtDQEBIXTFbQ0gyXVtDQF0yM1tDSF09W0NIXUMoPU8pTzM=

>  <s_epik_cmdline>  (283) 
J2VwaWtfcHl0aG9uJywgJy1waHQnLCAnMi4wJywgJy1waCcsICc3LjAnLCAnLXRuJywgJzgnLCAnLW1hJywgJzIwMCcsICctaW1hZScsICc8aW5maWxlLm1hZT4nLCAnLW9tYWUnLCAnPG91dGZpbGUubWFlPic=

>  <r_lp_tautomer_probability>  (283) 
1

>  <r_epik_Ionization_Penalty>  (283) 
0

>  <r_epik_Ionization_Penalty_Charging>  (283) 
0

>  <r_epik_Ionization_Penalty_Neutral>  (283) 
0

>  <r_epik_State_Penalty>  (283) 
-0

>  <r_epik_Charging_Adjusted_Penalty>  (283) 
0

>  <i_epik_Tot_Q>  (283) 
0

>  <i_epik_Tot_abs_Q>  (283) 
0

>  <s_epik_Chemistry_Notes>  (283) 
This compound has an ester and may undergo hydrolysis at high or low pH.

>  <s_lp_Force_Field>  (283) 
OPLS3e

>  <r_lp_Energy>  (283) 
14.2651

>  <b_lp_Chiralities_Consistent>  (283) 
1

>  <s_lp_Variant>  (283) 
80:0-1

>  <s_i_glide_gridfile>  (283) 
pfpi4k_grid

>  <i_i_glide_lignum>  (283) 
29

>  <i_i_glide_rotatable_bonds>  (283) 
0

>  <r_i_docking_score>  (283) 
-3.90874

>  <r_i_glide_ligand_efficiency>  (283) 
-0.229926

>  <r_i_glide_ligand_efficiency_sa>  (283) 
-0.591205

>  <r_i_glide_ligand_efficiency_ln>  (283) 
-1.0197

>  <r_i_glide_gscore>  (283) 
-3.90874

>  <r_i_glide_lipo>  (283) 
-0.472693

>  <r_i_glide_hbond>  (283) 
-0.32

>  <r_i_glide_metal>  (283) 
-0

>  <r_i_glide_rewards>  (283) 
-2.02229

>  <r_i_glide_evdw>  (283) 
-8.97286

>  <r_i_glide_ecoul>  (283) 
-4.30081

>  <r_i_glide_erotb>  (283) 
0

>  <r_i_glide_esite>  (283) 
0

>  <r_i_glide_emodel>  (283) 
-13.3619

>  <r_i_glide_energy>  (283) 
-13.2737

>  <r_i_glide_einternal>  (283) 
0

>  <r_i_glide_intrahb_reward>  (283) 
-0

>  <i_i_glide_confnum>  (283) 
2

>  <i_i_glide_posenum>  (283) 
1

>  <r_i_glide_eff_state_penalty>  (283) 
0

>  <ligand_id>  (283) 
80

>  <original_smiles>  (283) 
CC1=CCCC2CC3(C=CC(=O)O3)CCC12C

>  <smiles>  (283) 
[H]C1=C([H])C2(OC1=O)C([H])([H])C([H])([H])C1(C([H])([H])[H])C(C([H])([H])[H])=C([H])C([H])([H])C([H])([H])C1([H])C2([H])[H]

$$$$
81:0:0
     RDKit          3D

 53 56  0  0  1  0  0  0  0  0999 V2000
   -7.7968  -11.4170   -6.4786 C   0  0  0  0  0  0  0  0  0  0  0  0
   -6.9705  -10.8583   -7.6651 C   0  0  1  0  0  0  0  0  0  0  0  0
   -5.5255  -10.5377   -7.1842 C   0  0  0  0  0  0  0  0  0  0  0  0
   -4.7463  -11.7812   -6.7203 C   0  0  0  0  0  0  0  0  0  0  0  0
   -4.6935  -12.8293   -7.8410 C   0  0  1  0  0  0  0  0  0  0  0  0
   -4.0634  -13.9932   -7.3543 O   0  0  0  0  0  0  0  0  0  0  0  0
   -6.0947  -13.2045   -8.3582 C   0  0  0  0  0  0  0  0  0  0  0  0
   -6.9053  -11.9662   -8.7357 C   0  0  0  0  0  0  0  0  0  0  0  0
   -7.5404  -11.8791   -9.9186 C   0  0  0  0  0  0  0  0  0  0  0  0
   -8.3859  -10.7038  -10.3642 C   0  0  0  0  0  0  0  0  0  0  0  0
   -8.8176   -9.8274   -9.1828 C   0  0  1  0  0  0  0  0  0  0  0  0
   -7.6174   -9.5442   -8.2397 C   0  0  1  0  0  0  0  0  0  0  0  0
   -8.0562   -8.5931   -7.1199 C   0  0  0  0  0  0  0  0  0  0  0  0
   -8.7062   -7.3221   -7.6371 C   0  0  0  0  0  0  0  0  0  0  0  0
   -9.9992   -7.6055   -8.4982 C   0  0  2  0  0  0  0  0  0  0  0  0
  -11.1786   -8.2388   -7.6939 C   0  0  0  0  0  0  0  0  0  0  0  0
   -9.6004   -8.5593   -9.6443 C   0  0  1  0  0  0  0  0  0  0  0  0
   -8.9169   -7.6487  -10.6689 C   0  0  0  0  0  0  0  0  0  0  0  0
   -9.5750   -6.2693  -10.5204 C   0  0  0  0  0  0  0  0  0  0  0  0
  -10.4412   -6.2915   -9.2238 C   0  0  1  0  0  0  0  0  0  0  0  0
  -11.7787   -6.4009   -9.6984 O   0  0  0  0  0  0  0  0  0  0  0  0
  -10.3129   -5.0829   -8.3723 C   0  0  0  0  0  0  0  0  0  0  0  0
  -10.2035   -4.1220   -7.6260 C   0  0  0  0  0  0  0  0  0  0  0  0
  -10.1027   -2.7935   -6.6518 Cl  0  0  0  0  0  0  0  0  0  0  0  0
   -7.7603  -10.7608   -5.6115 H   0  0  0  0  0  0  0  0  0  0  0  0
   -7.4634  -12.3860   -6.1148 H   0  0  0  0  0  0  0  0  0  0  0  0
   -8.8388  -11.5451   -6.7475 H   0  0  0  0  0  0  0  0  0  0  0  0
   -4.9609  -10.0531   -7.9915 H   0  0  0  0  0  0  0  0  0  0  0  0
   -5.5344   -9.8112   -6.3724 H   0  0  0  0  0  0  0  0  0  0  0  0
   -3.7368  -11.4947   -6.4110 H   0  0  0  0  0  0  0  0  0  0  0  0
   -5.2172  -12.1970   -5.8318 H   0  0  0  0  0  0  0  0  0  0  0  0
   -4.1022  -12.4317   -8.6676 H   0  0  0  0  0  0  0  0  0  0  0  0
   -3.5046  -13.7548   -6.6196 H   0  0  0  0  0  0  0  0  0  0  0  0
   -6.0234  -13.8867   -9.2092 H   0  0  0  0  0  0  0  0  0  0  0  0
   -6.6428  -13.7496   -7.5884 H   0  0  0  0  0  0  0  0  0  0  0  0
   -7.4484  -12.6900  -10.6321 H   0  0  0  0  0  0  0  0  0  0  0  0
   -7.7981  -10.1256  -11.0753 H   0  0  0  0  0  0  0  0  0  0  0  0
   -9.2577  -11.0725  -10.8996 H   0  0  0  0  0  0  0  0  0  0  0  0
   -9.5291  -10.4287   -8.6214 H   0  0  0  0  0  0  0  0  0  0  0  0
   -6.8621   -9.0129   -8.8376 H   0  0  0  0  0  0  0  0  0  0  0  0
   -8.7965   -9.0848   -6.5060 H   0  0  0  0  0  0  0  0  0  0  0  0
   -7.2252   -8.3385   -6.4586 H   0  0  0  0  0  0  0  0  0  0  0  0
   -8.9182   -6.7070   -6.7559 H   0  0  0  0  0  0  0  0  0  0  0  0
   -7.9534   -6.7589   -8.2089 H   0  0  0  0  0  0  0  0  0  0  0  0
  -12.0452   -8.5227   -8.2912 H   0  0  0  0  0  0  0  0  0  0  0  0
  -11.5703   -7.5542   -6.9536 H   0  0  0  0  0  0  0  0  0  0  0  0
  -10.9008   -9.1516   -7.1701 H   0  0  0  0  0  0  0  0  0  0  0  0
  -10.5179   -8.9156  -10.1200 H   0  0  0  0  0  0  0  0  0  0  0  0
   -7.8506   -7.5685  -10.4606 H   0  0  0  0  0  0  0  0  0  0  0  0
   -9.0159   -8.0460  -11.6735 H   0  0  0  0  0  0  0  0  0  0  0  0
   -8.7965   -5.5084  -10.4851 H   0  0  0  0  0  0  0  0  0  0  0  0
  -10.1800   -6.0501  -11.4057 H   0  0  0  0  0  0  0  0  0  0  0  0
  -12.4032   -6.0344   -9.0603 H   0  0  0  0  0  0  0  0  0  0  0  0
  2  1  1  1
  1 25  1  0
  1 26  1  0
  1 27  1  0
  2  8  1  0
  2 12  1  0
  2  3  1  0
  3  4  1  0
  3 28  1  0
  3 29  1  0
  4  5  1  0
  4 30  1  0
  4 31  1  0
  5  6  1  0
  5  7  1  0
  5 32  1  6
  6 33  1  0
  7  8  1  0
  7 34  1  0
  7 35  1  0
  8  9  2  0
  9 10  1  0
  9 36  1  0
 10 11  1  0
 10 37  1  0
 10 38  1  0
 11 17  1  0
 11 12  1  0
 11 39  1  1
 12 13  1  0
 12 40  1  6
 13 14  1  0
 13 41  1  0
 13 42  1  0
 14 15  1  0
 14 43  1  0
 14 44  1  0
 15 20  1  0
 15 16  1  1
 15 17  1  0
 16 45  1  0
 16 46  1  0
 16 47  1  0
 17 18  1  0
 17 48  1  6
 18 19  1  0
 18 49  1  0
 18 50  1  0
 19 20  1  0
 19 51  1  0
 19 52  1  0
 20 21  1  0
 20 22  1  1
 21 53  1  0
 22 23  3  0
 23 24  1  0
M  END
>  <i_m_ct_stereo_status>  (284) 
1

>  <s_m_source_file>  (284) 
/var/tmp/pbs.5076255.sched01/tmptyawoosb/846vw0lfia.sdf

>  <i_m_source_file_index>  (284) 
30

>  <i_lp_mmshare_version>  (284) 
48012

>  <i_f3d_flags>  (284) 
0

>  <s_epik_input>  (284) 
W0NIMl0xW0NIMl1bQ0BASF0oW09IXSlbQ0gyXUMoW0NAQF0xMltDSDNdKT1bQ0hdW0NIMl1bQ0BIXTNbQ0BIXTJbQ0gyXVtDSDJdW0NAXTQoW0NIM10pW0NASF0zW0NIMl1bQ0gyXVtDQF00KFtPSF0pQyNDQ2w=

>  <s_epik_cmdline>  (284) 
J2VwaWtfcHl0aG9uJywgJy1waHQnLCAnMi4wJywgJy1waCcsICc3LjAnLCAnLXRuJywgJzgnLCAnLW1hJywgJzIwMCcsICctaW1hZScsICc8aW5maWxlLm1hZT4nLCAnLW9tYWUnLCAnPG91dGZpbGUubWFlPic=

>  <r_lp_tautomer_probability>  (284) 
1

>  <r_epik_Ionization_Penalty>  (284) 
1.80729e-06

>  <r_epik_Ionization_Penalty_Charging>  (284) 
0

>  <r_epik_Ionization_Penalty_Neutral>  (284) 
1.80729e-06

>  <r_epik_State_Penalty>  (284) 
-0

>  <r_epik_Charging_Adjusted_Penalty>  (284) 
0

>  <i_epik_Tot_Q>  (284) 
0

>  <i_epik_Tot_abs_Q>  (284) 
0

>  <s_lp_Force_Field>  (284) 
OPLS3e

>  <r_lp_Energy>  (284) 
32.8333

>  <b_lp_Chiralities_Consistent>  (284) 
1

>  <s_lp_Variant>  (284) 
81:0-1

>  <s_i_glide_gridfile>  (284) 
pfpi4k_grid

>  <i_i_glide_lignum>  (284) 
30

>  <i_i_glide_rotatable_bonds>  (284) 
3

>  <r_i_docking_score>  (284) 
-4.06915

>  <r_i_glide_ligand_efficiency>  (284) 
-0.169548

>  <r_i_glide_ligand_efficiency_sa>  (284) 
-0.489061

>  <r_i_glide_ligand_efficiency_ln>  (284) 
-0.973934

>  <r_i_glide_gscore>  (284) 
-4.06915

>  <r_i_glide_lipo>  (284) 
-1.07759

>  <r_i_glide_hbond>  (284) 
-0.16

>  <r_i_glide_metal>  (284) 
-0

>  <r_i_glide_rewards>  (284) 
-1.15805

>  <r_i_glide_evdw>  (284) 
-21.9249

>  <r_i_glide_ecoul>  (284) 
-4.89124

>  <r_i_glide_erotb>  (284) 
0.156423

>  <r_i_glide_esite>  (284) 
0

>  <r_i_glide_emodel>  (284) 
-30.2791

>  <r_i_glide_energy>  (284) 
-26.8162

>  <r_i_glide_einternal>  (284) 
5.87026

>  <r_i_glide_intrahb_reward>  (284) 
-0

>  <i_i_glide_confnum>  (284) 
2

>  <i_i_glide_posenum>  (284) 
22

>  <r_i_glide_eff_state_penalty>  (284) 
0

>  <ligand_id>  (284) 
81

>  <original_smiles>  (284) 
CC12CCC(O)CC1=CCC1C2CCC2(C)C1CCC2(O)C#CCl

>  <smiles>  (284) 
[H]OC1([H])C([H])([H])C2=C([H])C([H])([H])C3([H])C([H])(C([H])([H])C([H])([H])C4(C([H])([H])[H])C(C#CCl)(O[H])C([H])([H])C([H])([H])C34[H])C2(C([H])([H])[H])C([H])([H])C1([H])[H]

$$$$
81:0:1
     RDKit          3D

 53 56  0  0  1  0  0  0  0  0999 V2000
    3.5158   -7.4379    4.4158 C   0  0  0  0  0  0  0  0  0  0  0  0
    2.0534   -7.9071    4.6194 C   0  0  1  0  0  0  0  0  0  0  0  0
    1.4780   -8.4206    3.2631 C   0  0  0  0  0  0  0  0  0  0  0  0
    2.2162   -9.6588    2.7276 C   0  0  0  0  0  0  0  0  0  0  0  0
    2.1710  -10.7939    3.7661 C   0  0  1  0  0  0  0  0  0  0  0  0
    2.9498  -11.8599    3.2781 O   0  0  0  0  0  0  0  0  0  0  0  0
    2.7358  -10.3564    5.1259 C   0  0  0  0  0  0  0  0  0  0  0  0
    2.0670   -9.0802    5.6172 C   0  0  0  0  0  0  0  0  0  0  0  0
    1.5520   -9.0028    6.8657 C   0  0  0  0  0  0  0  0  0  0  0  0
    0.8992   -7.7655    7.4440 C   0  0  0  0  0  0  0  0  0  0  0  0
    1.2800   -6.4987    6.6596 C   0  0  1  0  0  0  0  0  0  0  0  0
    1.1538   -6.7190    5.1301 C   0  0  1  0  0  0  0  0  0  0  0  0
    1.4504   -5.4055    4.3669 C   0  0  0  0  0  0  0  0  0  0  0  0
    0.6197   -4.2321    4.8687 C   0  0  0  0  0  0  0  0  0  0  0  0
    0.8180   -3.9363    6.3829 C   0  0  2  0  0  0  0  0  0  0  0  0
    2.2608   -3.4062    6.6387 C   0  0  0  0  0  0  0  0  0  0  0  0
    0.5500   -5.2323    7.1956 C   0  0  1  0  0  0  0  0  0  0  0  0
   -0.9794   -5.3185    7.2719 C   0  0  0  0  0  0  0  0  0  0  0  0
   -1.4890   -3.8751    7.2700 C   0  0  0  0  0  0  0  0  0  0  0  0
   -0.2945   -2.9571    6.9025 C   0  0  1  0  0  0  0  0  0  0  0  0
    0.0898   -2.4023    8.1427 O   0  0  0  0  0  0  0  0  0  0  0  0
   -0.6803   -1.8575    5.9763 C   0  0  0  0  0  0  0  0  0  0  0  0
   -0.9923   -0.9932    5.1724 C   0  0  0  0  0  0  0  0  0  0  0  0
   -1.3846    0.1424    4.0302 Cl  0  0  0  0  0  0  0  0  0  0  0  0
    3.6134   -6.7249    3.5996 H   0  0  0  0  0  0  0  0  0  0  0  0
    4.2144   -8.2354    4.1735 H   0  0  0  0  0  0  0  0  0  0  0  0
    3.9044   -6.9673    5.3148 H   0  0  0  0  0  0  0  0  0  0  0  0
    0.4185   -8.6778    3.3687 H   0  0  0  0  0  0  0  0  0  0  0  0
    1.5118   -7.6402    2.5004 H   0  0  0  0  0  0  0  0  0  0  0  0
    1.7724   -9.9846    1.7832 H   0  0  0  0  0  0  0  0  0  0  0  0
    3.2465   -9.4040    2.4877 H   0  0  0  0  0  0  0  0  0  0  0  0
    1.1385  -11.1256    3.8878 H   0  0  0  0  0  0  0  0  0  0  0  0
    2.5489  -12.6864    3.5230 H   0  0  0  0  0  0  0  0  0  0  0  0
    2.6301  -11.1588    5.8624 H   0  0  0  0  0  0  0  0  0  0  0  0
    3.8088  -10.1784    5.0470 H   0  0  0  0  0  0  0  0  0  0  0  0
    1.5962   -9.8700    7.5096 H   0  0  0  0  0  0  0  0  0  0  0  0
   -0.1769   -7.9389    7.4582 H   0  0  0  0  0  0  0  0  0  0  0  0
    1.2153   -7.6667    8.4834 H   0  0  0  0  0  0  0  0  0  0  0  0
    2.3352   -6.3310    6.8637 H   0  0  0  0  0  0  0  0  0  0  0  0
    0.1065   -6.9788    4.9433 H   0  0  0  0  0  0  0  0  0  0  0  0
    2.4826   -5.1020    4.4812 H   0  0  0  0  0  0  0  0  0  0  0  0
    1.2892   -5.5289    3.3002 H   0  0  0  0  0  0  0  0  0  0  0  0
    0.9097   -3.3680    4.2638 H   0  0  0  0  0  0  0  0  0  0  0  0
   -0.4278   -4.4382    4.6389 H   0  0  0  0  0  0  0  0  0  0  0  0
    2.4881   -3.2311    7.6878 H   0  0  0  0  0  0  0  0  0  0  0  0
    2.4426   -2.4757    6.1038 H   0  0  0  0  0  0  0  0  0  0  0  0
    3.0339   -4.1009    6.3145 H   0  0  0  0  0  0  0  0  0  0  0  0
    0.8986   -5.0780    8.2162 H   0  0  0  0  0  0  0  0  0  0  0  0
   -1.3796   -5.8428    6.4122 H   0  0  0  0  0  0  0  0  0  0  0  0
   -1.3014   -5.8441    8.1677 H   0  0  0  0  0  0  0  0  0  0  0  0
   -2.3203   -3.7932    6.5614 H   0  0  0  0  0  0  0  0  0  0  0  0
   -1.9010   -3.6505    8.2590 H   0  0  0  0  0  0  0  0  0  0  0  0
    0.9968   -2.6606    8.3059 H   0  0  0  0  0  0  0  0  0  0  0  0
  2  1  1  6
  1 25  1  0
  1 26  1  0
  1 27  1  0
  2  8  1  0
  2 12  1  0
  2  3  1  0
  3  4  1  0
  3 28  1  0
  3 29  1  0
  4  5  1  0
  4 30  1  0
  4 31  1  0
  5  6  1  0
  5  7  1  0
  5 32  1  1
  6 33  1  0
  7  8  1  0
  7 34  1  0
  7 35  1  0
  8  9  2  0
  9 10  1  0
  9 36  1  0
 10 11  1  0
 10 37  1  0
 10 38  1  0
 11 17  1  0
 11 12  1  0
 11 39  1  6
 12 13  1  0
 12 40  1  1
 13 14  1  0
 13 41  1  0
 13 42  1  0
 14 15  1  0
 14 43  1  0
 14 44  1  0
 15 20  1  0
 15 16  1  6
 15 17  1  0
 16 45  1  0
 16 46  1  0
 16 47  1  0
 17 18  1  0
 17 48  1  1
 18 19  1  0
 18 49  1  0
 18 50  1  0
 19 20  1  0
 19 51  1  0
 19 52  1  0
 20 21  1  0
 20 22  1  6
 21 53  1  0
 22 23  3  0
 23 24  1  0
M  END
>  <i_m_ct_stereo_status>  (285) 
1

>  <s_m_source_file>  (285) 
/var/tmp/pbs.5076255.sched01/tmptyawoosb/846vw0lfia.sdf

>  <i_m_source_file_index>  (285) 
30

>  <i_lp_mmshare_version>  (285) 
48012

>  <i_f3d_flags>  (285) 
0

>  <s_epik_input>  (285) 
W0NIMl0xW0NIMl1bQ0BASF0oW09IXSlbQ0gyXUMoW0NAQF0xMltDSDNdKT1bQ0hdW0NIMl1bQ0BIXTNbQ0BIXTJbQ0gyXVtDSDJdW0NAXTQoW0NIM10pW0NASF0zW0NIMl1bQ0gyXVtDQF00KFtPSF0pQyNDQ2w=

>  <s_epik_cmdline>  (285) 
J2VwaWtfcHl0aG9uJywgJy1waHQnLCAnMi4wJywgJy1waCcsICc3LjAnLCAnLXRuJywgJzgnLCAnLW1hJywgJzIwMCcsICctaW1hZScsICc8aW5maWxlLm1hZT4nLCAnLW9tYWUnLCAnPG91dGZpbGUubWFlPic=

>  <r_lp_tautomer_probability>  (285) 
1

>  <r_epik_Ionization_Penalty>  (285) 
1.80729e-06

>  <r_epik_Ionization_Penalty_Charging>  (285) 
0

>  <r_epik_Ionization_Penalty_Neutral>  (285) 
1.80729e-06

>  <r_epik_State_Penalty>  (285) 
-0

>  <r_epik_Charging_Adjusted_Penalty>  (285) 
0

>  <i_epik_Tot_Q>  (285) 
0

>  <i_epik_Tot_abs_Q>  (285) 
0

>  <s_lp_Force_Field>  (285) 
OPLS3e

>  <r_lp_Energy>  (285) 
32.8333

>  <b_lp_Chiralities_Consistent>  (285) 
1

>  <s_lp_Variant>  (285) 
81:0-1

>  <s_i_glide_gridfile>  (285) 
pfpi4k_grid

>  <i_i_glide_lignum>  (285) 
30

>  <i_i_glide_rotatable_bonds>  (285) 
3

>  <r_i_docking_score>  (285) 
-3.03331

>  <r_i_glide_ligand_efficiency>  (285) 
-0.126388

>  <r_i_glide_ligand_efficiency_sa>  (285) 
-0.364565

>  <r_i_glide_ligand_efficiency_ln>  (285) 
-0.726009

>  <r_i_glide_gscore>  (285) 
-3.03331

>  <r_i_glide_lipo>  (285) 
-0.147631

>  <r_i_glide_hbond>  (285) 
-0.382474

>  <r_i_glide_metal>  (285) 
-0

>  <r_i_glide_rewards>  (285) 
-1.03018

>  <r_i_glide_evdw>  (285) 
-19.9761

>  <r_i_glide_ecoul>  (285) 
-4.20424

>  <r_i_glide_erotb>  (285) 
0.156423

>  <r_i_glide_esite>  (285) 
0

>  <r_i_glide_emodel>  (285) 
-26.3578

>  <r_i_glide_energy>  (285) 
-24.1803

>  <r_i_glide_einternal>  (285) 
4.92367

>  <r_i_glide_intrahb_reward>  (285) 
-0

>  <i_i_glide_confnum>  (285) 
2

>  <i_i_glide_posenum>  (285) 
8

>  <r_i_glide_eff_state_penalty>  (285) 
0

>  <ligand_id>  (285) 
81

>  <original_smiles>  (285) 
CC12CCC(O)CC1=CCC1C2CCC2(C)C1CCC2(O)C#CCl

>  <smiles>  (285) 
[H]OC1([H])C([H])([H])C2=C([H])C([H])([H])C3([H])C([H])(C([H])([H])C([H])([H])C4(C([H])([H])[H])C(C#CCl)(O[H])C([H])([H])C([H])([H])C34[H])C2(C([H])([H])[H])C([H])([H])C1([H])[H]

$$$$
81:0:2
     RDKit          3D

 53 56  0  0  1  0  0  0  0  0999 V2000
    4.5826   -6.1499    3.6932 C   0  0  0  0  0  0  0  0  0  0  0  0
    3.3272   -7.0576    3.7855 C   0  0  1  0  0  0  0  0  0  0  0  0
    2.8565   -7.4431    2.3512 C   0  0  0  0  0  0  0  0  0  0  0  0
    3.8919   -8.2878    1.5815 C   0  0  0  0  0  0  0  0  0  0  0  0
    4.2434   -9.5621    2.3667 C   0  0  1  0  0  0  0  0  0  0  0  0
    5.2581  -10.2562    1.6814 O   0  0  0  0  0  0  0  0  0  0  0  0
    4.7173   -9.2462    3.7937 C   0  0  0  0  0  0  0  0  0  0  0  0
    3.7337   -8.3425    4.5286 C   0  0  0  0  0  0  0  0  0  0  0  0
    3.2812   -8.6626    5.7631 C   0  0  0  0  0  0  0  0  0  0  0  0
    2.3321   -7.8080    6.5745 C   0  0  0  0  0  0  0  0  0  0  0  0
    2.2913   -6.3572    6.0659 C   0  0  1  0  0  0  0  0  0  0  0  0
    2.1553   -6.3039    4.5220 C   0  0  1  0  0  0  0  0  0  0  0  0
    2.0161   -4.8415    4.0447 C   0  0  0  0  0  0  0  0  0  0  0  0
    0.9048   -4.0801    4.7657 C   0  0  0  0  0  0  0  0  0  0  0  0
    1.0969   -4.0417    6.3115 C   0  0  2  0  0  0  0  0  0  0  0  0
    2.3358   -3.1730    6.6759 C   0  0  0  0  0  0  0  0  0  0  0  0
    1.2543   -5.4878    6.8409 C   0  0  1  0  0  0  0  0  0  0  0  0
   -0.1771   -6.0295    6.9037 C   0  0  0  0  0  0  0  0  0  0  0  0
   -1.0885   -4.8255    7.1843 C   0  0  0  0  0  0  0  0  0  0  0  0
   -0.2237   -3.5471    7.0175 C   0  0  1  0  0  0  0  0  0  0  0  0
    0.0512   -3.1354    8.3398 O   0  0  0  0  0  0  0  0  0  0  0  0
   -0.9417   -2.4512    6.3249 C   0  0  0  0  0  0  0  0  0  0  0  0
   -1.4884   -1.5500    5.7087 C   0  0  0  0  0  0  0  0  0  0  0  0
   -2.1898   -0.3208    4.8381 Cl  0  0  0  0  0  0  0  0  0  0  0  0
    4.4287   -5.2936    3.0394 H   0  0  0  0  0  0  0  0  0  0  0  0
    5.4674   -6.6478    3.2997 H   0  0  0  0  0  0  0  0  0  0  0  0
    4.8661   -5.7715    4.6705 H   0  0  0  0  0  0  0  0  0  0  0  0
    1.9196   -8.0118    2.3968 H   0  0  0  0  0  0  0  0  0  0  0  0
    2.6224   -6.5519    1.7643 H   0  0  0  0  0  0  0  0  0  0  0  0
    3.5107   -8.5474    0.5904 H   0  0  0  0  0  0  0  0  0  0  0  0
    4.7872   -7.6908    1.4021 H   0  0  0  0  0  0  0  0  0  0  0  0
    3.3577  -10.2008    2.4203 H   0  0  0  0  0  0  0  0  0  0  0  0
    4.8397  -10.9211    1.1226 H   0  0  0  0  0  0  0  0  0  0  0  0
    4.8817  -10.1745    4.3474 H   0  0  0  0  0  0  0  0  0  0  0  0
    5.6908   -8.7527    3.7617 H   0  0  0  0  0  0  0  0  0  0  0  0
    3.6028   -9.5866    6.2264 H   0  0  0  0  0  0  0  0  0  0  0  0
    1.3517   -8.2857    6.5444 H   0  0  0  0  0  0  0  0  0  0  0  0
    2.6573   -7.8275    7.6130 H   0  0  0  0  0  0  0  0  0  0  0  0
    3.2618   -5.9313    6.3074 H   0  0  0  0  0  0  0  0  0  0  0  0
    1.2180   -6.8182    4.2810 H   0  0  0  0  0  0  0  0  0  0  0  0
    2.9232   -4.2773    4.2205 H   0  0  0  0  0  0  0  0  0  0  0  0
    1.8431   -4.7945    2.9712 H   0  0  0  0  0  0  0  0  0  0  0  0
    0.9096   -3.0723    4.3486 H   0  0  0  0  0  0  0  0  0  0  0  0
   -0.0526   -4.5299    4.4933 H   0  0  0  0  0  0  0  0  0  0  0  0
    2.5587   -3.1437    7.7430 H   0  0  0  0  0  0  0  0  0  0  0  0
    2.2211   -2.1435    6.3391 H   0  0  0  0  0  0  0  0  0  0  0  0
    3.2605   -3.5380    6.2240 H   0  0  0  0  0  0  0  0  0  0  0  0
    1.5998   -5.4426    7.8756 H   0  0  0  0  0  0  0  0  0  0  0  0
   -0.4607   -6.4799    5.9549 H   0  0  0  0  0  0  0  0  0  0  0  0
   -0.2730   -6.7970    7.6708 H   0  0  0  0  0  0  0  0  0  0  0  0
   -1.9331   -4.8548    6.4910 H   0  0  0  0  0  0  0  0  0  0  0  0
   -1.5217   -4.9039    8.1899 H   0  0  0  0  0  0  0  0  0  0  0  0
    0.9794   -3.3004    8.5081 H   0  0  0  0  0  0  0  0  0  0  0  0
  2  1  1  6
  1 25  1  0
  1 26  1  0
  1 27  1  0
  2  8  1  0
  2 12  1  0
  2  3  1  0
  3  4  1  0
  3 28  1  0
  3 29  1  0
  4  5  1  0
  4 30  1  0
  4 31  1  0
  5  6  1  0
  5  7  1  0
  5 32  1  1
  6 33  1  0
  7  8  1  0
  7 34  1  0
  7 35  1  0
  8  9  2  0
  9 10  1  0
  9 36  1  0
 10 11  1  0
 10 37  1  0
 10 38  1  0
 11 17  1  0
 11 12  1  0
 11 39  1  6
 12 13  1  0
 12 40  1  1
 13 14  1  0
 13 41  1  0
 13 42  1  0
 14 15  1  0
 14 43  1  0
 14 44  1  0
 15 20  1  0
 15 16  1  6
 15 17  1  0
 16 45  1  0
 16 46  1  0
 16 47  1  0
 17 18  1  0
 17 48  1  1
 18 19  1  0
 18 49  1  0
 18 50  1  0
 19 20  1  0
 19 51  1  0
 19 52  1  0
 20 21  1  0
 20 22  1  6
 21 53  1  0
 22 23  3  0
 23 24  1  0
M  END
>  <i_m_ct_stereo_status>  (286) 
1

>  <s_m_source_file>  (286) 
/var/tmp/pbs.5076255.sched01/tmptyawoosb/846vw0lfia.sdf

>  <i_m_source_file_index>  (286) 
30

>  <i_lp_mmshare_version>  (286) 
48012

>  <i_f3d_flags>  (286) 
0

>  <s_epik_input>  (286) 
W0NIMl0xW0NIMl1bQ0BASF0oW09IXSlbQ0gyXUMoW0NAQF0xMltDSDNdKT1bQ0hdW0NIMl1bQ0BIXTNbQ0BIXTJbQ0gyXVtDSDJdW0NAXTQoW0NIM10pW0NASF0zW0NIMl1bQ0gyXVtDQF00KFtPSF0pQyNDQ2w=

>  <s_epik_cmdline>  (286) 
J2VwaWtfcHl0aG9uJywgJy1waHQnLCAnMi4wJywgJy1waCcsICc3LjAnLCAnLXRuJywgJzgnLCAnLW1hJywgJzIwMCcsICctaW1hZScsICc8aW5maWxlLm1hZT4nLCAnLW9tYWUnLCAnPG91dGZpbGUubWFlPic=

>  <r_lp_tautomer_probability>  (286) 
1

>  <r_epik_Ionization_Penalty>  (286) 
1.80729e-06

>  <r_epik_Ionization_Penalty_Charging>  (286) 
0

>  <r_epik_Ionization_Penalty_Neutral>  (286) 
1.80729e-06

>  <r_epik_State_Penalty>  (286) 
-0

>  <r_epik_Charging_Adjusted_Penalty>  (286) 
0

>  <i_epik_Tot_Q>  (286) 
0

>  <i_epik_Tot_abs_Q>  (286) 
0

>  <s_lp_Force_Field>  (286) 
OPLS3e

>  <r_lp_Energy>  (286) 
32.8333

>  <b_lp_Chiralities_Consistent>  (286) 
1

>  <s_lp_Variant>  (286) 
81:0-1

>  <s_i_glide_gridfile>  (286) 
pfpi4k_grid

>  <i_i_glide_lignum>  (286) 
30

>  <i_i_glide_rotatable_bonds>  (286) 
3

>  <r_i_docking_score>  (286) 
-3.00263

>  <r_i_glide_ligand_efficiency>  (286) 
-0.12511

>  <r_i_glide_ligand_efficiency_sa>  (286) 
-0.360879

>  <r_i_glide_ligand_efficiency_ln>  (286) 
-0.718668

>  <r_i_glide_gscore>  (286) 
-3.00263

>  <r_i_glide_lipo>  (286) 
-0.0363509

>  <r_i_glide_hbond>  (286) 
-0.173999

>  <r_i_glide_metal>  (286) 
-0

>  <r_i_glide_rewards>  (286) 
-1.03018

>  <r_i_glide_evdw>  (286) 
-16.9803

>  <r_i_glide_ecoul>  (286) 
-7.13007

>  <r_i_glide_erotb>  (286) 
0.156423

>  <r_i_glide_esite>  (286) 
0

>  <r_i_glide_emodel>  (286) 
-26.0649

>  <r_i_glide_energy>  (286) 
-24.1103

>  <r_i_glide_einternal>  (286) 
4.95523

>  <r_i_glide_intrahb_reward>  (286) 
-0

>  <i_i_glide_confnum>  (286) 
1

>  <i_i_glide_posenum>  (286) 
21

>  <r_i_glide_eff_state_penalty>  (286) 
0

>  <ligand_id>  (286) 
81

>  <original_smiles>  (286) 
CC12CCC(O)CC1=CCC1C2CCC2(C)C1CCC2(O)C#CCl

>  <smiles>  (286) 
[H]OC1([H])C([H])([H])C2=C([H])C([H])([H])C3([H])C([H])(C([H])([H])C([H])([H])C4(C([H])([H])[H])C(C#CCl)(O[H])C([H])([H])C([H])([H])C34[H])C2(C([H])([H])[H])C([H])([H])C1([H])[H]

$$$$
82:0:0
     RDKit          3D

 38 41  0  0  1  0  0  0  0  0999 V2000
    5.5418   -1.2246    2.0595 C   0  0  0  0  0  0  0  0  0  0  0  0
    5.0799   -2.0086    0.8092 C   0  0  1  0  0  0  0  0  0  0  0  0
    6.3279   -2.5718    0.1074 C   0  0  0  0  0  0  0  0  0  0  0  0
    5.8726   -3.3776   -1.1193 C   0  0  1  0  0  0  0  0  0  0  0  0
    5.0175   -4.4979   -0.7465 N   0  0  0  0  0  0  0  0  0  0  0  0
    4.2098   -4.3857    0.3928 C   0  0  0  0  0  0  0  0  0  0  0  0
    3.3944   -5.4726    0.7464 C   0  0  0  0  0  0  0  0  0  0  0  0
    2.5875   -5.3896    1.8958 C   0  0  0  0  0  0  0  0  0  0  0  0
    2.5935   -4.2592    2.6358 N   0  0  0  0  0  0  0  0  0  0  0  0
    3.3472   -3.1830    2.3254 C   0  0  0  0  0  0  0  0  0  0  0  0
    4.1926   -3.2064    1.1892 C   0  0  0  0  0  0  0  0  0  0  0  0
    5.2932   -2.4495   -2.1846 C   0  0  2  0  0  0  0  0  0  0  0  0
    4.6139   -1.1900   -1.6554 C   0  0  2  0  0  0  0  0  0  0  0  0
    4.3249   -1.0349   -0.1529 C   0  0  0  0  0  0  0  0  0  0  0  0
    3.8563   -2.1185   -2.5775 C   0  0  0  0  0  0  0  0  0  0  0  0
    3.6297   -1.6868   -4.0185 C   0  0  0  0  0  0  0  0  0  0  0  0
    2.6347   -2.8805   -2.1046 C   0  0  0  0  0  0  0  0  0  0  0  0
    6.2689   -0.4597    1.7871 H   0  0  0  0  0  0  0  0  0  0  0  0
    6.0213   -1.8791    2.7888 H   0  0  0  0  0  0  0  0  0  0  0  0
    4.7180   -0.7051    2.5520 H   0  0  0  0  0  0  0  0  0  0  0  0
    7.0118   -1.7708   -0.1838 H   0  0  0  0  0  0  0  0  0  0  0  0
    6.8869   -3.2190    0.7849 H   0  0  0  0  0  0  0  0  0  0  0  0
    6.7639   -3.8208   -1.5618 H   0  0  0  0  0  0  0  0  0  0  0  0
    4.8197   -5.2087   -1.4401 H   0  0  0  0  0  0  0  0  0  0  0  0
    3.4041   -6.3684    0.1439 H   0  0  0  0  0  0  0  0  0  0  0  0
    1.9475   -6.1890    2.2394 H   0  0  0  0  0  0  0  0  0  0  0  0
    3.2606   -2.3476    3.0051 H   0  0  0  0  0  0  0  0  0  0  0  0
    6.0160   -2.2729   -2.9696 H   0  0  0  0  0  0  0  0  0  0  0  0
    4.9145   -0.2556   -2.1155 H   0  0  0  0  0  0  0  0  0  0  0  0
    3.2487   -1.0493    0.0218 H   0  0  0  0  0  0  0  0  0  0  0  0
    4.6176   -0.0108    0.0895 H   0  0  0  0  0  0  0  0  0  0  0  0
    2.7317   -1.0749   -4.1057 H   0  0  0  0  0  0  0  0  0  0  0  0
    3.5081   -2.5567   -4.6625 H   0  0  0  0  0  0  0  0  0  0  0  0
    4.4700   -1.1013   -4.3893 H   0  0  0  0  0  0  0  0  0  0  0  0
    1.7328   -2.3367   -2.3775 H   0  0  0  0  0  0  0  0  0  0  0  0
    2.6180   -2.9903   -1.0278 H   0  0  0  0  0  0  0  0  0  0  0  0
    2.5950   -3.8576   -2.5855 H   0  0  0  0  0  0  0  0  0  0  0  0
    2.0066   -4.2204    3.4723 H   0  0  0  0  0  0  0  0  0  0  0  0
  2  1  1  1
  1 18  1  0
  1 19  1  0
  1 20  1  0
  2 11  1  0
  2 14  1  0
  2  3  1  0
  3  4  1  0
  3 21  1  0
  3 22  1  0
  4  5  1  0
  4 12  1  0
  4 23  1  6
  5  6  1  0
  5 24  1  0
  6 11  2  0
  6  7  1  0
  7  8  2  0
  7 25  1  0
  8  9  1  0
  8 26  1  0
  9 10  2  0
  9 38  1  0
 10 11  1  0
 10 27  1  0
 12 15  1  0
 12 13  1  0
 12 28  1  6
 13 14  1  0
 13 15  1  0
 13 29  1  6
 14 30  1  0
 14 31  1  0
 15 16  1  0
 15 17  1  0
 16 32  1  0
 16 33  1  0
 16 34  1  0
 17 35  1  0
 17 36  1  0
 17 37  1  0
M  CHG  1   9   1
M  END
>  <i_m_ct_stereo_status>  (287) 
1

>  <s_m_source_file>  (287) 
/var/tmp/pbs.5076255.sched01/tmptyawoosb/846vw0lfia.sdf

>  <i_m_source_file_index>  (287) 
31

>  <i_lp_mmshare_version>  (287) 
48012

>  <i_f3d_flags>  (287) 
0

>  <s_epik_input>  (287) 
W2NIXTFuW2NIXVtjSF1jKGMxW0NAQF0yM1tDSDNdKVtOSF1bQ0BIXShbQ0gyXTIpW0NAQEhdNFtDQEhdKFtDSDJdMylDNChbQ0gzXSlbQ0gzXQ==

>  <s_epik_cmdline>  (287) 
J2VwaWtfcHl0aG9uJywgJy1waHQnLCAnMi4wJywgJy1waCcsICc3LjAnLCAnLXRuJywgJzgnLCAnLW1hJywgJzIwMCcsICctaW1hZScsICc8aW5maWxlLm1hZT4nLCAnLW9tYWUnLCAnPG91dGZpbGUubWFlPic=

>  <r_lp_tautomer_probability>  (287) 
1

>  <r_epik_Ionization_Penalty>  (287) 
0.000313054

>  <r_epik_Ionization_Penalty_Charging>  (287) 
0.000312909

>  <r_epik_Ionization_Penalty_Neutral>  (287) 
1.4436e-07

>  <r_epik_State_Penalty>  (287) 
-0

>  <r_epik_Charging_Adjusted_Penalty>  (287) 
0.000312909

>  <i_epik_Tot_Q>  (287) 
1

>  <i_epik_Tot_abs_Q>  (287) 
1

>  <s_lp_Force_Field>  (287) 
OPLS3e

>  <r_lp_Energy>  (287) 
59.4506

>  <b_lp_Chiralities_Consistent>  (287) 
1

>  <s_lp_Variant>  (287) 
82:0-1

>  <s_i_glide_gridfile>  (287) 
pfpi4k_grid

>  <i_i_glide_lignum>  (287) 
31

>  <i_i_glide_rotatable_bonds>  (287) 
0

>  <r_i_docking_score>  (287) 
-3.94101

>  <r_i_glide_ligand_efficiency>  (287) 
-0.231824

>  <r_i_glide_ligand_efficiency_sa>  (287) 
-0.596085

>  <r_i_glide_ligand_efficiency_ln>  (287) 
-1.02812

>  <r_i_glide_gscore>  (287) 
-3.94101

>  <r_i_glide_lipo>  (287) 
-0.452255

>  <r_i_glide_hbond>  (287) 
-0.0480451

>  <r_i_glide_metal>  (287) 
-0

>  <r_i_glide_rewards>  (287) 
-1.8454

>  <r_i_glide_evdw>  (287) 
-23.4064

>  <r_i_glide_ecoul>  (287) 
-2.80528

>  <r_i_glide_erotb>  (287) 
0

>  <r_i_glide_esite>  (287) 
-0.00419156

>  <r_i_glide_emodel>  (287) 
-31.9241

>  <r_i_glide_energy>  (287) 
-26.2117

>  <r_i_glide_einternal>  (287) 
0

>  <r_i_glide_intrahb_reward>  (287) 
-0

>  <i_i_glide_confnum>  (287) 
2

>  <i_i_glide_posenum>  (287) 
20

>  <r_i_glide_eff_state_penalty>  (287) 
0

>  <ligand_id>  (287) 
82

>  <original_smiles>  (287) 
CC12CC(Nc3ccncc31)C1C(C2)C1(C)C

>  <smiles>  (287) 
[H]c1c2c(c([H])[n+]([H])c1[H])C1(C([H])([H])[H])C([H])([H])C([H])(N2[H])C2([H])C([H])(C1([H])[H])C2(C([H])([H])[H])C([H])([H])[H]

$$$$
82:0:1
     RDKit          3D

 38 41  0  0  1  0  0  0  0  0999 V2000
    4.4121   -3.8114    2.8483 C   0  0  0  0  0  0  0  0  0  0  0  0
    5.0170   -3.3441    1.5025 C   0  0  1  0  0  0  0  0  0  0  0  0
    5.4538   -1.8764    1.6517 C   0  0  0  0  0  0  0  0  0  0  0  0
    6.0835   -1.4125    0.3267 C   0  0  1  0  0  0  0  0  0  0  0  0
    7.2533   -2.2177   -0.0237 N   0  0  0  0  0  0  0  0  0  0  0  0
    7.3216   -3.5452    0.4105 C   0  0  0  0  0  0  0  0  0  0  0  0
    8.4681   -4.2830    0.0803 C   0  0  0  0  0  0  0  0  0  0  0  0
    8.5643   -5.6228    0.4922 C   0  0  0  0  0  0  0  0  0  0  0  0
    7.5554   -6.1830    1.1940 N   0  0  0  0  0  0  0  0  0  0  0  0
    6.4277   -5.5139    1.5233 C   0  0  0  0  0  0  0  0  0  0  0  0
    6.2693   -4.1566    1.1443 C   0  0  0  0  0  0  0  0  0  0  0  0
    5.0192   -1.3212   -0.7651 C   0  0  2  0  0  0  0  0  0  0  0  0
    3.8713   -2.3187   -0.6431 C   0  0  2  0  0  0  0  0  0  0  0  0
    3.9316   -3.4641    0.3818 C   0  0  0  0  0  0  0  0  0  0  0  0
    4.6766   -2.2570   -1.9223 C   0  0  0  0  0  0  0  0  0  0  0  0
    4.0426   -1.6142   -3.1474 C   0  0  0  0  0  0  0  0  0  0  0  0
    5.5206   -3.4381   -2.3740 C   0  0  0  0  0  0  0  0  0  0  0  0
    3.6037   -3.1469    3.1591 H   0  0  0  0  0  0  0  0  0  0  0  0
    5.1571   -3.8080    3.6472 H   0  0  0  0  0  0  0  0  0  0  0  0
    3.9849   -4.8140    2.7838 H   0  0  0  0  0  0  0  0  0  0  0  0
    4.6069   -1.2437    1.9196 H   0  0  0  0  0  0  0  0  0  0  0  0
    6.1783   -1.7772    2.4611 H   0  0  0  0  0  0  0  0  0  0  0  0
    6.4493   -0.3971    0.4855 H   0  0  0  0  0  0  0  0  0  0  0  0
    7.9529   -1.8902   -0.6731 H   0  0  0  0  0  0  0  0  0  0  0  0
    9.2499   -3.8230   -0.5079 H   0  0  0  0  0  0  0  0  0  0  0  0
    9.4071   -6.2544    0.2650 H   0  0  0  0  0  0  0  0  0  0  0  0
    5.6958   -6.0838    2.0828 H   0  0  0  0  0  0  0  0  0  0  0  0
    4.6901   -0.2949   -0.8970 H   0  0  0  0  0  0  0  0  0  0  0  0
    2.8782   -1.8927   -0.7153 H   0  0  0  0  0  0  0  0  0  0  0  0
    3.9890   -4.4214   -0.1360 H   0  0  0  0  0  0  0  0  0  0  0  0
    2.9485   -3.4760    0.8564 H   0  0  0  0  0  0  0  0  0  0  0  0
    3.4372   -2.3356   -3.6966 H   0  0  0  0  0  0  0  0  0  0  0  0
    4.8083   -1.2225   -3.8147 H   0  0  0  0  0  0  0  0  0  0  0  0
    3.3944   -0.7871   -2.8570 H   0  0  0  0  0  0  0  0  0  0  0  0
    4.9635   -4.0526   -3.0843 H   0  0  0  0  0  0  0  0  0  0  0  0
    5.7731   -4.0842   -1.5440 H   0  0  0  0  0  0  0  0  0  0  0  0
    6.4372   -3.0894   -2.8510 H   0  0  0  0  0  0  0  0  0  0  0  0
    7.6542   -7.1600    1.4847 H   0  0  0  0  0  0  0  0  0  0  0  0
  2  1  1  1
  1 18  1  0
  1 19  1  0
  1 20  1  0
  2 11  1  0
  2 14  1  0
  2  3  1  0
  3  4  1  0
  3 21  1  0
  3 22  1  0
  4  5  1  0
  4 12  1  0
  4 23  1  1
  5  6  1  0
  5 24  1  0
  6 11  2  0
  6  7  1  0
  7  8  2  0
  7 25  1  0
  8  9  1  0
  8 26  1  0
  9 10  2  0
  9 38  1  0
 10 11  1  0
 10 27  1  0
 12 15  1  0
 12 13  1  0
 12 28  1  6
 13 14  1  0
 13 15  1  0
 13 29  1  6
 14 30  1  0
 14 31  1  0
 15 16  1  0
 15 17  1  0
 16 32  1  0
 16 33  1  0
 16 34  1  0
 17 35  1  0
 17 36  1  0
 17 37  1  0
M  CHG  1   9   1
M  END
>  <i_m_ct_stereo_status>  (288) 
1

>  <s_m_source_file>  (288) 
/var/tmp/pbs.5076255.sched01/tmptyawoosb/846vw0lfia.sdf

>  <i_m_source_file_index>  (288) 
31

>  <i_lp_mmshare_version>  (288) 
48012

>  <i_f3d_flags>  (288) 
0

>  <s_epik_input>  (288) 
W2NIXTFuW2NIXVtjSF1jKGMxW0NAQF0yM1tDSDNdKVtOSF1bQ0BIXShbQ0gyXTIpW0NAQEhdNFtDQEhdKFtDSDJdMylDNChbQ0gzXSlbQ0gzXQ==

>  <s_epik_cmdline>  (288) 
J2VwaWtfcHl0aG9uJywgJy1waHQnLCAnMi4wJywgJy1waCcsICc3LjAnLCAnLXRuJywgJzgnLCAnLW1hJywgJzIwMCcsICctaW1hZScsICc8aW5maWxlLm1hZT4nLCAnLW9tYWUnLCAnPG91dGZpbGUubWFlPic=

>  <r_lp_tautomer_probability>  (288) 
1

>  <r_epik_Ionization_Penalty>  (288) 
0.000313054

>  <r_epik_Ionization_Penalty_Charging>  (288) 
0.000312909

>  <r_epik_Ionization_Penalty_Neutral>  (288) 
1.4436e-07

>  <r_epik_State_Penalty>  (288) 
-0

>  <r_epik_Charging_Adjusted_Penalty>  (288) 
0.000312909

>  <i_epik_Tot_Q>  (288) 
1

>  <i_epik_Tot_abs_Q>  (288) 
1

>  <s_lp_Force_Field>  (288) 
OPLS3e

>  <r_lp_Energy>  (288) 
59.4506

>  <b_lp_Chiralities_Consistent>  (288) 
1

>  <s_lp_Variant>  (288) 
82:0-1

>  <s_i_glide_gridfile>  (288) 
pfpi4k_grid

>  <i_i_glide_lignum>  (288) 
31

>  <i_i_glide_rotatable_bonds>  (288) 
0

>  <r_i_docking_score>  (288) 
-3.8916

>  <r_i_glide_ligand_efficiency>  (288) 
-0.228917

>  <r_i_glide_ligand_efficiency_sa>  (288) 
-0.588611

>  <r_i_glide_ligand_efficiency_ln>  (288) 
-1.01523

>  <r_i_glide_gscore>  (288) 
-3.8916

>  <r_i_glide_lipo>  (288) 
-0.869216

>  <r_i_glide_hbond>  (288) 
0

>  <r_i_glide_metal>  (288) 
-0

>  <r_i_glide_rewards>  (288) 
-1.8454

>  <r_i_glide_evdw>  (288) 
-23.437

>  <r_i_glide_ecoul>  (288) 
0.0144046

>  <r_i_glide_erotb>  (288) 
0

>  <r_i_glide_esite>  (288) 
-0.00728853

>  <r_i_glide_emodel>  (288) 
-29.0793

>  <r_i_glide_energy>  (288) 
-23.4226

>  <r_i_glide_einternal>  (288) 
0

>  <r_i_glide_intrahb_reward>  (288) 
-0

>  <i_i_glide_confnum>  (288) 
1

>  <i_i_glide_posenum>  (288) 
1

>  <r_i_glide_eff_state_penalty>  (288) 
0

>  <ligand_id>  (288) 
82

>  <original_smiles>  (288) 
CC12CC(Nc3ccncc31)C1C(C2)C1(C)C

>  <smiles>  (288) 
[H]c1c2c(c([H])[n+]([H])c1[H])C1(C([H])([H])[H])C([H])([H])C([H])(N2[H])C2([H])C([H])(C1([H])[H])C2(C([H])([H])[H])C([H])([H])[H]

$$$$
82:0:2
     RDKit          3D

 38 41  0  0  1  0  0  0  0  0999 V2000
    3.1036   -5.0343    2.3037 C   0  0  0  0  0  0  0  0  0  0  0  0
    3.9558   -4.2181    1.2995 C   0  0  1  0  0  0  0  0  0  0  0  0
    4.0314   -2.7658    1.8027 C   0  0  0  0  0  0  0  0  0  0  0  0
    4.8956   -1.9549    0.8236 C   0  0  1  0  0  0  0  0  0  0  0  0
    6.2518   -2.4861    0.7317 N   0  0  0  0  0  0  0  0  0  0  0  0
    6.4711   -3.8551    0.9467 C   0  0  0  0  0  0  0  0  0  0  0  0
    7.7884   -4.3508    0.8762 C   0  0  0  0  0  0  0  0  0  0  0  0
    8.0279   -5.7203    1.0958 C   0  0  0  0  0  0  0  0  0  0  0  0
    6.9896   -6.5431    1.3555 N   0  0  0  0  0  0  0  0  0  0  0  0
    5.7083   -6.1191    1.4184 C   0  0  0  0  0  0  0  0  0  0  0  0
    5.3994   -4.7502    1.2211 C   0  0  0  0  0  0  0  0  0  0  0  0
    4.1794   -1.7929   -0.5147 C   0  0  2  0  0  0  0  0  0  0  0  0
    3.2660   -2.9482   -0.9107 C   0  0  2  0  0  0  0  0  0  0  0  0
    3.2667   -4.2551   -0.1029 C   0  0  0  0  0  0  0  0  0  0  0  0
    4.3677   -2.5107   -1.8544 C   0  0  0  0  0  0  0  0  0  0  0  0
    3.9863   -1.7255   -3.0998 C   0  0  0  0  0  0  0  0  0  0  0  0
    5.5223   -3.4400   -2.1948 C   0  0  0  0  0  0  0  0  0  0  0  0
    2.1248   -4.5724    2.4473 H   0  0  0  0  0  0  0  0  0  0  0  0
    3.5787   -5.0889    3.2854 H   0  0  0  0  0  0  0  0  0  0  0  0
    2.9193   -6.0530    1.9569 H   0  0  0  0  0  0  0  0  0  0  0  0
    3.0335   -2.3299    1.8886 H   0  0  0  0  0  0  0  0  0  0  0  0
    4.4684   -2.7323    2.8020 H   0  0  0  0  0  0  0  0  0  0  0  0
    4.9948   -0.9511    1.2410 H   0  0  0  0  0  0  0  0  0  0  0  0
    6.9793   -1.8978    0.3593 H   0  0  0  0  0  0  0  0  0  0  0  0
    8.6110   -3.6814    0.6686 H   0  0  0  0  0  0  0  0  0  0  0  0
    9.0040   -6.1832    1.0710 H   0  0  0  0  0  0  0  0  0  0  0  0
    4.9797   -6.8878    1.6374 H   0  0  0  0  0  0  0  0  0  0  0  0
    3.7054   -0.8182   -0.5866 H   0  0  0  0  0  0  0  0  0  0  0  0
    2.2659   -2.6662   -1.2277 H   0  0  0  0  0  0  0  0  0  0  0  0
    3.6641   -5.0614   -0.7158 H   0  0  0  0  0  0  0  0  0  0  0  0
    2.2158   -4.5114    0.0323 H   0  0  0  0  0  0  0  0  0  0  0  0
    3.7133   -2.3963   -3.9134 H   0  0  0  0  0  0  0  0  0  0  0  0
    4.8129   -1.0967   -3.4235 H   0  0  0  0  0  0  0  0  0  0  0  0
    3.1316   -1.0781   -2.9003 H   0  0  0  0  0  0  0  0  0  0  0  0
    5.3176   -3.9680   -3.1266 H   0  0  0  0  0  0  0  0  0  0  0  0
    5.6574   -4.2026   -1.4377 H   0  0  0  0  0  0  0  0  0  0  0  0
    6.4466   -2.8750   -2.3071 H   0  0  0  0  0  0  0  0  0  0  0  0
    7.1920   -7.5337    1.5174 H   0  0  0  0  0  0  0  0  0  0  0  0
  2  1  1  1
  1 18  1  0
  1 19  1  0
  1 20  1  0
  2 11  1  0
  2 14  1  0
  2  3  1  0
  3  4  1  0
  3 21  1  0
  3 22  1  0
  4  5  1  0
  4 12  1  0
  4 23  1  1
  5  6  1  0
  5 24  1  0
  6 11  2  0
  6  7  1  0
  7  8  2  0
  7 25  1  0
  8  9  1  0
  8 26  1  0
  9 10  2  0
  9 38  1  0
 10 11  1  0
 10 27  1  0
 12 15  1  0
 12 13  1  0
 12 28  1  6
 13 14  1  0
 13 15  1  0
 13 29  1  6
 14 30  1  0
 14 31  1  0
 15 16  1  0
 15 17  1  0
 16 32  1  0
 16 33  1  0
 16 34  1  0
 17 35  1  0
 17 36  1  0
 17 37  1  0
M  CHG  1   9   1
M  END
>  <i_m_ct_stereo_status>  (289) 
1

>  <s_m_source_file>  (289) 
/var/tmp/pbs.5076255.sched01/tmptyawoosb/846vw0lfia.sdf

>  <i_m_source_file_index>  (289) 
31

>  <i_lp_mmshare_version>  (289) 
48012

>  <i_f3d_flags>  (289) 
0

>  <s_epik_input>  (289) 
W2NIXTFuW2NIXVtjSF1jKGMxW0NAQF0yM1tDSDNdKVtOSF1bQ0BIXShbQ0gyXTIpW0NAQEhdNFtDQEhdKFtDSDJdMylDNChbQ0gzXSlbQ0gzXQ==

>  <s_epik_cmdline>  (289) 
J2VwaWtfcHl0aG9uJywgJy1waHQnLCAnMi4wJywgJy1waCcsICc3LjAnLCAnLXRuJywgJzgnLCAnLW1hJywgJzIwMCcsICctaW1hZScsICc8aW5maWxlLm1hZT4nLCAnLW9tYWUnLCAnPG91dGZpbGUubWFlPic=

>  <r_lp_tautomer_probability>  (289) 
1

>  <r_epik_Ionization_Penalty>  (289) 
0.000313054

>  <r_epik_Ionization_Penalty_Charging>  (289) 
0.000312909

>  <r_epik_Ionization_Penalty_Neutral>  (289) 
1.4436e-07

>  <r_epik_State_Penalty>  (289) 
-0

>  <r_epik_Charging_Adjusted_Penalty>  (289) 
0.000312909

>  <i_epik_Tot_Q>  (289) 
1

>  <i_epik_Tot_abs_Q>  (289) 
1

>  <s_lp_Force_Field>  (289) 
OPLS3e

>  <r_lp_Energy>  (289) 
59.4506

>  <b_lp_Chiralities_Consistent>  (289) 
1

>  <s_lp_Variant>  (289) 
82:0-1

>  <s_i_glide_gridfile>  (289) 
pfpi4k_grid

>  <i_i_glide_lignum>  (289) 
31

>  <i_i_glide_rotatable_bonds>  (289) 
0

>  <r_i_docking_score>  (289) 
-3.86987

>  <r_i_glide_ligand_efficiency>  (289) 
-0.227639

>  <r_i_glide_ligand_efficiency_sa>  (289) 
-0.585325

>  <r_i_glide_ligand_efficiency_ln>  (289) 
-1.00956

>  <r_i_glide_gscore>  (289) 
-3.86987

>  <r_i_glide_lipo>  (289) 
-0.726609

>  <r_i_glide_hbond>  (289) 
0

>  <r_i_glide_metal>  (289) 
-0

>  <r_i_glide_rewards>  (289) 
-1.8454

>  <r_i_glide_evdw>  (289) 
-21.8111

>  <r_i_glide_ecoul>  (289) 
-1.38201

>  <r_i_glide_erotb>  (289) 
0

>  <r_i_glide_esite>  (289) 
0

>  <r_i_glide_emodel>  (289) 
-28.8204

>  <r_i_glide_energy>  (289) 
-23.1931

>  <r_i_glide_einternal>  (289) 
0

>  <r_i_glide_intrahb_reward>  (289) 
-0

>  <i_i_glide_confnum>  (289) 
2

>  <i_i_glide_posenum>  (289) 
5

>  <r_i_glide_eff_state_penalty>  (289) 
0

>  <ligand_id>  (289) 
82

>  <original_smiles>  (289) 
CC12CC(Nc3ccncc31)C1C(C2)C1(C)C

>  <smiles>  (289) 
[H]c1c2c(c([H])[n+]([H])c1[H])C1(C([H])([H])[H])C([H])([H])C([H])(N2[H])C2([H])C([H])(C1([H])[H])C2(C([H])([H])[H])C([H])([H])[H]

$$$$
83:0:0
     RDKit          3D

 75 80  0  0  1  0  0  0  0  0999 V2000
   -0.1572  -10.3027    2.6178 C   0  0  0  0  0  0  0  0  0  0  0  0
    0.9145  -10.7210    3.3104 C   0  0  0  0  0  0  0  0  0  0  0  0
    0.7260  -11.5635    4.5468 C   0  0  0  0  0  0  0  0  0  0  0  0
    0.7229  -10.7266    5.6728 O   0  0  0  0  0  0  0  0  0  0  0  0
    2.3191  -10.3431    2.8554 C   0  0  2  0  0  0  0  0  0  0  0  0
    3.4579  -11.3097    3.2511 C   0  0  0  0  0  0  0  0  0  0  0  0
    4.6504  -10.4108    3.1976 C   0  0  0  0  0  0  0  0  0  0  0  0
    4.3194   -9.1179    3.1926 C   0  0  0  0  0  0  0  0  0  0  0  0
    5.2360   -7.9032    3.1752 C   0  0  1  0  0  0  0  0  0  0  0  0
    6.7244   -8.2680    3.0122 C   0  0  0  0  0  0  0  0  0  0  0  0
    7.5938   -7.0047    3.0160 C   0  0  0  0  0  0  0  0  0  0  0  0
    7.1546   -6.0166    1.9174 C   0  0  0  0  0  0  0  0  0  0  0  0
    5.6559   -5.5959    2.0097 C   0  0  1  0  0  0  0  0  0  0  0  0
    5.4410   -4.7950    3.3051 C   0  0  0  0  0  0  0  0  0  0  0  0
    5.3137   -4.7351    0.7562 C   0  0  0  0  0  0  0  0  0  0  0  0
    5.4166   -3.4157    0.5025 C   0  0  0  0  0  0  0  0  0  0  0  0
    5.8202   -2.2665    1.4038 C   0  0  0  0  0  0  0  0  0  0  0  0
    5.2530   -0.9117    0.9736 C   0  0  0  0  0  0  0  0  0  0  0  0
    5.3276    0.0114    1.7666 O   0  0  0  0  0  0  0  0  0  0  0  0
    4.6946   -0.7905   -0.2523 O   0  0  0  0  0  0  0  0  0  0  0  0
    4.1445   -1.8980   -0.9538 C   0  0  1  0  0  0  0  0  0  0  0  0
    3.7160   -1.4809   -2.3371 C   0  0  0  0  0  0  0  0  0  0  0  0
    4.0393   -0.2706   -3.0177 C   0  0  0  0  0  0  0  0  0  0  0  0
    3.3728   -0.2929   -4.2046 C   0  0  0  0  0  0  0  0  0  0  0  0
    2.6667   -1.4425   -4.3283 O   0  0  0  0  0  0  0  0  0  0  0  0
    2.8802   -2.1564   -3.1881 C   0  0  0  0  0  0  0  0  0  0  0  0
    5.1571   -3.0571   -0.9398 C   0  0  1  0  0  0  0  0  0  0  0  0
    6.4933   -2.7590   -1.6584 C   0  0  0  0  0  0  0  0  0  0  0  0
    4.5442   -4.3319   -1.4961 C   0  0  0  0  0  0  0  0  0  0  0  0
    4.9077   -5.4305   -0.5008 C   0  0  0  0  0  0  0  0  0  0  0  0
    4.7807   -6.8973    2.0789 C   0  0  2  0  0  0  0  0  0  0  0  0
    3.2620   -6.6032    2.2073 C   0  0  0  0  0  0  0  0  0  0  0  0
    2.4194   -7.8830    2.1323 C   0  0  0  0  0  0  0  0  0  0  0  0
    2.8238   -8.9083    3.2053 C   0  0  1  0  0  0  0  0  0  0  0  0
    2.3829   -8.4442    4.6045 C   0  0  0  0  0  0  0  0  0  0  0  0
   -1.1452  -10.5379    2.9717 H   0  0  0  0  0  0  0  0  0  0  0  0
   -0.0751   -9.7317    1.7043 H   0  0  0  0  0  0  0  0  0  0  0  0
   -0.1872  -12.1322    4.5043 H   0  0  0  0  0  0  0  0  0  0  0  0
    1.4413  -12.3694    4.6614 H   0  0  0  0  0  0  0  0  0  0  0  0
    0.9675  -11.2714    6.4125 H   0  0  0  0  0  0  0  0  0  0  0  0
    2.2601  -10.3891    1.7679 H   0  0  0  0  0  0  0  0  0  0  0  0
    3.4372  -11.6243    4.2923 H   0  0  0  0  0  0  0  0  0  0  0  0
    3.5249  -12.1900    2.6056 H   0  0  0  0  0  0  0  0  0  0  0  0
    5.6462  -10.8114    3.2230 H   0  0  0  0  0  0  0  0  0  0  0  0
    5.1067   -7.4617    4.1621 H   0  0  0  0  0  0  0  0  0  0  0  0
    7.0452   -8.9338    3.8147 H   0  0  0  0  0  0  0  0  0  0  0  0
    6.8816   -8.8193    2.0821 H   0  0  0  0  0  0  0  0  0  0  0  0
    7.5627   -6.5293    3.9973 H   0  0  0  0  0  0  0  0  0  0  0  0
    8.6358   -7.2840    2.8643 H   0  0  0  0  0  0  0  0  0  0  0  0
    7.7981   -5.1368    1.9686 H   0  0  0  0  0  0  0  0  0  0  0  0
    7.3596   -6.4754    0.9486 H   0  0  0  0  0  0  0  0  0  0  0  0
    5.5615   -5.3856    4.2180 H   0  0  0  0  0  0  0  0  0  0  0  0
    4.4738   -4.2901    3.3102 H   0  0  0  0  0  0  0  0  0  0  0  0
    6.1701   -4.0154    3.3906 H   0  0  0  0  0  0  0  0  0  0  0  0
    5.3646   -2.3470    2.3866 H   0  0  0  0  0  0  0  0  0  0  0  0
    6.9142   -2.2023    1.4644 H   0  0  0  0  0  0  0  0  0  0  0  0
    3.2293   -2.2055   -0.4319 H   0  0  0  0  0  0  0  0  0  0  0  0
    4.6412    0.5507   -2.6696 H   0  0  0  0  0  0  0  0  0  0  0  0
    3.2635    0.4041   -5.0204 H   0  0  0  0  0  0  0  0  0  0  0  0
    2.3261   -3.0825   -3.1318 H   0  0  0  0  0  0  0  0  0  0  0  0
    6.3631   -2.6674   -2.7405 H   0  0  0  0  0  0  0  0  0  0  0  0
    7.1933   -3.5756   -1.4777 H   0  0  0  0  0  0  0  0  0  0  0  0
    6.9650   -1.8568   -1.2702 H   0  0  0  0  0  0  0  0  0  0  0  0
    3.4653   -4.2149   -1.4478 H   0  0  0  0  0  0  0  0  0  0  0  0
    4.8074   -4.5520   -2.5350 H   0  0  0  0  0  0  0  0  0  0  0  0
    5.8184   -5.9025   -0.7483 H   0  0  0  0  0  0  0  0  0  0  0  0
    4.1245   -6.1817   -0.4306 H   0  0  0  0  0  0  0  0  0  0  0  0
    4.9470   -7.4457    1.1534 H   0  0  0  0  0  0  0  0  0  0  0  0
    3.0584   -6.0998    3.1516 H   0  0  0  0  0  0  0  0  0  0  0  0
    2.9330   -5.9245    1.4235 H   0  0  0  0  0  0  0  0  0  0  0  0
    1.3585   -7.6503    2.2225 H   0  0  0  0  0  0  0  0  0  0  0  0
    2.5542   -8.3155    1.1426 H   0  0  0  0  0  0  0  0  0  0  0  0
    1.2990   -8.3062    4.6491 H   0  0  0  0  0  0  0  0  0  0  0  0
    2.8623   -7.5181    4.9159 H   0  0  0  0  0  0  0  0  0  0  0  0
    2.6802   -9.1896    5.3400 H   0  0  0  0  0  0  0  0  0  0  0  0
  1  2  2  0
  1 36  1  0
  1 37  1  0
  2  3  1  0
  2  5  1  0
  3  4  1  0
  3 38  1  0
  3 39  1  0
  4 40  1  0
  5 34  1  0
  5  6  1  0
  5 41  1  6
  6  7  1  0
  6 42  1  0
  6 43  1  0
  7  8  2  0
  7 44  1  0
  8 34  1  0
  8  9  1  0
  9 31  1  0
  9 10  1  0
  9 45  1  1
 10 11  1  0
 10 46  1  0
 10 47  1  0
 11 12  1  0
 11 48  1  0
 11 49  1  0
 12 13  1  0
 12 50  1  0
 12 51  1  0
 13 14  1  1
 13 15  1  0
 13 31  1  0
 14 52  1  0
 14 53  1  0
 14 54  1  0
 15 30  1  0
 15 16  2  0
 16 27  1  0
 16 17  1  0
 17 18  1  0
 17 55  1  0
 17 56  1  0
 18 19  2  0
 18 20  1  0
 20 21  1  0
 21 22  1  0
 21 27  1  0
 21 57  1  1
 22 26  2  0
 22 23  1  0
 23 24  2  0
 23 58  1  0
 24 25  1  0
 24 59  1  0
 25 26  1  0
 26 60  1  0
 27 28  1  6
 27 29  1  0
 28 61  1  0
 28 62  1  0
 28 63  1  0
 29 30  1  0
 29 64  1  0
 29 65  1  0
 30 66  1  0
 30 67  1  0
 31 32  1  0
 31 68  1  6
 32 33  1  0
 32 69  1  0
 32 70  1  0
 33 34  1  0
 33 71  1  0
 33 72  1  0
 34 35  1  1
 35 73  1  0
 35 74  1  0
 35 75  1  0
M  END
>  <i_m_ct_stereo_status>  (290) 
1

>  <s_m_source_file>  (290) 
/var/tmp/pbs.5076255.sched01/tmptyawoosb/846vw0lfia.sdf

>  <i_m_source_file_index>  (290) 
32

>  <i_lp_mmshare_version>  (290) 
48012

>  <i_f3d_flags>  (290) 
0

>  <s_epik_input>  (290) 
W09IXVtDSDJdQyg9W0NIMl0pW0NAQEhdMVtDSDJdW0NIXT1DKFtDQF0xMltDSDNdKVtDQEBIXTNbQ0BASF0oW0NIMl1bQ0gyXTIpW0NAQF0oW0NIM10pKFtDSDJdW0NIMl1bQ0gyXTMpQyhbQ0gyXVtDSDJdNCk9QyhbQ0BAXTQ1W0NIM10pW0NIMl1DKD1PKU9bQ0BIXTVjNltjSF1bY0hdb1tjSF02

>  <s_epik_cmdline>  (290) 
J2VwaWtfcHl0aG9uJywgJy1waHQnLCAnMi4wJywgJy1waCcsICc3LjAnLCAnLXRuJywgJzgnLCAnLW1hJywgJzIwMCcsICctaW1hZScsICc8aW5maWxlLm1hZT4nLCAnLW9tYWUnLCAnPG91dGZpbGUubWFlPic=

>  <r_lp_tautomer_probability>  (290) 
1

>  <r_epik_Ionization_Penalty>  (290) 
2.63954e-07

>  <r_epik_Ionization_Penalty_Charging>  (290) 
0

>  <r_epik_Ionization_Penalty_Neutral>  (290) 
2.63954e-07

>  <r_epik_State_Penalty>  (290) 
-0

>  <r_epik_Charging_Adjusted_Penalty>  (290) 
0

>  <i_epik_Tot_Q>  (290) 
0

>  <i_epik_Tot_abs_Q>  (290) 
0

>  <s_epik_Chemistry_Notes>  (290) 
This compound has an ester and may undergo hydrolysis at high or low pH.

>  <s_lp_Force_Field>  (290) 
OPLS3e

>  <r_lp_Energy>  (290) 
47.0014

>  <b_lp_Chiralities_Consistent>  (290) 
1

>  <s_lp_Variant>  (290) 
83:0-1

>  <s_i_glide_gridfile>  (290) 
pfpi4k_grid

>  <i_i_glide_lignum>  (290) 
32

>  <i_i_glide_rotatable_bonds>  (290) 
5

>  <r_i_docking_score>  (290) 
-3.68443

>  <r_i_glide_ligand_efficiency>  (290) 
-0.105269

>  <r_i_glide_ligand_efficiency_sa>  (290) 
-0.344343

>  <r_i_glide_ligand_efficiency_ln>  (290) 
-0.808813

>  <r_i_glide_gscore>  (290) 
-3.68443

>  <r_i_glide_lipo>  (290) 
-1.22555

>  <r_i_glide_hbond>  (290) 
-0.376237

>  <r_i_glide_metal>  (290) 
-0

>  <r_i_glide_rewards>  (290) 
-0.329146

>  <r_i_glide_evdw>  (290) 
-25.6219

>  <r_i_glide_ecoul>  (290) 
-5.52631

>  <r_i_glide_erotb>  (290) 
0.356549

>  <r_i_glide_esite>  (290) 
0

>  <r_i_glide_emodel>  (290) 
-34.814

>  <r_i_glide_energy>  (290) 
-31.1482

>  <r_i_glide_einternal>  (290) 
7.14581

>  <r_i_glide_intrahb_reward>  (290) 
-0

>  <i_i_glide_confnum>  (290) 
5

>  <i_i_glide_posenum>  (290) 
27

>  <r_i_glide_eff_state_penalty>  (290) 
0

>  <ligand_id>  (290) 
83

>  <original_smiles>  (290) 
C=C(CO)C1CC=C2C3CCCC(C)(C4=C5CC(=O)OC(c6ccoc6)C5(C)CC4)C3CCC21C

>  <smiles>  (290) 
[H]OC([H])([H])C(=C([H])[H])C1([H])C([H])([H])C([H])=C2C3([H])C([H])([H])C([H])([H])C([H])([H])C(C4=C5C([H])([H])C(=O)OC([H])(c6c([H])oc([H])c6[H])C5(C([H])([H])[H])C([H])([H])C4([H])[H])(C([H])([H])[H])C3([H])C([H])([H])C([H])([H])C21C([H])([H])[H]

$$$$
83:0:1
     RDKit          3D

 75 80  0  0  1  0  0  0  0  0999 V2000
    1.0721  -11.2156    3.0571 C   0  0  0  0  0  0  0  0  0  0  0  0
    0.7614   -9.9390    2.7714 C   0  0  0  0  0  0  0  0  0  0  0  0
   -0.6279   -9.4103    3.1202 C   0  0  0  0  0  0  0  0  0  0  0  0
   -1.1836   -8.6317    2.0793 O   0  0  0  0  0  0  0  0  0  0  0  0
    1.7309   -8.9502    2.0997 C   0  0  2  0  0  0  0  0  0  0  0  0
    2.8617   -9.5512    1.2369 C   0  0  0  0  0  0  0  0  0  0  0  0
    3.8703   -8.4366    1.2168 C   0  0  0  0  0  0  0  0  0  0  0  0
    3.6589   -7.5513    2.1955 C   0  0  0  0  0  0  0  0  0  0  0  0
    4.4699   -6.3026    2.5448 C   0  0  1  0  0  0  0  0  0  0  0  0
    5.5914   -5.9987    1.5307 C   0  0  0  0  0  0  0  0  0  0  0  0
    6.3999   -4.7693    1.9603 C   0  0  0  0  0  0  0  0  0  0  0  0
    5.4935   -3.5431    2.1398 C   0  0  0  0  0  0  0  0  0  0  0  0
    4.3196   -3.7596    3.1490 C   0  0  1  0  0  0  0  0  0  0  0  0
    4.9565   -3.9276    4.5572 C   0  0  0  0  0  0  0  0  0  0  0  0
    3.3761   -2.5308    3.0743 C   0  0  0  0  0  0  0  0  0  0  0  0
    2.9202   -1.6790    4.0265 C   0  0  0  0  0  0  0  0  0  0  0  0
    3.1153   -1.6709    5.5436 C   0  0  0  0  0  0  0  0  0  0  0  0
    2.0571   -0.9020    6.3467 C   0  0  0  0  0  0  0  0  0  0  0  0
    2.0936   -0.9228    7.5719 O   0  0  0  0  0  0  0  0  0  0  0  0
    1.1076   -0.2124    5.6725 O   0  0  0  0  0  0  0  0  0  0  0  0
    0.8201   -0.3934    4.2908 C   0  0  1  0  0  0  0  0  0  0  0  0
   -0.1425    0.6752    3.8053 C   0  0  0  0  0  0  0  0  0  0  0  0
   -0.9276    1.5492    4.6264 C   0  0  0  0  0  0  0  0  0  0  0  0
   -1.6615    2.3244    3.7751 C   0  0  0  0  0  0  0  0  0  0  0  0
   -1.4092    2.0022    2.4851 O   0  0  0  0  0  0  0  0  0  0  0  0
   -0.4939    1.0050    2.5225 C   0  0  0  0  0  0  0  0  0  0  0  0
    2.1190   -0.5291    3.4603 C   0  0  1  0  0  0  0  0  0  0  0  0
    3.0038    0.7394    3.4667 C   0  0  0  0  0  0  0  0  0  0  0  0
    1.8537   -0.9908    2.0135 C   0  0  0  0  0  0  0  0  0  0  0  0
    2.8941   -2.0639    1.7089 C   0  0  0  0  0  0  0  0  0  0  0  0
    3.5454   -5.0654    2.7439 C   0  0  2  0  0  0  0  0  0  0  0  0
    2.3815   -5.4161    3.7072 C   0  0  0  0  0  0  0  0  0  0  0  0
    1.5691   -6.6309    3.2236 C   0  0  0  0  0  0  0  0  0  0  0  0
    2.4317   -7.8975    3.0179 C   0  0  1  0  0  0  0  0  0  0  0  0
    2.8773   -8.5107    4.3648 C   0  0  0  0  0  0  0  0  0  0  0  0
    0.3555  -11.8735    3.5281 H   0  0  0  0  0  0  0  0  0  0  0  0
    2.0368  -11.6492    2.8456 H   0  0  0  0  0  0  0  0  0  0  0  0
   -1.2996  -10.2516    3.2746 H   0  0  0  0  0  0  0  0  0  0  0  0
   -0.5946   -8.8367    4.0467 H   0  0  0  0  0  0  0  0  0  0  0  0
   -0.9626   -9.0519    1.2549 H   0  0  0  0  0  0  0  0  0  0  0  0
    1.1500   -8.3957    1.3653 H   0  0  0  0  0  0  0  0  0  0  0  0
    3.3421  -10.4127    1.6954 H   0  0  0  0  0  0  0  0  0  0  0  0
    2.5279   -9.8376    0.2406 H   0  0  0  0  0  0  0  0  0  0  0  0
    4.6798   -8.4203    0.5050 H   0  0  0  0  0  0  0  0  0  0  0  0
    4.9459   -6.5502    3.4932 H   0  0  0  0  0  0  0  0  0  0  0  0
    6.2700   -6.8483    1.4384 H   0  0  0  0  0  0  0  0  0  0  0  0
    5.1685   -5.8276    0.5393 H   0  0  0  0  0  0  0  0  0  0  0  0
    6.9483   -5.0028    2.8737 H   0  0  0  0  0  0  0  0  0  0  0  0
    7.1588   -4.5437    1.2116 H   0  0  0  0  0  0  0  0  0  0  0  0
    6.0855   -2.6824    2.4495 H   0  0  0  0  0  0  0  0  0  0  0  0
    5.1172   -3.3004    1.1472 H   0  0  0  0  0  0  0  0  0  0  0  0
    5.6516   -4.7702    4.5972 H   0  0  0  0  0  0  0  0  0  0  0  0
    4.2199   -4.1047    5.3286 H   0  0  0  0  0  0  0  0  0  0  0  0
    5.5352   -3.0403    4.8194 H   0  0  0  0  0  0  0  0  0  0  0  0
    3.0725   -2.6654    5.9645 H   0  0  0  0  0  0  0  0  0  0  0  0
    4.0840   -1.2118    5.7636 H   0  0  0  0  0  0  0  0  0  0  0  0
    0.2736   -1.3347    4.2125 H   0  0  0  0  0  0  0  0  0  0  0  0
   -0.9521    1.6022    5.7029 H   0  0  0  0  0  0  0  0  0  0  0  0
   -2.3850    3.1101    3.9092 H   0  0  0  0  0  0  0  0  0  0  0  0
   -0.2122    0.6520    1.5360 H   0  0  0  0  0  0  0  0  0  0  0  0
    2.5454    1.5692    2.9245 H   0  0  0  0  0  0  0  0  0  0  0  0
    3.9680    0.5332    2.9906 H   0  0  0  0  0  0  0  0  0  0  0  0
    3.2276    1.0828    4.4811 H   0  0  0  0  0  0  0  0  0  0  0  0
    0.8732   -1.4586    1.9488 H   0  0  0  0  0  0  0  0  0  0  0  0
    1.8769   -0.1815    1.2791 H   0  0  0  0  0  0  0  0  0  0  0  0
    3.7098   -1.6011    1.1572 H   0  0  0  0  0  0  0  0  0  0  0  0
    2.4730   -2.8581    1.0936 H   0  0  0  0  0  0  0  0  0  0  0  0
    3.0927   -4.8786    1.7703 H   0  0  0  0  0  0  0  0  0  0  0  0
    2.7638   -5.6311    4.7038 H   0  0  0  0  0  0  0  0  0  0  0  0
    1.7117   -4.5624    3.8096 H   0  0  0  0  0  0  0  0  0  0  0  0
    0.7629   -6.8408    3.9262 H   0  0  0  0  0  0  0  0  0  0  0  0
    1.0922   -6.3542    2.2846 H   0  0  0  0  0  0  0  0  0  0  0  0
    2.0222   -8.7636    4.9938 H   0  0  0  0  0  0  0  0  0  0  0  0
    3.5180   -7.8333    4.9315 H   0  0  0  0  0  0  0  0  0  0  0  0
    3.4484   -9.4269    4.2016 H   0  0  0  0  0  0  0  0  0  0  0  0
  1  2  2  0
  1 36  1  0
  1 37  1  0
  2  3  1  0
  2  5  1  0
  3  4  1  0
  3 38  1  0
  3 39  1  0
  4 40  1  0
  5 34  1  0
  5  6  1  0
  5 41  1  6
  6  7  1  0
  6 42  1  0
  6 43  1  0
  7  8  2  0
  7 44  1  0
  8 34  1  0
  8  9  1  0
  9 31  1  0
  9 10  1  0
  9 45  1  1
 10 11  1  0
 10 46  1  0
 10 47  1  0
 11 12  1  0
 11 48  1  0
 11 49  1  0
 12 13  1  0
 12 50  1  0
 12 51  1  0
 13 14  1  1
 13 15  1  0
 13 31  1  0
 14 52  1  0
 14 53  1  0
 14 54  1  0
 15 30  1  0
 15 16  2  0
 16 27  1  0
 16 17  1  0
 17 18  1  0
 17 55  1  0
 17 56  1  0
 18 19  2  0
 18 20  1  0
 20 21  1  0
 21 22  1  0
 21 27  1  0
 21 57  1  1
 22 26  2  0
 22 23  1  0
 23 24  2  0
 23 58  1  0
 24 25  1  0
 24 59  1  0
 25 26  1  0
 26 60  1  0
 27 28  1  6
 27 29  1  0
 28 61  1  0
 28 62  1  0
 28 63  1  0
 29 30  1  0
 29 64  1  0
 29 65  1  0
 30 66  1  0
 30 67  1  0
 31 32  1  0
 31 68  1  6
 32 33  1  0
 32 69  1  0
 32 70  1  0
 33 34  1  0
 33 71  1  0
 33 72  1  0
 34 35  1  1
 35 73  1  0
 35 74  1  0
 35 75  1  0
M  END
>  <i_m_ct_stereo_status>  (291) 
1

>  <s_m_source_file>  (291) 
/var/tmp/pbs.5076255.sched01/tmptyawoosb/846vw0lfia.sdf

>  <i_m_source_file_index>  (291) 
32

>  <i_lp_mmshare_version>  (291) 
48012

>  <i_f3d_flags>  (291) 
0

>  <s_epik_input>  (291) 
W09IXVtDSDJdQyg9W0NIMl0pW0NAQEhdMVtDSDJdW0NIXT1DKFtDQF0xMltDSDNdKVtDQEBIXTNbQ0BASF0oW0NIMl1bQ0gyXTIpW0NAQF0oW0NIM10pKFtDSDJdW0NIMl1bQ0gyXTMpQyhbQ0gyXVtDSDJdNCk9QyhbQ0BAXTQ1W0NIM10pW0NIMl1DKD1PKU9bQ0BIXTVjNltjSF1bY0hdb1tjSF02

>  <s_epik_cmdline>  (291) 
J2VwaWtfcHl0aG9uJywgJy1waHQnLCAnMi4wJywgJy1waCcsICc3LjAnLCAnLXRuJywgJzgnLCAnLW1hJywgJzIwMCcsICctaW1hZScsICc8aW5maWxlLm1hZT4nLCAnLW9tYWUnLCAnPG91dGZpbGUubWFlPic=

>  <r_lp_tautomer_probability>  (291) 
1

>  <r_epik_Ionization_Penalty>  (291) 
2.63954e-07

>  <r_epik_Ionization_Penalty_Charging>  (291) 
0

>  <r_epik_Ionization_Penalty_Neutral>  (291) 
2.63954e-07

>  <r_epik_State_Penalty>  (291) 
-0

>  <r_epik_Charging_Adjusted_Penalty>  (291) 
0

>  <i_epik_Tot_Q>  (291) 
0

>  <i_epik_Tot_abs_Q>  (291) 
0

>  <s_epik_Chemistry_Notes>  (291) 
This compound has an ester and may undergo hydrolysis at high or low pH.

>  <s_lp_Force_Field>  (291) 
OPLS3e

>  <r_lp_Energy>  (291) 
47.0014

>  <b_lp_Chiralities_Consistent>  (291) 
1

>  <s_lp_Variant>  (291) 
83:0-1

>  <s_i_glide_gridfile>  (291) 
pfpi4k_grid

>  <i_i_glide_lignum>  (291) 
32

>  <i_i_glide_rotatable_bonds>  (291) 
5

>  <r_i_docking_score>  (291) 
-2.53053

>  <r_i_glide_ligand_efficiency>  (291) 
-0.0723009

>  <r_i_glide_ligand_efficiency_sa>  (291) 
-0.236501

>  <r_i_glide_ligand_efficiency_ln>  (291) 
-0.555508

>  <r_i_glide_gscore>  (291) 
-2.53053

>  <r_i_glide_lipo>  (291) 
-0.458307

>  <r_i_glide_hbond>  (291) 
-0.32

>  <r_i_glide_metal>  (291) 
-0

>  <r_i_glide_rewards>  (291) 
-0.159226

>  <r_i_glide_evdw>  (291) 
-26.5709

>  <r_i_glide_ecoul>  (291) 
-4.13968

>  <r_i_glide_erotb>  (291) 
0.356549

>  <r_i_glide_esite>  (291) 
-5.21969e-05

>  <r_i_glide_emodel>  (291) 
-34.7459

>  <r_i_glide_energy>  (291) 
-30.7106

>  <r_i_glide_einternal>  (291) 
2.47084

>  <r_i_glide_intrahb_reward>  (291) 
-0

>  <i_i_glide_confnum>  (291) 
1

>  <i_i_glide_posenum>  (291) 
1

>  <r_i_glide_eff_state_penalty>  (291) 
0

>  <ligand_id>  (291) 
83

>  <original_smiles>  (291) 
C=C(CO)C1CC=C2C3CCCC(C)(C4=C5CC(=O)OC(c6ccoc6)C5(C)CC4)C3CCC21C

>  <smiles>  (291) 
[H]OC([H])([H])C(=C([H])[H])C1([H])C([H])([H])C([H])=C2C3([H])C([H])([H])C([H])([H])C([H])([H])C(C4=C5C([H])([H])C(=O)OC([H])(c6c([H])oc([H])c6[H])C5(C([H])([H])[H])C([H])([H])C4([H])[H])(C([H])([H])[H])C3([H])C([H])([H])C([H])([H])C21C([H])([H])[H]

$$$$
83:0:2
     RDKit          3D

 75 80  0  0  1  0  0  0  0  0999 V2000
    0.8599  -10.0366    3.7996 C   0  0  0  0  0  0  0  0  0  0  0  0
    0.5729   -8.7215    3.7702 C   0  0  0  0  0  0  0  0  0  0  0  0
   -0.5223   -8.1825    4.6791 C   0  0  0  0  0  0  0  0  0  0  0  0
   -1.7801   -8.2843    4.0499 O   0  0  0  0  0  0  0  0  0  0  0  0
    1.2589   -7.7143    2.8289 C   0  0  2  0  0  0  0  0  0  0  0  0
    2.1783   -8.2938    1.7226 C   0  0  0  0  0  0  0  0  0  0  0  0
    3.0929   -7.1412    1.3984 C   0  0  0  0  0  0  0  0  0  0  0  0
    3.0859   -6.2187    2.3602 C   0  0  0  0  0  0  0  0  0  0  0  0
    3.8764   -4.9066    2.4342 C   0  0  1  0  0  0  0  0  0  0  0  0
    4.6969   -4.6041    1.1676 C   0  0  0  0  0  0  0  0  0  0  0  0
    5.5086   -3.3115    1.3403 C   0  0  0  0  0  0  0  0  0  0  0  0
    4.5943   -2.1316    1.6791 C   0  0  0  0  0  0  0  0  0  0  0  0
    3.6862   -2.3285    2.9376 C   0  0  1  0  0  0  0  0  0  0  0  0
    4.6225   -2.3124    4.1788 C   0  0  0  0  0  0  0  0  0  0  0  0
    2.6552   -1.1656    3.0332 C   0  0  0  0  0  0  0  0  0  0  0  0
    1.9499   -0.6881    4.0874 C   0  0  0  0  0  0  0  0  0  0  0  0
    1.8488   -1.1554    5.5479 C   0  0  0  0  0  0  0  0  0  0  0  0
    0.5179   -0.8025    6.2468 C   0  0  0  0  0  0  0  0  0  0  0  0
    0.2655   -1.2575    7.3587 O   0  0  0  0  0  0  0  0  0  0  0  0
   -0.3346    0.0416    5.6228 O   0  0  0  0  0  0  0  0  0  0  0  0
   -0.2866    0.3635    4.2380 C   0  0  1  0  0  0  0  0  0  0  0  0
   -1.2181    1.5177    3.9316 C   0  0  0  0  0  0  0  0  0  0  0  0
   -1.7807    1.8728    2.6633 C   0  0  0  0  0  0  0  0  0  0  0  0
   -2.5855    2.9487    2.8789 C   0  0  0  0  0  0  0  0  0  0  0  0
   -2.5725    3.3094    4.1917 O   0  0  0  0  0  0  0  0  0  0  0  0
   -1.7388    2.4323    4.8041 C   0  0  0  0  0  0  0  0  0  0  0  0
    1.1628    0.5570    3.7467 C   0  0  1  0  0  0  0  0  0  0  0  0
    1.8890    1.7700    4.3695 C   0  0  0  0  0  0  0  0  0  0  0  0
    1.2515    0.6248    2.2077 C   0  0  0  0  0  0  0  0  0  0  0  0
    2.4348   -0.2606    1.8281 C   0  0  0  0  0  0  0  0  0  0  0  0
    2.9440   -3.7055    2.7732 C   0  0  2  0  0  0  0  0  0  0  0  0
    2.0659   -4.0668    3.9851 C   0  0  0  0  0  0  0  0  0  0  0  0
    1.2670   -5.3440    3.8115 C   0  0  0  0  0  0  0  0  0  0  0  0
    2.1203   -6.5774    3.4776 C   0  0  1  0  0  0  0  0  0  0  0  0
    2.9187   -7.0764    4.7003 C   0  0  0  0  0  0  0  0  0  0  0  0
    0.3232  -10.6873    4.4776 H   0  0  0  0  0  0  0  0  0  0  0  0
    1.6065  -10.4992    3.1720 H   0  0  0  0  0  0  0  0  0  0  0  0
   -0.5441   -8.7531    5.6111 H   0  0  0  0  0  0  0  0  0  0  0  0
   -0.3656   -7.1492    4.9596 H   0  0  0  0  0  0  0  0  0  0  0  0
   -2.0832   -9.1810    4.1790 H   0  0  0  0  0  0  0  0  0  0  0  0
    0.4360   -7.2476    2.2869 H   0  0  0  0  0  0  0  0  0  0  0  0
    2.8155   -9.1066    2.0739 H   0  0  0  0  0  0  0  0  0  0  0  0
    1.6041   -8.6378    0.8696 H   0  0  0  0  0  0  0  0  0  0  0  0
    3.7045   -7.1189    0.5053 H   0  0  0  0  0  0  0  0  0  0  0  0
    4.5832   -5.0561    3.2507 H   0  0  0  0  0  0  0  0  0  0  0  0
    5.3794   -5.4248    0.9411 H   0  0  0  0  0  0  0  0  0  0  0  0
    4.0278   -4.5057    0.3089 H   0  0  0  0  0  0  0  0  0  0  0  0
    6.2823   -3.4307    2.0989 H   0  0  0  0  0  0  0  0  0  0  0  0
    6.0304   -3.0885    0.4092 H   0  0  0  0  0  0  0  0  0  0  0  0
    5.1917   -1.2239    1.7888 H   0  0  0  0  0  0  0  0  0  0  0  0
    3.9945   -1.9963    0.7790 H   0  0  0  0  0  0  0  0  0  0  0  0
    5.3079   -3.1555    4.1763 H   0  0  0  0  0  0  0  0  0  0  0  0
    4.0967   -2.3551    5.1283 H   0  0  0  0  0  0  0  0  0  0  0  0
    5.2322   -1.4075    4.1907 H   0  0  0  0  0  0  0  0  0  0  0  0
    1.9743   -2.2267    5.6671 H   0  0  0  0  0  0  0  0  0  0  0  0
    2.6503   -0.6707    6.1165 H   0  0  0  0  0  0  0  0  0  0  0  0
   -0.7089   -0.4944    3.7153 H   0  0  0  0  0  0  0  0  0  0  0  0
   -1.6278    1.3853    1.7088 H   0  0  0  0  0  0  0  0  0  0  0  0
   -3.2119    3.5493    2.2356 H   0  0  0  0  0  0  0  0  0  0  0  0
   -1.6425    2.5723    5.8733 H   0  0  0  0  0  0  0  0  0  0  0  0
    1.4791    2.7237    4.0227 H   0  0  0  0  0  0  0  0  0  0  0  0
    2.9495    1.7522    4.0968 H   0  0  0  0  0  0  0  0  0  0  0  0
    1.8470    1.7541    5.4626 H   0  0  0  0  0  0  0  0  0  0  0  0
    0.3721    0.1716    1.7546 H   0  0  0  0  0  0  0  0  0  0  0  0
    1.3213    1.6376    1.8032 H   0  0  0  0  0  0  0  0  0  0  0  0
    3.3196    0.3541    1.6687 H   0  0  0  0  0  0  0  0  0  0  0  0
    2.2120   -0.8014    0.9120 H   0  0  0  0  0  0  0  0  0  0  0  0
    2.2545   -3.5857    1.9340 H   0  0  0  0  0  0  0  0  0  0  0  0
    2.6694   -4.1556    4.8923 H   0  0  0  0  0  0  0  0  0  0  0  0
    1.3089   -3.3117    4.1233 H   0  0  0  0  0  0  0  0  0  0  0  0
    0.7241   -5.4551    4.7420 H   0  0  0  0  0  0  0  0  0  0  0  0
    0.5515   -5.1572    3.0168 H   0  0  0  0  0  0  0  0  0  0  0  0
    2.2629   -7.3259    5.5369 H   0  0  0  0  0  0  0  0  0  0  0  0
    3.6312   -6.3285    5.0539 H   0  0  0  0  0  0  0  0  0  0  0  0
    3.4936   -7.9718    4.4487 H   0  0  0  0  0  0  0  0  0  0  0  0
  1  2  2  0
  1 36  1  0
  1 37  1  0
  2  3  1  0
  2  5  1  0
  3  4  1  0
  3 38  1  0
  3 39  1  0
  4 40  1  0
  5 34  1  0
  5  6  1  0
  5 41  1  6
  6  7  1  0
  6 42  1  0
  6 43  1  0
  7  8  2  0
  7 44  1  0
  8 34  1  0
  8  9  1  0
  9 31  1  0
  9 10  1  0
  9 45  1  1
 10 11  1  0
 10 46  1  0
 10 47  1  0
 11 12  1  0
 11 48  1  0
 11 49  1  0
 12 13  1  0
 12 50  1  0
 12 51  1  0
 13 14  1  1
 13 15  1  0
 13 31  1  0
 14 52  1  0
 14 53  1  0
 14 54  1  0
 15 30  1  0
 15 16  2  0
 16 27  1  0
 16 17  1  0
 17 18  1  0
 17 55  1  0
 17 56  1  0
 18 19  2  0
 18 20  1  0
 20 21  1  0
 21 22  1  0
 21 27  1  0
 21 57  1  6
 22 26  2  0
 22 23  1  0
 23 24  2  0
 23 58  1  0
 24 25  1  0
 24 59  1  0
 25 26  1  0
 26 60  1  0
 27 28  1  1
 27 29  1  0
 28 61  1  0
 28 62  1  0
 28 63  1  0
 29 30  1  0
 29 64  1  0
 29 65  1  0
 30 66  1  0
 30 67  1  0
 31 32  1  0
 31 68  1  6
 32 33  1  0
 32 69  1  0
 32 70  1  0
 33 34  1  0
 33 71  1  0
 33 72  1  0
 34 35  1  1
 35 73  1  0
 35 74  1  0
 35 75  1  0
M  END
>  <i_m_ct_stereo_status>  (292) 
1

>  <s_m_source_file>  (292) 
/var/tmp/pbs.5076255.sched01/tmptyawoosb/846vw0lfia.sdf

>  <i_m_source_file_index>  (292) 
32

>  <i_lp_mmshare_version>  (292) 
48012

>  <i_f3d_flags>  (292) 
0

>  <s_epik_input>  (292) 
W09IXVtDSDJdQyg9W0NIMl0pW0NAQEhdMVtDSDJdW0NIXT1DKFtDQF0xMltDSDNdKVtDQEBIXTNbQ0BASF0oW0NIMl1bQ0gyXTIpW0NAQF0oW0NIM10pKFtDSDJdW0NIMl1bQ0gyXTMpQyhbQ0gyXVtDSDJdNCk9QyhbQ0BAXTQ1W0NIM10pW0NIMl1DKD1PKU9bQ0BIXTVjNltjSF1bY0hdb1tjSF02

>  <s_epik_cmdline>  (292) 
J2VwaWtfcHl0aG9uJywgJy1waHQnLCAnMi4wJywgJy1waCcsICc3LjAnLCAnLXRuJywgJzgnLCAnLW1hJywgJzIwMCcsICctaW1hZScsICc8aW5maWxlLm1hZT4nLCAnLW9tYWUnLCAnPG91dGZpbGUubWFlPic=

>  <r_lp_tautomer_probability>  (292) 
1

>  <r_epik_Ionization_Penalty>  (292) 
2.63954e-07

>  <r_epik_Ionization_Penalty_Charging>  (292) 
0

>  <r_epik_Ionization_Penalty_Neutral>  (292) 
2.63954e-07

>  <r_epik_State_Penalty>  (292) 
-0

>  <r_epik_Charging_Adjusted_Penalty>  (292) 
0

>  <i_epik_Tot_Q>  (292) 
0

>  <i_epik_Tot_abs_Q>  (292) 
0

>  <s_epik_Chemistry_Notes>  (292) 
This compound has an ester and may undergo hydrolysis at high or low pH.

>  <s_lp_Force_Field>  (292) 
OPLS3e

>  <r_lp_Energy>  (292) 
47.0014

>  <b_lp_Chiralities_Consistent>  (292) 
1

>  <s_lp_Variant>  (292) 
83:0-1

>  <s_i_glide_gridfile>  (292) 
pfpi4k_grid

>  <i_i_glide_lignum>  (292) 
32

>  <i_i_glide_rotatable_bonds>  (292) 
5

>  <r_i_docking_score>  (292) 
-2.24644

>  <r_i_glide_ligand_efficiency>  (292) 
-0.0641841

>  <r_i_glide_ligand_efficiency_sa>  (292) 
-0.20995

>  <r_i_glide_ligand_efficiency_ln>  (292) 
-0.493144

>  <r_i_glide_gscore>  (292) 
-2.24644

>  <r_i_glide_lipo>  (292) 
-0.210229

>  <r_i_glide_hbond>  (292) 
-0.138969

>  <r_i_glide_metal>  (292) 
-0

>  <r_i_glide_rewards>  (292) 
-0.159226

>  <r_i_glide_evdw>  (292) 
-26.5028

>  <r_i_glide_ecoul>  (292) 
-5.03279

>  <r_i_glide_erotb>  (292) 
0.356549

>  <r_i_glide_esite>  (292) 
-0.0145082

>  <r_i_glide_emodel>  (292) 
-31.3902

>  <r_i_glide_energy>  (292) 
-31.5356

>  <r_i_glide_einternal>  (292) 
6.548

>  <r_i_glide_intrahb_reward>  (292) 
-0

>  <i_i_glide_confnum>  (292) 
2

>  <i_i_glide_posenum>  (292) 
24

>  <r_i_glide_eff_state_penalty>  (292) 
0

>  <ligand_id>  (292) 
83

>  <original_smiles>  (292) 
C=C(CO)C1CC=C2C3CCCC(C)(C4=C5CC(=O)OC(c6ccoc6)C5(C)CC4)C3CCC21C

>  <smiles>  (292) 
[H]OC([H])([H])C(=C([H])[H])C1([H])C([H])([H])C([H])=C2C3([H])C([H])([H])C([H])([H])C([H])([H])C(C4=C5C([H])([H])C(=O)OC([H])(c6c([H])oc([H])c6[H])C5(C([H])([H])[H])C([H])([H])C4([H])[H])(C([H])([H])[H])C3([H])C([H])([H])C([H])([H])C21C([H])([H])[H]

$$$$
84:1:0
     RDKit          3D

 46 50  0  0  1  0  0  0  0  0999 V2000
    2.7989   -2.3031    0.9058 C   0  0  0  0  0  0  0  0  0  0  0  0
    3.5006   -1.6905    1.9804 O   0  0  0  0  0  0  0  0  0  0  0  0
    2.9113   -0.5865    2.5486 C   0  0  0  0  0  0  0  0  0  0  0  0
    1.7095   -0.0231    2.3040 C   0  0  0  0  0  0  0  0  0  0  0  0
    1.5173    1.1026    3.2882 C   0  0  1  0  0  0  0  0  0  0  0  0
    2.9539    1.4960    3.5127 C   0  0  2  0  0  0  0  0  0  0  0  0
    3.7176    0.1648    3.5888 C   0  0  0  0  0  0  0  0  0  0  0  0
    2.8264    2.5515    4.5933 C   0  0  0  0  0  0  0  0  0  0  0  0
    1.5473    3.1718    4.2222 N   0  0  0  0  0  0  0  0  0  0  0  0
    1.3792    4.6250    4.4382 C   0  0  2  0  0  0  0  0  0  0  0  0
    1.4195    5.0678    5.9529 C   0  0  0  0  0  0  0  0  0  0  0  0
    0.1296    5.2714    6.5955 O   0  0  0  0  0  0  0  0  0  0  0  0
   -0.8511    4.4075    6.1712 C   0  0  0  0  0  0  0  0  0  0  0  0
   -1.6700    3.6445    7.0303 C   0  0  0  0  0  0  0  0  0  0  0  0
   -1.6679    3.9802    8.3748 O   0  0  0  0  0  0  0  0  0  0  0  0
   -2.4497    3.1969    9.2703 C   0  0  0  0  0  0  0  0  0  0  0  0
   -2.3844    2.5416    6.4956 C   0  0  0  0  0  0  0  0  0  0  0  0
   -2.1845    2.1294    5.1536 C   0  0  0  0  0  0  0  0  0  0  0  0
   -1.3929    2.8980    4.2939 C   0  0  0  0  0  0  0  0  0  0  0  0
   -0.9046    4.1078    4.7953 C   0  0  0  0  0  0  0  0  0  0  0  0
   -0.0136    4.9883    3.9633 C   0  0  0  0  0  0  0  0  0  0  0  0
   -0.6847    2.4405    3.0107 C   0  0  0  0  0  0  0  0  0  0  0  0
    0.8961    2.4820    3.0528 C   0  0  2  0  0  0  0  0  0  0  0  0
    3.3871   -3.1203    0.4783 H   0  0  0  0  0  0  0  0  0  0  0  0
    2.6341   -1.5794    0.1104 H   0  0  0  0  0  0  0  0  0  0  0  0
    1.8372   -2.7152    1.2189 H   0  0  0  0  0  0  0  0  0  0  0  0
    0.9495   -0.3428    1.6103 H   0  0  0  0  0  0  0  0  0  0  0  0
    1.1068    0.6481    4.1967 H   0  0  0  0  0  0  0  0  0  0  0  0
    3.3292    2.0012    2.6204 H   0  0  0  0  0  0  0  0  0  0  0  0
    3.6167   -0.3170    4.5614 H   0  0  0  0  0  0  0  0  0  0  0  0
    4.7730    0.2245    3.3132 H   0  0  0  0  0  0  0  0  0  0  0  0
    2.7254    2.0976    5.5777 H   0  0  0  0  0  0  0  0  0  0  0  0
    3.6485    3.2674    4.6046 H   0  0  0  0  0  0  0  0  0  0  0  0
    2.1272    5.1623    3.8586 H   0  0  0  0  0  0  0  0  0  0  0  0
    2.0265    4.3908    6.5532 H   0  0  0  0  0  0  0  0  0  0  0  0
    1.9009    6.0421    6.0066 H   0  0  0  0  0  0  0  0  0  0  0  0
   -2.3174    3.5813   10.2808 H   0  0  0  0  0  0  0  0  0  0  0  0
   -2.1474    2.1467    9.2842 H   0  0  0  0  0  0  0  0  0  0  0  0
   -3.5107    3.2640    9.0270 H   0  0  0  0  0  0  0  0  0  0  0  0
   -2.9883    1.9069    7.1223 H   0  0  0  0  0  0  0  0  0  0  0  0
   -2.5663    1.1801    4.8020 H   0  0  0  0  0  0  0  0  0  0  0  0
   -0.2232    6.0284    4.1950 H   0  0  0  0  0  0  0  0  0  0  0  0
   -0.1692    4.9024    2.8871 H   0  0  0  0  0  0  0  0  0  0  0  0
   -0.9971    1.4103    2.8332 H   0  0  0  0  0  0  0  0  0  0  0  0
   -1.0762    2.9892    2.1456 H   0  0  0  0  0  0  0  0  0  0  0  0
    1.2834    2.8984    2.1204 H   0  0  0  0  0  0  0  0  0  0  0  0
  1  2  1  0
  1 24  1  0
  1 25  1  0
  1 26  1  0
  2  3  1  0
  3  7  1  0
  3  4  2  0
  4  5  1  0
  4 27  1  0
  5 23  1  0
  5  6  1  0
  5 28  1  1
  6  7  1  0
  6  8  1  0
  6 29  1  6
  7 30  1  0
  7 31  1  0
  8  9  1  0
  8 32  1  0
  8 33  1  0
  9 23  1  0
  9 10  1  0
 10 21  1  0
 10 11  1  0
 10 34  1  6
 11 12  1  0
 11 35  1  0
 11 36  1  0
 12 13  1  0
 13 20  2  0
 13 14  1  0
 14 15  1  0
 14 17  2  0
 15 16  1  0
 16 37  1  0
 16 38  1  0
 16 39  1  0
 17 18  1  0
 17 40  1  0
 18 19  2  0
 18 41  1  0
 19 20  1  0
 19 22  1  0
 20 21  1  0
 21 42  1  0
 21 43  1  0
 22 23  1  0
 22 44  1  0
 22 45  1  0
 23 46  1  6
M  END
>  <i_m_ct_stereo_status>  (293) 
1

>  <s_m_source_file>  (293) 
/var/tmp/pbs.5076255.sched01/tmptyawoosb/846vw0lfia.sdf

>  <i_m_source_file_index>  (293) 
34

>  <i_lp_mmshare_version>  (293) 
48012

>  <i_f3d_flags>  (293) 
0

>  <s_epik_input>  (293) 
W0NIM11PQyg9W0NIXTEpW0NIMl1bQ0BASF0oW0NASF0xMilbQ0gyXU4zW0NIXTRbQ0gyXU9jNWMoW0NIMl00KWMoW0NIMl1bQ0BIXTIzKVtjSF1bY0hdYzVPW0NIM10=

>  <s_epik_cmdline>  (293) 
J2VwaWtfcHl0aG9uJywgJy1waHQnLCAnMi4wJywgJy1waCcsICc3LjAnLCAnLXRuJywgJzgnLCAnLW1hJywgJzIwMCcsICctaW1hZScsICc8aW5maWxlLm1hZT4nLCAnLW9tYWUnLCAnPG91dGZpbGUubWFlPic=

>  <r_lp_tautomer_probability>  (293) 
1

>  <r_epik_Ionization_Penalty>  (293) 
0.992395

>  <r_epik_Ionization_Penalty_Charging>  (293) 
0

>  <r_epik_Ionization_Penalty_Neutral>  (293) 
0.992395

>  <r_epik_State_Penalty>  (293) 
1.04022

>  <r_epik_Charging_Adjusted_Penalty>  (293) 
1.04022

>  <i_epik_Tot_Q>  (293) 
0

>  <i_epik_Tot_abs_Q>  (293) 
0

>  <s_lp_Force_Field>  (293) 
OPLS3e

>  <r_lp_Energy>  (293) 
70.1486

>  <b_lp_Chiralities_Consistent>  (293) 
1

>  <s_lp_Variant>  (293) 
84:0-2

>  <s_i_glide_gridfile>  (293) 
pfpi4k_grid

>  <i_i_glide_lignum>  (293) 
34

>  <i_i_glide_rotatable_bonds>  (293) 
2

>  <r_i_docking_score>  (293) 
-2.75411

>  <r_i_glide_ligand_efficiency>  (293) 
-0.119744

>  <r_i_glide_ligand_efficiency_sa>  (293) 
-0.340536

>  <r_i_glide_ligand_efficiency_ln>  (293) 
-0.66597

>  <r_i_glide_gscore>  (293) 
-2.75411

>  <r_i_glide_lipo>  (293) 
-0.168524

>  <r_i_glide_hbond>  (293) 
0

>  <r_i_glide_metal>  (293) 
-0

>  <r_i_glide_rewards>  (293) 
-1.27234

>  <r_i_glide_evdw>  (293) 
-17.3093

>  <r_i_glide_ecoul>  (293) 
-2.98528

>  <r_i_glide_erotb>  (293) 
0

>  <r_i_glide_esite>  (293) 
0

>  <r_i_glide_emodel>  (293) 
-23.9868

>  <r_i_glide_energy>  (293) 
-20.2945

>  <r_i_glide_einternal>  (293) 
0.205771

>  <r_i_glide_intrahb_reward>  (293) 
-0

>  <i_i_glide_confnum>  (293) 
2

>  <i_i_glide_posenum>  (293) 
2

>  <r_i_glide_eff_state_penalty>  (293) 
0

>  <ligand_id>  (293) 
84

>  <original_smiles>  (293) 
COC1=CC2C(C1)CN1C3COc4c(OC)ccc(c4C3)CC21

>  <smiles>  (293) 
[H]C1=C(OC([H])([H])[H])C([H])([H])C2([H])C([H])([H])N3C4([H])C([H])([H])Oc5c(OC([H])([H])[H])c([H])c([H])c(c5C4([H])[H])C([H])([H])C3([H])C12[H]

$$$$
84:1:1
     RDKit          3D

 46 50  0  0  1  0  0  0  0  0999 V2000
    0.5116   -9.8260    5.7923 C   0  0  0  0  0  0  0  0  0  0  0  0
   -0.1847   -8.6024    5.5506 O   0  0  0  0  0  0  0  0  0  0  0  0
    0.5628   -7.5722    5.0280 C   0  0  0  0  0  0  0  0  0  0  0  0
    1.8758   -7.5111    4.7263 C   0  0  0  0  0  0  0  0  0  0  0  0
    2.1354   -6.1810    4.0614 C   0  0  1  0  0  0  0  0  0  0  0  0
    1.0625   -5.3429    4.7089 C   0  0  2  0  0  0  0  0  0  0  0  0
   -0.1679   -6.2683    4.7575 C   0  0  0  0  0  0  0  0  0  0  0  0
    1.2168   -4.0278    3.9635 C   0  0  0  0  0  0  0  0  0  0  0  0
    2.6741   -4.0002    3.7373 N   0  0  0  0  0  0  0  0  0  0  0  0
    3.3683   -2.6901    3.7696 C   0  0  2  0  0  0  0  0  0  0  0  0
    2.9343   -1.6887    2.6288 C   0  0  0  0  0  0  0  0  0  0  0  0
    3.8117   -1.6174    1.4690 O   0  0  0  0  0  0  0  0  0  0  0  0
    4.4060   -2.8172    1.1394 C   0  0  0  0  0  0  0  0  0  0  0  0
    4.3725   -3.3762   -0.1613 C   0  0  0  0  0  0  0  0  0  0  0  0
    3.9788   -2.5489   -1.1943 O   0  0  0  0  0  0  0  0  0  0  0  0
    3.6970   -3.1333   -2.4595 C   0  0  0  0  0  0  0  0  0  0  0  0
    4.6688   -4.7569   -0.3223 C   0  0  0  0  0  0  0  0  0  0  0  0
    4.8597   -5.6006    0.7983 C   0  0  0  0  0  0  0  0  0  0  0  0
    4.8954   -5.0493    2.0874 C   0  0  0  0  0  0  0  0  0  0  0  0
    4.8370   -3.6537    2.1765 C   0  0  0  0  0  0  0  0  0  0  0  0
    4.8431   -2.9579    3.5180 C   0  0  0  0  0  0  0  0  0  0  0  0
    4.6175   -5.7527    3.4202 C   0  0  0  0  0  0  0  0  0  0  0  0
    3.3483   -5.2577    4.2147 C   0  0  2  0  0  0  0  0  0  0  0  0
   -0.1417  -10.5382    6.3046 H   0  0  0  0  0  0  0  0  0  0  0  0
    1.3778   -9.6711    6.4394 H   0  0  0  0  0  0  0  0  0  0  0  0
    0.8436  -10.3012    4.8635 H   0  0  0  0  0  0  0  0  0  0  0  0
    2.6063   -8.2997    4.8141 H   0  0  0  0  0  0  0  0  0  0  0  0
    1.9213   -6.3373    2.9987 H   0  0  0  0  0  0  0  0  0  0  0  0
    1.3376   -5.1543    5.7487 H   0  0  0  0  0  0  0  0  0  0  0  0
   -0.6780   -6.3199    3.7977 H   0  0  0  0  0  0  0  0  0  0  0  0
   -0.8819   -6.0149    5.5417 H   0  0  0  0  0  0  0  0  0  0  0  0
    0.7086   -4.0662    3.0004 H   0  0  0  0  0  0  0  0  0  0  0  0
    0.8516   -3.1720    4.5330 H   0  0  0  0  0  0  0  0  0  0  0  0
    3.2299   -2.2339    4.7508 H   0  0  0  0  0  0  0  0  0  0  0  0
    1.9093   -1.8652    2.3079 H   0  0  0  0  0  0  0  0  0  0  0  0
    2.9536   -0.6824    3.0423 H   0  0  0  0  0  0  0  0  0  0  0  0
    3.3875   -2.3497   -3.1508 H   0  0  0  0  0  0  0  0  0  0  0  0
    2.8801   -3.8477   -2.4038 H   0  0  0  0  0  0  0  0  0  0  0  0
    4.5771   -3.6153   -2.8877 H   0  0  0  0  0  0  0  0  0  0  0  0
    4.6184   -5.2283   -1.2890 H   0  0  0  0  0  0  0  0  0  0  0  0
    4.8930   -6.6727    0.6649 H   0  0  0  0  0  0  0  0  0  0  0  0
    5.3900   -2.0191    3.4332 H   0  0  0  0  0  0  0  0  0  0  0  0
    5.3454   -3.5078    4.3130 H   0  0  0  0  0  0  0  0  0  0  0  0
    4.4881   -6.8050    3.1871 H   0  0  0  0  0  0  0  0  0  0  0  0
    5.5132   -5.7099    4.0465 H   0  0  0  0  0  0  0  0  0  0  0  0
    3.5936   -5.1513    5.2703 H   0  0  0  0  0  0  0  0  0  0  0  0
  1  2  1  0
  1 24  1  0
  1 25  1  0
  1 26  1  0
  2  3  1  0
  3  7  1  0
  3  4  2  0
  4  5  1  0
  4 27  1  0
  5 23  1  0
  5  6  1  0
  5 28  1  6
  6  7  1  0
  6  8  1  0
  6 29  1  1
  7 30  1  0
  7 31  1  0
  8  9  1  0
  8 32  1  0
  8 33  1  0
  9 23  1  0
  9 10  1  0
 10 21  1  0
 10 11  1  0
 10 34  1  1
 11 12  1  0
 11 35  1  0
 11 36  1  0
 12 13  1  0
 13 20  2  0
 13 14  1  0
 14 15  1  0
 14 17  2  0
 15 16  1  0
 16 37  1  0
 16 38  1  0
 16 39  1  0
 17 18  1  0
 17 40  1  0
 18 19  2  0
 18 41  1  0
 19 20  1  0
 19 22  1  0
 20 21  1  0
 21 42  1  0
 21 43  1  0
 22 23  1  0
 22 44  1  0
 22 45  1  0
 23 46  1  1
M  END
>  <i_m_ct_stereo_status>  (294) 
1

>  <s_m_source_file>  (294) 
/var/tmp/pbs.5076255.sched01/tmptyawoosb/846vw0lfia.sdf

>  <i_m_source_file_index>  (294) 
34

>  <i_lp_mmshare_version>  (294) 
48012

>  <i_f3d_flags>  (294) 
0

>  <s_epik_input>  (294) 
W0NIM11PQyg9W0NIXTEpW0NIMl1bQ0BASF0oW0NASF0xMilbQ0gyXU4zW0NIXTRbQ0gyXU9jNWMoW0NIMl00KWMoW0NIMl1bQ0BIXTIzKVtjSF1bY0hdYzVPW0NIM10=

>  <s_epik_cmdline>  (294) 
J2VwaWtfcHl0aG9uJywgJy1waHQnLCAnMi4wJywgJy1waCcsICc3LjAnLCAnLXRuJywgJzgnLCAnLW1hJywgJzIwMCcsICctaW1hZScsICc8aW5maWxlLm1hZT4nLCAnLW9tYWUnLCAnPG91dGZpbGUubWFlPic=

>  <r_lp_tautomer_probability>  (294) 
1

>  <r_epik_Ionization_Penalty>  (294) 
0.992395

>  <r_epik_Ionization_Penalty_Charging>  (294) 
0

>  <r_epik_Ionization_Penalty_Neutral>  (294) 
0.992395

>  <r_epik_State_Penalty>  (294) 
1.04022

>  <r_epik_Charging_Adjusted_Penalty>  (294) 
1.04022

>  <i_epik_Tot_Q>  (294) 
0

>  <i_epik_Tot_abs_Q>  (294) 
0

>  <s_lp_Force_Field>  (294) 
OPLS3e

>  <r_lp_Energy>  (294) 
70.1486

>  <b_lp_Chiralities_Consistent>  (294) 
1

>  <s_lp_Variant>  (294) 
84:0-2

>  <s_i_glide_gridfile>  (294) 
pfpi4k_grid

>  <i_i_glide_lignum>  (294) 
34

>  <i_i_glide_rotatable_bonds>  (294) 
2

>  <r_i_docking_score>  (294) 
-2.52419

>  <r_i_glide_ligand_efficiency>  (294) 
-0.109748

>  <r_i_glide_ligand_efficiency_sa>  (294) 
-0.312107

>  <r_i_glide_ligand_efficiency_ln>  (294) 
-0.610373

>  <r_i_glide_gscore>  (294) 
-2.52419

>  <r_i_glide_lipo>  (294) 
-0.216848

>  <r_i_glide_hbond>  (294) 
0

>  <r_i_glide_metal>  (294) 
-0

>  <r_i_glide_rewards>  (294) 
-1.27234

>  <r_i_glide_evdw>  (294) 
-17.3555

>  <r_i_glide_ecoul>  (294) 
-1.1149

>  <r_i_glide_erotb>  (294) 
0

>  <r_i_glide_esite>  (294) 
0

>  <r_i_glide_emodel>  (294) 
-21.8709

>  <r_i_glide_energy>  (294) 
-18.4704

>  <r_i_glide_einternal>  (294) 
0.137167

>  <r_i_glide_intrahb_reward>  (294) 
-0

>  <i_i_glide_confnum>  (294) 
2

>  <i_i_glide_posenum>  (294) 
6

>  <r_i_glide_eff_state_penalty>  (294) 
0

>  <ligand_id>  (294) 
84

>  <original_smiles>  (294) 
COC1=CC2C(C1)CN1C3COc4c(OC)ccc(c4C3)CC21

>  <smiles>  (294) 
[H]C1=C(OC([H])([H])[H])C([H])([H])C2([H])C([H])([H])N3C4([H])C([H])([H])Oc5c(OC([H])([H])[H])c([H])c([H])c(c5C4([H])[H])C([H])([H])C3([H])C12[H]

$$$$
84:1:2
     RDKit          3D

 46 50  0  0  1  0  0  0  0  0999 V2000
    3.9506   -9.0834    0.9641 C   0  0  0  0  0  0  0  0  0  0  0  0
    2.5778   -9.2256    1.3270 O   0  0  0  0  0  0  0  0  0  0  0  0
    2.1240   -8.4034    2.3367 C   0  0  0  0  0  0  0  0  0  0  0  0
    2.7690   -7.4990    3.0909 C   0  0  0  0  0  0  0  0  0  0  0  0
    1.7403   -6.7802    3.9238 C   0  0  1  0  0  0  0  0  0  0  0  0
    0.7024   -7.8671    4.0689 C   0  0  2  0  0  0  0  0  0  0  0  0
    0.6492   -8.5273    2.6813 C   0  0  0  0  0  0  0  0  0  0  0  0
   -0.3838   -7.1209    4.8189 C   0  0  0  0  0  0  0  0  0  0  0  0
    0.4127   -6.1928    5.6487 N   0  0  0  0  0  0  0  0  0  0  0  0
   -0.0943   -5.8943    7.0097 C   0  0  2  0  0  0  0  0  0  0  0  0
   -1.4614   -5.1059    7.0326 C   0  0  0  0  0  0  0  0  0  0  0  0
   -1.3864   -3.6644    7.2015 O   0  0  0  0  0  0  0  0  0  0  0  0
   -0.2756   -3.0912    6.6267 C   0  0  0  0  0  0  0  0  0  0  0  0
   -0.3127   -1.9712    5.7445 C   0  0  0  0  0  0  0  0  0  0  0  0
   -1.5040   -1.2709    5.6979 O   0  0  0  0  0  0  0  0  0  0  0  0
   -1.5806   -0.1539    4.8228 C   0  0  0  0  0  0  0  0  0  0  0  0
    0.8025   -1.7019    4.9143 C   0  0  0  0  0  0  0  0  0  0  0  0
    1.9054   -2.5924    4.8415 C   0  0  0  0  0  0  0  0  0  0  0  0
    1.9613   -3.6925    5.7195 C   0  0  0  0  0  0  0  0  0  0  0  0
    0.9443   -3.7849    6.6654 C   0  0  0  0  0  0  0  0  0  0  0  0
    0.9021   -4.9465    7.6424 C   0  0  0  0  0  0  0  0  0  0  0  0
    2.7501   -5.0067    5.5413 C   0  0  0  0  0  0  0  0  0  0  0  0
    1.8887   -6.3177    5.3718 C   0  0  2  0  0  0  0  0  0  0  0  0
    4.2319   -9.8508    0.2457 H   0  0  0  0  0  0  0  0  0  0  0  0
    4.6119   -9.1944    1.8314 H   0  0  0  0  0  0  0  0  0  0  0  0
    4.1440   -8.1070    0.4991 H   0  0  0  0  0  0  0  0  0  0  0  0
    3.8177   -7.2246    3.0252 H   0  0  0  0  0  0  0  0  0  0  0  0
    1.3716   -5.9606    3.2921 H   0  0  0  0  0  0  0  0  0  0  0  0
    1.0964   -8.6307    4.7450 H   0  0  0  0  0  0  0  0  0  0  0  0
    0.0519   -7.9445    1.9825 H   0  0  0  0  0  0  0  0  0  0  0  0
    0.2956   -9.5643    2.6897 H   0  0  0  0  0  0  0  0  0  0  0  0
   -0.9898   -6.5423    4.1226 H   0  0  0  0  0  0  0  0  0  0  0  0
   -1.0294   -7.8146    5.3664 H   0  0  0  0  0  0  0  0  0  0  0  0
   -0.1792   -6.8162    7.6002 H   0  0  0  0  0  0  0  0  0  0  0  0
   -2.0708   -5.3686    6.1727 H   0  0  0  0  0  0  0  0  0  0  0  0
   -2.0278   -5.4238    7.9016 H   0  0  0  0  0  0  0  0  0  0  0  0
   -2.5750    0.2864    4.9089 H   0  0  0  0  0  0  0  0  0  0  0  0
   -1.4422   -0.4302    3.7777 H   0  0  0  0  0  0  0  0  0  0  0  0
   -0.8520    0.6098    5.0928 H   0  0  0  0  0  0  0  0  0  0  0  0
    0.7909   -0.8841    4.1952 H   0  0  0  0  0  0  0  0  0  0  0  0
    2.6522   -2.4755    4.0727 H   0  0  0  0  0  0  0  0  0  0  0  0
    0.5402   -4.5961    8.6052 H   0  0  0  0  0  0  0  0  0  0  0  0
    1.8702   -5.3974    7.8665 H   0  0  0  0  0  0  0  0  0  0  0  0
    3.3361   -4.8774    4.6440 H   0  0  0  0  0  0  0  0  0  0  0  0
    3.4678   -5.1103    6.3542 H   0  0  0  0  0  0  0  0  0  0  0  0
    2.3088   -7.1204    5.9897 H   0  0  0  0  0  0  0  0  0  0  0  0
  1  2  1  0
  1 24  1  0
  1 25  1  0
  1 26  1  0
  2  3  1  0
  3  7  1  0
  3  4  2  0
  4  5  1  0
  4 27  1  0
  5 23  1  0
  5  6  1  0
  5 28  1  6
  6  7  1  0
  6  8  1  0
  6 29  1  1
  7 30  1  0
  7 31  1  0
  8  9  1  0
  8 32  1  0
  8 33  1  0
  9 23  1  0
  9 10  1  0
 10 21  1  0
 10 11  1  0
 10 34  1  1
 11 12  1  0
 11 35  1  0
 11 36  1  0
 12 13  1  0
 13 20  2  0
 13 14  1  0
 14 15  1  0
 14 17  2  0
 15 16  1  0
 16 37  1  0
 16 38  1  0
 16 39  1  0
 17 18  1  0
 17 40  1  0
 18 19  2  0
 18 41  1  0
 19 20  1  0
 19 22  1  0
 20 21  1  0
 21 42  1  0
 21 43  1  0
 22 23  1  0
 22 44  1  0
 22 45  1  0
 23 46  1  1
M  END
>  <i_m_ct_stereo_status>  (295) 
1

>  <s_m_source_file>  (295) 
/var/tmp/pbs.5076255.sched01/tmptyawoosb/846vw0lfia.sdf

>  <i_m_source_file_index>  (295) 
34

>  <i_lp_mmshare_version>  (295) 
48012

>  <i_f3d_flags>  (295) 
0

>  <s_epik_input>  (295) 
W0NIM11PQyg9W0NIXTEpW0NIMl1bQ0BASF0oW0NASF0xMilbQ0gyXU4zW0NIXTRbQ0gyXU9jNWMoW0NIMl00KWMoW0NIMl1bQ0BIXTIzKVtjSF1bY0hdYzVPW0NIM10=

>  <s_epik_cmdline>  (295) 
J2VwaWtfcHl0aG9uJywgJy1waHQnLCAnMi4wJywgJy1waCcsICc3LjAnLCAnLXRuJywgJzgnLCAnLW1hJywgJzIwMCcsICctaW1hZScsICc8aW5maWxlLm1hZT4nLCAnLW9tYWUnLCAnPG91dGZpbGUubWFlPic=

>  <r_lp_tautomer_probability>  (295) 
1

>  <r_epik_Ionization_Penalty>  (295) 
0.992395

>  <r_epik_Ionization_Penalty_Charging>  (295) 
0

>  <r_epik_Ionization_Penalty_Neutral>  (295) 
0.992395

>  <r_epik_State_Penalty>  (295) 
1.04022

>  <r_epik_Charging_Adjusted_Penalty>  (295) 
1.04022

>  <i_epik_Tot_Q>  (295) 
0

>  <i_epik_Tot_abs_Q>  (295) 
0

>  <s_lp_Force_Field>  (295) 
OPLS3e

>  <r_lp_Energy>  (295) 
70.1486

>  <b_lp_Chiralities_Consistent>  (295) 
1

>  <s_lp_Variant>  (295) 
84:0-2

>  <s_i_glide_gridfile>  (295) 
pfpi4k_grid

>  <i_i_glide_lignum>  (295) 
34

>  <i_i_glide_rotatable_bonds>  (295) 
2

>  <r_i_docking_score>  (295) 
-2.45633

>  <r_i_glide_ligand_efficiency>  (295) 
-0.106797

>  <r_i_glide_ligand_efficiency_sa>  (295) 
-0.303716

>  <r_i_glide_ligand_efficiency_ln>  (295) 
-0.593962

>  <r_i_glide_gscore>  (295) 
-2.45633

>  <r_i_glide_lipo>  (295) 
-0.045206

>  <r_i_glide_hbond>  (295) 
0

>  <r_i_glide_metal>  (295) 
-0

>  <r_i_glide_rewards>  (295) 
-1.27234

>  <r_i_glide_evdw>  (295) 
-18.4481

>  <r_i_glide_ecoul>  (295) 
-1.44252

>  <r_i_glide_erotb>  (295) 
0

>  <r_i_glide_esite>  (295) 
0

>  <r_i_glide_emodel>  (295) 
-23.1497

>  <r_i_glide_energy>  (295) 
-19.8906

>  <r_i_glide_einternal>  (295) 
0.0659774

>  <r_i_glide_intrahb_reward>  (295) 
-0

>  <i_i_glide_confnum>  (295) 
2

>  <i_i_glide_posenum>  (295) 
1

>  <r_i_glide_eff_state_penalty>  (295) 
0

>  <ligand_id>  (295) 
84

>  <original_smiles>  (295) 
COC1=CC2C(C1)CN1C3COc4c(OC)ccc(c4C3)CC21

>  <smiles>  (295) 
[H]C1=C(OC([H])([H])[H])C([H])([H])C2([H])C([H])([H])N3C4([H])C([H])([H])Oc5c(OC([H])([H])[H])c([H])c([H])c(c5C4([H])[H])C([H])([H])C3([H])C12[H]

$$$$
85:0:0
     RDKit          3D

 26 28  0  0  1  0  0  0  0  0999 V2000
    5.5747   -1.1559    1.5866 C   0  0  0  0  0  0  0  0  0  0  0  0
    5.4757   -1.0475    0.2599 N   0  0  0  0  0  0  0  0  0  0  0  0
    5.1508   -2.1417   -0.4648 C   0  0  0  0  0  0  0  0  0  0  0  0
    5.1178   -1.9825   -1.8633 N   0  0  0  0  0  0  0  0  0  0  0  0
    4.3314   -0.9124   -2.4752 C   0  0  0  0  0  0  0  0  0  0  0  0
    3.2408   -1.4861   -3.4017 C   0  0  0  0  0  0  0  0  0  0  0  0
    3.8296   -2.4073   -4.3194 O   0  0  0  0  0  0  0  0  0  0  0  0
    4.3996   -3.5222   -3.6448 C   0  0  0  0  0  0  0  0  0  0  0  0
    5.5676   -3.0420   -2.7599 C   0  0  0  0  0  0  0  0  0  0  0  0
    4.9187   -3.3851    0.1940 C   0  0  0  0  0  0  0  0  0  0  0  0
    4.5474   -4.7180   -0.2495 C   0  0  0  0  0  0  0  0  0  0  0  0
    4.4705   -5.6035    0.7910 C   0  0  0  0  0  0  0  0  0  0  0  0
    4.8026   -4.9180    2.3519 S   0  0  0  0  0  0  0  0  0  0  0  0
    5.0702   -3.3392    1.6140 C   0  0  0  0  0  0  0  0  0  0  0  0
    5.4046   -2.2373    2.3470 N   0  0  0  0  0  0  0  0  0  0  0  0
    5.8602   -0.2528    2.1055 H   0  0  0  0  0  0  0  0  0  0  0  0
    3.8728   -0.2602   -1.7309 H   0  0  0  0  0  0  0  0  0  0  0  0
    5.0037   -0.2897   -3.0631 H   0  0  0  0  0  0  0  0  0  0  0  0
    2.4434   -1.9699   -2.8396 H   0  0  0  0  0  0  0  0  0  0  0  0
    2.7768   -0.6921   -3.9872 H   0  0  0  0  0  0  0  0  0  0  0  0
    3.6084   -4.0032   -3.0790 H   0  0  0  0  0  0  0  0  0  0  0  0
    4.7579   -4.2523   -4.3705 H   0  0  0  0  0  0  0  0  0  0  0  0
    6.3702   -2.6606   -3.3956 H   0  0  0  0  0  0  0  0  0  0  0  0
    6.0298   -3.8605   -2.2117 H   0  0  0  0  0  0  0  0  0  0  0  0
    4.3533   -4.9978   -1.2716 H   0  0  0  0  0  0  0  0  0  0  0  0
    4.2180   -6.6488    0.6950 H   0  0  0  0  0  0  0  0  0  0  0  0
  1 15  2  0
  1  2  1  0
  1 16  1  0
  2  3  2  0
  3  4  1  0
  3 10  1  0
  4  9  1  0
  4  5  1  0
  5  6  1  0
  5 17  1  0
  5 18  1  0
  6  7  1  0
  6 19  1  0
  6 20  1  0
  7  8  1  0
  8  9  1  0
  8 21  1  0
  8 22  1  0
  9 23  1  0
  9 24  1  0
 10 14  2  0
 10 11  1  0
 11 12  2  0
 11 25  1  0
 12 13  1  0
 12 26  1  0
 13 14  1  0
 14 15  1  0
M  END
>  <i_m_ct_stereo_status>  (296) 
1

>  <s_m_source_file>  (296) 
/var/tmp/pbs.5076255.sched01/tmptyawoosb/846vw0lfia.sdf

>  <i_m_source_file_index>  (296) 
35

>  <i_lp_mmshare_version>  (296) 
48012

>  <i_f3d_flags>  (296) 
0

>  <s_epik_input>  (296) 
W2NIXTFbY0hdc2MoYzEyKW5bY0hdbmMyTjNbQ0gyXVtDSDJdT1tDSDJdW0NIMl0z

>  <s_epik_cmdline>  (296) 
J2VwaWtfcHl0aG9uJywgJy1waHQnLCAnMi4wJywgJy1waCcsICc3LjAnLCAnLXRuJywgJzgnLCAnLW1hJywgJzIwMCcsICctaW1hZScsICc8aW5maWxlLm1hZT4nLCAnLW9tYWUnLCAnPG91dGZpbGUubWFlPic=

>  <r_lp_tautomer_probability>  (296) 
1

>  <r_epik_Ionization_Penalty>  (296) 
7.99667e-06

>  <r_epik_Ionization_Penalty_Charging>  (296) 
0

>  <r_epik_Ionization_Penalty_Neutral>  (296) 
7.99667e-06

>  <r_epik_State_Penalty>  (296) 
-0

>  <r_epik_Charging_Adjusted_Penalty>  (296) 
0

>  <i_epik_Tot_Q>  (296) 
0

>  <i_epik_Tot_abs_Q>  (296) 
0

>  <s_lp_Force_Field>  (296) 
OPLS3e

>  <r_lp_Energy>  (296) 
39.426

>  <b_lp_Chiralities_Consistent>  (296) 
1

>  <s_lp_Variant>  (296) 
85:0-1

>  <s_i_glide_gridfile>  (296) 
pfpi4k_grid

>  <i_i_glide_lignum>  (296) 
35

>  <i_i_glide_rotatable_bonds>  (296) 
1

>  <r_i_docking_score>  (296) 
-4.47203

>  <r_i_glide_ligand_efficiency>  (296) 
-0.298135

>  <r_i_glide_ligand_efficiency_sa>  (296) 
-0.735265

>  <r_i_glide_ligand_efficiency_ln>  (296) 
-1.20603

>  <r_i_glide_gscore>  (296) 
-4.47203

>  <r_i_glide_lipo>  (296) 
-0.637128

>  <r_i_glide_hbond>  (296) 
-0.32

>  <r_i_glide_metal>  (296) 
-0

>  <r_i_glide_rewards>  (296) 
-2.0796

>  <r_i_glide_evdw>  (296) 
-22.6248

>  <r_i_glide_ecoul>  (296) 
-4.19335

>  <r_i_glide_erotb>  (296) 
0.34462

>  <r_i_glide_esite>  (296) 
-0.0196838

>  <r_i_glide_emodel>  (296) 
-33.9417

>  <r_i_glide_energy>  (296) 
-26.8181

>  <r_i_glide_einternal>  (296) 
0.783933

>  <r_i_glide_intrahb_reward>  (296) 
-0

>  <i_i_glide_confnum>  (296) 
6

>  <i_i_glide_posenum>  (296) 
1

>  <r_i_glide_eff_state_penalty>  (296) 
0

>  <ligand_id>  (296) 
85

>  <original_smiles>  (296) 
c1nc(N2CCOCC2)c2ccsc2n1

>  <smiles>  (296) 
[H]c1nc(N2C([H])([H])C([H])([H])OC([H])([H])C2([H])[H])c2c([H])c([H])sc2n1

$$$$
85:0:1
     RDKit          3D

 26 28  0  0  1  0  0  0  0  0999 V2000
    4.5626   -1.0684    1.8915 C   0  0  0  0  0  0  0  0  0  0  0  0
    4.7889   -1.0588    0.5743 N   0  0  0  0  0  0  0  0  0  0  0  0
    4.3601   -2.1004   -0.1739 C   0  0  0  0  0  0  0  0  0  0  0  0
    4.6697   -2.0717   -1.5526 N   0  0  0  0  0  0  0  0  0  0  0  0
    4.9271   -3.2699   -2.3461 C   0  0  0  0  0  0  0  0  0  0  0  0
    3.8715   -3.3838   -3.4749 C   0  0  0  0  0  0  0  0  0  0  0  0
    3.8790   -2.1908   -4.2550 O   0  0  0  0  0  0  0  0  0  0  0  0
    3.5185   -1.0476   -3.4792 C   0  0  0  0  0  0  0  0  0  0  0  0
    4.5190   -0.8429   -2.3203 C   0  0  0  0  0  0  0  0  0  0  0  0
    3.6612   -3.1702    0.4533 C   0  0  0  0  0  0  0  0  0  0  0  0
    3.0322   -4.3817   -0.0369 C   0  0  0  0  0  0  0  0  0  0  0  0
    2.5353   -5.1501    0.9797 C   0  0  0  0  0  0  0  0  0  0  0  0
    2.6672   -4.4330    2.5575 S   0  0  0  0  0  0  0  0  0  0  0  0
    3.5109   -3.0472    1.8664 C   0  0  0  0  0  0  0  0  0  0  0  0
    3.9602   -2.0032    2.6270 N   0  0  0  0  0  0  0  0  0  0  0  0
    4.9414   -0.2138    2.4409 H   0  0  0  0  0  0  0  0  0  0  0  0
    5.9241   -3.1810   -2.7952 H   0  0  0  0  0  0  0  0  0  0  0  0
    4.9591   -4.1684   -1.7301 H   0  0  0  0  0  0  0  0  0  0  0  0
    4.0961   -4.2398   -4.1107 H   0  0  0  0  0  0  0  0  0  0  0  0
    2.8646   -3.5478   -3.0875 H   0  0  0  0  0  0  0  0  0  0  0  0
    3.5068   -0.1724   -4.1309 H   0  0  0  0  0  0  0  0  0  0  0  0
    2.5099   -1.1687   -3.0905 H   0  0  0  0  0  0  0  0  0  0  0  0
    4.2174    0.0002   -1.7009 H   0  0  0  0  0  0  0  0  0  0  0  0
    5.4912   -0.5836   -2.7199 H   0  0  0  0  0  0  0  0  0  0  0  0
    2.9960   -4.6384   -1.0820 H   0  0  0  0  0  0  0  0  0  0  0  0
    2.0639   -6.1172    0.8636 H   0  0  0  0  0  0  0  0  0  0  0  0
  1 15  2  0
  1  2  1  0
  1 16  1  0
  2  3  2  0
  3  4  1  0
  3 10  1  0
  4  9  1  0
  4  5  1  0
  5  6  1  0
  5 17  1  0
  5 18  1  0
  6  7  1  0
  6 19  1  0
  6 20  1  0
  7  8  1  0
  8  9  1  0
  8 21  1  0
  8 22  1  0
  9 23  1  0
  9 24  1  0
 10 14  2  0
 10 11  1  0
 11 12  2  0
 11 25  1  0
 12 13  1  0
 12 26  1  0
 13 14  1  0
 14 15  1  0
M  END
>  <i_m_ct_stereo_status>  (297) 
1

>  <s_m_source_file>  (297) 
/var/tmp/pbs.5076255.sched01/tmptyawoosb/846vw0lfia.sdf

>  <i_m_source_file_index>  (297) 
35

>  <i_lp_mmshare_version>  (297) 
48012

>  <i_f3d_flags>  (297) 
0

>  <s_epik_input>  (297) 
W2NIXTFbY0hdc2MoYzEyKW5bY0hdbmMyTjNbQ0gyXVtDSDJdT1tDSDJdW0NIMl0z

>  <s_epik_cmdline>  (297) 
J2VwaWtfcHl0aG9uJywgJy1waHQnLCAnMi4wJywgJy1waCcsICc3LjAnLCAnLXRuJywgJzgnLCAnLW1hJywgJzIwMCcsICctaW1hZScsICc8aW5maWxlLm1hZT4nLCAnLW9tYWUnLCAnPG91dGZpbGUubWFlPic=

>  <r_lp_tautomer_probability>  (297) 
1

>  <r_epik_Ionization_Penalty>  (297) 
7.99667e-06

>  <r_epik_Ionization_Penalty_Charging>  (297) 
0

>  <r_epik_Ionization_Penalty_Neutral>  (297) 
7.99667e-06

>  <r_epik_State_Penalty>  (297) 
-0

>  <r_epik_Charging_Adjusted_Penalty>  (297) 
0

>  <i_epik_Tot_Q>  (297) 
0

>  <i_epik_Tot_abs_Q>  (297) 
0

>  <s_lp_Force_Field>  (297) 
OPLS3e

>  <r_lp_Energy>  (297) 
39.426

>  <b_lp_Chiralities_Consistent>  (297) 
1

>  <s_lp_Variant>  (297) 
85:0-1

>  <s_i_glide_gridfile>  (297) 
pfpi4k_grid

>  <i_i_glide_lignum>  (297) 
35

>  <i_i_glide_rotatable_bonds>  (297) 
1

>  <r_i_docking_score>  (297) 
-4.12905

>  <r_i_glide_ligand_efficiency>  (297) 
-0.27527

>  <r_i_glide_ligand_efficiency_sa>  (297) 
-0.678874

>  <r_i_glide_ligand_efficiency_ln>  (297) 
-1.11354

>  <r_i_glide_gscore>  (297) 
-4.12905

>  <r_i_glide_lipo>  (297) 
-0.470582

>  <r_i_glide_hbond>  (297) 
-0.32

>  <r_i_glide_metal>  (297) 
-0

>  <r_i_glide_rewards>  (297) 
-1.98393

>  <r_i_glide_evdw>  (297) 
-21.8287

>  <r_i_glide_ecoul>  (297) 
-3.8528

>  <r_i_glide_erotb>  (297) 
0.34462

>  <r_i_glide_esite>  (297) 
-0.0298059

>  <r_i_glide_emodel>  (297) 
-32.3452

>  <r_i_glide_energy>  (297) 
-25.6815

>  <r_i_glide_einternal>  (297) 
0.71027

>  <r_i_glide_intrahb_reward>  (297) 
-0

>  <i_i_glide_confnum>  (297) 
4

>  <i_i_glide_posenum>  (297) 
31

>  <r_i_glide_eff_state_penalty>  (297) 
0

>  <ligand_id>  (297) 
85

>  <original_smiles>  (297) 
c1nc(N2CCOCC2)c2ccsc2n1

>  <smiles>  (297) 
[H]c1nc(N2C([H])([H])C([H])([H])OC([H])([H])C2([H])[H])c2c([H])c([H])sc2n1

$$$$
85:0:2
     RDKit          3D

 26 28  0  0  1  0  0  0  0  0999 V2000
    6.6524   -2.7109   -0.5579 C   0  0  0  0  0  0  0  0  0  0  0  0
    5.9857   -3.7356   -0.0321 N   0  0  0  0  0  0  0  0  0  0  0  0
    4.7285   -3.9894   -0.4621 C   0  0  0  0  0  0  0  0  0  0  0  0
    4.0322   -5.0411    0.1561 N   0  0  0  0  0  0  0  0  0  0  0  0
    4.6636   -6.3001    0.5051 C   0  0  0  0  0  0  0  0  0  0  0  0
    4.3325   -6.6371    1.9704 C   0  0  0  0  0  0  0  0  0  0  0  0
    2.9176   -6.5911    2.1800 O   0  0  0  0  0  0  0  0  0  0  0  0
    2.3689   -5.3013    1.9181 C   0  0  0  0  0  0  0  0  0  0  0  0
    2.6146   -4.9369    0.4508 C   0  0  0  0  0  0  0  0  0  0  0  0
    4.1569   -3.1850   -1.4874 C   0  0  0  0  0  0  0  0  0  0  0  0
    2.8914   -3.2078   -2.1969 C   0  0  0  0  0  0  0  0  0  0  0  0
    2.8153   -2.2270   -3.1443 C   0  0  0  0  0  0  0  0  0  0  0  0
    4.2128   -1.1990   -3.2272 S   0  0  0  0  0  0  0  0  0  0  0  0
    5.0038   -2.1309   -1.9561 C   0  0  0  0  0  0  0  0  0  0  0  0
    6.2593   -1.8549   -1.5034 N   0  0  0  0  0  0  0  0  0  0  0  0
    7.6316   -2.5340   -0.1304 H   0  0  0  0  0  0  0  0  0  0  0  0
    4.2546   -7.0742   -0.1441 H   0  0  0  0  0  0  0  0  0  0  0  0
    5.7392   -6.2718    0.3271 H   0  0  0  0  0  0  0  0  0  0  0  0
    4.6940   -7.6337    2.2277 H   0  0  0  0  0  0  0  0  0  0  0  0
    4.8262   -5.9238    2.6328 H   0  0  0  0  0  0  0  0  0  0  0  0
    1.2964   -5.3005    2.1189 H   0  0  0  0  0  0  0  0  0  0  0  0
    2.8198   -4.5458    2.5642 H   0  0  0  0  0  0  0  0  0  0  0  0
    2.2643   -3.9213    0.2896 H   0  0  0  0  0  0  0  0  0  0  0  0
    2.0706   -5.6083   -0.2156 H   0  0  0  0  0  0  0  0  0  0  0  0
    2.1161   -3.9382   -2.0333 H   0  0  0  0  0  0  0  0  0  0  0  0
    1.9760   -2.0573   -3.8029 H   0  0  0  0  0  0  0  0  0  0  0  0
  1 15  2  0
  1  2  1  0
  1 16  1  0
  2  3  2  0
  3  4  1  0
  3 10  1  0
  4  9  1  0
  4  5  1  0
  5  6  1  0
  5 17  1  0
  5 18  1  0
  6  7  1  0
  6 19  1  0
  6 20  1  0
  7  8  1  0
  8  9  1  0
  8 21  1  0
  8 22  1  0
  9 23  1  0
  9 24  1  0
 10 14  2  0
 10 11  1  0
 11 12  2  0
 11 25  1  0
 12 13  1  0
 12 26  1  0
 13 14  1  0
 14 15  1  0
M  END
>  <i_m_ct_stereo_status>  (298) 
1

>  <s_m_source_file>  (298) 
/var/tmp/pbs.5076255.sched01/tmptyawoosb/846vw0lfia.sdf

>  <i_m_source_file_index>  (298) 
35

>  <i_lp_mmshare_version>  (298) 
48012

>  <i_f3d_flags>  (298) 
0

>  <s_epik_input>  (298) 
W2NIXTFbY0hdc2MoYzEyKW5bY0hdbmMyTjNbQ0gyXVtDSDJdT1tDSDJdW0NIMl0z

>  <s_epik_cmdline>  (298) 
J2VwaWtfcHl0aG9uJywgJy1waHQnLCAnMi4wJywgJy1waCcsICc3LjAnLCAnLXRuJywgJzgnLCAnLW1hJywgJzIwMCcsICctaW1hZScsICc8aW5maWxlLm1hZT4nLCAnLW9tYWUnLCAnPG91dGZpbGUubWFlPic=

>  <r_lp_tautomer_probability>  (298) 
1

>  <r_epik_Ionization_Penalty>  (298) 
7.99667e-06

>  <r_epik_Ionization_Penalty_Charging>  (298) 
0

>  <r_epik_Ionization_Penalty_Neutral>  (298) 
7.99667e-06

>  <r_epik_State_Penalty>  (298) 
-0

>  <r_epik_Charging_Adjusted_Penalty>  (298) 
0

>  <i_epik_Tot_Q>  (298) 
0

>  <i_epik_Tot_abs_Q>  (298) 
0

>  <s_lp_Force_Field>  (298) 
OPLS3e

>  <r_lp_Energy>  (298) 
39.426

>  <b_lp_Chiralities_Consistent>  (298) 
1

>  <s_lp_Variant>  (298) 
85:0-1

>  <s_i_glide_gridfile>  (298) 
pfpi4k_grid

>  <i_i_glide_lignum>  (298) 
35

>  <i_i_glide_rotatable_bonds>  (298) 
1

>  <r_i_docking_score>  (298) 
-3.49202

>  <r_i_glide_ligand_efficiency>  (298) 
-0.232801

>  <r_i_glide_ligand_efficiency_sa>  (298) 
-0.574137

>  <r_i_glide_ligand_efficiency_ln>  (298) 
-0.94174

>  <r_i_glide_gscore>  (298) 
-3.49202

>  <r_i_glide_lipo>  (298) 
-0.349121

>  <r_i_glide_hbond>  (298) 
-0.146507

>  <r_i_glide_metal>  (298) 
-0

>  <r_i_glide_rewards>  (298) 
-1.90036

>  <r_i_glide_evdw>  (298) 
-21.801

>  <r_i_glide_ecoul>  (298) 
-2.25188

>  <r_i_glide_erotb>  (298) 
0.34462

>  <r_i_glide_esite>  (298) 
-0.0128134

>  <r_i_glide_emodel>  (298) 
-29.8335

>  <r_i_glide_energy>  (298) 
-24.0529

>  <r_i_glide_einternal>  (298) 
0.249809

>  <r_i_glide_intrahb_reward>  (298) 
-0

>  <i_i_glide_confnum>  (298) 
2

>  <i_i_glide_posenum>  (298) 
2

>  <r_i_glide_eff_state_penalty>  (298) 
0

>  <ligand_id>  (298) 
85

>  <original_smiles>  (298) 
c1nc(N2CCOCC2)c2ccsc2n1

>  <smiles>  (298) 
[H]c1nc(N2C([H])([H])C([H])([H])OC([H])([H])C2([H])[H])c2c([H])c([H])sc2n1

$$$$
86:0:0
     RDKit          3D

 28 31  0  0  1  0  0  0  0  0999 V2000
   -8.9538   -4.1261   -7.5130 C   0  0  0  0  0  0  0  0  0  0  0  0
   -8.4686   -3.9852   -6.1966 C   0  0  0  0  0  0  0  0  0  0  0  0
   -7.7777   -5.0453   -5.5885 C   0  0  0  0  0  0  0  0  0  0  0  0
   -7.6000   -6.2540   -6.2977 C   0  0  0  0  0  0  0  0  0  0  0  0
   -8.1200   -6.4025   -7.6065 C   0  0  0  0  0  0  0  0  0  0  0  0
   -8.7798   -5.3267   -8.2135 C   0  0  0  0  0  0  0  0  0  0  0  0
   -8.0182   -7.5805   -8.3074 O   0  0  0  0  0  0  0  0  0  0  0  0
   -8.1482   -8.7780   -7.5233 C   0  0  0  0  0  0  0  0  0  0  0  0
   -7.1410   -8.7780   -6.3755 C   0  0  1  0  0  0  0  0  0  0  0  0
   -5.6537   -8.7888   -6.7182 C   0  0  2  0  0  0  0  0  0  0  0  0
   -4.6568   -9.4969   -5.8094 C   0  0  0  0  0  0  0  0  0  0  0  0
   -4.5735   -8.2185   -4.9911 C   0  0  0  0  0  0  0  0  0  0  0  0
   -5.4765   -7.5539   -5.9593 N   0  0  2  0  0  0  0  0  0  0  0  0
   -6.9189   -7.4484   -5.6608 C   0  0  1  0  0  0  0  0  0  0  0  0
   -9.4550   -3.3034   -7.9813 H   0  0  0  0  0  0  0  0  0  0  0  0
   -8.6203   -3.0579   -5.6692 H   0  0  0  0  0  0  0  0  0  0  0  0
   -7.4217   -4.9376   -4.5736 H   0  0  0  0  0  0  0  0  0  0  0  0
   -9.1677   -5.4483   -9.2131 H   0  0  0  0  0  0  0  0  0  0  0  0
   -9.1711   -8.8404   -7.1346 H   0  0  0  0  0  0  0  0  0  0  0  0
   -7.9996   -9.6560   -8.1647 H   0  0  0  0  0  0  0  0  0  0  0  0
   -7.3166   -9.5741   -5.6375 H   0  0  0  0  0  0  0  0  0  0  0  0
   -5.3643   -8.6538   -7.7707 H   0  0  0  0  0  0  0  0  0  0  0  0
   -5.0933  -10.3282   -5.2499 H   0  0  0  0  0  0  0  0  0  0  0  0
   -3.7259   -9.7556   -6.3110 H   0  0  0  0  0  0  0  0  0  0  0  0
   -4.9741   -8.2925   -3.9676 H   0  0  0  0  0  0  0  0  0  0  0  0
   -3.5755   -7.7675   -5.0219 H   0  0  0  0  0  0  0  0  0  0  0  0
   -7.1101   -7.4620   -4.5824 H   0  0  0  0  0  0  0  0  0  0  0  0
   -5.0877   -6.7821   -6.5232 H   0  0  0  0  0  0  0  0  0  0  0  0
  1  6  2  0
  1  2  1  0
  1 15  1  0
  2  3  2  0
  2 16  1  0
  3  4  1  0
  3 17  1  0
  4 14  1  0
  4  5  2  0
  5  6  1  0
  5  7  1  0
  6 18  1  0
  7  8  1  0
  8  9  1  0
  8 19  1  0
  8 20  1  0
  9 14  1  0
  9 10  1  0
  9 21  1  1
 10 13  1  0
 10 11  1  0
 10 22  1  6
 11 12  1  0
 11 23  1  0
 11 24  1  0
 12 13  1  0
 12 25  1  0
 12 26  1  0
 13 14  1  0
 13 28  1  6
 14 27  1  1
M  CHG  1  13   1
M  END
>  <i_m_ct_stereo_status>  (299) 
1

>  <s_m_source_file>  (299) 
/var/tmp/pbs.5076255.sched01/tmptyawoosb/846vw0lfia.sdf

>  <i_m_source_file_index>  (299) 
36

>  <i_lp_mmshare_version>  (299) 
48012

>  <i_f3d_flags>  (299) 
0

>  <s_epik_input>  (299) 
W2NIXTFbY0hdW2NIXVtjSF1jKGMxMilPW0NIMl1bQ0BIXTNbQ0BIXTROKFtDQEBIXTIzKVtDSDJdW0NIMl00

>  <s_epik_cmdline>  (299) 
J2VwaWtfcHl0aG9uJywgJy1waHQnLCAnMi4wJywgJy1waCcsICc3LjAnLCAnLXRuJywgJzgnLCAnLW1hJywgJzIwMCcsICctaW1hZScsICc8aW5maWxlLm1hZT4nLCAnLW9tYWUnLCAnPG91dGZpbGUubWFlPic=

>  <r_lp_tautomer_probability>  (299) 
1

>  <r_epik_Ionization_Penalty>  (299) 
0.013355

>  <r_epik_Ionization_Penalty_Charging>  (299) 
0.013355

>  <r_epik_Ionization_Penalty_Neutral>  (299) 
0

>  <r_epik_State_Penalty>  (299) 
0.0103892

>  <r_epik_Charging_Adjusted_Penalty>  (299) 
0.0237442

>  <i_epik_Tot_Q>  (299) 
1

>  <i_epik_Tot_abs_Q>  (299) 
1

>  <s_lp_Force_Field>  (299) 
OPLS3e

>  <r_lp_Energy>  (299) 
33.3547

>  <b_lp_Chiralities_Consistent>  (299) 
1

>  <s_lp_Variant>  (299) 
86:0-1

>  <s_i_glide_gridfile>  (299) 
pfpi4k_grid

>  <i_i_glide_lignum>  (299) 
36

>  <i_i_glide_rotatable_bonds>  (299) 
0

>  <r_i_docking_score>  (299) 
-6.16112

>  <r_i_glide_ligand_efficiency>  (299) 
-0.44008

>  <r_i_glide_ligand_efficiency_sa>  (299) 
-1.06066

>  <r_i_glide_ligand_efficiency_ln>  (299) 
-1.69305

>  <r_i_glide_gscore>  (299) 
-6.16112

>  <r_i_glide_lipo>  (299) 
-2.49835

>  <r_i_glide_hbond>  (299) 
0

>  <r_i_glide_metal>  (299) 
-0

>  <r_i_glide_rewards>  (299) 
-2.61444

>  <r_i_glide_evdw>  (299) 
-22.0085

>  <r_i_glide_ecoul>  (299) 
0.347307

>  <r_i_glide_erotb>  (299) 
0

>  <r_i_glide_esite>  (299) 
0

>  <r_i_glide_emodel>  (299) 
-28.4635

>  <r_i_glide_energy>  (299) 
-21.6612

>  <r_i_glide_einternal>  (299) 
0

>  <r_i_glide_intrahb_reward>  (299) 
-0

>  <i_i_glide_confnum>  (299) 
1

>  <i_i_glide_posenum>  (299) 
2

>  <r_i_glide_eff_state_penalty>  (299) 
0

>  <ligand_id>  (299) 
86

>  <original_smiles>  (299) 
c1ccc2c(c1)OCC1C3CCN3C21

>  <smiles>  (299) 
[H]c1c([H])c([H])c2c(c1[H])OC([H])([H])C1([H])C2([H])[N+]2([H])C([H])([H])C([H])([H])C12[H]

$$$$
86:0:1
     RDKit          3D

 28 31  0  0  1  0  0  0  0  0999 V2000
   -4.8413   -8.0179   -5.0096 C   0  0  0  0  0  0  0  0  0  0  0  0
   -5.3730   -9.1688   -5.6212 C   0  0  0  0  0  0  0  0  0  0  0  0
   -6.4735   -9.0571   -6.4962 C   0  0  0  0  0  0  0  0  0  0  0  0
   -7.0447   -7.7896   -6.7445 C   0  0  0  0  0  0  0  0  0  0  0  0
   -6.5316   -6.6411   -6.0862 C   0  0  0  0  0  0  0  0  0  0  0  0
   -5.4164   -6.7603   -5.2366 C   0  0  0  0  0  0  0  0  0  0  0  0
   -7.0692   -5.3912   -6.2645 O   0  0  0  0  0  0  0  0  0  0  0  0
   -8.4874   -5.3463   -6.4214 C   0  0  0  0  0  0  0  0  0  0  0  0
   -8.9354   -6.2630   -7.5554 C   0  0  1  0  0  0  0  0  0  0  0  0
   -8.4843   -5.9582   -8.9779 C   0  0  2  0  0  0  0  0  0  0  0  0
   -9.3685   -6.2828  -10.1729 C   0  0  0  0  0  0  0  0  0  0  0  0
   -8.7804   -7.6863  -10.1614 C   0  0  0  0  0  0  0  0  0  0  0  0
   -7.8901   -7.2851   -9.0611 N   0  0  2  0  0  0  0  0  0  0  0  0
   -8.2353   -7.6101   -7.6672 C   0  0  1  0  0  0  0  0  0  0  0  0
   -3.9944   -8.1049   -4.3424 H   0  0  0  0  0  0  0  0  0  0  0  0
   -4.9404  -10.1335   -5.3943 H   0  0  0  0  0  0  0  0  0  0  0  0
   -6.8899   -9.9482   -6.9502 H   0  0  0  0  0  0  0  0  0  0  0  0
   -5.0300   -5.8763   -4.7543 H   0  0  0  0  0  0  0  0  0  0  0  0
   -8.9464   -5.6503   -5.4756 H   0  0  0  0  0  0  0  0  0  0  0  0
   -8.8010   -4.3142   -6.6103 H   0  0  0  0  0  0  0  0  0  0  0  0
  -10.0178   -6.4100   -7.5760 H   0  0  0  0  0  0  0  0  0  0  0  0
   -7.7415   -5.1701   -9.1184 H   0  0  0  0  0  0  0  0  0  0  0  0
  -10.4296   -6.2581   -9.9232 H   0  0  0  0  0  0  0  0  0  0  0  0
   -9.1094   -5.7032  -11.0606 H   0  0  0  0  0  0  0  0  0  0  0  0
   -9.4948   -8.4794   -9.8993 H   0  0  0  0  0  0  0  0  0  0  0  0
   -8.2275   -7.9121  -11.0751 H   0  0  0  0  0  0  0  0  0  0  0  0
   -8.9286   -8.4563   -7.5966 H   0  0  0  0  0  0  0  0  0  0  0  0
   -6.8840   -7.2624   -9.2742 H   0  0  0  0  0  0  0  0  0  0  0  0
  1  6  2  0
  1  2  1  0
  1 15  1  0
  2  3  2  0
  2 16  1  0
  3  4  1  0
  3 17  1  0
  4 14  1  0
  4  5  2  0
  5  6  1  0
  5  7  1  0
  6 18  1  0
  7  8  1  0
  8  9  1  0
  8 19  1  0
  8 20  1  0
  9 14  1  0
  9 10  1  0
  9 21  1  6
 10 13  1  0
 10 11  1  0
 10 22  1  1
 11 12  1  0
 11 23  1  0
 11 24  1  0
 12 13  1  0
 12 25  1  0
 12 26  1  0
 13 14  1  0
 13 28  1  6
 14 27  1  6
M  CHG  1  13   1
M  END
>  <i_m_ct_stereo_status>  (300) 
1

>  <s_m_source_file>  (300) 
/var/tmp/pbs.5076255.sched01/tmptyawoosb/846vw0lfia.sdf

>  <i_m_source_file_index>  (300) 
36

>  <i_lp_mmshare_version>  (300) 
48012

>  <i_f3d_flags>  (300) 
0

>  <s_epik_input>  (300) 
W2NIXTFbY0hdW2NIXVtjSF1jKGMxMilPW0NIMl1bQ0BIXTNbQ0BIXTROKFtDQEBIXTIzKVtDSDJdW0NIMl00

>  <s_epik_cmdline>  (300) 
J2VwaWtfcHl0aG9uJywgJy1waHQnLCAnMi4wJywgJy1waCcsICc3LjAnLCAnLXRuJywgJzgnLCAnLW1hJywgJzIwMCcsICctaW1hZScsICc8aW5maWxlLm1hZT4nLCAnLW9tYWUnLCAnPG91dGZpbGUubWFlPic=

>  <r_lp_tautomer_probability>  (300) 
1

>  <r_epik_Ionization_Penalty>  (300) 
0.013355

>  <r_epik_Ionization_Penalty_Charging>  (300) 
0.013355

>  <r_epik_Ionization_Penalty_Neutral>  (300) 
0

>  <r_epik_State_Penalty>  (300) 
0.0103892

>  <r_epik_Charging_Adjusted_Penalty>  (300) 
0.0237442

>  <i_epik_Tot_Q>  (300) 
1

>  <i_epik_Tot_abs_Q>  (300) 
1

>  <s_lp_Force_Field>  (300) 
OPLS3e

>  <r_lp_Energy>  (300) 
33.3547

>  <b_lp_Chiralities_Consistent>  (300) 
1

>  <s_lp_Variant>  (300) 
86:0-1

>  <s_i_glide_gridfile>  (300) 
pfpi4k_grid

>  <i_i_glide_lignum>  (300) 
36

>  <i_i_glide_rotatable_bonds>  (300) 
0

>  <r_i_docking_score>  (300) 
-6.12596

>  <r_i_glide_ligand_efficiency>  (300) 
-0.437568

>  <r_i_glide_ligand_efficiency_sa>  (300) 
-1.0546

>  <r_i_glide_ligand_efficiency_ln>  (300) 
-1.68339

>  <r_i_glide_gscore>  (300) 
-6.12596

>  <r_i_glide_lipo>  (300) 
-2.32318

>  <r_i_glide_hbond>  (300) 
0

>  <r_i_glide_metal>  (300) 
-0

>  <r_i_glide_rewards>  (300) 
-2.68393

>  <r_i_glide_evdw>  (300) 
-20.5363

>  <r_i_glide_ecoul>  (300) 
-0.613519

>  <r_i_glide_erotb>  (300) 
0

>  <r_i_glide_esite>  (300) 
0

>  <r_i_glide_emodel>  (300) 
-28.0424

>  <r_i_glide_energy>  (300) 
-21.1498

>  <r_i_glide_einternal>  (300) 
0

>  <r_i_glide_intrahb_reward>  (300) 
-0

>  <i_i_glide_confnum>  (300) 
2

>  <i_i_glide_posenum>  (300) 
1

>  <r_i_glide_eff_state_penalty>  (300) 
0

>  <ligand_id>  (300) 
86

>  <original_smiles>  (300) 
c1ccc2c(c1)OCC1C3CCN3C21

>  <smiles>  (300) 
[H]c1c([H])c([H])c2c(c1[H])OC([H])([H])C1([H])C2([H])[N+]2([H])C([H])([H])C([H])([H])C12[H]

$$$$
86:0:2
     RDKit          3D

 28 31  0  0  1  0  0  0  0  0999 V2000
   -6.4834   -4.8675   -4.4109 C   0  0  0  0  0  0  0  0  0  0  0  0
   -6.1427   -6.2214   -4.5926 C   0  0  0  0  0  0  0  0  0  0  0  0
   -6.7710   -6.9700   -5.6038 C   0  0  0  0  0  0  0  0  0  0  0  0
   -7.7433   -6.3600   -6.4333 C   0  0  0  0  0  0  0  0  0  0  0  0
   -8.0874   -5.0048   -6.2266 C   0  0  0  0  0  0  0  0  0  0  0  0
   -7.4546   -4.2666   -5.2244 C   0  0  0  0  0  0  0  0  0  0  0  0
   -9.0609   -4.3689   -6.9698 O   0  0  0  0  0  0  0  0  0  0  0  0
  -10.1876   -5.1800   -7.3028 C   0  0  0  0  0  0  0  0  0  0  0  0
   -9.7439   -6.4479   -8.0261 C   0  0  1  0  0  0  0  0  0  0  0  0
   -9.0505   -6.3105   -9.3767 C   0  0  2  0  0  0  0  0  0  0  0  0
   -9.2050   -7.3750  -10.4551 C   0  0  0  0  0  0  0  0  0  0  0  0
   -8.0773   -8.1472   -9.8035 C   0  0  0  0  0  0  0  0  0  0  0  0
   -7.8881   -7.0403   -8.8381 N   0  0  2  0  0  0  0  0  0  0  0  0
   -8.4993   -7.1320   -7.4940 C   0  0  1  0  0  0  0  0  0  0  0  0
   -6.0122   -4.2617   -3.6501 H   0  0  0  0  0  0  0  0  0  0  0  0
   -5.4125   -6.6810   -3.9367 H   0  0  0  0  0  0  0  0  0  0  0  0
   -6.5397   -8.0257   -5.7113 H   0  0  0  0  0  0  0  0  0  0  0  0
   -7.7400   -3.2464   -5.0660 H   0  0  0  0  0  0  0  0  0  0  0  0
  -10.7082   -5.4429   -6.3766 H   0  0  0  0  0  0  0  0  0  0  0  0
  -10.8951   -4.6116   -7.9181 H   0  0  0  0  0  0  0  0  0  0  0  0
  -10.5440   -7.1819   -8.1384 H   0  0  0  0  0  0  0  0  0  0  0  0
   -8.7378   -5.3158   -9.6933 H   0  0  0  0  0  0  0  0  0  0  0  0
  -10.1616   -7.8881  -10.3884 H   0  0  0  0  0  0  0  0  0  0  0  0
   -8.9619   -6.9948  -11.4458 H   0  0  0  0  0  0  0  0  0  0  0  0
   -8.3595   -9.1031   -9.3413 H   0  0  0  0  0  0  0  0  0  0  0  0
   -7.1935   -8.2295  -10.4422 H   0  0  0  0  0  0  0  0  0  0  0  0
   -8.6813   -8.1665   -7.1885 H   0  0  0  0  0  0  0  0  0  0  0  0
   -7.0458   -6.4798   -8.9032 H   0  0  0  0  0  0  0  0  0  0  0  0
  1  6  2  0
  1  2  1  0
  1 15  1  0
  2  3  2  0
  2 16  1  0
  3  4  1  0
  3 17  1  0
  4 14  1  0
  4  5  2  0
  5  6  1  0
  5  7  1  0
  6 18  1  0
  7  8  1  0
  8  9  1  0
  8 19  1  0
  8 20  1  0
  9 14  1  0
  9 10  1  0
  9 21  1  6
 10 13  1  0
 10 11  1  0
 10 22  1  6
 11 12  1  0
 11 23  1  0
 11 24  1  0
 12 13  1  0
 12 25  1  0
 12 26  1  0
 13 14  1  0
 13 28  1  1
 14 27  1  1
M  CHG  1  13   1
M  END
>  <i_m_ct_stereo_status>  (301) 
1

>  <s_m_source_file>  (301) 
/var/tmp/pbs.5076255.sched01/tmptyawoosb/846vw0lfia.sdf

>  <i_m_source_file_index>  (301) 
36

>  <i_lp_mmshare_version>  (301) 
48012

>  <i_f3d_flags>  (301) 
0

>  <s_epik_input>  (301) 
W2NIXTFbY0hdW2NIXVtjSF1jKGMxMilPW0NIMl1bQ0BIXTNbQ0BIXTROKFtDQEBIXTIzKVtDSDJdW0NIMl00

>  <s_epik_cmdline>  (301) 
J2VwaWtfcHl0aG9uJywgJy1waHQnLCAnMi4wJywgJy1waCcsICc3LjAnLCAnLXRuJywgJzgnLCAnLW1hJywgJzIwMCcsICctaW1hZScsICc8aW5maWxlLm1hZT4nLCAnLW9tYWUnLCAnPG91dGZpbGUubWFlPic=

>  <r_lp_tautomer_probability>  (301) 
1

>  <r_epik_Ionization_Penalty>  (301) 
0.013355

>  <r_epik_Ionization_Penalty_Charging>  (301) 
0.013355

>  <r_epik_Ionization_Penalty_Neutral>  (301) 
0

>  <r_epik_State_Penalty>  (301) 
0.0103892

>  <r_epik_Charging_Adjusted_Penalty>  (301) 
0.0237442

>  <i_epik_Tot_Q>  (301) 
1

>  <i_epik_Tot_abs_Q>  (301) 
1

>  <s_lp_Force_Field>  (301) 
OPLS3e

>  <r_lp_Energy>  (301) 
33.3547

>  <b_lp_Chiralities_Consistent>  (301) 
1

>  <s_lp_Variant>  (301) 
86:0-1

>  <s_i_glide_gridfile>  (301) 
pfpi4k_grid

>  <i_i_glide_lignum>  (301) 
36

>  <i_i_glide_rotatable_bonds>  (301) 
0

>  <r_i_docking_score>  (301) 
-5.71927

>  <r_i_glide_ligand_efficiency>  (301) 
-0.408519

>  <r_i_glide_ligand_efficiency_sa>  (301) 
-0.984589

>  <r_i_glide_ligand_efficiency_ln>  (301) 
-1.57163

>  <r_i_glide_gscore>  (301) 
-5.71927

>  <r_i_glide_lipo>  (301) 
-2.44908

>  <r_i_glide_hbond>  (301) 
0

>  <r_i_glide_metal>  (301) 
-0

>  <r_i_glide_rewards>  (301) 
-2.1256

>  <r_i_glide_evdw>  (301) 
-21.1899

>  <r_i_glide_ecoul>  (301) 
-0.567287

>  <r_i_glide_erotb>  (301) 
0

>  <r_i_glide_esite>  (301) 
0

>  <r_i_glide_emodel>  (301) 
-28.0746

>  <r_i_glide_energy>  (301) 
-21.7572

>  <r_i_glide_einternal>  (301) 
0

>  <r_i_glide_intrahb_reward>  (301) 
-0

>  <i_i_glide_confnum>  (301) 
2

>  <i_i_glide_posenum>  (301) 
4

>  <r_i_glide_eff_state_penalty>  (301) 
0

>  <ligand_id>  (301) 
86

>  <original_smiles>  (301) 
c1ccc2c(c1)OCC1C3CCN3C21

>  <smiles>  (301) 
[H]c1c([H])c([H])c2c(c1[H])OC([H])([H])C1([H])C2([H])[N+]2([H])C([H])([H])C([H])([H])C12[H]

$$$$
86:1:0
     RDKit          3D

 27 30  0  0  1  0  0  0  0  0999 V2000
   -8.9509   -4.1272   -7.5074 C   0  0  0  0  0  0  0  0  0  0  0  0
   -8.4656   -4.0011   -6.1891 C   0  0  0  0  0  0  0  0  0  0  0  0
   -7.7846   -5.0689   -5.5811 C   0  0  0  0  0  0  0  0  0  0  0  0
   -7.6057   -6.2840   -6.3008 C   0  0  0  0  0  0  0  0  0  0  0  0
   -8.1401   -6.4215   -7.6053 C   0  0  0  0  0  0  0  0  0  0  0  0
   -8.7830   -5.3349   -8.2166 C   0  0  0  0  0  0  0  0  0  0  0  0
   -8.0364   -7.6042   -8.3067 O   0  0  0  0  0  0  0  0  0  0  0  0
   -8.1484   -8.7915   -7.5228 C   0  0  0  0  0  0  0  0  0  0  0  0
   -7.1316   -8.7852   -6.3902 C   0  0  1  0  0  0  0  0  0  0  0  0
   -5.6531   -8.8458   -6.7354 C   0  0  2  0  0  0  0  0  0  0  0  0
   -4.6410   -9.4988   -5.7995 C   0  0  0  0  0  0  0  0  0  0  0  0
   -4.5883   -8.1911   -5.0282 C   0  0  0  0  0  0  0  0  0  0  0  0
   -5.4581   -7.5755   -6.0386 N   0  0  0  0  0  0  0  0  0  0  0  0
   -6.8802   -7.4602   -5.6847 C   0  0  1  0  0  0  0  0  0  0  0  0
   -9.4490   -3.2974   -7.9766 H   0  0  0  0  0  0  0  0  0  0  0  0
   -8.5966   -3.0642   -5.6606 H   0  0  0  0  0  0  0  0  0  0  0  0
   -7.3984   -4.9648   -4.5724 H   0  0  0  0  0  0  0  0  0  0  0  0
   -9.1648   -5.4463   -9.2224 H   0  0  0  0  0  0  0  0  0  0  0  0
   -9.1661   -8.8590   -7.1361 H   0  0  0  0  0  0  0  0  0  0  0  0
   -7.9890   -9.6534   -8.1730 H   0  0  0  0  0  0  0  0  0  0  0  0
   -7.3249   -9.5637   -5.6645 H   0  0  0  0  0  0  0  0  0  0  0  0
   -5.3649   -8.6503   -7.7724 H   0  0  0  0  0  0  0  0  0  0  0  0
   -5.0621  -10.3258   -5.2361 H   0  0  0  0  0  0  0  0  0  0  0  0
   -3.7131   -9.7570   -6.2937 H   0  0  0  0  0  0  0  0  0  0  0  0
   -5.0361   -8.1995   -4.0293 H   0  0  0  0  0  0  0  0  0  0  0  0
   -3.6110   -7.7030   -5.0596 H   0  0  0  0  0  0  0  0  0  0  0  0
   -7.0047   -7.4837   -4.6075 H   0  0  0  0  0  0  0  0  0  0  0  0
  1  6  2  0
  1  2  1  0
  1 15  1  0
  2  3  2  0
  2 16  1  0
  3  4  1  0
  3 17  1  0
  4 14  1  0
  4  5  2  0
  5  6  1  0
  5  7  1  0
  6 18  1  0
  7  8  1  0
  8  9  1  0
  8 19  1  0
  8 20  1  0
  9 14  1  0
  9 10  1  0
  9 21  1  1
 10 13  1  0
 10 11  1  0
 10 22  1  6
 11 12  1  0
 11 23  1  0
 11 24  1  0
 12 13  1  0
 12 25  1  0
 12 26  1  0
 13 14  1  0
 14 27  1  1
M  END
>  <i_m_ct_stereo_status>  (302) 
1

>  <s_m_source_file>  (302) 
/var/tmp/pbs.5076255.sched01/tmptyawoosb/846vw0lfia.sdf

>  <i_m_source_file_index>  (302) 
37

>  <i_lp_mmshare_version>  (302) 
48012

>  <i_f3d_flags>  (302) 
0

>  <s_epik_input>  (302) 
W2NIXTFbY0hdW2NIXVtjSF1jKGMxMilPW0NIMl1bQ0BIXTNbQ0BIXTROKFtDQEBIXTIzKVtDSDJdW0NIMl00

>  <s_epik_cmdline>  (302) 
J2VwaWtfcHl0aG9uJywgJy1waHQnLCAnMi4wJywgJy1waCcsICc3LjAnLCAnLXRuJywgJzgnLCAnLW1hJywgJzIwMCcsICctaW1hZScsICc8aW5maWxlLm1hZT4nLCAnLW9tYWUnLCAnPG91dGZpbGUubWFlPic=

>  <r_lp_tautomer_probability>  (302) 
1

>  <r_epik_Ionization_Penalty>  (302) 
2.25363

>  <r_epik_Ionization_Penalty_Charging>  (302) 
0

>  <r_epik_Ionization_Penalty_Neutral>  (302) 
2.25363

>  <r_epik_State_Penalty>  (302) 
2.40094

>  <r_epik_Charging_Adjusted_Penalty>  (302) 
2.40094

>  <i_epik_Tot_Q>  (302) 
0

>  <i_epik_Tot_abs_Q>  (302) 
0

>  <s_lp_Force_Field>  (302) 
OPLS3e

>  <r_lp_Energy>  (302) 
27.2663

>  <b_lp_Chiralities_Consistent>  (302) 
1

>  <s_lp_Variant>  (302) 
86:0-2

>  <s_i_glide_gridfile>  (302) 
pfpi4k_grid

>  <i_i_glide_lignum>  (302) 
37

>  <i_i_glide_rotatable_bonds>  (302) 
0

>  <r_i_docking_score>  (302) 
-6.31759

>  <r_i_glide_ligand_efficiency>  (302) 
-0.451257

>  <r_i_glide_ligand_efficiency_sa>  (302) 
-1.08759

>  <r_i_glide_ligand_efficiency_ln>  (302) 
-1.73605

>  <r_i_glide_gscore>  (302) 
-6.31759

>  <r_i_glide_lipo>  (302) 
-2.51606

>  <r_i_glide_hbond>  (302) 
0

>  <r_i_glide_metal>  (302) 
-0

>  <r_i_glide_rewards>  (302) 
-2.62059

>  <r_i_glide_evdw>  (302) 
-23.3557

>  <r_i_glide_ecoul>  (302) 
-0.0877167

>  <r_i_glide_erotb>  (302) 
0

>  <r_i_glide_esite>  (302) 
0

>  <r_i_glide_emodel>  (302) 
-31.9481

>  <r_i_glide_energy>  (302) 
-23.4434

>  <r_i_glide_einternal>  (302) 
0

>  <r_i_glide_intrahb_reward>  (302) 
-0

>  <i_i_glide_confnum>  (302) 
2

>  <i_i_glide_posenum>  (302) 
4

>  <r_i_glide_eff_state_penalty>  (302) 
0

>  <ligand_id>  (302) 
86

>  <original_smiles>  (302) 
c1ccc2c(c1)OCC1C3CCN3C21

>  <smiles>  (302) 
[H]c1c([H])c([H])c2c(c1[H])OC([H])([H])C1([H])C2([H])N2C([H])([H])C([H])([H])C21[H]

$$$$
86:1:1
     RDKit          3D

 27 30  0  0  1  0  0  0  0  0999 V2000
   -8.0928   -4.2472   -6.5476 C   0  0  0  0  0  0  0  0  0  0  0  0
   -7.4250   -4.6762   -5.3862 C   0  0  0  0  0  0  0  0  0  0  0  0
   -7.0359   -6.0298   -5.2601 C   0  0  0  0  0  0  0  0  0  0  0  0
   -7.3245   -6.9356   -6.2992 C   0  0  0  0  0  0  0  0  0  0  0  0
   -8.0152   -6.5059   -7.4691 C   0  0  0  0  0  0  0  0  0  0  0  0
   -8.3750   -5.1483   -7.5890 C   0  0  0  0  0  0  0  0  0  0  0  0
   -8.3518   -7.3709   -8.4731 O   0  0  0  0  0  0  0  0  0  0  0  0
   -8.7257   -8.6821   -8.0578 C   0  0  0  0  0  0  0  0  0  0  0  0
   -7.6381   -9.3016   -7.1951 C   0  0  1  0  0  0  0  0  0  0  0  0
   -6.2912   -9.6104   -7.8331 C   0  0  2  0  0  0  0  0  0  0  0  0
   -5.4105  -10.7577   -7.3500 C   0  0  0  0  0  0  0  0  0  0  0  0
   -4.9047   -9.8486   -6.2414 C   0  0  0  0  0  0  0  0  0  0  0  0
   -5.6492   -8.7395   -6.8497 N   0  0  0  0  0  0  0  0  0  0  0  0
   -6.9261   -8.3962   -6.2039 C   0  0  1  0  0  0  0  0  0  0  0  0
   -8.3837   -3.2089   -6.6618 H   0  0  0  0  0  0  0  0  0  0  0  0
   -7.2074   -3.9660   -4.6014 H   0  0  0  0  0  0  0  0  0  0  0  0
   -6.5333   -6.3558   -4.3602 H   0  0  0  0  0  0  0  0  0  0  0  0
   -8.8784   -4.8194   -8.4876 H   0  0  0  0  0  0  0  0  0  0  0  0
   -9.6691   -8.6122   -7.5243 H   0  0  0  0  0  0  0  0  0  0  0  0
   -8.9077   -9.2866   -8.9442 H   0  0  0  0  0  0  0  0  0  0  0  0
   -7.9810  -10.2055   -6.6985 H   0  0  0  0  0  0  0  0  0  0  0  0
   -6.0816   -9.1627   -8.8113 H   0  0  0  0  0  0  0  0  0  0  0  0
   -5.9923  -11.6024   -6.9895 H   0  0  0  0  0  0  0  0  0  0  0  0
   -4.6564  -11.0412   -8.0802 H   0  0  0  0  0  0  0  0  0  0  0  0
   -5.2440  -10.0642   -5.2276 H   0  0  0  0  0  0  0  0  0  0  0  0
   -3.8361   -9.6373   -6.3096 H   0  0  0  0  0  0  0  0  0  0  0  0
   -6.9468   -8.7723   -5.1839 H   0  0  0  0  0  0  0  0  0  0  0  0
  1  6  2  0
  1  2  1  0
  1 15  1  0
  2  3  2  0
  2 16  1  0
  3  4  1  0
  3 17  1  0
  4 14  1  0
  4  5  2  0
  5  6  1  0
  5  7  1  0
  6 18  1  0
  7  8  1  0
  8  9  1  0
  8 19  1  0
  8 20  1  0
  9 14  1  0
  9 10  1  0
  9 21  1  1
 10 13  1  0
 10 11  1  0
 10 22  1  6
 11 12  1  0
 11 23  1  0
 11 24  1  0
 12 13  1  0
 12 25  1  0
 12 26  1  0
 13 14  1  0
 14 27  1  1
M  END
>  <i_m_ct_stereo_status>  (303) 
1

>  <s_m_source_file>  (303) 
/var/tmp/pbs.5076255.sched01/tmptyawoosb/846vw0lfia.sdf

>  <i_m_source_file_index>  (303) 
37

>  <i_lp_mmshare_version>  (303) 
48012

>  <i_f3d_flags>  (303) 
0

>  <s_epik_input>  (303) 
W2NIXTFbY0hdW2NIXVtjSF1jKGMxMilPW0NIMl1bQ0BIXTNbQ0BIXTROKFtDQEBIXTIzKVtDSDJdW0NIMl00

>  <s_epik_cmdline>  (303) 
J2VwaWtfcHl0aG9uJywgJy1waHQnLCAnMi4wJywgJy1waCcsICc3LjAnLCAnLXRuJywgJzgnLCAnLW1hJywgJzIwMCcsICctaW1hZScsICc8aW5maWxlLm1hZT4nLCAnLW9tYWUnLCAnPG91dGZpbGUubWFlPic=

>  <r_lp_tautomer_probability>  (303) 
1

>  <r_epik_Ionization_Penalty>  (303) 
2.25363

>  <r_epik_Ionization_Penalty_Charging>  (303) 
0

>  <r_epik_Ionization_Penalty_Neutral>  (303) 
2.25363

>  <r_epik_State_Penalty>  (303) 
2.40094

>  <r_epik_Charging_Adjusted_Penalty>  (303) 
2.40094

>  <i_epik_Tot_Q>  (303) 
0

>  <i_epik_Tot_abs_Q>  (303) 
0

>  <s_lp_Force_Field>  (303) 
OPLS3e

>  <r_lp_Energy>  (303) 
27.2663

>  <b_lp_Chiralities_Consistent>  (303) 
1

>  <s_lp_Variant>  (303) 
86:0-2

>  <s_i_glide_gridfile>  (303) 
pfpi4k_grid

>  <i_i_glide_lignum>  (303) 
37

>  <i_i_glide_rotatable_bonds>  (303) 
0

>  <r_i_docking_score>  (303) 
-6.069

>  <r_i_glide_ligand_efficiency>  (303) 
-0.4335

>  <r_i_glide_ligand_efficiency_sa>  (303) 
-1.0448

>  <r_i_glide_ligand_efficiency_ln>  (303) 
-1.66774

>  <r_i_glide_gscore>  (303) 
-6.069

>  <r_i_glide_lipo>  (303) 
-2.33099

>  <r_i_glide_hbond>  (303) 
0

>  <r_i_glide_metal>  (303) 
-0

>  <r_i_glide_rewards>  (303) 
-2.62592

>  <r_i_glide_evdw>  (303) 
-21.2234

>  <r_i_glide_ecoul>  (303) 
-0.339444

>  <r_i_glide_erotb>  (303) 
0

>  <r_i_glide_esite>  (303) 
0

>  <r_i_glide_emodel>  (303) 
-29.7579

>  <r_i_glide_energy>  (303) 
-21.5628

>  <r_i_glide_einternal>  (303) 
0

>  <r_i_glide_intrahb_reward>  (303) 
-0

>  <i_i_glide_confnum>  (303) 
2

>  <i_i_glide_posenum>  (303) 
26

>  <r_i_glide_eff_state_penalty>  (303) 
0

>  <ligand_id>  (303) 
86

>  <original_smiles>  (303) 
c1ccc2c(c1)OCC1C3CCN3C21

>  <smiles>  (303) 
[H]c1c([H])c([H])c2c(c1[H])OC([H])([H])C1([H])C2([H])N2C([H])([H])C([H])([H])C21[H]

$$$$
86:1:2
     RDKit          3D

 27 30  0  0  1  0  0  0  0  0999 V2000
   -6.3115   -4.8673   -4.5116 C   0  0  0  0  0  0  0  0  0  0  0  0
   -5.9848   -6.2176   -4.7458 C   0  0  0  0  0  0  0  0  0  0  0  0
   -6.6872   -6.9552   -5.7220 C   0  0  0  0  0  0  0  0  0  0  0  0
   -7.7201   -6.3284   -6.4682 C   0  0  0  0  0  0  0  0  0  0  0  0
   -8.0637   -4.9823   -6.2034 C   0  0  0  0  0  0  0  0  0  0  0  0
   -7.3559   -4.2532   -5.2361 C   0  0  0  0  0  0  0  0  0  0  0  0
   -9.0809   -4.3373   -6.8753 O   0  0  0  0  0  0  0  0  0  0  0  0
  -10.2063   -5.1584   -7.1638 C   0  0  0  0  0  0  0  0  0  0  0  0
   -9.7964   -6.4000   -7.9432 C   0  0  1  0  0  0  0  0  0  0  0  0
   -9.2322   -6.2282   -9.3440 C   0  0  2  0  0  0  0  0  0  0  0  0
   -9.3959   -7.2933  -10.4224 C   0  0  0  0  0  0  0  0  0  0  0  0
   -8.2001   -8.0143   -9.8201 C   0  0  0  0  0  0  0  0  0  0  0  0
   -8.0032   -6.8831   -8.9076 N   0  0  0  0  0  0  0  0  0  0  0  0
   -8.4987   -7.0755   -7.5372 C   0  0  1  0  0  0  0  0  0  0  0  0
   -5.7820   -4.2688   -3.7838 H   0  0  0  0  0  0  0  0  0  0  0  0
   -5.1906   -6.6847   -4.1773 H   0  0  0  0  0  0  0  0  0  0  0  0
   -6.4369   -7.9919   -5.9010 H   0  0  0  0  0  0  0  0  0  0  0  0
   -7.6273   -3.2368   -5.0455 H   0  0  0  0  0  0  0  0  0  0  0  0
  -10.6602   -5.4368   -6.2119 H   0  0  0  0  0  0  0  0  0  0  0  0
  -10.9427   -4.5814   -7.7276 H   0  0  0  0  0  0  0  0  0  0  0  0
  -10.5929   -7.1317   -7.9929 H   0  0  0  0  0  0  0  0  0  0  0  0
   -8.9307   -5.2237   -9.6395 H   0  0  0  0  0  0  0  0  0  0  0  0
  -10.3323   -7.8391  -10.3175 H   0  0  0  0  0  0  0  0  0  0  0  0
   -9.2220   -6.8958  -11.4229 H   0  0  0  0  0  0  0  0  0  0  0  0
   -8.4013   -8.9465   -9.2812 H   0  0  0  0  0  0  0  0  0  0  0  0
   -7.3424   -8.0729  -10.4941 H   0  0  0  0  0  0  0  0  0  0  0  0
   -8.6028   -8.1341   -7.3103 H   0  0  0  0  0  0  0  0  0  0  0  0
  1  6  2  0
  1  2  1  0
  1 15  1  0
  2  3  2  0
  2 16  1  0
  3  4  1  0
  3 17  1  0
  4 14  1  0
  4  5  2  0
  5  6  1  0
  5  7  1  0
  6 18  1  0
  7  8  1  0
  8  9  1  0
  8 19  1  0
  8 20  1  0
  9 14  1  0
  9 10  1  0
  9 21  1  6
 10 13  1  0
 10 11  1  0
 10 22  1  6
 11 12  1  0
 11 23  1  0
 11 24  1  0
 12 13  1  0
 12 25  1  0
 12 26  1  0
 13 14  1  0
 14 27  1  1
M  END
>  <i_m_ct_stereo_status>  (304) 
1

>  <s_m_source_file>  (304) 
/var/tmp/pbs.5076255.sched01/tmptyawoosb/846vw0lfia.sdf

>  <i_m_source_file_index>  (304) 
37

>  <i_lp_mmshare_version>  (304) 
48012

>  <i_f3d_flags>  (304) 
0

>  <s_epik_input>  (304) 
W2NIXTFbY0hdW2NIXVtjSF1jKGMxMilPW0NIMl1bQ0BIXTNbQ0BIXTROKFtDQEBIXTIzKVtDSDJdW0NIMl00

>  <s_epik_cmdline>  (304) 
J2VwaWtfcHl0aG9uJywgJy1waHQnLCAnMi4wJywgJy1waCcsICc3LjAnLCAnLXRuJywgJzgnLCAnLW1hJywgJzIwMCcsICctaW1hZScsICc8aW5maWxlLm1hZT4nLCAnLW9tYWUnLCAnPG91dGZpbGUubWFlPic=

>  <r_lp_tautomer_probability>  (304) 
1

>  <r_epik_Ionization_Penalty>  (304) 
2.25363

>  <r_epik_Ionization_Penalty_Charging>  (304) 
0

>  <r_epik_Ionization_Penalty_Neutral>  (304) 
2.25363

>  <r_epik_State_Penalty>  (304) 
2.40094

>  <r_epik_Charging_Adjusted_Penalty>  (304) 
2.40094

>  <i_epik_Tot_Q>  (304) 
0

>  <i_epik_Tot_abs_Q>  (304) 
0

>  <s_lp_Force_Field>  (304) 
OPLS3e

>  <r_lp_Energy>  (304) 
27.2663

>  <b_lp_Chiralities_Consistent>  (304) 
1

>  <s_lp_Variant>  (304) 
86:0-2

>  <s_i_glide_gridfile>  (304) 
pfpi4k_grid

>  <i_i_glide_lignum>  (304) 
37

>  <i_i_glide_rotatable_bonds>  (304) 
0

>  <r_i_docking_score>  (304) 
-5.6798

>  <r_i_glide_ligand_efficiency>  (304) 
-0.4057

>  <r_i_glide_ligand_efficiency_sa>  (304) 
-0.977794

>  <r_i_glide_ligand_efficiency_ln>  (304) 
-1.56079

>  <r_i_glide_gscore>  (304) 
-5.6798

>  <r_i_glide_lipo>  (304) 
-2.38485

>  <r_i_glide_hbond>  (304) 
0

>  <r_i_glide_metal>  (304) 
-0

>  <r_i_glide_rewards>  (304) 
-2.13247

>  <r_i_glide_evdw>  (304) 
-21.9303

>  <r_i_glide_ecoul>  (304) 
-0.439719

>  <r_i_glide_erotb>  (304) 
0

>  <r_i_glide_esite>  (304) 
0

>  <r_i_glide_emodel>  (304) 
-30.0001

>  <r_i_glide_energy>  (304) 
-22.3701

>  <r_i_glide_einternal>  (304) 
0

>  <r_i_glide_intrahb_reward>  (304) 
-0

>  <i_i_glide_confnum>  (304) 
1

>  <i_i_glide_posenum>  (304) 
2

>  <r_i_glide_eff_state_penalty>  (304) 
0

>  <ligand_id>  (304) 
86

>  <original_smiles>  (304) 
c1ccc2c(c1)OCC1C3CCN3C21

>  <smiles>  (304) 
[H]c1c([H])c([H])c2c(c1[H])OC([H])([H])C1([H])C2([H])N2C([H])([H])C([H])([H])C21[H]

$$$$
87:0:0
     RDKit          3D

 75 82  0  0  1  0  0  0  0  0999 V2000
    1.2975    4.1473    6.9965 C   0  0  0  0  0  0  0  0  0  0  0  0
    0.0909    3.4612    6.3699 C   0  0  0  0  0  0  0  0  0  0  0  0
    0.0302    2.5239    5.4024 C   0  0  0  0  0  0  0  0  0  0  0  0
   -1.3866    2.2772    4.9666 C   0  0  2  0  0  0  0  0  0  0  0  0
   -2.2233    3.3143    5.7345 C   0  0  0  0  0  0  0  0  0  0  0  0
   -1.2930    3.8762    6.8342 C   0  0  1  0  0  0  0  0  0  0  0  0
   -1.6676    3.3453    8.2080 C   0  0  0  0  0  0  0  0  0  0  0  0
   -0.8336    2.6998    9.1720 C   0  0  0  0  0  0  0  0  0  0  0  0
   -1.6185    2.4255   10.2547 C   0  0  0  0  0  0  0  0  0  0  0  0
   -2.8963    2.8201   10.0314 O   0  0  0  0  0  0  0  0  0  0  0  0
   -2.9066    3.3783    8.7947 C   0  0  0  0  0  0  0  0  0  0  0  0
   -1.7619    0.9490    5.2528 O   0  0  0  0  0  0  0  0  0  0  0  0
   -0.9806   -0.0872    4.8934 C   0  0  0  0  0  0  0  0  0  0  0  0
   -1.3678   -1.2429    5.0476 O   0  0  0  0  0  0  0  0  0  0  0  0
    0.4119    0.2418    4.2521 C   0  0  2  0  0  0  0  0  0  0  0  0
    1.3289   -1.0688    4.3329 C   0  0  1  0  0  0  0  0  0  0  0  0
    1.0833   -2.0895    3.1851 C   0  0  0  0  0  0  0  0  0  0  0  0
    2.3931   -2.8897    3.0642 C   0  0  2  0  0  0  0  0  0  0  0  0
    2.4165   -3.9812    4.1719 C   0  0  0  0  0  0  0  0  0  0  0  0
    3.4082   -1.7564    3.2737 C   0  0  2  0  0  0  0  0  0  0  0  0
    4.8273   -2.2779    3.2660 C   0  0  0  0  0  0  0  0  0  0  0  0
    5.1594   -3.3191    2.4757 C   0  0  0  0  0  0  0  0  0  0  0  0
    4.1567   -4.0710    1.5950 C   0  0  2  0  0  0  0  0  0  0  0  0
    4.4503   -3.9142    0.2220 O   0  0  0  0  0  0  0  0  0  0  0  0
    3.6407   -2.8947   -0.2631 C   0  0  0  0  0  0  0  0  0  0  0  0
    4.4780   -1.6155   -0.4096 C   0  0  0  0  0  0  0  0  0  0  0  0
    3.0353   -3.3449   -1.5993 C   0  0  0  0  0  0  0  0  0  0  0  0
    2.6082   -2.6463    0.6309 O   0  0  0  0  0  0  0  0  0  0  0  0
    2.7013   -3.5636    1.7013 C   0  0  2  0  0  0  0  0  0  0  0  0
    2.8842   -0.9505    4.4732 C   0  0  1  0  0  0  0  0  0  0  0  0
    3.2748    0.5067    4.5178 C   0  0  2  0  0  0  0  0  0  0  0  0
    4.4474    0.9882    5.1911 O   0  0  0  0  0  0  0  0  0  0  0  0
    3.6727    2.1915    5.4701 C   0  0  0  0  0  0  0  0  0  0  0  0
    2.3798    1.3567    5.4312 C   0  0  2  0  0  0  0  0  0  0  0  0
    2.0694    0.7602    6.8202 C   0  0  0  0  0  0  0  0  0  0  0  0
    1.0588    1.6619    4.6563 C   0  0  2  0  0  0  0  0  0  0  0  0
    1.3099    2.4610    3.3398 C   0  0  0  0  0  0  0  0  0  0  0  0
    1.0656    5.2053    7.1384 H   0  0  0  0  0  0  0  0  0  0  0  0
    2.1761    4.1026    6.3587 H   0  0  0  0  0  0  0  0  0  0  0  0
    1.5494    3.7468    7.9791 H   0  0  0  0  0  0  0  0  0  0  0  0
   -1.4910    2.4518    3.8945 H   0  0  0  0  0  0  0  0  0  0  0  0
   -2.4602    4.1234    5.0411 H   0  0  0  0  0  0  0  0  0  0  0  0
   -3.1787    2.9277    6.0918 H   0  0  0  0  0  0  0  0  0  0  0  0
   -1.3524    4.9648    6.8621 H   0  0  0  0  0  0  0  0  0  0  0  0
    0.2161    2.4637    9.1093 H   0  0  0  0  0  0  0  0  0  0  0  0
   -1.4362    1.9670   11.2145 H   0  0  0  0  0  0  0  0  0  0  0  0
   -3.8762    3.7445    8.4899 H   0  0  0  0  0  0  0  0  0  0  0  0
    0.1535    0.3477    3.2010 H   0  0  0  0  0  0  0  0  0  0  0  0
    1.0534   -1.5960    5.2474 H   0  0  0  0  0  0  0  0  0  0  0  0
    0.2215   -2.7297    3.3792 H   0  0  0  0  0  0  0  0  0  0  0  0
    0.8925   -1.5616    2.2498 H   0  0  0  0  0  0  0  0  0  0  0  0
    3.3657   -4.5146    4.2107 H   0  0  0  0  0  0  0  0  0  0  0  0
    1.6442   -4.7286    3.9900 H   0  0  0  0  0  0  0  0  0  0  0  0
    2.2426   -3.5818    5.1700 H   0  0  0  0  0  0  0  0  0  0  0  0
    3.3568   -1.0886    2.4138 H   0  0  0  0  0  0  0  0  0  0  0  0
    5.5636   -1.7654    3.8652 H   0  0  0  0  0  0  0  0  0  0  0  0
    6.1751   -3.6832    2.4351 H   0  0  0  0  0  0  0  0  0  0  0  0
    4.2106   -5.1274    1.8571 H   0  0  0  0  0  0  0  0  0  0  0  0
    4.8843   -1.3116    0.5542 H   0  0  0  0  0  0  0  0  0  0  0  0
    3.8471   -0.8125   -0.7914 H   0  0  0  0  0  0  0  0  0  0  0  0
    5.3014   -1.7914   -1.1024 H   0  0  0  0  0  0  0  0  0  0  0  0
    2.4434   -4.2487   -1.4646 H   0  0  0  0  0  0  0  0  0  0  0  0
    3.8317   -3.5448   -2.3184 H   0  0  0  0  0  0  0  0  0  0  0  0
    2.3889   -2.5608   -1.9971 H   0  0  0  0  0  0  0  0  0  0  0  0
    2.0110   -4.3820    1.4975 H   0  0  0  0  0  0  0  0  0  0  0  0
    3.1961   -1.4400    5.3975 H   0  0  0  0  0  0  0  0  0  0  0  0
    3.3262    0.8872    3.4995 H   0  0  0  0  0  0  0  0  0  0  0  0
    3.9000    2.5977    6.4584 H   0  0  0  0  0  0  0  0  0  0  0  0
    3.7733    2.9506    4.6930 H   0  0  0  0  0  0  0  0  0  0  0  0
    1.7678    1.5181    7.5373 H   0  0  0  0  0  0  0  0  0  0  0  0
    2.9593    0.2813    7.2370 H   0  0  0  0  0  0  0  0  0  0  0  0
    1.2889    0.0033    6.8023 H   0  0  0  0  0  0  0  0  0  0  0  0
    1.8254    1.8992    2.5603 H   0  0  0  0  0  0  0  0  0  0  0  0
    1.8664    3.3829    3.5224 H   0  0  0  0  0  0  0  0  0  0  0  0
    0.3733    2.7627    2.8694 H   0  0  0  0  0  0  0  0  0  0  0  0
  1  2  1  0
  1 38  1  0
  1 39  1  0
  1 40  1  0
  2  6  1  0
  2  3  2  0
  3 36  1  0
  3  4  1  0
  4  5  1  0
  4 12  1  0
  4 41  1  6
  5  6  1  0
  5 42  1  0
  5 43  1  0
  6  7  1  0
  6 44  1  1
  7 11  2  0
  7  8  1  0
  8  9  2  0
  8 45  1  0
  9 10  1  0
  9 46  1  0
 10 11  1  0
 11 47  1  0
 12 13  1  0
 13 14  2  0
 13 15  1  0
 15 36  1  0
 15 16  1  0
 15 48  1  6
 16 30  1  0
 16 17  1  0
 16 49  1  1
 17 18  1  0
 17 50  1  0
 17 51  1  0
 18 29  1  0
 18 19  1  1
 18 20  1  0
 19 52  1  0
 19 53  1  0
 19 54  1  0
 20 21  1  0
 20 30  1  0
 20 55  1  6
 21 22  2  0
 21 56  1  0
 22 23  1  0
 22 57  1  0
 23 29  1  0
 23 24  1  0
 23 58  1  1
 24 25  1  0
 25 26  1  0
 25 27  1  0
 25 28  1  0
 26 59  1  0
 26 60  1  0
 26 61  1  0
 27 62  1  0
 27 63  1  0
 27 64  1  0
 28 29  1  0
 29 65  1  6
 30 31  1  0
 30 66  1  1
 31 34  1  0
 31 32  1  0
 31 67  1  6
 32 33  1  0
 33 34  1  0
 33 68  1  0
 33 69  1  0
 34 35  1  1
 34 36  1  0
 35 70  1  0
 35 71  1  0
 35 72  1  0
 36 37  1  6
 37 73  1  0
 37 74  1  0
 37 75  1  0
M  END
>  <i_m_ct_stereo_status>  (305) 
1

>  <s_m_source_file>  (305) 
/var/tmp/pbs.5076255.sched01/tmptyawoosb/846vw0lfia.sdf

>  <i_m_source_file_index>  (305) 
38

>  <i_lp_mmshare_version>  (305) 
48012

>  <i_f3d_flags>  (305) 
0

>  <s_epik_input>  (305) 
W2NIXTFvW2NIXVtjSF1jMVtDQEBIXShDPTJbQ0gzXSlbQ0gyXVtDQEhdKE9DMz1PKUMyW0NAQF0oW0NIM10pKFtDQEBdNChbQ0gzXSlbQ0BIXTVPW0NIMl00KVtDQEhdM1tDQEBIXShbQ0gyXTYpW0NASF01W0NASF0oW0NAQF02N1tDSDNdKVtDSF09W0NIXVtDQEhdOFtDQEBIXTdPQyhPOCkoW0NIM10pW0NIM10=

>  <s_epik_cmdline>  (305) 
J2VwaWtfcHl0aG9uJywgJy1waHQnLCAnMi4wJywgJy1waCcsICc3LjAnLCAnLXRuJywgJzgnLCAnLW1hJywgJzIwMCcsICctaW1hZScsICc8aW5maWxlLm1hZT4nLCAnLW9tYWUnLCAnPG91dGZpbGUubWFlPic=

>  <r_lp_tautomer_probability>  (305) 
1

>  <r_epik_Ionization_Penalty>  (305) 
8.51498e-12

>  <r_epik_Ionization_Penalty_Charging>  (305) 
0

>  <r_epik_Ionization_Penalty_Neutral>  (305) 
8.51498e-12

>  <r_epik_State_Penalty>  (305) 
-0

>  <r_epik_Charging_Adjusted_Penalty>  (305) 
0

>  <i_epik_Tot_Q>  (305) 
0

>  <i_epik_Tot_abs_Q>  (305) 
0

>  <s_epik_Chemistry_Notes>  (305) 
This compound has an ester and may undergo hydrolysis at high or low pH.

>  <s_lp_Force_Field>  (305) 
OPLS3e

>  <r_lp_Energy>  (305) 
55.5941

>  <b_lp_Chiralities_Consistent>  (305) 
1

>  <s_lp_Variant>  (305) 
87:0-1

>  <s_i_glide_gridfile>  (305) 
pfpi4k_grid

>  <i_i_glide_lignum>  (305) 
38

>  <i_i_glide_rotatable_bonds>  (305) 
1

>  <r_i_docking_score>  (305) 
-1.85509

>  <r_i_glide_ligand_efficiency>  (305) 
-0.0501376

>  <r_i_glide_ligand_efficiency_sa>  (305) 
-0.16707

>  <r_i_glide_ligand_efficiency_ln>  (305) 
-0.402326

>  <r_i_glide_gscore>  (305) 
-1.85509

>  <r_i_glide_lipo>  (305) 
-0.311379

>  <r_i_glide_hbond>  (305) 
0

>  <r_i_glide_metal>  (305) 
-0

>  <r_i_glide_rewards>  (305) 
0

>  <r_i_glide_evdw>  (305) 
-28.0702

>  <r_i_glide_ecoul>  (305) 
-1.17839

>  <r_i_glide_erotb>  (305) 
0.0797171

>  <r_i_glide_esite>  (305) 
-0.0431583

>  <r_i_glide_emodel>  (305) 
-32.5291

>  <r_i_glide_energy>  (305) 
-29.2486

>  <r_i_glide_einternal>  (305) 
0.306226

>  <r_i_glide_intrahb_reward>  (305) 
-0

>  <i_i_glide_confnum>  (305) 
1

>  <i_i_glide_posenum>  (305) 
10

>  <r_i_glide_eff_state_penalty>  (305) 
0

>  <ligand_id>  (305) 
87

>  <original_smiles>  (305) 
CC1=C2C(CC1c1ccoc1)OC(=O)C1C3CC4(C)C(C=CC5OC(C)(C)OC54)C3C3OCC3(C)C21C

>  <smiles>  (305) 
[H]C1=C([H])C2([H])C3([H])C4([H])OC([H])([H])C4(C([H])([H])[H])C4(C([H])([H])[H])C5=C(C([H])([H])[H])C([H])(c6c([H])oc([H])c6[H])C([H])([H])C5([H])OC(=O)C4([H])C3([H])C([H])([H])C2(C([H])([H])[H])C2([H])OC(C([H])([H])[H])(C([H])([H])[H])OC12[H]

$$$$
87:0:1
     RDKit          3D

 75 82  0  0  1  0  0  0  0  0999 V2000
    2.0362   -8.2372    7.3294 C   0  0  0  0  0  0  0  0  0  0  0  0
    1.2373   -8.1662    6.0394 C   0  0  0  0  0  0  0  0  0  0  0  0
    0.8810   -7.0962    5.2987 C   0  0  0  0  0  0  0  0  0  0  0  0
   -0.0568   -7.4897    4.1969 C   0  0  2  0  0  0  0  0  0  0  0  0
   -0.3554   -8.9759    4.4367 C   0  0  0  0  0  0  0  0  0  0  0  0
    0.7052   -9.4616    5.4506 C   0  0  1  0  0  0  0  0  0  0  0  0
    1.7904  -10.3029    4.7985 C   0  0  0  0  0  0  0  0  0  0  0  0
    2.0142  -10.5457    3.4087 C   0  0  0  0  0  0  0  0  0  0  0  0
    3.0762  -11.3977    3.3141 C   0  0  0  0  0  0  0  0  0  0  0  0
    3.5580  -11.6961    4.5488 O   0  0  0  0  0  0  0  0  0  0  0  0
    2.7697  -11.0269    5.4303 C   0  0  0  0  0  0  0  0  0  0  0  0
    0.5275   -7.2365    2.9418 O   0  0  0  0  0  0  0  0  0  0  0  0
    1.1088   -6.0594    2.6668 C   0  0  0  0  0  0  0  0  0  0  0  0
    1.4922   -5.8090    1.5253 O   0  0  0  0  0  0  0  0  0  0  0  0
    1.1955   -5.0007    3.8198 C   0  0  2  0  0  0  0  0  0  0  0  0
    2.2781   -3.8857    3.4241 C   0  0  1  0  0  0  0  0  0  0  0  0
    1.7406   -2.7626    2.4938 C   0  0  0  0  0  0  0  0  0  0  0  0
    2.6335   -1.5441    2.7457 C   0  0  2  0  0  0  0  0  0  0  0  0
    3.9424   -1.7218    1.9228 C   0  0  0  0  0  0  0  0  0  0  0  0
    2.8160   -1.6643    4.2647 C   0  0  2  0  0  0  0  0  0  0  0  0
    3.7466   -0.5953    4.7886 C   0  0  0  0  0  0  0  0  0  0  0  0
    3.7578    0.6235    4.2123 C   0  0  0  0  0  0  0  0  0  0  0  0
    2.9031    0.9947    2.9921 C   0  0  2  0  0  0  0  0  0  0  0  0
    1.9555    1.9929    3.3050 O   0  0  0  0  0  0  0  0  0  0  0  0
    0.7485    1.3550    3.5540 C   0  0  0  0  0  0  0  0  0  0  0  0
    0.5181    1.3053    5.0715 C   0  0  0  0  0  0  0  0  0  0  0  0
   -0.3605    2.1194    2.8245 C   0  0  0  0  0  0  0  0  0  0  0  0
    0.7830    0.0505    3.0740 O   0  0  0  0  0  0  0  0  0  0  0  0
    2.0313   -0.1498    2.4342 C   0  0  2  0  0  0  0  0  0  0  0  0
    3.1117   -3.1514    4.5267 C   0  0  1  0  0  0  0  0  0  0  0  0
    2.7130   -3.6761    5.8837 C   0  0  2  0  0  0  0  0  0  0  0  0
    3.5946   -3.6889    7.0153 O   0  0  0  0  0  0  0  0  0  0  0  0
    2.9084   -4.9081    7.4178 C   0  0  0  0  0  0  0  0  0  0  0  0
    2.5867   -5.2047    5.9415 C   0  0  2  0  0  0  0  0  0  0  0  0
    3.7294   -6.0039    5.2801 C   0  0  0  0  0  0  0  0  0  0  0  0
    1.2121   -5.5960    5.3174 C   0  0  2  0  0  0  0  0  0  0  0  0
    0.0041   -4.9768    6.0880 C   0  0  0  0  0  0  0  0  0  0  0  0
    1.5760   -8.9786    7.9860 H   0  0  0  0  0  0  0  0  0  0  0  0
    2.0333   -7.2979    7.8764 H   0  0  0  0  0  0  0  0  0  0  0  0
    3.0635   -8.5593    7.1504 H   0  0  0  0  0  0  0  0  0  0  0  0
   -0.9872   -6.9274    4.2627 H   0  0  0  0  0  0  0  0  0  0  0  0
   -1.3306   -9.0426    4.9198 H   0  0  0  0  0  0  0  0  0  0  0  0
   -0.4451   -9.5673    3.5257 H   0  0  0  0  0  0  0  0  0  0  0  0
    0.2250  -10.0526    6.2357 H   0  0  0  0  0  0  0  0  0  0  0  0
    1.4594  -10.1716    2.5629 H   0  0  0  0  0  0  0  0  0  0  0  0
    3.5792  -11.8721    2.4832 H   0  0  0  0  0  0  0  0  0  0  0  0
    3.0132  -11.1951    6.4693 H   0  0  0  0  0  0  0  0  0  0  0  0
    0.2317   -4.5048    3.7331 H   0  0  0  0  0  0  0  0  0  0  0  0
    3.0479   -4.3856    2.8344 H   0  0  0  0  0  0  0  0  0  0  0  0
    1.7929   -3.0516    1.4441 H   0  0  0  0  0  0  0  0  0  0  0  0
    0.7095   -2.5158    2.7542 H   0  0  0  0  0  0  0  0  0  0  0  0
    4.6787   -0.9484    2.1348 H   0  0  0  0  0  0  0  0  0  0  0  0
    3.7339   -1.6728    0.8531 H   0  0  0  0  0  0  0  0  0  0  0  0
    4.4312   -2.6784    2.1034 H   0  0  0  0  0  0  0  0  0  0  0  0
    1.8563   -1.4527    4.7355 H   0  0  0  0  0  0  0  0  0  0  0  0
    4.3512   -0.8207    5.6529 H   0  0  0  0  0  0  0  0  0  0  0  0
    4.3944    1.4073    4.5949 H   0  0  0  0  0  0  0  0  0  0  0  0
    3.5711    1.3469    2.2096 H   0  0  0  0  0  0  0  0  0  0  0  0
    1.3191    0.7511    5.5597 H   0  0  0  0  0  0  0  0  0  0  0  0
   -0.4301    0.8093    5.2781 H   0  0  0  0  0  0  0  0  0  0  0  0
    0.4963    2.3178    5.4780 H   0  0  0  0  0  0  0  0  0  0  0  0
   -0.1652    2.1356    1.7514 H   0  0  0  0  0  0  0  0  0  0  0  0
   -0.4088    3.1463    3.1887 H   0  0  0  0  0  0  0  0  0  0  0  0
   -1.3218    1.6384    2.9970 H   0  0  0  0  0  0  0  0  0  0  0  0
    1.8838   -0.0060    1.3629 H   0  0  0  0  0  0  0  0  0  0  0  0
    4.1717   -3.3437    4.3535 H   0  0  0  0  0  0  0  0  0  0  0  0
    1.8104   -3.1593    6.2030 H   0  0  0  0  0  0  0  0  0  0  0  0
    3.5947   -5.6298    7.8689 H   0  0  0  0  0  0  0  0  0  0  0  0
    2.0500   -4.7189    8.0630 H   0  0  0  0  0  0  0  0  0  0  0  0
    3.7924   -7.0241    5.6508 H   0  0  0  0  0  0  0  0  0  0  0  0
    4.6947   -5.5390    5.4961 H   0  0  0  0  0  0  0  0  0  0  0  0
    3.6496   -6.0640    4.1974 H   0  0  0  0  0  0  0  0  0  0  0  0
   -0.0830   -3.8937    6.0007 H   0  0  0  0  0  0  0  0  0  0  0  0
    0.0276   -5.2331    7.1490 H   0  0  0  0  0  0  0  0  0  0  0  0
   -0.9472   -5.3505    5.7090 H   0  0  0  0  0  0  0  0  0  0  0  0
  1  2  1  0
  1 38  1  0
  1 39  1  0
  1 40  1  0
  2  6  1  0
  2  3  2  0
  3 36  1  0
  3  4  1  0
  4  5  1  0
  4 12  1  0
  4 41  1  1
  5  6  1  0
  5 42  1  0
  5 43  1  0
  6  7  1  0
  6 44  1  1
  7 11  2  0
  7  8  1  0
  8  9  2  0
  8 45  1  0
  9 10  1  0
  9 46  1  0
 10 11  1  0
 11 47  1  0
 12 13  1  0
 13 14  2  0
 13 15  1  0
 15 36  1  0
 15 16  1  0
 15 48  1  1
 16 30  1  0
 16 17  1  0
 16 49  1  6
 17 18  1  0
 17 50  1  0
 17 51  1  0
 18 29  1  0
 18 19  1  6
 18 20  1  0
 19 52  1  0
 19 53  1  0
 19 54  1  0
 20 21  1  0
 20 30  1  0
 20 55  1  1
 21 22  2  0
 21 56  1  0
 22 23  1  0
 22 57  1  0
 23 29  1  0
 23 24  1  0
 23 58  1  6
 24 25  1  0
 25 26  1  0
 25 27  1  0
 25 28  1  0
 26 59  1  0
 26 60  1  0
 26 61  1  0
 27 62  1  0
 27 63  1  0
 27 64  1  0
 28 29  1  0
 29 65  1  6
 30 31  1  0
 30 66  1  6
 31 34  1  0
 31 32  1  0
 31 67  1  1
 32 33  1  0
 33 34  1  0
 33 68  1  0
 33 69  1  0
 34 35  1  6
 34 36  1  0
 35 70  1  0
 35 71  1  0
 35 72  1  0
 36 37  1  1
 37 73  1  0
 37 74  1  0
 37 75  1  0
M  END
>  <i_m_ct_stereo_status>  (306) 
1

>  <s_m_source_file>  (306) 
/var/tmp/pbs.5076255.sched01/tmptyawoosb/846vw0lfia.sdf

>  <i_m_source_file_index>  (306) 
38

>  <i_lp_mmshare_version>  (306) 
48012

>  <i_f3d_flags>  (306) 
0

>  <s_epik_input>  (306) 
W2NIXTFvW2NIXVtjSF1jMVtDQEBIXShDPTJbQ0gzXSlbQ0gyXVtDQEhdKE9DMz1PKUMyW0NAQF0oW0NIM10pKFtDQEBdNChbQ0gzXSlbQ0BIXTVPW0NIMl00KVtDQEhdM1tDQEBIXShbQ0gyXTYpW0NASF01W0NASF0oW0NAQF02N1tDSDNdKVtDSF09W0NIXVtDQEhdOFtDQEBIXTdPQyhPOCkoW0NIM10pW0NIM10=

>  <s_epik_cmdline>  (306) 
J2VwaWtfcHl0aG9uJywgJy1waHQnLCAnMi4wJywgJy1waCcsICc3LjAnLCAnLXRuJywgJzgnLCAnLW1hJywgJzIwMCcsICctaW1hZScsICc8aW5maWxlLm1hZT4nLCAnLW9tYWUnLCAnPG91dGZpbGUubWFlPic=

>  <r_lp_tautomer_probability>  (306) 
1

>  <r_epik_Ionization_Penalty>  (306) 
8.51498e-12

>  <r_epik_Ionization_Penalty_Charging>  (306) 
0

>  <r_epik_Ionization_Penalty_Neutral>  (306) 
8.51498e-12

>  <r_epik_State_Penalty>  (306) 
-0

>  <r_epik_Charging_Adjusted_Penalty>  (306) 
0

>  <i_epik_Tot_Q>  (306) 
0

>  <i_epik_Tot_abs_Q>  (306) 
0

>  <s_epik_Chemistry_Notes>  (306) 
This compound has an ester and may undergo hydrolysis at high or low pH.

>  <s_lp_Force_Field>  (306) 
OPLS3e

>  <r_lp_Energy>  (306) 
55.5941

>  <b_lp_Chiralities_Consistent>  (306) 
1

>  <s_lp_Variant>  (306) 
87:0-1

>  <s_i_glide_gridfile>  (306) 
pfpi4k_grid

>  <i_i_glide_lignum>  (306) 
38

>  <i_i_glide_rotatable_bonds>  (306) 
1

>  <r_i_docking_score>  (306) 
-1.75632

>  <r_i_glide_ligand_efficiency>  (306) 
-0.0474681

>  <r_i_glide_ligand_efficiency_sa>  (306) 
-0.158174

>  <r_i_glide_ligand_efficiency_ln>  (306) 
-0.380905

>  <r_i_glide_gscore>  (306) 
-1.75632

>  <r_i_glide_lipo>  (306) 
-0.0666541

>  <r_i_glide_hbond>  (306) 
-0.104174

>  <r_i_glide_metal>  (306) 
-0

>  <r_i_glide_rewards>  (306) 
0

>  <r_i_glide_evdw>  (306) 
-24.1557

>  <r_i_glide_ecoul>  (306) 
-2.60645

>  <r_i_glide_erotb>  (306) 
0.0797171

>  <r_i_glide_esite>  (306) 
-0.0664576

>  <r_i_glide_emodel>  (306) 
-29.4148

>  <r_i_glide_energy>  (306) 
-26.7621

>  <r_i_glide_einternal>  (306) 
1.11812

>  <r_i_glide_intrahb_reward>  (306) 
-0

>  <i_i_glide_confnum>  (306) 
2

>  <i_i_glide_posenum>  (306) 
7

>  <r_i_glide_eff_state_penalty>  (306) 
0

>  <ligand_id>  (306) 
87

>  <original_smiles>  (306) 
CC1=C2C(CC1c1ccoc1)OC(=O)C1C3CC4(C)C(C=CC5OC(C)(C)OC54)C3C3OCC3(C)C21C

>  <smiles>  (306) 
[H]C1=C([H])C2([H])C3([H])C4([H])OC([H])([H])C4(C([H])([H])[H])C4(C([H])([H])[H])C5=C(C([H])([H])[H])C([H])(c6c([H])oc([H])c6[H])C([H])([H])C5([H])OC(=O)C4([H])C3([H])C([H])([H])C2(C([H])([H])[H])C2([H])OC(C([H])([H])[H])(C([H])([H])[H])OC12[H]

$$$$
87:0:2
     RDKit          3D

 75 82  0  0  1  0  0  0  0  0999 V2000
    2.4626    2.5003    7.0528 C   0  0  0  0  0  0  0  0  0  0  0  0
    1.2381    1.7835    6.5127 C   0  0  0  0  0  0  0  0  0  0  0  0
    1.0784    1.0509    5.3929 C   0  0  0  0  0  0  0  0  0  0  0  0
   -0.3599    0.6729    5.1913 C   0  0  2  0  0  0  0  0  0  0  0  0
   -1.1212    1.3968    6.3152 C   0  0  0  0  0  0  0  0  0  0  0  0
   -0.0488    1.8929    7.3061 C   0  0  1  0  0  0  0  0  0  0  0  0
   -0.0416    1.0614    8.5715 C   0  0  0  0  0  0  0  0  0  0  0  0
    0.4978   -0.2487    8.7630 C   0  0  0  0  0  0  0  0  0  0  0  0
    0.2591   -0.5842   10.0666 C   0  0  0  0  0  0  0  0  0  0  0  0
   -0.3952    0.4177   10.7055 O   0  0  0  0  0  0  0  0  0  0  0  0
   -0.5745    1.4008    9.7880 C   0  0  0  0  0  0  0  0  0  0  0  0
   -0.5111   -0.7278    5.2407 O   0  0  0  0  0  0  0  0  0  0  0  0
    0.2964   -1.5400    4.5316 C   0  0  0  0  0  0  0  0  0  0  0  0
    0.0947   -2.7513    4.5012 O   0  0  0  0  0  0  0  0  0  0  0  0
    1.4642   -0.8836    3.7228 C   0  0  2  0  0  0  0  0  0  0  0  0
    2.5238   -2.0252    3.3416 C   0  0  1  0  0  0  0  0  0  0  0  0
    2.1548   -2.8389    2.0689 C   0  0  0  0  0  0  0  0  0  0  0  0
    3.4860   -3.3835    1.5242 C   0  0  2  0  0  0  0  0  0  0  0  0
    3.8788   -4.6471    2.3426 C   0  0  0  0  0  0  0  0  0  0  0  0
    4.3839   -2.1618    1.7779 C   0  0  2  0  0  0  0  0  0  0  0  0
    5.8161   -2.4415    1.3843 C   0  0  0  0  0  0  0  0  0  0  0  0
    6.0853   -3.2506    0.3396 C   0  0  0  0  0  0  0  0  0  0  0  0
    5.0047   -3.9720   -0.4781 C   0  0  2  0  0  0  0  0  0  0  0  0
    4.9722   -3.5103   -1.8137 O   0  0  0  0  0  0  0  0  0  0  0  0
    3.9590   -2.5647   -1.8998 C   0  0  0  0  0  0  0  0  0  0  0  0
    4.5907   -1.1652   -1.9140 C   0  0  0  0  0  0  0  0  0  0  0  0
    3.1412   -2.8444   -3.1675 C   0  0  0  0  0  0  0  0  0  0  0  0
    3.1208   -2.6566   -0.7961 O   0  0  0  0  0  0  0  0  0  0  0  0
    3.5574   -3.7311    0.0122 C   0  0  2  0  0  0  0  0  0  0  0  0
    4.0469   -1.6926    3.2039 C   0  0  1  0  0  0  0  0  0  0  0  0
    4.2635   -0.2283    3.4932 C   0  0  2  0  0  0  0  0  0  0  0  0
    5.4886    0.2971    4.0255 O   0  0  0  0  0  0  0  0  0  0  0  0
    4.6563    1.2824    4.7044 C   0  0  0  0  0  0  0  0  0  0  0  0
    3.4961    0.2767    4.7237 C   0  0  2  0  0  0  0  0  0  0  0  0
    3.5702   -0.6123    5.9811 C   0  0  0  0  0  0  0  0  0  0  0  0
    2.0151    0.5159    4.2976 C   0  0  2  0  0  0  0  0  0  0  0  0
    1.8767    1.5781    3.1617 C   0  0  0  0  0  0  0  0  0  0  0  0
    2.1546    3.4662    7.4572 H   0  0  0  0  0  0  0  0  0  0  0  0
    3.1920    2.7146    6.2761 H   0  0  0  0  0  0  0  0  0  0  0  0
    2.9326    1.9449    7.8670 H   0  0  0  0  0  0  0  0  0  0  0  0
   -0.7170    1.0258    4.2243 H   0  0  0  0  0  0  0  0  0  0  0  0
   -1.6025    2.2712    5.8752 H   0  0  0  0  0  0  0  0  0  0  0  0
   -1.9119    0.8000    6.7694 H   0  0  0  0  0  0  0  0  0  0  0  0
   -0.2323    2.9388    7.5666 H   0  0  0  0  0  0  0  0  0  0  0  0
    1.0035   -0.8719    8.0423 H   0  0  0  0  0  0  0  0  0  0  0  0
    0.4748   -1.4465   10.6794 H   0  0  0  0  0  0  0  0  0  0  0  0
   -1.0938    2.2705   10.1648 H   0  0  0  0  0  0  0  0  0  0  0  0
    0.9711   -0.6268    2.7873 H   0  0  0  0  0  0  0  0  0  0  0  0
    2.5156   -2.7550    4.1537 H   0  0  0  0  0  0  0  0  0  0  0  0
    1.4432   -3.6357    2.2902 H   0  0  0  0  0  0  0  0  0  0  0  0
    1.7009   -2.1839    1.3246 H   0  0  0  0  0  0  0  0  0  0  0  0
    4.8698   -5.0193    2.0853 H   0  0  0  0  0  0  0  0  0  0  0  0
    3.1794   -5.4614    2.1531 H   0  0  0  0  0  0  0  0  0  0  0  0
    3.8796   -4.4762    3.4187 H   0  0  0  0  0  0  0  0  0  0  0  0
    4.0628   -1.3623    1.1099 H   0  0  0  0  0  0  0  0  0  0  0  0
    6.6007   -1.9408    1.9302 H   0  0  0  0  0  0  0  0  0  0  0  0
    7.1044   -3.4343    0.0332 H   0  0  0  0  0  0  0  0  0  0  0  0
    5.2370   -5.0377   -0.4711 H   0  0  0  0  0  0  0  0  0  0  0  0
    5.1540   -0.9853   -0.9991 H   0  0  0  0  0  0  0  0  0  0  0  0
    3.8095   -0.4116   -1.9986 H   0  0  0  0  0  0  0  0  0  0  0  0
    5.2673   -1.0755   -2.7611 H   0  0  0  0  0  0  0  0  0  0  0  0
    2.7092   -3.8458   -3.1335 H   0  0  0  0  0  0  0  0  0  0  0  0
    3.7785   -2.7668   -4.0478 H   0  0  0  0  0  0  0  0  0  0  0  0
    2.3326   -2.1198   -3.2540 H   0  0  0  0  0  0  0  0  0  0  0  0
    2.9373   -4.5947   -0.2280 H   0  0  0  0  0  0  0  0  0  0  0  0
    4.6078   -2.2924    3.9228 H   0  0  0  0  0  0  0  0  0  0  0  0
    4.0494    0.3414    2.5917 H   0  0  0  0  0  0  0  0  0  0  0  0
    5.0475    1.5309    5.6938 H   0  0  0  0  0  0  0  0  0  0  0  0
    4.4746    2.1772    4.1119 H   0  0  0  0  0  0  0  0  0  0  0  0
    3.3466   -0.0617    6.8917 H   0  0  0  0  0  0  0  0  0  0  0  0
    4.5799   -1.0102    6.1065 H   0  0  0  0  0  0  0  0  0  0  0  0
    2.8999   -1.4675    5.9492 H   0  0  0  0  0  0  0  0  0  0  0  0
    2.2717    1.2653    2.1950 H   0  0  0  0  0  0  0  0  0  0  0  0
    2.3475    2.5262    3.4294 H   0  0  0  0  0  0  0  0  0  0  0  0
    0.8318    1.8099    2.9511 H   0  0  0  0  0  0  0  0  0  0  0  0
  1  2  1  0
  1 38  1  0
  1 39  1  0
  1 40  1  0
  2  6  1  0
  2  3  2  0
  3 36  1  0
  3  4  1  0
  4  5  1  0
  4 12  1  0
  4 41  1  6
  5  6  1  0
  5 42  1  0
  5 43  1  0
  6  7  1  0
  6 44  1  1
  7 11  2  0
  7  8  1  0
  8  9  2  0
  8 45  1  0
  9 10  1  0
  9 46  1  0
 10 11  1  0
 11 47  1  0
 12 13  1  0
 13 14  2  0
 13 15  1  0
 15 36  1  0
 15 16  1  0
 15 48  1  6
 16 30  1  0
 16 17  1  0
 16 49  1  1
 17 18  1  0
 17 50  1  0
 17 51  1  0
 18 29  1  0
 18 19  1  1
 18 20  1  0
 19 52  1  0
 19 53  1  0
 19 54  1  0
 20 21  1  0
 20 30  1  0
 20 55  1  6
 21 22  2  0
 21 56  1  0
 22 23  1  0
 22 57  1  0
 23 29  1  0
 23 24  1  0
 23 58  1  6
 24 25  1  0
 25 26  1  0
 25 27  1  0
 25 28  1  0
 26 59  1  0
 26 60  1  0
 26 61  1  0
 27 62  1  0
 27 63  1  0
 27 64  1  0
 28 29  1  0
 29 65  1  1
 30 31  1  0
 30 66  1  1
 31 34  1  0
 31 32  1  0
 31 67  1  6
 32 33  1  0
 33 34  1  0
 33 68  1  0
 33 69  1  0
 34 35  1  1
 34 36  1  0
 35 70  1  0
 35 71  1  0
 35 72  1  0
 36 37  1  6
 37 73  1  0
 37 74  1  0
 37 75  1  0
M  END
>  <i_m_ct_stereo_status>  (307) 
1

>  <s_m_source_file>  (307) 
/var/tmp/pbs.5076255.sched01/tmptyawoosb/846vw0lfia.sdf

>  <i_m_source_file_index>  (307) 
38

>  <i_lp_mmshare_version>  (307) 
48012

>  <i_f3d_flags>  (307) 
0

>  <s_epik_input>  (307) 
W2NIXTFvW2NIXVtjSF1jMVtDQEBIXShDPTJbQ0gzXSlbQ0gyXVtDQEhdKE9DMz1PKUMyW0NAQF0oW0NIM10pKFtDQEBdNChbQ0gzXSlbQ0BIXTVPW0NIMl00KVtDQEhdM1tDQEBIXShbQ0gyXTYpW0NASF01W0NASF0oW0NAQF02N1tDSDNdKVtDSF09W0NIXVtDQEhdOFtDQEBIXTdPQyhPOCkoW0NIM10pW0NIM10=

>  <s_epik_cmdline>  (307) 
J2VwaWtfcHl0aG9uJywgJy1waHQnLCAnMi4wJywgJy1waCcsICc3LjAnLCAnLXRuJywgJzgnLCAnLW1hJywgJzIwMCcsICctaW1hZScsICc8aW5maWxlLm1hZT4nLCAnLW9tYWUnLCAnPG91dGZpbGUubWFlPic=

>  <r_lp_tautomer_probability>  (307) 
1

>  <r_epik_Ionization_Penalty>  (307) 
8.51498e-12

>  <r_epik_Ionization_Penalty_Charging>  (307) 
0

>  <r_epik_Ionization_Penalty_Neutral>  (307) 
8.51498e-12

>  <r_epik_State_Penalty>  (307) 
-0

>  <r_epik_Charging_Adjusted_Penalty>  (307) 
0

>  <i_epik_Tot_Q>  (307) 
0

>  <i_epik_Tot_abs_Q>  (307) 
0

>  <s_epik_Chemistry_Notes>  (307) 
This compound has an ester and may undergo hydrolysis at high or low pH.

>  <s_lp_Force_Field>  (307) 
OPLS3e

>  <r_lp_Energy>  (307) 
55.5941

>  <b_lp_Chiralities_Consistent>  (307) 
1

>  <s_lp_Variant>  (307) 
87:0-1

>  <s_i_glide_gridfile>  (307) 
pfpi4k_grid

>  <i_i_glide_lignum>  (307) 
38

>  <i_i_glide_rotatable_bonds>  (307) 
1

>  <r_i_docking_score>  (307) 
-1.58281

>  <r_i_glide_ligand_efficiency>  (307) 
-0.0427788

>  <r_i_glide_ligand_efficiency_sa>  (307) 
-0.142548

>  <r_i_glide_ligand_efficiency_ln>  (307) 
-0.343275

>  <r_i_glide_gscore>  (307) 
-1.58281

>  <r_i_glide_lipo>  (307) 
-0.352132

>  <r_i_glide_hbond>  (307) 
0

>  <r_i_glide_metal>  (307) 
-0

>  <r_i_glide_rewards>  (307) 
0

>  <r_i_glide_evdw>  (307) 
-26.4445

>  <r_i_glide_ecoul>  (307) 
0.220516

>  <r_i_glide_erotb>  (307) 
0.0797171

>  <r_i_glide_esite>  (307) 
-0.0212545

>  <r_i_glide_emodel>  (307) 
-29.129

>  <r_i_glide_energy>  (307) 
-26.2239

>  <r_i_glide_einternal>  (307) 
0.0299602

>  <r_i_glide_intrahb_reward>  (307) 
-0

>  <i_i_glide_confnum>  (307) 
2

>  <i_i_glide_posenum>  (307) 
39

>  <r_i_glide_eff_state_penalty>  (307) 
0

>  <ligand_id>  (307) 
87

>  <original_smiles>  (307) 
CC1=C2C(CC1c1ccoc1)OC(=O)C1C3CC4(C)C(C=CC5OC(C)(C)OC54)C3C3OCC3(C)C21C

>  <smiles>  (307) 
[H]C1=C([H])C2([H])C3([H])C4([H])OC([H])([H])C4(C([H])([H])[H])C4(C([H])([H])[H])C5=C(C([H])([H])[H])C([H])(c6c([H])oc([H])c6[H])C([H])([H])C5([H])OC(=O)C4([H])C3([H])C([H])([H])C2(C([H])([H])[H])C2([H])OC(C([H])([H])[H])(C([H])([H])[H])OC12[H]

$$$$
88:0:0
     RDKit          3D

 80 84  0  0  1  0  0  0  0  0999 V2000
    3.2623   -3.6344    1.0789 C   0  0  0  0  0  0  0  0  0  0  0  0
    4.4479   -3.3690    0.1231 C   0  0  0  0  0  0  0  0  0  0  0  0
    3.9367   -2.5710   -1.0878 C   0  0  0  0  0  0  0  0  0  0  0  0
    5.5371   -2.5610    0.8080 C   0  0  0  0  0  0  0  0  0  0  0  0
    6.1332   -3.3518    1.9457 C   0  0  0  0  0  0  0  0  0  0  0  0
    6.6958   -4.7630    1.6233 C   0  0  1  0  0  0  0  0  0  0  0  0
    8.0272   -4.6553    0.8459 C   0  0  0  0  0  0  0  0  0  0  0  0
    6.9463   -5.5022    2.9498 C   0  0  0  0  0  0  0  0  0  0  0  0
    7.1232   -7.0115    2.8345 C   0  0  0  0  0  0  0  0  0  0  0  0
    5.9494   -7.7482    2.1449 C   0  0  2  0  0  0  0  0  0  0  0  0
    6.6100   -8.9440    1.3924 C   0  0  0  0  0  0  0  0  0  0  0  0
    5.3459   -6.8219    1.0807 C   0  0  0  0  0  0  0  0  0  0  0  0
    5.6785   -5.5349    0.8043 C   0  0  0  0  0  0  0  0  0  0  0  0
    5.0762   -4.6956   -0.3333 C   0  0  0  0  0  0  0  0  0  0  0  0
    4.2923   -7.5471    0.3480 C   0  0  0  0  0  0  0  0  0  0  0  0
    3.1931   -7.8146    1.3467 C   0  0  0  0  0  0  0  0  0  0  0  0
    2.1346   -7.1714    1.3371 O   0  0  0  0  0  0  0  0  0  0  0  0
    3.5369   -8.8754    2.4384 C   0  0  2  0  0  0  0  0  0  0  0  0
    2.2902   -9.3201    3.3215 C   0  0  1  0  0  0  0  0  0  0  0  0
    1.1400   -9.7225    2.3544 C   0  0  0  0  0  0  0  0  0  0  0  0
    2.5639  -10.6147    4.1218 C   0  0  0  0  0  0  0  0  0  0  0  0
    1.4264  -11.0189    5.0677 C   0  0  0  0  0  0  0  0  0  0  0  0
    1.0144   -9.9036    6.0432 C   0  0  1  0  0  0  0  0  0  0  0  0
    1.9860   -9.8511    7.0622 O   0  0  0  0  0  0  0  0  0  0  0  0
    0.7493   -8.5487    5.3385 C   0  0  0  0  0  0  0  0  0  0  0  0
   -0.6279   -8.6317    4.6329 C   0  0  0  0  0  0  0  0  0  0  0  0
    0.5628   -7.4445    6.4042 C   0  0  0  0  0  0  0  0  0  0  0  0
    1.8783   -8.1775    4.3113 C   0  0  1  0  0  0  0  0  0  0  0  0
    3.1370   -7.6134    5.0179 C   0  0  0  0  0  0  0  0  0  0  0  0
    4.3042   -7.1984    4.0989 C   0  0  0  0  0  0  0  0  0  0  0  0
    4.8296   -8.3139    3.1579 C   0  0  2  0  0  0  0  0  0  0  0  0
    5.5082   -9.4330    3.9932 C   0  0  0  0  0  0  0  0  0  0  0  0
    2.8549   -2.7021    1.4849 H   0  0  0  0  0  0  0  0  0  0  0  0
    3.5523   -4.2582    1.9295 H   0  0  0  0  0  0  0  0  0  0  0  0
    2.4558   -4.1713    0.5706 H   0  0  0  0  0  0  0  0  0  0  0  0
    4.7460   -2.3669   -1.7852 H   0  0  0  0  0  0  0  0  0  0  0  0
    3.5143   -1.6093   -0.7829 H   0  0  0  0  0  0  0  0  0  0  0  0
    3.1649   -3.1205   -1.6316 H   0  0  0  0  0  0  0  0  0  0  0  0
    6.3216   -2.3209    0.0950 H   0  0  0  0  0  0  0  0  0  0  0  0
    5.1511   -1.6064    1.1714 H   0  0  0  0  0  0  0  0  0  0  0  0
    6.9401   -2.6783    2.2535 H   0  0  0  0  0  0  0  0  0  0  0  0
    5.4196   -3.3994    2.7623 H   0  0  0  0  0  0  0  0  0  0  0  0
    8.8154   -4.1992    1.4541 H   0  0  0  0  0  0  0  0  0  0  0  0
    7.9313   -4.0613   -0.0638 H   0  0  0  0  0  0  0  0  0  0  0  0
    8.3837   -5.6394    0.5330 H   0  0  0  0  0  0  0  0  0  0  0  0
    7.8768   -5.1578    3.3927 H   0  0  0  0  0  0  0  0  0  0  0  0
    6.1499   -5.2749    3.6555 H   0  0  0  0  0  0  0  0  0  0  0  0
    8.0432   -7.1731    2.2685 H   0  0  0  0  0  0  0  0  0  0  0  0
    7.3343   -7.4013    3.8281 H   0  0  0  0  0  0  0  0  0  0  0  0
    7.3195   -9.4768    2.0220 H   0  0  0  0  0  0  0  0  0  0  0  0
    7.2014   -8.6121    0.5416 H   0  0  0  0  0  0  0  0  0  0  0  0
    5.8936   -9.6781    1.0165 H   0  0  0  0  0  0  0  0  0  0  0  0
    4.3503   -5.1993   -0.9522 H   0  0  0  0  0  0  0  0  0  0  0  0
    5.8741   -4.4658   -1.0287 H   0  0  0  0  0  0  0  0  0  0  0  0
    3.9188   -6.9573   -0.4818 H   0  0  0  0  0  0  0  0  0  0  0  0
    4.6326   -8.4754   -0.1063 H   0  0  0  0  0  0  0  0  0  0  0  0
    3.8298   -9.7512    1.8554 H   0  0  0  0  0  0  0  0  0  0  0  0
    0.5068  -10.5448    2.6813 H   0  0  0  0  0  0  0  0  0  0  0  0
    1.5458  -10.0863    1.4135 H   0  0  0  0  0  0  0  0  0  0  0  0
    0.4649   -8.9018    2.1094 H   0  0  0  0  0  0  0  0  0  0  0  0
    2.8085  -11.4528    3.4621 H   0  0  0  0  0  0  0  0  0  0  0  0
    3.4009  -10.4987    4.7908 H   0  0  0  0  0  0  0  0  0  0  0  0
    0.5483  -11.4018    4.5525 H   0  0  0  0  0  0  0  0  0  0  0  0
    1.7932  -11.8684    5.6390 H   0  0  0  0  0  0  0  0  0  0  0  0
    0.1050  -10.2317    6.5530 H   0  0  0  0  0  0  0  0  0  0  0  0
    1.9675  -10.7388    7.4282 H   0  0  0  0  0  0  0  0  0  0  0  0
   -0.8000   -7.8117    3.9278 H   0  0  0  0  0  0  0  0  0  0  0  0
   -1.4654   -8.6463    5.3358 H   0  0  0  0  0  0  0  0  0  0  0  0
   -0.7526   -9.5515    4.0756 H   0  0  0  0  0  0  0  0  0  0  0  0
    0.3528   -6.4744    5.9428 H   0  0  0  0  0  0  0  0  0  0  0  0
    1.4214   -7.3401    7.0629 H   0  0  0  0  0  0  0  0  0  0  0  0
   -0.2461   -7.6849    7.0884 H   0  0  0  0  0  0  0  0  0  0  0  0
    1.4739   -7.3486    3.7349 H   0  0  0  0  0  0  0  0  0  0  0  0
    2.8773   -6.7136    5.5786 H   0  0  0  0  0  0  0  0  0  0  0  0
    3.5051   -8.3232    5.7561 H   0  0  0  0  0  0  0  0  0  0  0  0
    3.9736   -6.3354    3.5183 H   0  0  0  0  0  0  0  0  0  0  0  0
    5.1106   -6.8485    4.7441 H   0  0  0  0  0  0  0  0  0  0  0  0
    5.1748   -9.4537    5.0277 H   0  0  0  0  0  0  0  0  0  0  0  0
    6.5892   -9.3364    4.0722 H   0  0  0  0  0  0  0  0  0  0  0  0
    5.3279  -10.4159    3.5498 H   0  0  0  0  0  0  0  0  0  0  0  0
  1  2  1  0
  1 33  1  0
  1 34  1  0
  1 35  1  0
  2 14  1  0
  2  3  1  0
  2  4  1  0
  3 36  1  0
  3 37  1  0
  3 38  1  0
  4  5  1  0
  4 39  1  0
  4 40  1  0
  5  6  1  0
  5 41  1  0
  5 42  1  0
  6 13  1  0
  6  7  1  6
  6  8  1  0
  7 43  1  0
  7 44  1  0
  7 45  1  0
  8  9  1  0
  8 46  1  0
  8 47  1  0
  9 10  1  0
  9 48  1  0
  9 49  1  0
 10 31  1  0
 10 11  1  6
 10 12  1  0
 11 50  1  0
 11 51  1  0
 11 52  1  0
 12 13  2  0
 12 15  1  0
 13 14  1  0
 14 53  1  0
 14 54  1  0
 15 16  1  0
 15 55  1  0
 15 56  1  0
 16 17  2  0
 16 18  1  0
 18 31  1  0
 18 19  1  0
 18 57  1  6
 19 28  1  0
 19 20  1  6
 19 21  1  0
 20 58  1  0
 20 59  1  0
 20 60  1  0
 21 22  1  0
 21 61  1  0
 21 62  1  0
 22 23  1  0
 22 63  1  0
 22 64  1  0
 23 24  1  0
 23 25  1  0
 23 65  1  1
 24 66  1  0
 25 26  1  0
 25 27  1  0
 25 28  1  0
 26 67  1  0
 26 68  1  0
 26 69  1  0
 27 70  1  0
 27 71  1  0
 27 72  1  0
 28 29  1  0
 28 73  1  6
 29 30  1  0
 29 74  1  0
 29 75  1  0
 30 31  1  0
 30 76  1  0
 30 77  1  0
 31 32  1  1
 32 78  1  0
 32 79  1  0
 32 80  1  0
M  END
>  <i_m_ct_stereo_status>  (308) 
1

>  <s_m_source_file>  (308) 
/var/tmp/pbs.5076255.sched01/tmptyawoosb/846vw0lfia.sdf

>  <i_m_source_file_index>  (308) 
39

>  <i_lp_mmshare_version>  (308) 
48012

>  <i_f3d_flags>  (308) 
0

>  <s_epik_input>  (308) 
W0NIMl0xW0NIMl1DKFtDSDNdKShbQ0gzXSlbQ0gyXUMoW0NAQF0xMltDSDNdKT1DM1tDQEBdKFtDSDNdKShbQ0gyXVtDSDJdMilbQ0BdNChbQ0gzXSlbQ0BIXShDKD1PKVtDSDJdMylbQ0BdNShbQ0gzXSlbQ0BIXShbQ0gyXVtDSDJdNClDKFtDSDNdKShbQ0gzXSlbQ0BIXShbT0hdKVtDSDJdW0NIMl01

>  <s_epik_cmdline>  (308) 
J2VwaWtfcHl0aG9uJywgJy1waHQnLCAnMi4wJywgJy1waCcsICc3LjAnLCAnLXRuJywgJzgnLCAnLW1hJywgJzIwMCcsICctaW1hZScsICc8aW5maWxlLm1hZT4nLCAnLW9tYWUnLCAnPG91dGZpbGUubWFlPic=

>  <r_lp_tautomer_probability>  (308) 
1

>  <r_epik_Ionization_Penalty>  (308) 
2.23163e-06

>  <r_epik_Ionization_Penalty_Charging>  (308) 
0

>  <r_epik_Ionization_Penalty_Neutral>  (308) 
2.23163e-06

>  <r_epik_State_Penalty>  (308) 
-0

>  <r_epik_Charging_Adjusted_Penalty>  (308) 
0

>  <i_epik_Tot_Q>  (308) 
0

>  <i_epik_Tot_abs_Q>  (308) 
0

>  <s_lp_Force_Field>  (308) 
OPLS3e

>  <r_lp_Energy>  (308) 
95.5229

>  <b_lp_Chiralities_Consistent>  (308) 
1

>  <s_lp_Variant>  (308) 
88:0-1

>  <s_i_glide_gridfile>  (308) 
pfpi4k_grid

>  <i_i_glide_lignum>  (308) 
39

>  <i_i_glide_rotatable_bonds>  (308) 
1

>  <r_i_docking_score>  (308) 
-3.21077

>  <r_i_glide_ligand_efficiency>  (308) 
-0.100337

>  <r_i_glide_ligand_efficiency_sa>  (308) 
-0.318549

>  <r_i_glide_ligand_efficiency_ln>  (308) 
-0.718979

>  <r_i_glide_gscore>  (308) 
-3.21077

>  <r_i_glide_lipo>  (308) 
-0.979753

>  <r_i_glide_hbond>  (308) 
-0.16

>  <r_i_glide_metal>  (308) 
-0

>  <r_i_glide_rewards>  (308) 
-0.418838

>  <r_i_glide_evdw>  (308) 
-17.3415

>  <r_i_glide_ecoul>  (308) 
-5.23401

>  <r_i_glide_erotb>  (308) 
0

>  <r_i_glide_esite>  (308) 
0

>  <r_i_glide_emodel>  (308) 
-27.7022

>  <r_i_glide_energy>  (308) 
-22.5756

>  <r_i_glide_einternal>  (308) 
0.330405

>  <r_i_glide_intrahb_reward>  (308) 
-0

>  <i_i_glide_confnum>  (308) 
2

>  <i_i_glide_posenum>  (308) 
35

>  <r_i_glide_eff_state_penalty>  (308) 
0

>  <ligand_id>  (308) 
88

>  <original_smiles>  (308) 
CC1(C)CCC2(C)CCC3(C)C(=C2C1)CC(=O)C1C2(C)CCC(O)C(C)(C)C2CCC13C

>  <smiles>  (308) 
[H]OC1([H])C([H])([H])C([H])([H])C2(C([H])([H])[H])C3([H])C(=O)C([H])([H])C4=C5C([H])([H])C(C([H])([H])[H])(C([H])([H])[H])C([H])([H])C([H])([H])C5(C([H])([H])[H])C([H])([H])C([H])([H])C4(C([H])([H])[H])C3(C([H])([H])[H])C([H])([H])C([H])([H])C2([H])C1(C([H])([H])[H])C([H])([H])[H]

$$$$
88:0:1
     RDKit          3D

 80 84  0  0  1  0  0  0  0  0999 V2000
    2.4324   -3.5425   -0.3585 C   0  0  0  0  0  0  0  0  0  0  0  0
    3.6866   -3.2026   -1.1634 C   0  0  0  0  0  0  0  0  0  0  0  0
    3.2931   -2.9943   -2.6389 C   0  0  0  0  0  0  0  0  0  0  0  0
    4.3640   -1.9281   -0.6526 C   0  0  0  0  0  0  0  0  0  0  0  0
    4.8548   -2.0963    0.7830 C   0  0  0  0  0  0  0  0  0  0  0  0
    5.7029   -3.3748    1.0412 C   0  0  1  0  0  0  0  0  0  0  0  0
    7.1345   -3.1644    0.4902 C   0  0  0  0  0  0  0  0  0  0  0  0
    5.6764   -3.5528    2.5500 C   0  0  0  0  0  0  0  0  0  0  0  0
    6.2074   -4.9221    3.0151 C   0  0  0  0  0  0  0  0  0  0  0  0
    5.4633   -6.1631    2.4795 C   0  0  2  0  0  0  0  0  0  0  0  0
    6.5584   -7.2696    2.3222 C   0  0  0  0  0  0  0  0  0  0  0  0
    4.9494   -5.8207    1.0466 C   0  0  0  0  0  0  0  0  0  0  0  0
    5.0983   -4.6339    0.4143 C   0  0  0  0  0  0  0  0  0  0  0  0
    4.6991   -4.3441   -1.0235 C   0  0  0  0  0  0  0  0  0  0  0  0
    4.2422   -7.0307    0.4798 C   0  0  0  0  0  0  0  0  0  0  0  0
    3.0395   -7.2391    1.3770 C   0  0  0  0  0  0  0  0  0  0  0  0
    1.9214   -6.8610    1.0079 O   0  0  0  0  0  0  0  0  0  0  0  0
    3.3841   -7.7586    2.8035 C   0  0  2  0  0  0  0  0  0  0  0  0
    2.0977   -8.2545    3.6145 C   0  0  1  0  0  0  0  0  0  0  0  0
    1.3345   -9.2476    2.6847 C   0  0  0  0  0  0  0  0  0  0  0  0
    2.4500   -9.0811    4.8951 C   0  0  0  0  0  0  0  0  0  0  0  0
    1.2428   -9.4945    5.7652 C   0  0  0  0  0  0  0  0  0  0  0  0
    0.3797   -8.2987    6.1776 C   0  0  1  0  0  0  0  0  0  0  0  0
    1.0471   -7.5922    7.1973 O   0  0  0  0  0  0  0  0  0  0  0  0
   -0.0038   -7.3700    4.9832 C   0  0  0  0  0  0  0  0  0  0  0  0
   -1.1325   -8.0474    4.1684 C   0  0  0  0  0  0  0  0  0  0  0  0
   -0.6351   -6.0707    5.5152 C   0  0  0  0  0  0  0  0  0  0  0  0
    1.2341   -7.0159    4.0671 C   0  0  1  0  0  0  0  0  0  0  0  0
    2.1373   -5.9089    4.6841 C   0  0  0  0  0  0  0  0  0  0  0  0
    3.3628   -5.4967    3.8607 C   0  0  0  0  0  0  0  0  0  0  0  0
    4.3041   -6.6635    3.4693 C   0  0  2  0  0  0  0  0  0  0  0  0
    5.0108   -7.2061    4.7551 C   0  0  0  0  0  0  0  0  0  0  0  0
    1.7913   -2.6638   -0.3625 H   0  0  0  0  0  0  0  0  0  0  0  0
    2.6059   -3.7609    0.6913 H   0  0  0  0  0  0  0  0  0  0  0  0
    1.8858   -4.3945   -0.7668 H   0  0  0  0  0  0  0  0  0  0  0  0
    4.1749   -2.8121   -3.2456 H   0  0  0  0  0  0  0  0  0  0  0  0
    2.6180   -2.1383   -2.7542 H   0  0  0  0  0  0  0  0  0  0  0  0
    2.7751   -3.8542   -3.0556 H   0  0  0  0  0  0  0  0  0  0  0  0
    5.2100   -1.7076   -1.2910 H   0  0  0  0  0  0  0  0  0  0  0  0
    3.6854   -1.0726   -0.7197 H   0  0  0  0  0  0  0  0  0  0  0  0
    5.4245   -1.2128    1.0787 H   0  0  0  0  0  0  0  0  0  0  0  0
    3.9776   -2.0955    1.4274 H   0  0  0  0  0  0  0  0  0  0  0  0
    7.6313   -2.3239    0.9725 H   0  0  0  0  0  0  0  0  0  0  0  0
    7.1342   -2.9380   -0.5748 H   0  0  0  0  0  0  0  0  0  0  0  0
    7.7622   -4.0438    0.6266 H   0  0  0  0  0  0  0  0  0  0  0  0
    6.2069   -2.6840    2.9194 H   0  0  0  0  0  0  0  0  0  0  0  0
    4.6793   -3.3887    2.9590 H   0  0  0  0  0  0  0  0  0  0  0  0
    7.2309   -5.0481    2.6697 H   0  0  0  0  0  0  0  0  0  0  0  0
    6.2620   -4.9257    4.0968 H   0  0  0  0  0  0  0  0  0  0  0  0
    7.2065   -7.3388    3.1956 H   0  0  0  0  0  0  0  0  0  0  0  0
    7.2239   -7.0457    1.4906 H   0  0  0  0  0  0  0  0  0  0  0  0
    6.1542   -8.2675    2.1550 H   0  0  0  0  0  0  0  0  0  0  0  0
    4.2779   -5.2161   -1.4392 H   0  0  0  0  0  0  0  0  0  0  0  0
    5.5801   -4.1344   -1.6120 H   0  0  0  0  0  0  0  0  0  0  0  0
    3.9110   -6.8862   -0.5484 H   0  0  0  0  0  0  0  0  0  0  0  0
    4.8876   -7.9040    0.4688 H   0  0  0  0  0  0  0  0  0  0  0  0
    3.9981   -8.6401    2.6642 H   0  0  0  0  0  0  0  0  0  0  0  0
    0.8211  -10.0483    3.2066 H   0  0  0  0  0  0  0  0  0  0  0  0
    2.0129   -9.7675    2.0117 H   0  0  0  0  0  0  0  0  0  0  0  0
    0.5826   -8.7524    2.0727 H   0  0  0  0  0  0  0  0  0  0  0  0
    3.0217   -9.9680    4.6229 H   0  0  0  0  0  0  0  0  0  0  0  0
    3.0646   -8.5120    5.5736 H   0  0  0  0  0  0  0  0  0  0  0  0
    0.6171  -10.2271    5.2698 H   0  0  0  0  0  0  0  0  0  0  0  0
    1.5984  -10.0072    6.6631 H   0  0  0  0  0  0  0  0  0  0  0  0
   -0.5358   -8.6944    6.6206 H   0  0  0  0  0  0  0  0  0  0  0  0
    1.4080   -8.2377    7.8083 H   0  0  0  0  0  0  0  0  0  0  0  0
   -1.2850   -7.5790    3.1941 H   0  0  0  0  0  0  0  0  0  0  0  0
   -2.0869   -8.0188    4.6942 H   0  0  0  0  0  0  0  0  0  0  0  0
   -0.9487   -9.1031    4.0051 H   0  0  0  0  0  0  0  0  0  0  0  0
   -0.8641   -5.4422    4.6614 H   0  0  0  0  0  0  0  0  0  0  0  0
   -0.0163   -5.5146    6.2192 H   0  0  0  0  0  0  0  0  0  0  0  0
   -1.5723   -6.2511    6.0263 H   0  0  0  0  0  0  0  0  0  0  0  0
    0.8048   -6.5520    3.1766 H   0  0  0  0  0  0  0  0  0  0  0  0
    1.5708   -4.9914    4.8239 H   0  0  0  0  0  0  0  0  0  0  0  0
    2.4626   -6.2069    5.6756 H   0  0  0  0  0  0  0  0  0  0  0  0
    3.0139   -4.9819    2.9640 H   0  0  0  0  0  0  0  0  0  0  0  0
    3.9043   -4.7529    4.4472 H   0  0  0  0  0  0  0  0  0  0  0  0
    4.4673   -6.9867    5.6693 H   0  0  0  0  0  0  0  0  0  0  0  0
    5.9968   -6.7840    4.9511 H   0  0  0  0  0  0  0  0  0  0  0  0
    5.1695   -8.2826    4.6915 H   0  0  0  0  0  0  0  0  0  0  0  0
  1  2  1  0
  1 33  1  0
  1 34  1  0
  1 35  1  0
  2 14  1  0
  2  3  1  0
  2  4  1  0
  3 36  1  0
  3 37  1  0
  3 38  1  0
  4  5  1  0
  4 39  1  0
  4 40  1  0
  5  6  1  0
  5 41  1  0
  5 42  1  0
  6 13  1  0
  6  7  1  6
  6  8  1  0
  7 43  1  0
  7 44  1  0
  7 45  1  0
  8  9  1  0
  8 46  1  0
  8 47  1  0
  9 10  1  0
  9 48  1  0
  9 49  1  0
 10 31  1  0
 10 11  1  6
 10 12  1  0
 11 50  1  0
 11 51  1  0
 11 52  1  0
 12 13  2  0
 12 15  1  0
 13 14  1  0
 14 53  1  0
 14 54  1  0
 15 16  1  0
 15 55  1  0
 15 56  1  0
 16 17  2  0
 16 18  1  0
 18 31  1  0
 18 19  1  0
 18 57  1  6
 19 28  1  0
 19 20  1  6
 19 21  1  0
 20 58  1  0
 20 59  1  0
 20 60  1  0
 21 22  1  0
 21 61  1  0
 21 62  1  0
 22 23  1  0
 22 63  1  0
 22 64  1  0
 23 24  1  0
 23 25  1  0
 23 65  1  1
 24 66  1  0
 25 26  1  0
 25 27  1  0
 25 28  1  0
 26 67  1  0
 26 68  1  0
 26 69  1  0
 27 70  1  0
 27 71  1  0
 27 72  1  0
 28 29  1  0
 28 73  1  6
 29 30  1  0
 29 74  1  0
 29 75  1  0
 30 31  1  0
 30 76  1  0
 30 77  1  0
 31 32  1  1
 32 78  1  0
 32 79  1  0
 32 80  1  0
M  END
>  <i_m_ct_stereo_status>  (309) 
1

>  <s_m_source_file>  (309) 
/var/tmp/pbs.5076255.sched01/tmptyawoosb/846vw0lfia.sdf

>  <i_m_source_file_index>  (309) 
39

>  <i_lp_mmshare_version>  (309) 
48012

>  <i_f3d_flags>  (309) 
0

>  <s_epik_input>  (309) 
W0NIMl0xW0NIMl1DKFtDSDNdKShbQ0gzXSlbQ0gyXUMoW0NAQF0xMltDSDNdKT1DM1tDQEBdKFtDSDNdKShbQ0gyXVtDSDJdMilbQ0BdNChbQ0gzXSlbQ0BIXShDKD1PKVtDSDJdMylbQ0BdNShbQ0gzXSlbQ0BIXShbQ0gyXVtDSDJdNClDKFtDSDNdKShbQ0gzXSlbQ0BIXShbT0hdKVtDSDJdW0NIMl01

>  <s_epik_cmdline>  (309) 
J2VwaWtfcHl0aG9uJywgJy1waHQnLCAnMi4wJywgJy1waCcsICc3LjAnLCAnLXRuJywgJzgnLCAnLW1hJywgJzIwMCcsICctaW1hZScsICc8aW5maWxlLm1hZT4nLCAnLW9tYWUnLCAnPG91dGZpbGUubWFlPic=

>  <r_lp_tautomer_probability>  (309) 
1

>  <r_epik_Ionization_Penalty>  (309) 
2.23163e-06

>  <r_epik_Ionization_Penalty_Charging>  (309) 
0

>  <r_epik_Ionization_Penalty_Neutral>  (309) 
2.23163e-06

>  <r_epik_State_Penalty>  (309) 
-0

>  <r_epik_Charging_Adjusted_Penalty>  (309) 
0

>  <i_epik_Tot_Q>  (309) 
0

>  <i_epik_Tot_abs_Q>  (309) 
0

>  <s_lp_Force_Field>  (309) 
OPLS3e

>  <r_lp_Energy>  (309) 
95.5229

>  <b_lp_Chiralities_Consistent>  (309) 
1

>  <s_lp_Variant>  (309) 
88:0-1

>  <s_i_glide_gridfile>  (309) 
pfpi4k_grid

>  <i_i_glide_lignum>  (309) 
39

>  <i_i_glide_rotatable_bonds>  (309) 
1

>  <r_i_docking_score>  (309) 
-2.4446

>  <r_i_glide_ligand_efficiency>  (309) 
-0.0763938

>  <r_i_glide_ligand_efficiency_sa>  (309) 
-0.242535

>  <r_i_glide_ligand_efficiency_ln>  (309) 
-0.547413

>  <r_i_glide_gscore>  (309) 
-2.4446

>  <r_i_glide_lipo>  (309) 
-0.630149

>  <r_i_glide_hbond>  (309) 
0

>  <r_i_glide_metal>  (309) 
-0

>  <r_i_glide_rewards>  (309) 
-0.487235

>  <r_i_glide_evdw>  (309) 
-21.1229

>  <r_i_glide_ecoul>  (309) 
-1.80715

>  <r_i_glide_erotb>  (309) 
0

>  <r_i_glide_esite>  (309) 
0

>  <r_i_glide_emodel>  (309) 
-26.3154

>  <r_i_glide_energy>  (309) 
-22.93

>  <r_i_glide_einternal>  (309) 
0.58704

>  <r_i_glide_intrahb_reward>  (309) 
-0

>  <i_i_glide_confnum>  (309) 
1

>  <i_i_glide_posenum>  (309) 
11

>  <r_i_glide_eff_state_penalty>  (309) 
0

>  <ligand_id>  (309) 
88

>  <original_smiles>  (309) 
CC1(C)CCC2(C)CCC3(C)C(=C2C1)CC(=O)C1C2(C)CCC(O)C(C)(C)C2CCC13C

>  <smiles>  (309) 
[H]OC1([H])C([H])([H])C([H])([H])C2(C([H])([H])[H])C3([H])C(=O)C([H])([H])C4=C5C([H])([H])C(C([H])([H])[H])(C([H])([H])[H])C([H])([H])C([H])([H])C5(C([H])([H])[H])C([H])([H])C([H])([H])C4(C([H])([H])[H])C3(C([H])([H])[H])C([H])([H])C([H])([H])C2([H])C1(C([H])([H])[H])C([H])([H])[H]

$$$$
88:0:2
     RDKit          3D

 80 84  0  0  1  0  0  0  0  0999 V2000
    0.0695   -7.0726    1.8375 C   0  0  0  0  0  0  0  0  0  0  0  0
   -0.0672   -7.9835    3.0809 C   0  0  0  0  0  0  0  0  0  0  0  0
   -1.5121   -7.8991    3.6073 C   0  0  0  0  0  0  0  0  0  0  0  0
    0.2536   -9.4500    2.7509 C   0  0  0  0  0  0  0  0  0  0  0  0
    1.7111   -9.6262    2.3008 C   0  0  0  0  0  0  0  0  0  0  0  0
    2.7748   -9.0584    3.2784 C   0  0  1  0  0  0  0  0  0  0  0  0
    2.9123  -10.0068    4.4921 C   0  0  0  0  0  0  0  0  0  0  0  0
    4.0999   -9.0199    2.4953 C   0  0  0  0  0  0  0  0  0  0  0  0
    5.1743   -8.1721    3.1738 C   0  0  0  0  0  0  0  0  0  0  0  0
    4.7680   -6.6899    3.4814 C   0  0  2  0  0  0  0  0  0  0  0  0
    5.5346   -6.3345    4.7950 C   0  0  0  0  0  0  0  0  0  0  0  0
    3.2609   -6.6056    3.8152 C   0  0  0  0  0  0  0  0  0  0  0  0
    2.3848   -7.6480    3.7633 C   0  0  0  0  0  0  0  0  0  0  0  0
    0.9132   -7.5466    4.1841 C   0  0  0  0  0  0  0  0  0  0  0  0
    2.8579   -5.1928    4.2035 C   0  0  0  0  0  0  0  0  0  0  0  0
    3.0922   -4.3523    2.9702 C   0  0  0  0  0  0  0  0  0  0  0  0
    2.1352   -3.9052    2.3475 O   0  0  0  0  0  0  0  0  0  0  0  0
    4.5757   -4.1895    2.5410 C   0  0  2  0  0  0  0  0  0  0  0  0
    4.7844   -3.0899    1.3878 C   0  0  1  0  0  0  0  0  0  0  0  0
    4.0143   -1.8003    1.8317 C   0  0  0  0  0  0  0  0  0  0  0  0
    6.2644   -2.6285    1.2408 C   0  0  0  0  0  0  0  0  0  0  0  0
    6.5471   -1.6524    0.0822 C   0  0  0  0  0  0  0  0  0  0  0  0
    6.0635   -2.1835   -1.2755 C   0  0  1  0  0  0  0  0  0  0  0  0
    7.0216   -3.1091   -1.7294 O   0  0  0  0  0  0  0  0  0  0  0  0
    4.6041   -2.7204   -1.2548 C   0  0  0  0  0  0  0  0  0  0  0  0
    3.6668   -1.4928   -1.2553 C   0  0  0  0  0  0  0  0  0  0  0  0
    4.2767   -3.4328   -2.5946 C   0  0  0  0  0  0  0  0  0  0  0  0
    4.3155   -3.6599   -0.0053 C   0  0  1  0  0  0  0  0  0  0  0  0
    4.8887   -5.0915   -0.2086 C   0  0  0  0  0  0  0  0  0  0  0  0
    4.6368   -6.1003    0.9308 C   0  0  0  0  0  0  0  0  0  0  0  0
    5.1720   -5.6509    2.3134 C   0  0  2  0  0  0  0  0  0  0  0  0
    6.7269   -5.6217    2.2635 C   0  0  0  0  0  0  0  0  0  0  0  0
   -0.5747   -7.4095    1.0205 H   0  0  0  0  0  0  0  0  0  0  0  0
    1.0901   -7.0445    1.4535 H   0  0  0  0  0  0  0  0  0  0  0  0
   -0.1867   -6.0439    2.0832 H   0  0  0  0  0  0  0  0  0  0  0  0
   -1.6448   -8.5374    4.4818 H   0  0  0  0  0  0  0  0  0  0  0  0
   -2.2290   -8.2310    2.8539 H   0  0  0  0  0  0  0  0  0  0  0  0
   -1.7762   -6.8824    3.8997 H   0  0  0  0  0  0  0  0  0  0  0  0
    0.0600  -10.0789    3.6192 H   0  0  0  0  0  0  0  0  0  0  0  0
   -0.4248   -9.8134    1.9810 H   0  0  0  0  0  0  0  0  0  0  0  0
    1.9158  -10.6801    2.1403 H   0  0  0  0  0  0  0  0  0  0  0  0
    1.8178   -9.1697    1.3167 H   0  0  0  0  0  0  0  0  0  0  0  0
    3.2704  -10.9918    4.1887 H   0  0  0  0  0  0  0  0  0  0  0  0
    1.9640  -10.1636    5.0042 H   0  0  0  0  0  0  0  0  0  0  0  0
    3.6110   -9.6153    5.2308 H   0  0  0  0  0  0  0  0  0  0  0  0
    4.4731  -10.0344    2.3500 H   0  0  0  0  0  0  0  0  0  0  0  0
    3.9272   -8.6415    1.4916 H   0  0  0  0  0  0  0  0  0  0  0  0
    5.4308   -8.6778    4.1052 H   0  0  0  0  0  0  0  0  0  0  0  0
    6.0790   -8.2396    2.5724 H   0  0  0  0  0  0  0  0  0  0  0  0
    6.5796   -6.6475    4.7689 H   0  0  0  0  0  0  0  0  0  0  0  0
    5.0911   -6.8470    5.6491 H   0  0  0  0  0  0  0  0  0  0  0  0
    5.5349   -5.2685    5.0212 H   0  0  0  0  0  0  0  0  0  0  0  0
    0.6173   -6.5685    4.5386 H   0  0  0  0  0  0  0  0  0  0  0  0
    0.7842   -8.1958    5.0481 H   0  0  0  0  0  0  0  0  0  0  0  0
    1.8245   -5.0709    4.5052 H   0  0  0  0  0  0  0  0  0  0  0  0
    3.4526   -4.8208    5.0366 H   0  0  0  0  0  0  0  0  0  0  0  0
    5.0652   -3.7794    3.4248 H   0  0  0  0  0  0  0  0  0  0  0  0
    4.4713   -0.8672    1.5236 H   0  0  0  0  0  0  0  0  0  0  0  0
    3.9677   -1.7155    2.9170 H   0  0  0  0  0  0  0  0  0  0  0  0
    2.9918   -1.7700    1.4555 H   0  0  0  0  0  0  0  0  0  0  0  0
    6.6024   -2.1809    2.1731 H   0  0  0  0  0  0  0  0  0  0  0  0
    6.9230   -3.4587    1.0425 H   0  0  0  0  0  0  0  0  0  0  0  0
    6.1121   -0.6736    0.2612 H   0  0  0  0  0  0  0  0  0  0  0  0
    7.6200   -1.4680    0.0391 H   0  0  0  0  0  0  0  0  0  0  0  0
    6.1031   -1.3712   -1.9987 H   0  0  0  0  0  0  0  0  0  0  0  0
    6.8413   -3.3288   -2.6351 H   0  0  0  0  0  0  0  0  0  0  0  0
    2.6545   -1.7995   -0.9944 H   0  0  0  0  0  0  0  0  0  0  0  0
    3.6157   -1.0032   -2.2302 H   0  0  0  0  0  0  0  0  0  0  0  0
    3.9722   -0.7114   -0.5643 H   0  0  0  0  0  0  0  0  0  0  0  0
    3.2568   -3.8243   -2.5864 H   0  0  0  0  0  0  0  0  0  0  0  0
    4.9428   -4.2688   -2.8033 H   0  0  0  0  0  0  0  0  0  0  0  0
    4.3581   -2.7530   -3.4442 H   0  0  0  0  0  0  0  0  0  0  0  0
    3.2318   -3.7886    0.0334 H   0  0  0  0  0  0  0  0  0  0  0  0
    4.4519   -5.5413   -1.0940 H   0  0  0  0  0  0  0  0  0  0  0  0
    5.9512   -5.0361   -0.4203 H   0  0  0  0  0  0  0  0  0  0  0  0
    3.5663   -6.2995    0.9906 H   0  0  0  0  0  0  0  0  0  0  0  0
    5.1146   -7.0341    0.6413 H   0  0  0  0  0  0  0  0  0  0  0  0
    7.1430   -5.5180    1.2655 H   0  0  0  0  0  0  0  0  0  0  0  0
    7.2212   -6.5046    2.6588 H   0  0  0  0  0  0  0  0  0  0  0  0
    7.0683   -4.7995    2.8763 H   0  0  0  0  0  0  0  0  0  0  0  0
  1  2  1  0
  1 33  1  0
  1 34  1  0
  1 35  1  0
  2 14  1  0
  2  3  1  0
  2  4  1  0
  3 36  1  0
  3 37  1  0
  3 38  1  0
  4  5  1  0
  4 39  1  0
  4 40  1  0
  5  6  1  0
  5 41  1  0
  5 42  1  0
  6 13  1  0
  6  7  1  1
  6  8  1  0
  7 43  1  0
  7 44  1  0
  7 45  1  0
  8  9  1  0
  8 46  1  0
  8 47  1  0
  9 10  1  0
  9 48  1  0
  9 49  1  0
 10 31  1  0
 10 11  1  1
 10 12  1  0
 11 50  1  0
 11 51  1  0
 11 52  1  0
 12 13  2  0
 12 15  1  0
 13 14  1  0
 14 53  1  0
 14 54  1  0
 15 16  1  0
 15 55  1  0
 15 56  1  0
 16 17  2  0
 16 18  1  0
 18 31  1  0
 18 19  1  0
 18 57  1  1
 19 28  1  0
 19 20  1  1
 19 21  1  0
 20 58  1  0
 20 59  1  0
 20 60  1  0
 21 22  1  0
 21 61  1  0
 21 62  1  0
 22 23  1  0
 22 63  1  0
 22 64  1  0
 23 24  1  0
 23 25  1  0
 23 65  1  6
 24 66  1  0
 25 26  1  0
 25 27  1  0
 25 28  1  0
 26 67  1  0
 26 68  1  0
 26 69  1  0
 27 70  1  0
 27 71  1  0
 27 72  1  0
 28 29  1  0
 28 73  1  1
 29 30  1  0
 29 74  1  0
 29 75  1  0
 30 31  1  0
 30 76  1  0
 30 77  1  0
 31 32  1  6
 32 78  1  0
 32 79  1  0
 32 80  1  0
M  END
>  <i_m_ct_stereo_status>  (310) 
1

>  <s_m_source_file>  (310) 
/var/tmp/pbs.5076255.sched01/tmptyawoosb/846vw0lfia.sdf

>  <i_m_source_file_index>  (310) 
39

>  <i_lp_mmshare_version>  (310) 
48012

>  <i_f3d_flags>  (310) 
0

>  <s_epik_input>  (310) 
W0NIMl0xW0NIMl1DKFtDSDNdKShbQ0gzXSlbQ0gyXUMoW0NAQF0xMltDSDNdKT1DM1tDQEBdKFtDSDNdKShbQ0gyXVtDSDJdMilbQ0BdNChbQ0gzXSlbQ0BIXShDKD1PKVtDSDJdMylbQ0BdNShbQ0gzXSlbQ0BIXShbQ0gyXVtDSDJdNClDKFtDSDNdKShbQ0gzXSlbQ0BIXShbT0hdKVtDSDJdW0NIMl01

>  <s_epik_cmdline>  (310) 
J2VwaWtfcHl0aG9uJywgJy1waHQnLCAnMi4wJywgJy1waCcsICc3LjAnLCAnLXRuJywgJzgnLCAnLW1hJywgJzIwMCcsICctaW1hZScsICc8aW5maWxlLm1hZT4nLCAnLW9tYWUnLCAnPG91dGZpbGUubWFlPic=

>  <r_lp_tautomer_probability>  (310) 
1

>  <r_epik_Ionization_Penalty>  (310) 
2.23163e-06

>  <r_epik_Ionization_Penalty_Charging>  (310) 
0

>  <r_epik_Ionization_Penalty_Neutral>  (310) 
2.23163e-06

>  <r_epik_State_Penalty>  (310) 
-0

>  <r_epik_Charging_Adjusted_Penalty>  (310) 
0

>  <i_epik_Tot_Q>  (310) 
0

>  <i_epik_Tot_abs_Q>  (310) 
0

>  <s_lp_Force_Field>  (310) 
OPLS3e

>  <r_lp_Energy>  (310) 
95.5229

>  <b_lp_Chiralities_Consistent>  (310) 
1

>  <s_lp_Variant>  (310) 
88:0-1

>  <s_i_glide_gridfile>  (310) 
pfpi4k_grid

>  <i_i_glide_lignum>  (310) 
39

>  <i_i_glide_rotatable_bonds>  (310) 
1

>  <r_i_docking_score>  (310) 
-2.43503

>  <r_i_glide_ligand_efficiency>  (310) 
-0.0760948

>  <r_i_glide_ligand_efficiency_sa>  (310) 
-0.241586

>  <r_i_glide_ligand_efficiency_ln>  (310) 
-0.54527

>  <r_i_glide_gscore>  (310) 
-2.43503

>  <r_i_glide_lipo>  (310) 
-0.387313

>  <r_i_glide_hbond>  (310) 
0

>  <r_i_glide_metal>  (310) 
-0

>  <r_i_glide_rewards>  (310) 
-0.404312

>  <r_i_glide_evdw>  (310) 
-33.4966

>  <r_i_glide_ecoul>  (310) 
0.210168

>  <r_i_glide_erotb>  (310) 
0

>  <r_i_glide_esite>  (310) 
-0.000105281

>  <r_i_glide_emodel>  (310) 
-37.8519

>  <r_i_glide_energy>  (310) 
-33.2864

>  <r_i_glide_einternal>  (310) 
0.404798

>  <r_i_glide_intrahb_reward>  (310) 
-0

>  <i_i_glide_confnum>  (310) 
2

>  <i_i_glide_posenum>  (310) 
14

>  <r_i_glide_eff_state_penalty>  (310) 
0

>  <ligand_id>  (310) 
88

>  <original_smiles>  (310) 
CC1(C)CCC2(C)CCC3(C)C(=C2C1)CC(=O)C1C2(C)CCC(O)C(C)(C)C2CCC13C

>  <smiles>  (310) 
[H]OC1([H])C([H])([H])C([H])([H])C2(C([H])([H])[H])C3([H])C(=O)C([H])([H])C4=C5C([H])([H])C(C([H])([H])[H])(C([H])([H])[H])C([H])([H])C([H])([H])C5(C([H])([H])[H])C([H])([H])C([H])([H])C4(C([H])([H])[H])C3(C([H])([H])[H])C([H])([H])C([H])([H])C2([H])C1(C([H])([H])[H])C([H])([H])[H]

$$$$
89:0:0
     RDKit          3D

 54 59  0  0  1  0  0  0  0  0999 V2000
    0.8187   -5.2913    3.9259 C   0  0  0  0  0  0  0  0  0  0  0  0
    2.1131   -5.2290    4.2435 C   0  0  0  0  0  0  0  0  0  0  0  0
    2.9373   -3.9469    4.2830 C   0  0  0  0  0  0  0  0  0  0  0  0
    4.1018   -3.9628    3.3688 N   0  0  1  0  0  0  0  0  0  0  0  0
    5.1507   -4.9563    3.6927 C   0  0  0  0  0  0  0  0  0  0  0  0
    5.9027   -5.2341    2.3817 C   0  0  0  0  0  0  0  0  0  0  0  0
    5.1766   -4.4022    1.3149 C   0  0  2  0  0  0  0  0  0  0  0  0
    4.5430   -5.0940    0.0119 C   0  0  0  0  0  0  0  0  0  0  0  0
    4.1959   -3.7299   -0.5075 C   0  0  1  0  0  0  0  0  0  0  0  0
    5.6723   -3.5500   -1.0908 C   0  0  0  0  0  0  0  0  0  0  0  0
    6.0582   -2.3586   -0.4006 C   0  0  1  0  0  0  0  0  0  0  0  0
    5.1797   -1.3563   -1.2742 C   0  0  0  0  0  0  0  0  0  0  0  0
    3.7655   -1.8429   -1.8686 C   0  0  1  0  0  0  0  0  0  0  0  0
    3.6521   -1.4649   -3.3474 C   0  0  0  0  0  0  0  0  0  0  0  0
    4.1672   -0.1342   -3.8693 C   0  0  0  0  0  0  0  0  0  0  0  0
    2.7139   -0.3737   -3.7827 C   0  0  0  0  0  0  0  0  0  0  0  0
    3.4484   -3.3067   -1.6780 N   0  0  2  0  0  0  0  0  0  0  0  0
    2.0093   -3.6253   -1.6897 C   0  0  0  0  0  0  0  0  0  0  0  0
    5.7915   -2.8305    1.1114 C   0  0  1  0  0  0  0  0  0  0  0  0
    4.5962   -1.9821    1.4524 C   0  0  0  0  0  0  0  0  0  0  0  0
    3.6380   -3.0250    0.9054 C   0  0  2  0  0  0  0  0  0  0  0  0
    3.8390   -4.1417    1.9272 C   0  0  2  0  0  0  0  0  0  0  0  0
    0.2385   -4.4067    3.6839 H   0  0  0  0  0  0  0  0  0  0  0  0
    0.3138   -6.2574    3.9051 H   0  0  0  0  0  0  0  0  0  0  0  0
    2.5981   -6.1607    4.4995 H   0  0  0  0  0  0  0  0  0  0  0  0
    2.2949   -3.0995    4.0692 H   0  0  0  0  0  0  0  0  0  0  0  0
    3.2744   -3.8084    5.3014 H   0  0  0  0  0  0  0  0  0  0  0  0
    5.8088   -4.6349    4.4940 H   0  0  0  0  0  0  0  0  0  0  0  0
    4.7446   -5.9100    4.0086 H   0  0  0  0  0  0  0  0  0  0  0  0
    6.9574   -4.9555    2.4600 H   0  0  0  0  0  0  0  0  0  0  0  0
    5.8646   -6.3001    2.1350 H   0  0  0  0  0  0  0  0  0  0  0  0
    5.2185   -5.7474   -0.5517 H   0  0  0  0  0  0  0  0  0  0  0  0
    3.6716   -5.7314    0.1496 H   0  0  0  0  0  0  0  0  0  0  0  0
    6.4722   -4.2500   -0.8329 H   0  0  0  0  0  0  0  0  0  0  0  0
    5.7511   -3.4873   -2.1821 H   0  0  0  0  0  0  0  0  0  0  0  0
    7.1135   -2.1492   -0.5374 H   0  0  0  0  0  0  0  0  0  0  0  0
    5.0849   -0.3697   -0.8254 H   0  0  0  0  0  0  0  0  0  0  0  0
    5.8250   -1.1486   -2.1267 H   0  0  0  0  0  0  0  0  0  0  0  0
    3.0187   -1.2711   -1.3217 H   0  0  0  0  0  0  0  0  0  0  0  0
    3.7523   -2.2954   -4.0470 H   0  0  0  0  0  0  0  0  0  0  0  0
    4.5590    0.6015   -3.1670 H   0  0  0  0  0  0  0  0  0  0  0  0
    4.6003   -0.1135   -4.8680 H   0  0  0  0  0  0  0  0  0  0  0  0
    2.1636   -0.4781   -4.7180 H   0  0  0  0  0  0  0  0  0  0  0  0
    2.2155    0.1593   -2.9810 H   0  0  0  0  0  0  0  0  0  0  0  0
    1.4423   -3.0597   -0.9621 H   0  0  0  0  0  0  0  0  0  0  0  0
    1.8186   -4.6543   -1.4433 H   0  0  0  0  0  0  0  0  0  0  0  0
    1.5763   -3.4290   -2.6622 H   0  0  0  0  0  0  0  0  0  0  0  0
    6.6362   -2.6038    1.7445 H   0  0  0  0  0  0  0  0  0  0  0  0
    4.5056   -1.7754    2.5122 H   0  0  0  0  0  0  0  0  0  0  0  0
    4.5179   -0.9947    1.0178 H   0  0  0  0  0  0  0  0  0  0  0  0
    2.6147   -2.6638    0.8799 H   0  0  0  0  0  0  0  0  0  0  0  0
    3.0927   -4.9271    1.8398 H   0  0  0  0  0  0  0  0  0  0  0  0
    3.8335   -3.8160   -2.4567 H   0  0  0  0  0  0  0  0  0  0  0  0
    4.5587   -3.0708    3.4699 H   0  0  0  0  0  0  0  0  0  0  0  0
  1  2  2  0
  1 23  1  0
  1 24  1  0
  2  3  1  0
  2 25  1  0
  3  4  1  0
  3 26  1  0
  3 27  1  0
  4 22  1  0
  4  5  1  0
  4 54  1  6
  5  6  1  0
  5 28  1  0
  5 29  1  0
  7  6  1  1
  6 30  1  0
  6 31  1  0
  7 19  1  0
  7 22  1  0
  7  8  1  0
  9  8  1  1
  8 32  1  0
  8 33  1  0
  9 17  1  0
  9 21  1  0
  9 10  1  0
 10 11  1  0
 10 34  1  0
 10 35  1  0
 11 12  1  0
 11 19  1  0
 11 36  1  1
 12 13  1  0
 12 37  1  0
 12 38  1  0
 13 14  1  0
 13 17  1  0
 13 39  1  1
 14 16  1  0
 14 15  1  0
 14 40  1  0
 15 16  1  0
 15 41  1  0
 15 42  1  0
 16 43  1  0
 16 44  1  0
 17 18  1  0
 17 53  1  6
 18 45  1  0
 18 46  1  0
 18 47  1  0
 19 20  1  0
 19 48  1  1
 20 21  1  0
 20 49  1  0
 20 50  1  0
 21 22  1  0
 21 51  1  6
 22 52  1  1
M  CHG  2   4   1  17   1
M  END
>  <i_m_ct_stereo_status>  (311) 
1

>  <s_m_source_file>  (311) 
/var/tmp/pbs.5076255.sched01/tmptyawoosb/846vw0lfia.sdf

>  <i_m_source_file_index>  (311) 
40

>  <i_lp_mmshare_version>  (311) 
48012

>  <i_f3d_flags>  (311) 
0

>  <s_epik_input>  (311) 
W0NIMl09W0NIXVtDSDJdTihbQ0gyXVtDSDJdMSlbQ0BIXTJbQ0BASF0oW0NIMl0zKVtDQF0oW0NIMl00KShbQ0gyXVtDQEBIXTVbQ0BASF0zW0NAQF0xMjQpTihbQ0gzXSlbQ0BASF0oW0NIMl01KVtDSF02W0NIMl1bQ0gyXTY=

>  <s_epik_cmdline>  (311) 
J2VwaWtfcHl0aG9uJywgJy1waHQnLCAnMi4wJywgJy1waCcsICc3LjAnLCAnLXRuJywgJzgnLCAnLW1hJywgJzIwMCcsICctaW1hZScsICc8aW5maWxlLm1hZT4nLCAnLW9tYWUnLCAnPG91dGZpbGUubWFlPic=

>  <r_epik_Ionization_Penalty>  (311) 
0.0100619

>  <r_epik_Ionization_Penalty_Charging>  (311) 
0.0100619

>  <r_epik_Ionization_Penalty_Neutral>  (311) 
0

>  <r_epik_State_Penalty>  (311) 
0.0073151

>  <r_epik_Charging_Adjusted_Penalty>  (311) 
0.017377

>  <i_epik_Tot_Q>  (311) 
2

>  <i_epik_Tot_abs_Q>  (311) 
2

>  <s_lp_Force_Field>  (311) 
OPLS3e

>  <r_lp_Energy>  (311) 
216.468

>  <b_lp_Chiralities_Consistent>  (311) 
1

>  <s_lp_Variant>  (311) 
89:0-1

>  <s_i_glide_gridfile>  (311) 
pfpi4k_grid

>  <i_i_glide_lignum>  (311) 
40

>  <i_i_glide_rotatable_bonds>  (311) 
3

>  <r_i_docking_score>  (311) 
-3.21928

>  <r_i_glide_ligand_efficiency>  (311) 
-0.146331

>  <r_i_glide_ligand_efficiency_sa>  (311) 
-0.410026

>  <r_i_glide_ligand_efficiency_ln>  (311) 
-0.78691

>  <r_i_glide_gscore>  (311) 
-3.21928

>  <r_i_glide_lipo>  (311) 
-0.776277

>  <r_i_glide_hbond>  (311) 
0

>  <r_i_glide_metal>  (311) 
-0

>  <r_i_glide_rewards>  (311) 
-1.36035

>  <r_i_glide_evdw>  (311) 
-17.2652

>  <r_i_glide_ecoul>  (311) 
-5.53451

>  <r_i_glide_erotb>  (311) 
0.610783

>  <r_i_glide_esite>  (311) 
0

>  <r_i_glide_emodel>  (311) 
-27.1776

>  <r_i_glide_energy>  (311) 
-22.7997

>  <r_i_glide_einternal>  (311) 
3.34446

>  <r_i_glide_intrahb_reward>  (311) 
-0

>  <i_i_glide_confnum>  (311) 
4

>  <i_i_glide_posenum>  (311) 
29

>  <r_i_glide_eff_state_penalty>  (311) 
0

>  <ligand_id>  (311) 
89

>  <original_smiles>  (311) 
C=CCN1CCC23CC45CC(CC(C6CC6)N4C)C2CC5C13

>  <smiles>  (311) 
[H]C([H])=C([H])C([H])([H])[N+]1([H])C([H])([H])C([H])([H])C23C([H])([H])C45C([H])([H])C([H])(C([H])([H])C([H])(C6([H])C([H])([H])C6([H])[H])[N+]4([H])C([H])([H])[H])C2([H])C([H])([H])C5([H])C31[H]

$$$$
89:0:1
     RDKit          3D

 54 59  0  0  1  0  0  0  0  0999 V2000
    0.7166  -10.1928    2.9174 C   0  0  0  0  0  0  0  0  0  0  0  0
    1.5689   -9.4806    2.1604 C   0  0  0  0  0  0  0  0  0  0  0  0
    2.9239   -9.9737    1.6931 C   0  0  0  0  0  0  0  0  0  0  0  0
    4.0458   -9.1121    2.1422 N   0  0  1  0  0  0  0  0  0  0  0  0
    5.3775   -9.7239    1.9138 C   0  0  0  0  0  0  0  0  0  0  0  0
    6.3907   -8.5661    1.8078 C   0  0  0  0  0  0  0  0  0  0  0  0
    5.5376   -7.2926    1.8577 C   0  0  2  0  0  0  0  0  0  0  0  0
    5.5853   -6.2374    0.6450 C   0  0  0  0  0  0  0  0  0  0  0  0
    4.7036   -5.3182    1.4492 C   0  0  1  0  0  0  0  0  0  0  0  0
    5.9594   -4.7466    2.2600 C   0  0  0  0  0  0  0  0  0  0  0  0
    5.5445   -5.0735    3.5978 C   0  0  1  0  0  0  0  0  0  0  0  0
    4.4355   -3.9207    3.7356 C   0  0  0  0  0  0  0  0  0  0  0  0
    3.5818   -3.4759    2.4368 C   0  0  1  0  0  0  0  0  0  0  0  0
    3.5175   -1.9562    2.3352 C   0  0  0  0  0  0  0  0  0  0  0  0
    2.7075   -1.1418    3.3171 C   0  0  0  0  0  0  0  0  0  0  0  0
    2.2500   -1.2676    1.8850 C   0  0  0  0  0  0  0  0  0  0  0  0
    4.0450   -4.0540    1.1105 N   0  0  2  0  0  0  0  0  0  0  0  0
    3.0082   -4.1271    0.0582 C   0  0  0  0  0  0  0  0  0  0  0  0
    5.2969   -6.6546    3.4155 C   0  0  1  0  0  0  0  0  0  0  0  0
    3.7962   -6.7097    3.5334 C   0  0  0  0  0  0  0  0  0  0  0  0
    3.6222   -6.4531    2.0444 C   0  0  2  0  0  0  0  0  0  0  0  0
    4.1653   -7.7816    1.4926 C   0  0  2  0  0  0  0  0  0  0  0  0
    0.9468  -11.1942    3.2706 H   0  0  0  0  0  0  0  0  0  0  0  0
   -0.2453   -9.7839    3.1955 H   0  0  0  0  0  0  0  0  0  0  0  0
    1.2764   -8.4921    1.8379 H   0  0  0  0  0  0  0  0  0  0  0  0
    3.0651  -10.9848    2.0820 H   0  0  0  0  0  0  0  0  0  0  0  0
    2.9052  -10.0530    0.6071 H   0  0  0  0  0  0  0  0  0  0  0  0
    5.6339  -10.4394    2.6969 H   0  0  0  0  0  0  0  0  0  0  0  0
    5.3865  -10.2559    0.9609 H   0  0  0  0  0  0  0  0  0  0  0  0
    7.1110   -8.5944    2.6272 H   0  0  0  0  0  0  0  0  0  0  0  0
    6.9547   -8.6389    0.8765 H   0  0  0  0  0  0  0  0  0  0  0  0
    6.5840   -5.9038    0.3442 H   0  0  0  0  0  0  0  0  0  0  0  0
    5.1242   -6.5202   -0.3022 H   0  0  0  0  0  0  0  0  0  0  0  0
    6.9561   -5.1937    2.1578 H   0  0  0  0  0  0  0  0  0  0  0  0
    6.1699   -3.6839    2.1069 H   0  0  0  0  0  0  0  0  0  0  0  0
    6.3432   -4.9113    4.3175 H   0  0  0  0  0  0  0  0  0  0  0  0
    3.7722   -4.0851    4.5844 H   0  0  0  0  0  0  0  0  0  0  0  0
    4.9828   -3.0359    4.0712 H   0  0  0  0  0  0  0  0  0  0  0  0
    2.5685   -3.8381    2.6141 H   0  0  0  0  0  0  0  0  0  0  0  0
    4.4562   -1.4950    2.0233 H   0  0  0  0  0  0  0  0  0  0  0  0
    2.1473   -1.6769    4.0815 H   0  0  0  0  0  0  0  0  0  0  0  0
    3.1002   -0.1723    3.6171 H   0  0  0  0  0  0  0  0  0  0  0  0
    2.3539   -0.3943    1.2433 H   0  0  0  0  0  0  0  0  0  0  0  0
    1.3828   -1.8916    1.6797 H   0  0  0  0  0  0  0  0  0  0  0  0
    2.1059   -4.6409    0.3954 H   0  0  0  0  0  0  0  0  0  0  0  0
    3.3977   -4.6416   -0.8224 H   0  0  0  0  0  0  0  0  0  0  0  0
    2.7235   -3.1164   -0.2454 H   0  0  0  0  0  0  0  0  0  0  0  0
    5.7873   -7.2299    4.2039 H   0  0  0  0  0  0  0  0  0  0  0  0
    3.4255   -7.6629    3.9023 H   0  0  0  0  0  0  0  0  0  0  0  0
    3.3021   -6.0105    4.1922 H   0  0  0  0  0  0  0  0  0  0  0  0
    2.5796   -6.3103    1.7724 H   0  0  0  0  0  0  0  0  0  0  0  0
    3.9570   -7.9400    0.4348 H   0  0  0  0  0  0  0  0  0  0  0  0
    4.7776   -3.4509    0.7650 H   0  0  0  0  0  0  0  0  0  0  0  0
    3.9612   -8.9786    3.1407 H   0  0  0  0  0  0  0  0  0  0  0  0
  1  2  2  0
  1 23  1  0
  1 24  1  0
  2  3  1  0
  2 25  1  0
  3  4  1  0
  3 26  1  0
  3 27  1  0
  4 22  1  0
  4  5  1  0
  4 54  1  1
  5  6  1  0
  5 28  1  0
  5 29  1  0
  7  6  1  1
  6 30  1  0
  6 31  1  0
  7 19  1  0
  7 22  1  0
  7  8  1  0
  9  8  1  6
  8 32  1  0
  8 33  1  0
  9 17  1  0
  9 21  1  0
  9 10  1  0
 10 11  1  0
 10 34  1  0
 10 35  1  0
 11 12  1  0
 11 19  1  0
 11 36  1  1
 12 13  1  0
 12 37  1  0
 12 38  1  0
 13 14  1  0
 13 17  1  0
 13 39  1  1
 14 16  1  0
 14 15  1  0
 14 40  1  0
 15 16  1  0
 15 41  1  0
 15 42  1  0
 16 43  1  0
 16 44  1  0
 17 18  1  0
 17 53  1  6
 18 45  1  0
 18 46  1  0
 18 47  1  0
 19 20  1  0
 19 48  1  1
 20 21  1  0
 20 49  1  0
 20 50  1  0
 21 22  1  0
 21 51  1  1
 22 52  1  6
M  CHG  2   4   1  17   1
M  END
>  <i_m_ct_stereo_status>  (312) 
1

>  <s_m_source_file>  (312) 
/var/tmp/pbs.5076255.sched01/tmptyawoosb/846vw0lfia.sdf

>  <i_m_source_file_index>  (312) 
40

>  <i_lp_mmshare_version>  (312) 
48012

>  <i_f3d_flags>  (312) 
0

>  <s_epik_input>  (312) 
W0NIMl09W0NIXVtDSDJdTihbQ0gyXVtDSDJdMSlbQ0BIXTJbQ0BASF0oW0NIMl0zKVtDQF0oW0NIMl00KShbQ0gyXVtDQEBIXTVbQ0BASF0zW0NAQF0xMjQpTihbQ0gzXSlbQ0BASF0oW0NIMl01KVtDSF02W0NIMl1bQ0gyXTY=

>  <s_epik_cmdline>  (312) 
J2VwaWtfcHl0aG9uJywgJy1waHQnLCAnMi4wJywgJy1waCcsICc3LjAnLCAnLXRuJywgJzgnLCAnLW1hJywgJzIwMCcsICctaW1hZScsICc8aW5maWxlLm1hZT4nLCAnLW9tYWUnLCAnPG91dGZpbGUubWFlPic=

>  <r_epik_Ionization_Penalty>  (312) 
0.0100619

>  <r_epik_Ionization_Penalty_Charging>  (312) 
0.0100619

>  <r_epik_Ionization_Penalty_Neutral>  (312) 
0

>  <r_epik_State_Penalty>  (312) 
0.0073151

>  <r_epik_Charging_Adjusted_Penalty>  (312) 
0.017377

>  <i_epik_Tot_Q>  (312) 
2

>  <i_epik_Tot_abs_Q>  (312) 
2

>  <s_lp_Force_Field>  (312) 
OPLS3e

>  <r_lp_Energy>  (312) 
216.468

>  <b_lp_Chiralities_Consistent>  (312) 
1

>  <s_lp_Variant>  (312) 
89:0-1

>  <s_i_glide_gridfile>  (312) 
pfpi4k_grid

>  <i_i_glide_lignum>  (312) 
40

>  <i_i_glide_rotatable_bonds>  (312) 
3

>  <r_i_docking_score>  (312) 
-2.72936

>  <r_i_glide_ligand_efficiency>  (312) 
-0.124062

>  <r_i_glide_ligand_efficiency_sa>  (312) 
-0.347626

>  <r_i_glide_ligand_efficiency_ln>  (312) 
-0.667156

>  <r_i_glide_gscore>  (312) 
-2.72936

>  <r_i_glide_lipo>  (312) 
-0.541947

>  <r_i_glide_hbond>  (312) 
0

>  <r_i_glide_metal>  (312) 
-0

>  <r_i_glide_rewards>  (312) 
-1.36035

>  <r_i_glide_evdw>  (312) 
-15.0222

>  <r_i_glide_ecoul>  (312) 
-4.35432

>  <r_i_glide_erotb>  (312) 
0.610783

>  <r_i_glide_esite>  (312) 
-0.0335884

>  <r_i_glide_emodel>  (312) 
-24.7648

>  <r_i_glide_energy>  (312) 
-19.3765

>  <r_i_glide_einternal>  (312) 
0.108379

>  <r_i_glide_intrahb_reward>  (312) 
-0

>  <i_i_glide_confnum>  (312) 
1

>  <i_i_glide_posenum>  (312) 
4

>  <r_i_glide_eff_state_penalty>  (312) 
0

>  <ligand_id>  (312) 
89

>  <original_smiles>  (312) 
C=CCN1CCC23CC45CC(CC(C6CC6)N4C)C2CC5C13

>  <smiles>  (312) 
[H]C([H])=C([H])C([H])([H])[N+]1([H])C([H])([H])C([H])([H])C23C([H])([H])C45C([H])([H])C([H])(C([H])([H])C([H])(C6([H])C([H])([H])C6([H])[H])[N+]4([H])C([H])([H])[H])C2([H])C([H])([H])C5([H])C31[H]

$$$$
89:0:2
     RDKit          3D

 54 59  0  0  1  0  0  0  0  0999 V2000
    6.4792   -9.5156    1.2189 C   0  0  0  0  0  0  0  0  0  0  0  0
    5.8298   -9.6868    2.3818 C   0  0  0  0  0  0  0  0  0  0  0  0
    5.1859  -10.9860    2.8283 C   0  0  0  0  0  0  0  0  0  0  0  0
    3.7116  -10.8761    2.9567 N   0  0  1  0  0  0  0  0  0  0  0  0
    3.0569  -12.1767    3.2179 C   0  0  0  0  0  0  0  0  0  0  0  0
    1.7249  -11.8701    3.9364 C   0  0  0  0  0  0  0  0  0  0  0  0
    1.7359  -10.3612    4.1680 C   0  0  2  0  0  0  0  0  0  0  0  0
    1.6175   -9.7847    5.6630 C   0  0  0  0  0  0  0  0  0  0  0  0
    1.5571   -8.3958    5.0781 C   0  0  1  0  0  0  0  0  0  0  0  0
   -0.0133   -8.5301    4.8006 C   0  0  0  0  0  0  0  0  0  0  0  0
   -0.0264   -8.3115    3.3803 C   0  0  1  0  0  0  0  0  0  0  0  0
    0.2176   -6.7256    3.4411 C   0  0  0  0  0  0  0  0  0  0  0  0
    1.1486   -6.1064    4.6093 C   0  0  1  0  0  0  0  0  0  0  0  0
    0.4770   -4.8875    5.2324 C   0  0  0  0  0  0  0  0  0  0  0  0
    0.3597   -3.5842    4.4750 C   0  0  0  0  0  0  0  0  0  0  0  0
    1.2965   -3.6892    5.6524 C   0  0  0  0  0  0  0  0  0  0  0  0
    1.5689   -7.0730    5.7045 N   0  0  2  0  0  0  0  0  0  0  0  0
    2.8106   -6.7084    6.4221 C   0  0  0  0  0  0  0  0  0  0  0  0
    1.0238   -9.4448    2.9286 C   0  0  1  0  0  0  0  0  0  0  0  0
    2.1834   -8.5878    2.4938 C   0  0  0  0  0  0  0  0  0  0  0  0
    2.7461   -8.5459    3.9065 C   0  0  2  0  0  0  0  0  0  0  0  0
    3.1919  -10.0091    4.0478 C   0  0  2  0  0  0  0  0  0  0  0  0
    6.5733  -10.3113    0.4870 H   0  0  0  0  0  0  0  0  0  0  0  0
    6.9360   -8.5632    0.9828 H   0  0  0  0  0  0  0  0  0  0  0  0
    5.7601   -8.8536    3.0662 H   0  0  0  0  0  0  0  0  0  0  0  0
    5.4235  -11.7585    2.0932 H   0  0  0  0  0  0  0  0  0  0  0  0
    5.6416  -11.3026    3.7660 H   0  0  0  0  0  0  0  0  0  0  0  0
    2.9267  -12.7427    2.2969 H   0  0  0  0  0  0  0  0  0  0  0  0
    3.6757  -12.7814    3.8819 H   0  0  0  0  0  0  0  0  0  0  0  0
    0.8703  -12.1725    3.3277 H   0  0  0  0  0  0  0  0  0  0  0  0
    1.6680  -12.4160    4.8810 H   0  0  0  0  0  0  0  0  0  0  0  0
    0.7792  -10.1679    6.2541 H   0  0  0  0  0  0  0  0  0  0  0  0
    2.4658   -9.9283    6.3330 H   0  0  0  0  0  0  0  0  0  0  0  0
   -0.5367   -9.4797    4.9438 H   0  0  0  0  0  0  0  0  0  0  0  0
   -0.6498   -7.8400    5.3607 H   0  0  0  0  0  0  0  0  0  0  0  0
   -1.0074   -8.5294    2.9605 H   0  0  0  0  0  0  0  0  0  0  0  0
    0.5041   -6.3152    2.4740 H   0  0  0  0  0  0  0  0  0  0  0  0
   -0.7756   -6.2955    3.5791 H   0  0  0  0  0  0  0  0  0  0  0  0
    2.0571   -5.7651    4.1111 H   0  0  0  0  0  0  0  0  0  0  0  0
   -0.3813   -5.1312    5.8609 H   0  0  0  0  0  0  0  0  0  0  0  0
    0.7946   -3.5348    3.4785 H   0  0  0  0  0  0  0  0  0  0  0  0
   -0.5394   -2.9893    4.6198 H   0  0  0  0  0  0  0  0  0  0  0  0
    1.0065   -3.1823    6.5699 H   0  0  0  0  0  0  0  0  0  0  0  0
    2.3666   -3.7155    5.4515 H   0  0  0  0  0  0  0  0  0  0  0  0
    3.6460   -6.5137    5.7454 H   0  0  0  0  0  0  0  0  0  0  0  0
    3.0954   -7.4972    7.1223 H   0  0  0  0  0  0  0  0  0  0  0  0
    2.6370   -5.8002    7.0032 H   0  0  0  0  0  0  0  0  0  0  0  0
    0.6338  -10.0501    2.1056 H   0  0  0  0  0  0  0  0  0  0  0  0
    2.8099   -9.0604    1.7412 H   0  0  0  0  0  0  0  0  0  0  0  0
    1.9785   -7.6282    2.0407 H   0  0  0  0  0  0  0  0  0  0  0  0
    3.5927   -7.8682    3.9937 H   0  0  0  0  0  0  0  0  0  0  0  0
    3.8245  -10.1984    4.9155 H   0  0  0  0  0  0  0  0  0  0  0  0
    0.8223   -7.0984    6.3864 H   0  0  0  0  0  0  0  0  0  0  0  0
    3.3475  -10.5689    2.0623 H   0  0  0  0  0  0  0  0  0  0  0  0
  1  2  2  0
  1 23  1  0
  1 24  1  0
  2  3  1  0
  2 25  1  0
  3  4  1  0
  3 26  1  0
  3 27  1  0
  4 22  1  0
  4  5  1  0
  4 54  1  6
  5  6  1  0
  5 28  1  0
  5 29  1  0
  7  6  1  1
  6 30  1  0
  6 31  1  0
  7 19  1  0
  7 22  1  0
  7  8  1  0
  9  8  1  1
  8 32  1  0
  8 33  1  0
  9 17  1  0
  9 21  1  0
  9 10  1  0
 10 11  1  0
 10 34  1  0
 10 35  1  0
 11 12  1  0
 11 19  1  0
 11 36  1  6
 12 13  1  0
 12 37  1  0
 12 38  1  0
 13 14  1  0
 13 17  1  0
 13 39  1  6
 14 16  1  0
 14 15  1  0
 14 40  1  0
 15 16  1  0
 15 41  1  0
 15 42  1  0
 16 43  1  0
 16 44  1  0
 17 18  1  0
 17 53  1  1
 18 45  1  0
 18 46  1  0
 18 47  1  0
 19 20  1  0
 19 48  1  6
 20 21  1  0
 20 49  1  0
 20 50  1  0
 21 22  1  0
 21 51  1  6
 22 52  1  1
M  CHG  2   4   1  17   1
M  END
>  <i_m_ct_stereo_status>  (313) 
1

>  <s_m_source_file>  (313) 
/var/tmp/pbs.5076255.sched01/tmptyawoosb/846vw0lfia.sdf

>  <i_m_source_file_index>  (313) 
40

>  <i_lp_mmshare_version>  (313) 
48012

>  <i_f3d_flags>  (313) 
0

>  <s_epik_input>  (313) 
W0NIMl09W0NIXVtDSDJdTihbQ0gyXVtDSDJdMSlbQ0BIXTJbQ0BASF0oW0NIMl0zKVtDQF0oW0NIMl00KShbQ0gyXVtDQEBIXTVbQ0BASF0zW0NAQF0xMjQpTihbQ0gzXSlbQ0BASF0oW0NIMl01KVtDSF02W0NIMl1bQ0gyXTY=

>  <s_epik_cmdline>  (313) 
J2VwaWtfcHl0aG9uJywgJy1waHQnLCAnMi4wJywgJy1waCcsICc3LjAnLCAnLXRuJywgJzgnLCAnLW1hJywgJzIwMCcsICctaW1hZScsICc8aW5maWxlLm1hZT4nLCAnLW9tYWUnLCAnPG91dGZpbGUubWFlPic=

>  <r_epik_Ionization_Penalty>  (313) 
0.0100619

>  <r_epik_Ionization_Penalty_Charging>  (313) 
0.0100619

>  <r_epik_Ionization_Penalty_Neutral>  (313) 
0

>  <r_epik_State_Penalty>  (313) 
0.0073151

>  <r_epik_Charging_Adjusted_Penalty>  (313) 
0.017377

>  <i_epik_Tot_Q>  (313) 
2

>  <i_epik_Tot_abs_Q>  (313) 
2

>  <s_lp_Force_Field>  (313) 
OPLS3e

>  <r_lp_Energy>  (313) 
216.468

>  <b_lp_Chiralities_Consistent>  (313) 
1

>  <s_lp_Variant>  (313) 
89:0-1

>  <s_i_glide_gridfile>  (313) 
pfpi4k_grid

>  <i_i_glide_lignum>  (313) 
40

>  <i_i_glide_rotatable_bonds>  (313) 
3

>  <r_i_docking_score>  (313) 
-2.34476

>  <r_i_glide_ligand_efficiency>  (313) 
-0.10658

>  <r_i_glide_ligand_efficiency_sa>  (313) 
-0.298641

>  <r_i_glide_ligand_efficiency_ln>  (313) 
-0.573145

>  <r_i_glide_gscore>  (313) 
-2.34476

>  <r_i_glide_lipo>  (313) 
-0.0417165

>  <r_i_glide_hbond>  (313) 
0

>  <r_i_glide_metal>  (313) 
-0

>  <r_i_glide_rewards>  (313) 
-1.36035

>  <r_i_glide_evdw>  (313) 
-15.6827

>  <r_i_glide_ecoul>  (313) 
-4.6727

>  <r_i_glide_erotb>  (313) 
0.610783

>  <r_i_glide_esite>  (313) 
-0.0684296

>  <r_i_glide_emodel>  (313) 
-24.9328

>  <r_i_glide_energy>  (313) 
-20.3555

>  <r_i_glide_einternal>  (313) 
0.0761468

>  <r_i_glide_intrahb_reward>  (313) 
-0

>  <i_i_glide_confnum>  (313) 
1

>  <i_i_glide_posenum>  (313) 
22

>  <r_i_glide_eff_state_penalty>  (313) 
0

>  <ligand_id>  (313) 
89

>  <original_smiles>  (313) 
C=CCN1CCC23CC45CC(CC(C6CC6)N4C)C2CC5C13

>  <smiles>  (313) 
[H]C([H])=C([H])C([H])([H])[N+]1([H])C([H])([H])C([H])([H])C23C([H])([H])C45C([H])([H])C([H])(C([H])([H])C([H])(C6([H])C([H])([H])C6([H])[H])[N+]4([H])C([H])([H])[H])C2([H])C([H])([H])C5([H])C31[H]

$$$$
91:0:0
     RDKit          3D

 16 16  0  0  1  0  0  0  0  0999 V2000
    3.3478   -4.0066    1.6572 C   0  0  0  0  0  0  0  0  0  0  0  0
    3.6434   -3.2553    0.4918 O   0  0  0  0  0  0  0  0  0  0  0  0
    2.9298   -3.4549   -0.6314 C   0  0  0  0  0  0  0  0  0  0  0  0
    2.0033   -4.2607   -0.7190 O   0  0  0  0  0  0  0  0  0  0  0  0
    3.3950   -2.6097   -1.7613 C   0  0  0  0  0  0  0  0  0  0  0  0
    3.0176   -2.9254   -3.0886 C   0  0  0  0  0  0  0  0  0  0  0  0
    3.4141   -2.1788   -4.1444 N   0  0  0  0  0  0  0  0  0  0  0  0
    4.1351   -1.0754   -3.8611 C   0  0  0  0  0  0  0  0  0  0  0  0
    4.4963   -0.7420   -2.5385 C   0  0  0  0  0  0  0  0  0  0  0  0
    4.1510   -1.5154   -1.4912 N   0  0  0  0  0  0  0  0  0  0  0  0
    4.0369   -3.7259    2.4543 H   0  0  0  0  0  0  0  0  0  0  0  0
    3.4581   -5.0779    1.4781 H   0  0  0  0  0  0  0  0  0  0  0  0
    2.3323   -3.8093    2.0030 H   0  0  0  0  0  0  0  0  0  0  0  0
    2.4075   -3.7860   -3.3221 H   0  0  0  0  0  0  0  0  0  0  0  0
    4.4532   -0.4733   -4.6996 H   0  0  0  0  0  0  0  0  0  0  0  0
    5.0843    0.1365   -2.3199 H   0  0  0  0  0  0  0  0  0  0  0  0
  1  2  1  0
  1 11  1  0
  1 12  1  0
  1 13  1  0
  2  3  1  0
  3  4  2  0
  3  5  1  0
  5 10  2  0
  5  6  1  0
  6  7  2  0
  6 14  1  0
  7  8  1  0
  8  9  2  0
  8 15  1  0
  9 10  1  0
  9 16  1  0
M  END
>  <i_m_ct_stereo_status>  (314) 
1

>  <s_m_source_file>  (314) 
/var/tmp/pbs.5076255.sched01/tmptyawoosb/846vw0lfia.sdf

>  <i_m_source_file_index>  (314) 
42

>  <i_lp_mmshare_version>  (314) 
48012

>  <i_f3d_flags>  (314) 
0

>  <s_epik_input>  (314) 
W0NIM11PQyg9TyljMVtjSF1uW2NIXVtjSF1uMQ==

>  <s_epik_cmdline>  (314) 
J2VwaWtfcHl0aG9uJywgJy1waHQnLCAnMi4wJywgJy1waCcsICc3LjAnLCAnLXRuJywgJzgnLCAnLW1hJywgJzIwMCcsICctaW1hZScsICc8aW5maWxlLm1hZT4nLCAnLW9tYWUnLCAnPG91dGZpbGUubWFlPic=

>  <r_lp_tautomer_probability>  (314) 
1

>  <r_epik_Ionization_Penalty>  (314) 
6.89724e-09

>  <r_epik_Ionization_Penalty_Charging>  (314) 
0

>  <r_epik_Ionization_Penalty_Neutral>  (314) 
6.89724e-09

>  <r_epik_State_Penalty>  (314) 
-0

>  <r_epik_Charging_Adjusted_Penalty>  (314) 
0

>  <i_epik_Tot_Q>  (314) 
0

>  <i_epik_Tot_abs_Q>  (314) 
0

>  <s_epik_Chemistry_Notes>  (314) 
This compound has an ester and may undergo hydrolysis at high or low pH.

>  <s_lp_Force_Field>  (314) 
OPLS3e

>  <r_lp_Energy>  (314) 
13.2549

>  <b_lp_Chiralities_Consistent>  (314) 
1

>  <s_lp_Variant>  (314) 
91:0-1

>  <s_i_glide_gridfile>  (314) 
pfpi4k_grid

>  <i_i_glide_lignum>  (314) 
42

>  <i_i_glide_rotatable_bonds>  (314) 
2

>  <r_i_docking_score>  (314) 
-3.78111

>  <r_i_glide_ligand_efficiency>  (314) 
-0.378111

>  <r_i_glide_ligand_efficiency_sa>  (314) 
-0.814615

>  <r_i_glide_ligand_efficiency_ln>  (314) 
-1.14489

>  <r_i_glide_gscore>  (314) 
-3.78111

>  <r_i_glide_lipo>  (314) 
-0.210274

>  <r_i_glide_hbond>  (314) 
-0.221831

>  <r_i_glide_metal>  (314) 
-0

>  <r_i_glide_rewards>  (314) 
-2.25573

>  <r_i_glide_evdw>  (314) 
-16.0205

>  <r_i_glide_ecoul>  (314) 
-1.94831

>  <r_i_glide_erotb>  (314) 
0

>  <r_i_glide_esite>  (314) 
0

>  <r_i_glide_emodel>  (314) 
-21.3687

>  <r_i_glide_energy>  (314) 
-17.9688

>  <r_i_glide_einternal>  (314) 
1.52638

>  <r_i_glide_intrahb_reward>  (314) 
-0

>  <i_i_glide_confnum>  (314) 
2

>  <i_i_glide_posenum>  (314) 
18

>  <r_i_glide_eff_state_penalty>  (314) 
0

>  <ligand_id>  (314) 
91

>  <original_smiles>  (314) 
COC(=O)c1cnccn1

>  <smiles>  (314) 
[H]c1nc([H])c(C(=O)OC([H])([H])[H])nc1[H]

$$$$
91:0:1
     RDKit          3D

 16 16  0  0  1  0  0  0  0  0999 V2000
   -1.3824    1.5031    3.9126 C   0  0  0  0  0  0  0  0  0  0  0  0
   -0.9056    0.1899    4.1576 O   0  0  0  0  0  0  0  0  0  0  0  0
   -1.2910   -0.4886    5.2534 C   0  0  0  0  0  0  0  0  0  0  0  0
   -2.1059   -0.0627    6.0767 O   0  0  0  0  0  0  0  0  0  0  0  0
   -0.6271   -1.8214    5.3620 C   0  0  0  0  0  0  0  0  0  0  0  0
    0.3514   -2.2480    4.4256 C   0  0  0  0  0  0  0  0  0  0  0  0
    0.9564   -3.4542    4.5077 N   0  0  0  0  0  0  0  0  0  0  0  0
    0.5913   -4.2417    5.5414 C   0  0  0  0  0  0  0  0  0  0  0  0
   -0.3758   -3.8302    6.4818 C   0  0  0  0  0  0  0  0  0  0  0  0
   -0.9860   -2.6244    6.3980 N   0  0  0  0  0  0  0  0  0  0  0  0
   -0.9655    1.8751    2.9756 H   0  0  0  0  0  0  0  0  0  0  0  0
   -1.0773    2.1834    4.7083 H   0  0  0  0  0  0  0  0  0  0  0  0
   -2.4696    1.5286    3.8296 H   0  0  0  0  0  0  0  0  0  0  0  0
    0.6661   -1.6386    3.5936 H   0  0  0  0  0  0  0  0  0  0  0  0
    1.0735   -5.2085    5.6158 H   0  0  0  0  0  0  0  0  0  0  0  0
   -0.6641   -4.4748    7.3007 H   0  0  0  0  0  0  0  0  0  0  0  0
  1  2  1  0
  1 11  1  0
  1 12  1  0
  1 13  1  0
  2  3  1  0
  3  4  2  0
  3  5  1  0
  5 10  2  0
  5  6  1  0
  6  7  2  0
  6 14  1  0
  7  8  1  0
  8  9  2  0
  8 15  1  0
  9 10  1  0
  9 16  1  0
M  END
>  <i_m_ct_stereo_status>  (315) 
1

>  <s_m_source_file>  (315) 
/var/tmp/pbs.5076255.sched01/tmptyawoosb/846vw0lfia.sdf

>  <i_m_source_file_index>  (315) 
42

>  <i_lp_mmshare_version>  (315) 
48012

>  <i_f3d_flags>  (315) 
0

>  <s_epik_input>  (315) 
W0NIM11PQyg9TyljMVtjSF1uW2NIXVtjSF1uMQ==

>  <s_epik_cmdline>  (315) 
J2VwaWtfcHl0aG9uJywgJy1waHQnLCAnMi4wJywgJy1waCcsICc3LjAnLCAnLXRuJywgJzgnLCAnLW1hJywgJzIwMCcsICctaW1hZScsICc8aW5maWxlLm1hZT4nLCAnLW9tYWUnLCAnPG91dGZpbGUubWFlPic=

>  <r_lp_tautomer_probability>  (315) 
1

>  <r_epik_Ionization_Penalty>  (315) 
6.89724e-09

>  <r_epik_Ionization_Penalty_Charging>  (315) 
0

>  <r_epik_Ionization_Penalty_Neutral>  (315) 
6.89724e-09

>  <r_epik_State_Penalty>  (315) 
-0

>  <r_epik_Charging_Adjusted_Penalty>  (315) 
0

>  <i_epik_Tot_Q>  (315) 
0

>  <i_epik_Tot_abs_Q>  (315) 
0

>  <s_epik_Chemistry_Notes>  (315) 
This compound has an ester and may undergo hydrolysis at high or low pH.

>  <s_lp_Force_Field>  (315) 
OPLS3e

>  <r_lp_Energy>  (315) 
13.2549

>  <b_lp_Chiralities_Consistent>  (315) 
1

>  <s_lp_Variant>  (315) 
91:0-1

>  <s_i_glide_gridfile>  (315) 
pfpi4k_grid

>  <i_i_glide_lignum>  (315) 
42

>  <i_i_glide_rotatable_bonds>  (315) 
2

>  <r_i_docking_score>  (315) 
-3.62641

>  <r_i_glide_ligand_efficiency>  (315) 
-0.362641

>  <r_i_glide_ligand_efficiency_sa>  (315) 
-0.781287

>  <r_i_glide_ligand_efficiency_ln>  (315) 
-1.09805

>  <r_i_glide_gscore>  (315) 
-3.62641

>  <r_i_glide_lipo>  (315) 
-0.0542473

>  <r_i_glide_hbond>  (315) 
-0.16

>  <r_i_glide_metal>  (315) 
-0

>  <r_i_glide_rewards>  (315) 
-2.25

>  <r_i_glide_evdw>  (315) 
-11.0065

>  <r_i_glide_ecoul>  (315) 
-3.78738

>  <r_i_glide_erotb>  (315) 
0

>  <r_i_glide_esite>  (315) 
-0.0437346

>  <r_i_glide_emodel>  (315) 
-18.7964

>  <r_i_glide_energy>  (315) 
-14.7939

>  <r_i_glide_einternal>  (315) 
0.0582178

>  <r_i_glide_intrahb_reward>  (315) 
-0

>  <i_i_glide_confnum>  (315) 
2

>  <i_i_glide_posenum>  (315) 
4

>  <r_i_glide_eff_state_penalty>  (315) 
0

>  <ligand_id>  (315) 
91

>  <original_smiles>  (315) 
COC(=O)c1cnccn1

>  <smiles>  (315) 
[H]c1nc([H])c(C(=O)OC([H])([H])[H])nc1[H]

$$$$
91:0:2
     RDKit          3D

 16 16  0  0  1  0  0  0  0  0999 V2000
    4.3271   -4.5974    1.7571 C   0  0  0  0  0  0  0  0  0  0  0  0
    4.2926   -3.8073    0.5785 O   0  0  0  0  0  0  0  0  0  0  0  0
    3.2323   -3.8744   -0.2510 C   0  0  0  0  0  0  0  0  0  0  0  0
    2.2518   -4.5977   -0.0470 O   0  0  0  0  0  0  0  0  0  0  0  0
    3.3868   -2.9814   -1.4389 C   0  0  0  0  0  0  0  0  0  0  0  0
    4.4687   -2.0661   -1.5497 C   0  0  0  0  0  0  0  0  0  0  0  0
    4.6190   -1.2479   -2.6159 N   0  0  0  0  0  0  0  0  0  0  0  0
    3.6908   -1.3494   -3.5892 C   0  0  0  0  0  0  0  0  0  0  0  0
    2.6150   -2.2594   -3.4956 C   0  0  0  0  0  0  0  0  0  0  0  0
    2.4583   -3.0656   -2.4225 N   0  0  0  0  0  0  0  0  0  0  0  0
    5.2569   -4.4039    2.2959 H   0  0  0  0  0  0  0  0  0  0  0  0
    4.2932   -5.6619    1.5204 H   0  0  0  0  0  0  0  0  0  0  0  0
    3.4990   -4.3537    2.4204 H   0  0  0  0  0  0  0  0  0  0  0  0
    5.2281   -1.9670   -0.7895 H   0  0  0  0  0  0  0  0  0  0  0  0
    3.8093   -0.7019   -4.4486 H   0  0  0  0  0  0  0  0  0  0  0  0
    1.8780   -2.3354   -4.2821 H   0  0  0  0  0  0  0  0  0  0  0  0
  1  2  1  0
  1 11  1  0
  1 12  1  0
  1 13  1  0
  2  3  1  0
  3  4  2  0
  3  5  1  0
  5 10  2  0
  5  6  1  0
  6  7  2  0
  6 14  1  0
  7  8  1  0
  8  9  2  0
  8 15  1  0
  9 10  1  0
  9 16  1  0
M  END
>  <i_m_ct_stereo_status>  (316) 
1

>  <s_m_source_file>  (316) 
/var/tmp/pbs.5076255.sched01/tmptyawoosb/846vw0lfia.sdf

>  <i_m_source_file_index>  (316) 
42

>  <i_lp_mmshare_version>  (316) 
48012

>  <i_f3d_flags>  (316) 
0

>  <s_epik_input>  (316) 
W0NIM11PQyg9TyljMVtjSF1uW2NIXVtjSF1uMQ==

>  <s_epik_cmdline>  (316) 
J2VwaWtfcHl0aG9uJywgJy1waHQnLCAnMi4wJywgJy1waCcsICc3LjAnLCAnLXRuJywgJzgnLCAnLW1hJywgJzIwMCcsICctaW1hZScsICc8aW5maWxlLm1hZT4nLCAnLW9tYWUnLCAnPG91dGZpbGUubWFlPic=

>  <r_lp_tautomer_probability>  (316) 
1

>  <r_epik_Ionization_Penalty>  (316) 
6.89724e-09

>  <r_epik_Ionization_Penalty_Charging>  (316) 
0

>  <r_epik_Ionization_Penalty_Neutral>  (316) 
6.89724e-09

>  <r_epik_State_Penalty>  (316) 
-0

>  <r_epik_Charging_Adjusted_Penalty>  (316) 
0

>  <i_epik_Tot_Q>  (316) 
0

>  <i_epik_Tot_abs_Q>  (316) 
0

>  <s_epik_Chemistry_Notes>  (316) 
This compound has an ester and may undergo hydrolysis at high or low pH.

>  <s_lp_Force_Field>  (316) 
OPLS3e

>  <r_lp_Energy>  (316) 
13.2549

>  <b_lp_Chiralities_Consistent>  (316) 
1

>  <s_lp_Variant>  (316) 
91:0-1

>  <s_i_glide_gridfile>  (316) 
pfpi4k_grid

>  <i_i_glide_lignum>  (316) 
42

>  <i_i_glide_rotatable_bonds>  (316) 
2

>  <r_i_docking_score>  (316) 
-3.48401

>  <r_i_glide_ligand_efficiency>  (316) 
-0.348401

>  <r_i_glide_ligand_efficiency_sa>  (316) 
-0.750608

>  <r_i_glide_ligand_efficiency_ln>  (316) 
-1.05493

>  <r_i_glide_gscore>  (316) 
-3.48401

>  <r_i_glide_lipo>  (316) 
-0.455507

>  <r_i_glide_hbond>  (316) 
-0.00112542

>  <r_i_glide_metal>  (316) 
-0

>  <r_i_glide_rewards>  (316) 
-2.25

>  <r_i_glide_evdw>  (316) 
-16.5368

>  <r_i_glide_ecoul>  (316) 
0.4098

>  <r_i_glide_erotb>  (316) 
0

>  <r_i_glide_esite>  (316) 
-0.0120105

>  <r_i_glide_emodel>  (316) 
-19.9697

>  <r_i_glide_energy>  (316) 
-16.127

>  <r_i_glide_einternal>  (316) 
0.0621583

>  <r_i_glide_intrahb_reward>  (316) 
-0

>  <i_i_glide_confnum>  (316) 
2

>  <i_i_glide_posenum>  (316) 
21

>  <r_i_glide_eff_state_penalty>  (316) 
0

>  <ligand_id>  (316) 
91

>  <original_smiles>  (316) 
COC(=O)c1cnccn1

>  <smiles>  (316) 
[H]c1nc([H])c(C(=O)OC([H])([H])[H])nc1[H]

$$$$
92:0:0
     RDKit          3D

 53 59  0  0  1  0  0  0  0  0999 V2000
   -4.3844    4.5463    2.0006 C   0  0  0  0  0  0  0  0  0  0  0  0
   -3.1281    5.0038    2.4828 O   0  0  0  0  0  0  0  0  0  0  0  0
   -2.3308    4.1169    3.1848 C   0  0  0  0  0  0  0  0  0  0  0  0
   -2.7584    2.8341    3.6049 C   0  0  0  0  0  0  0  0  0  0  0  0
   -1.9240    1.9877    4.3691 C   0  0  0  0  0  0  0  0  0  0  0  0
   -0.6227    2.4004    4.6926 C   0  0  0  0  0  0  0  0  0  0  0  0
   -0.2272    3.6539    4.1961 C   0  0  0  0  0  0  0  0  0  0  0  0
   -1.0323    4.5446    3.5225 C   0  0  0  0  0  0  0  0  0  0  0  0
   -0.4548    5.7464    3.2763 O   0  0  0  0  0  0  0  0  0  0  0  0
    0.8121    5.7667    3.9445 C   0  0  1  0  0  0  0  0  0  0  0  0
    0.8087    6.8922    5.0032 C   0  0  1  0  0  0  0  0  0  0  0  0
   -0.1692    6.7180    6.0089 O   0  0  0  0  0  0  0  0  0  0  0  0
    2.1715    7.1018    5.6242 C   0  0  0  0  0  0  0  0  0  0  0  0
    2.8996    6.1743    6.2705 C   0  0  0  0  0  0  0  0  0  0  0  0
    2.5387    4.7671    6.5763 C   0  0  1  0  0  0  0  0  0  0  0  0
    1.1403    4.5155    6.8277 O   0  0  0  0  0  0  0  0  0  0  0  0
    1.7081    3.8903    5.6768 C   0  0  2  0  0  0  0  0  0  0  0  0
    1.7625    2.3614    5.7589 C   0  0  1  0  0  0  0  0  0  0  0  0
    0.3652    1.7121    5.6268 C   0  0  0  0  0  0  0  0  0  0  0  0
    2.7110    1.8056    4.7513 N   0  0  2  0  0  0  0  0  0  0  0  0
    4.1324    2.0726    5.1069 C   0  0  0  0  0  0  0  0  0  0  0  0
    5.0727    0.9795    4.6335 C   0  0  0  0  0  0  0  0  0  0  0  0
    5.4838   -0.1269    5.5760 C   0  0  0  0  0  0  0  0  0  0  0  0
    6.4803    0.9349    5.1940 C   0  0  0  0  0  0  0  0  0  0  0  0
    2.3479    2.2025    3.3633 C   0  0  0  0  0  0  0  0  0  0  0  0
    2.1230    3.7193    3.2544 C   0  0  0  0  0  0  0  0  0  0  0  0
    1.1351    4.2746    4.3181 C   0  0  1  0  0  0  0  0  0  0  0  0
   -4.8764    5.3655    1.4706 H   0  0  0  0  0  0  0  0  0  0  0  0
   -5.0656    4.2231    2.7908 H   0  0  0  0  0  0  0  0  0  0  0  0
   -4.2672    3.7252    1.2889 H   0  0  0  0  0  0  0  0  0  0  0  0
   -3.7499    2.4879    3.3691 H   0  0  0  0  0  0  0  0  0  0  0  0
   -2.2851    1.0274    4.7217 H   0  0  0  0  0  0  0  0  0  0  0  0
    1.5124    6.0966    3.1774 H   0  0  0  0  0  0  0  0  0  0  0  0
    0.5703    7.8224    4.4875 H   0  0  0  0  0  0  0  0  0  0  0  0
    0.1067    5.9847    6.5479 H   0  0  0  0  0  0  0  0  0  0  0  0
    2.6019    8.0825    5.4858 H   0  0  0  0  0  0  0  0  0  0  0  0
    3.8784    6.4646    6.6216 H   0  0  0  0  0  0  0  0  0  0  0  0
    3.2159    4.3046    7.2916 H   0  0  0  0  0  0  0  0  0  0  0  0
    2.1281    2.0789    6.7438 H   0  0  0  0  0  0  0  0  0  0  0  0
   -0.1034    1.7230    6.6114 H   0  0  0  0  0  0  0  0  0  0  0  0
    0.4505    0.6605    5.3504 H   0  0  0  0  0  0  0  0  0  0  0  0
    4.4555    3.0333    4.7137 H   0  0  0  0  0  0  0  0  0  0  0  0
    4.2463    2.1453    6.1895 H   0  0  0  0  0  0  0  0  0  0  0  0
    4.9987    0.7328    3.5748 H   0  0  0  0  0  0  0  0  0  0  0  0
    5.0699   -0.0996    6.5834 H   0  0  0  0  0  0  0  0  0  0  0  0
    5.6149   -1.1191    5.1481 H   0  0  0  0  0  0  0  0  0  0  0  0
    7.2908    0.6292    4.5353 H   0  0  0  0  0  0  0  0  0  0  0  0
    6.7570    1.6620    5.9557 H   0  0  0  0  0  0  0  0  0  0  0  0
    3.1085    1.8696    2.6590 H   0  0  0  0  0  0  0  0  0  0  0  0
    1.4337    1.6846    3.0706 H   0  0  0  0  0  0  0  0  0  0  0  0
    3.0791    4.2302    3.3639 H   0  0  0  0  0  0  0  0  0  0  0  0
    1.8076    3.9525    2.2388 H   0  0  0  0  0  0  0  0  0  0  0  0
    2.6084    0.8050    4.7987 H   0  0  0  0  0  0  0  0  0  0  0  0
  1  2  1  0
  1 28  1  0
  1 29  1  0
  1 30  1  0
  2  3  1  0
  3  8  2  0
  3  4  1  0
  4  5  2  0
  4 31  1  0
  5  6  1  0
  5 32  1  0
  6 19  1  0
  6  7  2  0
  7 27  1  0
  7  8  1  0
  8  9  1  0
  9 10  1  0
 10 27  1  0
 10 11  1  0
 10 33  1  6
 11 12  1  0
 11 13  1  0
 11 34  1  6
 12 35  1  0
 13 14  2  0
 13 36  1  0
 14 15  1  0
 14 37  1  0
 15 17  1  0
 15 16  1  0
 15 38  1  1
 17 16  1  1
 17 27  1  0
 17 18  1  0
 18 19  1  0
 18 20  1  0
 18 39  1  1
 19 40  1  0
 19 41  1  0
 20 21  1  0
 20 25  1  0
 20 53  1  6
 21 22  1  0
 21 42  1  0
 21 43  1  0
 22 24  1  0
 22 23  1  0
 22 44  1  0
 23 24  1  0
 23 45  1  0
 23 46  1  0
 24 47  1  0
 24 48  1  0
 25 26  1  0
 25 49  1  0
 25 50  1  0
 27 26  1  6
 26 51  1  0
 26 52  1  0
M  CHG  1  20   1
M  END
>  <i_m_ct_stereo_status>  (317) 
1

>  <s_m_source_file>  (317) 
/var/tmp/pbs.5076255.sched01/tmpl4jv_xt6/1264eazgjw7.sdf

>  <i_m_source_file_index>  (317) 
1

>  <i_lp_mmshare_version>  (317) 
48012

>  <i_f3d_flags>  (317) 
0

>  <s_epik_input>  (317) 
TzFbQ0BASF0yW0NIXT1bQ0hdW0NASF0oW09IXSlbQ0BASF0zT2M0YyhPW0NIM10pW2NIXVtjSF1jKGM0W0NAXTM1W0NAXTEyNilbQ0gyXVtDQEhdNk4oW0NIMl1bQ0gyXTUpW0NIMl1bQ0hdN1tDSDJdW0NIMl03

>  <s_epik_cmdline>  (317) 
J2VwaWtfcHl0aG9uJywgJy1waHQnLCAnMi4wJywgJy1waCcsICc3LjAnLCAnLXRuJywgJzgnLCAnLW1hJywgJzIwMCcsICctaW1hZScsICc8aW5maWxlLm1hZT4nLCAnLW9tYWUnLCAnPG91dGZpbGUubWFlPic=

>  <r_lp_tautomer_probability>  (317) 
1

>  <r_epik_Ionization_Penalty>  (317) 
0.180014

>  <r_epik_Ionization_Penalty_Charging>  (317) 
0.17999

>  <r_epik_Ionization_Penalty_Neutral>  (317) 
2.45272e-05

>  <r_epik_State_Penalty>  (317) 
0.169479

>  <r_epik_Charging_Adjusted_Penalty>  (317) 
0.349469

>  <i_epik_Tot_Q>  (317) 
1

>  <i_epik_Tot_abs_Q>  (317) 
1

>  <s_lp_Force_Field>  (317) 
OPLS3e

>  <r_lp_Energy>  (317) 
70.7171

>  <b_lp_Chiralities_Consistent>  (317) 
1

>  <s_lp_Variant>  (317) 
92:0-1

>  <s_i_glide_gridfile>  (317) 
pfpi4k_grid

>  <i_i_glide_lignum>  (317) 
1

>  <i_i_glide_rotatable_bonds>  (317) 
4

>  <r_i_docking_score>  (317) 
-3.52011

>  <r_i_glide_ligand_efficiency>  (317) 
-0.130375

>  <r_i_glide_ligand_efficiency_sa>  (317) 
-0.391124

>  <r_i_glide_ligand_efficiency_ln>  (317) 
-0.819424

>  <r_i_glide_gscore>  (317) 
-3.52011

>  <r_i_glide_lipo>  (317) 
-0.251492

>  <r_i_glide_hbond>  (317) 
-0.207363

>  <r_i_glide_metal>  (317) 
-0

>  <r_i_glide_rewards>  (317) 
-1.39696

>  <r_i_glide_evdw>  (317) 
-19.1502

>  <r_i_glide_ecoul>  (317) 
-6.59165

>  <r_i_glide_erotb>  (317) 
0.283898

>  <r_i_glide_esite>  (317) 
-0.00193732

>  <r_i_glide_emodel>  (317) 
-37.6583

>  <r_i_glide_energy>  (317) 
-25.7419

>  <r_i_glide_einternal>  (317) 
1.13652

>  <r_i_glide_intrahb_reward>  (317) 
-0.5

>  <i_i_glide_confnum>  (317) 
5

>  <i_i_glide_posenum>  (317) 
34

>  <r_i_glide_eff_state_penalty>  (317) 
0

>  <ligand_id>  (317) 
92

>  <original_smiles>  (317) 
COc1ccc2c3c1OC1C(O)C=CC4OC45C(C2)N(CC2CC2)CCC315

>  <smiles>  (317) 
[H]OC1([H])C([H])=C([H])C2([H])OC23C24c5c(c(OC([H])([H])[H])c([H])c([H])c5C([H])([H])C3([H])[N+]([H])(C([H])([H])C3([H])C([H])([H])C3([H])[H])C([H])([H])C2([H])[H])OC14[H]

$$$$
92:0:1
     RDKit          3D

 53 59  0  0  1  0  0  0  0  0999 V2000
   -0.0681    4.5863    7.5421 C   0  0  0  0  0  0  0  0  0  0  0  0
   -1.2339    4.1068    6.8764 O   0  0  0  0  0  0  0  0  0  0  0  0
   -1.0224    3.3941    5.7219 C   0  0  0  0  0  0  0  0  0  0  0  0
   -1.7883    3.7344    4.5795 C   0  0  0  0  0  0  0  0  0  0  0  0
   -1.6518    3.0338    3.3588 C   0  0  0  0  0  0  0  0  0  0  0  0
   -0.7181    1.9877    3.2636 C   0  0  0  0  0  0  0  0  0  0  0  0
    0.0427    1.7164    4.4146 C   0  0  0  0  0  0  0  0  0  0  0  0
   -0.1057    2.3210    5.6505 C   0  0  0  0  0  0  0  0  0  0  0  0
    0.6514    1.7633    6.6395 O   0  0  0  0  0  0  0  0  0  0  0  0
    1.2884    0.6001    6.0990 C   0  0  1  0  0  0  0  0  0  0  0  0
    0.8052   -0.6427    6.8749 C   0  0  1  0  0  0  0  0  0  0  0  0
   -0.5880   -0.8663    6.7566 O   0  0  0  0  0  0  0  0  0  0  0  0
    1.5772   -1.8872    6.5023 C   0  0  0  0  0  0  0  0  0  0  0  0
    1.6896   -2.4045    5.2681 C   0  0  0  0  0  0  0  0  0  0  0  0
    1.0537   -1.9416    4.0091 C   0  0  1  0  0  0  0  0  0  0  0  0
   -0.2523   -1.3461    4.1453 O   0  0  0  0  0  0  0  0  0  0  0  0
    0.7893   -0.4941    3.6732 C   0  0  2  0  0  0  0  0  0  0  0  0
    0.6111   -0.0121    2.2328 C   0  0  1  0  0  0  0  0  0  0  0  0
   -0.5227    1.0303    2.0927 C   0  0  0  0  0  0  0  0  0  0  0  0
    1.8894    0.5123    1.6816 N   0  0  2  0  0  0  0  0  0  0  0  0
    2.8775   -0.5700    1.4034 C   0  0  0  0  0  0  0  0  0  0  0  0
    4.0083   -0.1458    0.4774 C   0  0  0  0  0  0  0  0  0  0  0  0
    4.2192   -0.8602   -0.8401 C   0  0  0  0  0  0  0  0  0  0  0  0
    5.1954   -1.0659    0.2828 C   0  0  0  0  0  0  0  0  0  0  0  0
    2.4171    1.6406    2.4933 C   0  0  0  0  0  0  0  0  0  0  0  0
    2.4853    1.2714    3.9825 C   0  0  0  0  0  0  0  0  0  0  0  0
    1.1480    0.7089    4.5354 C   0  0  1  0  0  0  0  0  0  0  0  0
   -0.3451    5.0178    8.5069 H   0  0  0  0  0  0  0  0  0  0  0  0
    0.3876    5.3687    6.9345 H   0  0  0  0  0  0  0  0  0  0  0  0
    0.6909    3.8331    7.7466 H   0  0  0  0  0  0  0  0  0  0  0  0
   -2.4945    4.5406    4.6514 H   0  0  0  0  0  0  0  0  0  0  0  0
   -2.2633    3.2938    2.5029 H   0  0  0  0  0  0  0  0  0  0  0  0
    2.3387    0.7207    6.3619 H   0  0  0  0  0  0  0  0  0  0  0  0
    1.0084   -0.4653    7.9294 H   0  0  0  0  0  0  0  0  0  0  0  0
   -0.7766   -0.9092    5.8235 H   0  0  0  0  0  0  0  0  0  0  0  0
    2.1282   -2.3515    7.3099 H   0  0  0  0  0  0  0  0  0  0  0  0
    2.3227   -3.2743    5.1523 H   0  0  0  0  0  0  0  0  0  0  0  0
    1.1405   -2.6629    3.1999 H   0  0  0  0  0  0  0  0  0  0  0  0
    0.3340   -0.8646    1.6169 H   0  0  0  0  0  0  0  0  0  0  0  0
   -1.4754    0.5181    1.9951 H   0  0  0  0  0  0  0  0  0  0  0  0
   -0.4113    1.6053    1.1720 H   0  0  0  0  0  0  0  0  0  0  0  0
    3.3024   -0.9441    2.3327 H   0  0  0  0  0  0  0  0  0  0  0  0
    2.3654   -1.4130    0.9334 H   0  0  0  0  0  0  0  0  0  0  0  0
    4.2616    0.9146    0.4910 H   0  0  0  0  0  0  0  0  0  0  0  0
    3.5355   -1.6723   -1.0844 H   0  0  0  0  0  0  0  0  0  0  0  0
    4.5438   -0.2548   -1.6839 H   0  0  0  0  0  0  0  0  0  0  0  0
    6.1761   -0.6041    0.1765 H   0  0  0  0  0  0  0  0  0  0  0  0
    5.1872   -2.0303    0.7894 H   0  0  0  0  0  0  0  0  0  0  0  0
    3.4007    1.9503    2.1556 H   0  0  0  0  0  0  0  0  0  0  0  0
    1.7742    2.5132    2.3589 H   0  0  0  0  0  0  0  0  0  0  0  0
    3.2627    0.5153    4.1265 H   0  0  0  0  0  0  0  0  0  0  0  0
    2.8080    2.1441    4.5491 H   0  0  0  0  0  0  0  0  0  0  0  0
    1.6347    0.8758    0.7685 H   0  0  0  0  0  0  0  0  0  0  0  0
  1  2  1  0
  1 28  1  0
  1 29  1  0
  1 30  1  0
  2  3  1  0
  3  8  2  0
  3  4  1  0
  4  5  2  0
  4 31  1  0
  5  6  1  0
  5 32  1  0
  6 19  1  0
  6  7  2  0
  7 27  1  0
  7  8  1  0
  8  9  1  0
  9 10  1  0
 10 27  1  0
 10 11  1  0
 10 33  1  6
 11 12  1  0
 11 13  1  0
 11 34  1  1
 12 35  1  0
 13 14  2  0
 13 36  1  0
 14 15  1  0
 14 37  1  0
 15 17  1  0
 15 16  1  0
 15 38  1  6
 17 16  1  1
 17 27  1  0
 17 18  1  0
 18 19  1  0
 18 20  1  0
 18 39  1  6
 19 40  1  0
 19 41  1  0
 20 21  1  0
 20 25  1  0
 20 53  1  6
 21 22  1  0
 21 42  1  0
 21 43  1  0
 22 24  1  0
 22 23  1  0
 22 44  1  0
 23 24  1  0
 23 45  1  0
 23 46  1  0
 24 47  1  0
 24 48  1  0
 25 26  1  0
 25 49  1  0
 25 50  1  0
 27 26  1  6
 26 51  1  0
 26 52  1  0
M  CHG  1  20   1
M  END
>  <i_m_ct_stereo_status>  (318) 
1

>  <s_m_source_file>  (318) 
/var/tmp/pbs.5076255.sched01/tmpl4jv_xt6/1264eazgjw7.sdf

>  <i_m_source_file_index>  (318) 
1

>  <i_lp_mmshare_version>  (318) 
48012

>  <i_f3d_flags>  (318) 
0

>  <s_epik_input>  (318) 
TzFbQ0BASF0yW0NIXT1bQ0hdW0NASF0oW09IXSlbQ0BASF0zT2M0YyhPW0NIM10pW2NIXVtjSF1jKGM0W0NAXTM1W0NAXTEyNilbQ0gyXVtDQEhdNk4oW0NIMl1bQ0gyXTUpW0NIMl1bQ0hdN1tDSDJdW0NIMl03

>  <s_epik_cmdline>  (318) 
J2VwaWtfcHl0aG9uJywgJy1waHQnLCAnMi4wJywgJy1waCcsICc3LjAnLCAnLXRuJywgJzgnLCAnLW1hJywgJzIwMCcsICctaW1hZScsICc8aW5maWxlLm1hZT4nLCAnLW9tYWUnLCAnPG91dGZpbGUubWFlPic=

>  <r_lp_tautomer_probability>  (318) 
1

>  <r_epik_Ionization_Penalty>  (318) 
0.180014

>  <r_epik_Ionization_Penalty_Charging>  (318) 
0.17999

>  <r_epik_Ionization_Penalty_Neutral>  (318) 
2.45272e-05

>  <r_epik_State_Penalty>  (318) 
0.169479

>  <r_epik_Charging_Adjusted_Penalty>  (318) 
0.349469

>  <i_epik_Tot_Q>  (318) 
1

>  <i_epik_Tot_abs_Q>  (318) 
1

>  <s_lp_Force_Field>  (318) 
OPLS3e

>  <r_lp_Energy>  (318) 
70.7171

>  <b_lp_Chiralities_Consistent>  (318) 
1

>  <s_lp_Variant>  (318) 
92:0-1

>  <s_i_glide_gridfile>  (318) 
pfpi4k_grid

>  <i_i_glide_lignum>  (318) 
1

>  <i_i_glide_rotatable_bonds>  (318) 
4

>  <r_i_docking_score>  (318) 
-3.35979

>  <r_i_glide_ligand_efficiency>  (318) 
-0.124437

>  <r_i_glide_ligand_efficiency_sa>  (318) 
-0.37331

>  <r_i_glide_ligand_efficiency_ln>  (318) 
-0.782103

>  <r_i_glide_gscore>  (318) 
-3.35979

>  <r_i_glide_lipo>  (318) 
-0.206182

>  <r_i_glide_hbond>  (318) 
0

>  <r_i_glide_metal>  (318) 
-0

>  <r_i_glide_rewards>  (318) 
-1.39696

>  <r_i_glide_evdw>  (318) 
-19.9224

>  <r_i_glide_ecoul>  (318) 
-6.59191

>  <r_i_glide_erotb>  (318) 
0.283898

>  <r_i_glide_esite>  (318) 
-0.055642

>  <r_i_glide_emodel>  (318) 
-35.2997

>  <r_i_glide_energy>  (318) 
-26.5143

>  <r_i_glide_einternal>  (318) 
6.45284

>  <r_i_glide_intrahb_reward>  (318) 
-0.5

>  <i_i_glide_confnum>  (318) 
5

>  <i_i_glide_posenum>  (318) 
32

>  <r_i_glide_eff_state_penalty>  (318) 
0

>  <ligand_id>  (318) 
92

>  <original_smiles>  (318) 
COc1ccc2c3c1OC1C(O)C=CC4OC45C(C2)N(CC2CC2)CCC315

>  <smiles>  (318) 
[H]OC1([H])C([H])=C([H])C2([H])OC23C24c5c(c(OC([H])([H])[H])c([H])c([H])c5C([H])([H])C3([H])[N+]([H])(C([H])([H])C3([H])C([H])([H])C3([H])[H])C([H])([H])C2([H])[H])OC14[H]

$$$$
92:0:2
     RDKit          3D

 53 59  0  0  1  0  0  0  0  0999 V2000
   -4.2141    5.8103    1.6407 C   0  0  0  0  0  0  0  0  0  0  0  0
   -2.8604    5.8710    2.0766 O   0  0  0  0  0  0  0  0  0  0  0  0
   -2.3265    4.7908    2.7462 C   0  0  0  0  0  0  0  0  0  0  0  0
   -3.0165    3.5666    2.9367 C   0  0  0  0  0  0  0  0  0  0  0  0
   -2.4494    2.5435    3.7296 C   0  0  0  0  0  0  0  0  0  0  0  0
   -1.1512    2.6741    4.2509 C   0  0  0  0  0  0  0  0  0  0  0  0
   -0.4933    3.8702    3.9585 C   0  0  0  0  0  0  0  0  0  0  0  0
   -1.0288    4.9389    3.2923 C   0  0  0  0  0  0  0  0  0  0  0  0
   -0.2404    6.0498    3.2918 O   0  0  0  0  0  0  0  0  0  0  0  0
    0.9067    5.7771    4.1057 C   0  0  1  0  0  0  0  0  0  0  0  0
    0.9390    6.7808    5.2767 C   0  0  1  0  0  0  0  0  0  0  0  0
   -0.1829    6.6846    6.1308 O   0  0  0  0  0  0  0  0  0  0  0  0
    2.2169    6.6772    6.0785 C   0  0  0  0  0  0  0  0  0  0  0  0
    2.6752    5.5761    6.6938 C   0  0  0  0  0  0  0  0  0  0  0  0
    2.0473    4.2340    6.7796 C   0  0  1  0  0  0  0  0  0  0  0  0
    0.6048    4.2069    6.8217 O   0  0  0  0  0  0  0  0  0  0  0  0
    1.2261    3.6108    5.6832 C   0  0  2  0  0  0  0  0  0  0  0  0
    1.0192    2.0969    5.5776 C   0  0  1  0  0  0  0  0  0  0  0  0
   -0.4389    1.7266    5.2024 C   0  0  0  0  0  0  0  0  0  0  0  0
    1.9928    1.4954    4.6205 N   0  0  2  0  0  0  0  0  0  0  0  0
    3.3756    1.4526    5.1718 C   0  0  0  0  0  0  0  0  0  0  0  0
    4.3378    0.5967    4.3661 C   0  0  0  0  0  0  0  0  0  0  0  0
    4.6933   -0.7932    4.8260 C   0  0  0  0  0  0  0  0  0  0  0  0
    5.7179    0.3090    4.9091 C   0  0  0  0  0  0  0  0  0  0  0  0
    1.8715    2.0946    3.2640 C   0  0  0  0  0  0  0  0  0  0  0  0
    1.9359    3.6219    3.3277 C   0  0  0  0  0  0  0  0  0  0  0  0
    0.9218    4.2267    4.3277 C   0  0  1  0  0  0  0  0  0  0  0  0
   -4.4638    6.7452    1.1378 H   0  0  0  0  0  0  0  0  0  0  0  0
   -4.9117    5.6949    2.4727 H   0  0  0  0  0  0  0  0  0  0  0  0
   -4.3906    5.0098    0.9199 H   0  0  0  0  0  0  0  0  0  0  0  0
   -4.0101    3.4116    2.5527 H   0  0  0  0  0  0  0  0  0  0  0  0
   -2.9900    1.6557    3.9549 H   0  0  0  0  0  0  0  0  0  0  0  0
    1.7425    6.0567    3.4667 H   0  0  0  0  0  0  0  0  0  0  0  0
    0.9238    7.7848    4.8532 H   0  0  0  0  0  0  0  0  0  0  0  0
   -0.1014    5.8683    6.6072 H   0  0  0  0  0  0  0  0  0  0  0  0
    2.8128    7.5757    6.1201 H   0  0  0  0  0  0  0  0  0  0  0  0
    3.6300    5.6464    7.1968 H   0  0  0  0  0  0  0  0  0  0  0  0
    2.5352    3.5883    7.5058 H   0  0  0  0  0  0  0  0  0  0  0  0
    1.2012    1.6567    6.5556 H   0  0  0  0  0  0  0  0  0  0  0  0
   -1.0342    1.7205    6.1133 H   0  0  0  0  0  0  0  0  0  0  0  0
   -0.4903    0.7128    4.8071 H   0  0  0  0  0  0  0  0  0  0  0  0
    3.7806    2.4599    5.2537 H   0  0  0  0  0  0  0  0  0  0  0  0
    3.3411    1.0581    6.1894 H   0  0  0  0  0  0  0  0  0  0  0  0
    4.3528    0.7705    3.2933 H   0  0  0  0  0  0  0  0  0  0  0  0
    4.2383   -1.1413    5.7513 H   0  0  0  0  0  0  0  0  0  0  0  0
    4.8177   -1.5427    4.0476 H   0  0  0  0  0  0  0  0  0  0  0  0
    6.5385    0.2678    4.1958 H   0  0  0  0  0  0  0  0  0  0  0  0
    5.9754    0.6939    5.8936 H   0  0  0  0  0  0  0  0  0  0  0  0
    2.6212    1.7241    2.5742 H   0  0  0  0  0  0  0  0  0  0  0  0
    0.9322    1.7821    2.8151 H   0  0  0  0  0  0  0  0  0  0  0  0
    2.9423    3.9220    3.6146 H   0  0  0  0  0  0  0  0  0  0  0  0
    1.7966    4.0125    2.3224 H   0  0  0  0  0  0  0  0  0  0  0  0
    1.7233    0.5246    4.5265 H   0  0  0  0  0  0  0  0  0  0  0  0
  1  2  1  0
  1 28  1  0
  1 29  1  0
  1 30  1  0
  2  3  1  0
  3  8  2  0
  3  4  1  0
  4  5  2  0
  4 31  1  0
  5  6  1  0
  5 32  1  0
  6 19  1  0
  6  7  2  0
  7 27  1  0
  7  8  1  0
  8  9  1  0
  9 10  1  0
 10 27  1  0
 10 11  1  0
 10 33  1  6
 11 12  1  0
 11 13  1  0
 11 34  1  6
 12 35  1  0
 13 14  2  0
 13 36  1  0
 14 15  1  0
 14 37  1  0
 15 17  1  0
 15 16  1  0
 15 38  1  1
 17 16  1  1
 17 27  1  0
 17 18  1  0
 18 19  1  0
 18 20  1  0
 18 39  1  1
 19 40  1  0
 19 41  1  0
 20 21  1  0
 20 25  1  0
 20 53  1  6
 21 22  1  0
 21 42  1  0
 21 43  1  0
 22 24  1  0
 22 23  1  0
 22 44  1  0
 23 24  1  0
 23 45  1  0
 23 46  1  0
 24 47  1  0
 24 48  1  0
 25 26  1  0
 25 49  1  0
 25 50  1  0
 27 26  1  6
 26 51  1  0
 26 52  1  0
M  CHG  1  20   1
M  END
>  <i_m_ct_stereo_status>  (319) 
1

>  <s_m_source_file>  (319) 
/var/tmp/pbs.5076255.sched01/tmpl4jv_xt6/1264eazgjw7.sdf

>  <i_m_source_file_index>  (319) 
1

>  <i_lp_mmshare_version>  (319) 
48012

>  <i_f3d_flags>  (319) 
0

>  <s_epik_input>  (319) 
TzFbQ0BASF0yW0NIXT1bQ0hdW0NASF0oW09IXSlbQ0BASF0zT2M0YyhPW0NIM10pW2NIXVtjSF1jKGM0W0NAXTM1W0NAXTEyNilbQ0gyXVtDQEhdNk4oW0NIMl1bQ0gyXTUpW0NIMl1bQ0hdN1tDSDJdW0NIMl03

>  <s_epik_cmdline>  (319) 
J2VwaWtfcHl0aG9uJywgJy1waHQnLCAnMi4wJywgJy1waCcsICc3LjAnLCAnLXRuJywgJzgnLCAnLW1hJywgJzIwMCcsICctaW1hZScsICc8aW5maWxlLm1hZT4nLCAnLW9tYWUnLCAnPG91dGZpbGUubWFlPic=

>  <r_lp_tautomer_probability>  (319) 
1

>  <r_epik_Ionization_Penalty>  (319) 
0.180014

>  <r_epik_Ionization_Penalty_Charging>  (319) 
0.17999

>  <r_epik_Ionization_Penalty_Neutral>  (319) 
2.45272e-05

>  <r_epik_State_Penalty>  (319) 
0.169479

>  <r_epik_Charging_Adjusted_Penalty>  (319) 
0.349469

>  <i_epik_Tot_Q>  (319) 
1

>  <i_epik_Tot_abs_Q>  (319) 
1

>  <s_lp_Force_Field>  (319) 
OPLS3e

>  <r_lp_Energy>  (319) 
70.7171

>  <b_lp_Chiralities_Consistent>  (319) 
1

>  <s_lp_Variant>  (319) 
92:0-1

>  <s_i_glide_gridfile>  (319) 
pfpi4k_grid

>  <i_i_glide_lignum>  (319) 
1

>  <i_i_glide_rotatable_bonds>  (319) 
4

>  <r_i_docking_score>  (319) 
-2.89947

>  <r_i_glide_ligand_efficiency>  (319) 
-0.107388

>  <r_i_glide_ligand_efficiency_sa>  (319) 
-0.322163

>  <r_i_glide_ligand_efficiency_ln>  (319) 
-0.674948

>  <r_i_glide_gscore>  (319) 
-2.89947

>  <r_i_glide_lipo>  (319) 
-0.165883

>  <r_i_glide_hbond>  (319) 
-0.128702

>  <r_i_glide_metal>  (319) 
-0

>  <r_i_glide_rewards>  (319) 
-1.39696

>  <r_i_glide_evdw>  (319) 
-13.2879

>  <r_i_glide_ecoul>  (319) 
-5.50815

>  <r_i_glide_erotb>  (319) 
0.283898

>  <r_i_glide_esite>  (319) 
-0.00120251

>  <r_i_glide_emodel>  (319) 
-29.5343

>  <r_i_glide_energy>  (319) 
-18.7961

>  <r_i_glide_einternal>  (319) 
0.545337

>  <r_i_glide_intrahb_reward>  (319) 
-0.5

>  <i_i_glide_confnum>  (319) 
5

>  <i_i_glide_posenum>  (319) 
13

>  <r_i_glide_eff_state_penalty>  (319) 
0

>  <ligand_id>  (319) 
92

>  <original_smiles>  (319) 
COc1ccc2c3c1OC1C(O)C=CC4OC45C(C2)N(CC2CC2)CCC315

>  <smiles>  (319) 
[H]OC1([H])C([H])=C([H])C2([H])OC23C24c5c(c(OC([H])([H])[H])c([H])c([H])c5C([H])([H])C3([H])[N+]([H])(C([H])([H])C3([H])C([H])([H])C3([H])[H])C([H])([H])C2([H])[H])OC14[H]

$$$$
92:1:0
     RDKit          3D

 52 58  0  0  1  0  0  0  0  0999 V2000
   -2.1091   -4.6740    7.4236 C   0  0  0  0  0  0  0  0  0  0  0  0
   -1.2752   -3.9811    8.3505 O   0  0  0  0  0  0  0  0  0  0  0  0
   -0.1615   -3.3688    7.8267 C   0  0  0  0  0  0  0  0  0  0  0  0
    1.0696   -3.4996    8.5178 C   0  0  0  0  0  0  0  0  0  0  0  0
    2.2453   -2.8537    8.0616 C   0  0  0  0  0  0  0  0  0  0  0  0
    2.2088   -2.0846    6.8870 C   0  0  0  0  0  0  0  0  0  0  0  0
    0.9715   -2.0188    6.2229 C   0  0  0  0  0  0  0  0  0  0  0  0
   -0.2198   -2.5644    6.6659 C   0  0  0  0  0  0  0  0  0  0  0  0
   -1.3130   -2.2039    5.9327 O   0  0  0  0  0  0  0  0  0  0  0  0
   -0.8781   -1.2242    4.9848 C   0  0  1  0  0  0  0  0  0  0  0  0
   -1.6162    0.0991    5.2678 C   0  0  1  0  0  0  0  0  0  0  0  0
   -1.3467    0.6233    6.5495 O   0  0  0  0  0  0  0  0  0  0  0  0
   -1.3817    1.1389    4.1920 C   0  0  0  0  0  0  0  0  0  0  0  0
   -0.1902    1.6074    3.7900 C   0  0  0  0  0  0  0  0  0  0  0  0
    1.1527    1.2868    4.3343 C   0  0  1  0  0  0  0  0  0  0  0  0
    1.2045    1.0200    5.7556 O   0  0  0  0  0  0  0  0  0  0  0  0
    1.5554   -0.0574    4.8777 C   0  0  2  0  0  0  0  0  0  0  0  0
    3.0191   -0.5010    4.9648 C   0  0  1  0  0  0  0  0  0  0  0  0
    3.3219   -1.2146    6.3019 C   0  0  0  0  0  0  0  0  0  0  0  0
    3.4314   -1.3350    3.8260 N   0  0  0  0  0  0  0  0  0  0  0  0
    3.5697   -0.5819    2.5820 C   0  0  0  0  0  0  0  0  0  0  0  0
    4.3743   -1.3153    1.5215 C   0  0  0  0  0  0  0  0  0  0  0  0
    5.1635   -0.5373    0.4894 C   0  0  0  0  0  0  0  0  0  0  0  0
    3.9139   -1.2686    0.0839 C   0  0  0  0  0  0  0  0  0  0  0  0
    2.5739   -2.5121    3.6838 C   0  0  0  0  0  0  0  0  0  0  0  0
    1.0759   -2.1681    3.7012 C   0  0  0  0  0  0  0  0  0  0  0  0
    0.6895   -1.3069    4.9313 C   0  0  1  0  0  0  0  0  0  0  0  0
   -2.9960   -5.0575    7.9361 H   0  0  0  0  0  0  0  0  0  0  0  0
   -1.5478   -5.5158    7.0136 H   0  0  0  0  0  0  0  0  0  0  0  0
   -2.4741   -4.0745    6.5914 H   0  0  0  0  0  0  0  0  0  0  0  0
    1.1035   -4.1001    9.4152 H   0  0  0  0  0  0  0  0  0  0  0  0
    3.1640   -2.9457    8.6251 H   0  0  0  0  0  0  0  0  0  0  0  0
   -1.2781   -1.5783    4.0385 H   0  0  0  0  0  0  0  0  0  0  0  0
   -2.6749   -0.1418    5.2452 H   0  0  0  0  0  0  0  0  0  0  0  0
   -0.4479    0.9384    6.5369 H   0  0  0  0  0  0  0  0  0  0  0  0
   -2.2716    1.4720    3.6687 H   0  0  0  0  0  0  0  0  0  0  0  0
   -0.1820    2.3030    2.9615 H   0  0  0  0  0  0  0  0  0  0  0  0
    1.9298    1.9550    3.9658 H   0  0  0  0  0  0  0  0  0  0  0  0
    3.6379    0.3977    4.9614 H   0  0  0  0  0  0  0  0  0  0  0  0
    3.5427   -0.4604    7.0576 H   0  0  0  0  0  0  0  0  0  0  0  0
    4.2245   -1.8230    6.2105 H   0  0  0  0  0  0  0  0  0  0  0  0
    2.5892   -0.3283    2.1764 H   0  0  0  0  0  0  0  0  0  0  0  0
    4.0767    0.3637    2.7783 H   0  0  0  0  0  0  0  0  0  0  0  0
    4.8458   -2.2405    1.8552 H   0  0  0  0  0  0  0  0  0  0  0  0
    5.1255    0.5444    0.5475 H   0  0  0  0  0  0  0  0  0  0  0  0
    6.1163   -0.9556    0.1649 H   0  0  0  0  0  0  0  0  0  0  0  0
    4.0227   -2.1823   -0.4985 H   0  0  0  0  0  0  0  0  0  0  0  0
    3.0201   -0.6818   -0.1220 H   0  0  0  0  0  0  0  0  0  0  0  0
    2.8132   -3.0432    2.7630 H   0  0  0  0  0  0  0  0  0  0  0  0
    2.7817   -3.2170    4.4914 H   0  0  0  0  0  0  0  0  0  0  0  0
    0.8242   -1.6099    2.7979 H   0  0  0  0  0  0  0  0  0  0  0  0
    0.4930   -3.0863    3.6556 H   0  0  0  0  0  0  0  0  0  0  0  0
  1  2  1  0
  1 28  1  0
  1 29  1  0
  1 30  1  0
  2  3  1  0
  3  8  2  0
  3  4  1  0
  4  5  2  0
  4 31  1  0
  5  6  1  0
  5 32  1  0
  6 19  1  0
  6  7  2  0
  7 27  1  0
  7  8  1  0
  8  9  1  0
  9 10  1  0
 10 27  1  0
 10 11  1  0
 10 33  1  6
 11 12  1  0
 11 13  1  0
 11 34  1  1
 12 35  1  0
 13 14  2  0
 13 36  1  0
 14 15  1  0
 14 37  1  0
 15 17  1  0
 15 16  1  0
 15 38  1  1
 17 16  1  1
 17 27  1  0
 17 18  1  0
 18 19  1  0
 18 20  1  0
 18 39  1  1
 19 40  1  0
 19 41  1  0
 20 21  1  0
 20 25  1  0
 21 22  1  0
 21 42  1  0
 21 43  1  0
 22 24  1  0
 22 23  1  0
 22 44  1  0
 23 24  1  0
 23 45  1  0
 23 46  1  0
 24 47  1  0
 24 48  1  0
 25 26  1  0
 25 49  1  0
 25 50  1  0
 27 26  1  6
 26 51  1  0
 26 52  1  0
M  END
>  <i_m_ct_stereo_status>  (320) 
1

>  <s_m_source_file>  (320) 
/var/tmp/pbs.5076255.sched01/tmpl4jv_xt6/1264eazgjw7.sdf

>  <i_m_source_file_index>  (320) 
2

>  <i_lp_mmshare_version>  (320) 
48012

>  <i_f3d_flags>  (320) 
0

>  <s_epik_input>  (320) 
TzFbQ0BASF0yW0NIXT1bQ0hdW0NASF0oW09IXSlbQ0BASF0zT2M0YyhPW0NIM10pW2NIXVtjSF1jKGM0W0NAXTM1W0NAXTEyNilbQ0gyXVtDQEhdNk4oW0NIMl1bQ0gyXTUpW0NIMl1bQ0hdN1tDSDJdW0NIMl03

>  <s_epik_cmdline>  (320) 
J2VwaWtfcHl0aG9uJywgJy1waHQnLCAnMi4wJywgJy1waCcsICc3LjAnLCAnLXRuJywgJzgnLCAnLW1hJywgJzIwMCcsICctaW1hZScsICc8aW5maWxlLm1hZT4nLCAnLW9tYWUnLCAnPG91dGZpbGUubWFlPic=

>  <r_lp_tautomer_probability>  (320) 
1

>  <r_epik_Ionization_Penalty>  (320) 
0.793626

>  <r_epik_Ionization_Penalty_Charging>  (320) 
0

>  <r_epik_Ionization_Penalty_Neutral>  (320) 
0.793626

>  <r_epik_State_Penalty>  (320) 
0.824274

>  <r_epik_Charging_Adjusted_Penalty>  (320) 
0.824274

>  <i_epik_Tot_Q>  (320) 
0

>  <i_epik_Tot_abs_Q>  (320) 
0

>  <s_lp_Force_Field>  (320) 
OPLS3e

>  <r_lp_Energy>  (320) 
75.7349

>  <b_lp_Chiralities_Consistent>  (320) 
1

>  <s_lp_Variant>  (320) 
92:0-2

>  <s_i_glide_gridfile>  (320) 
pfpi4k_grid

>  <i_i_glide_lignum>  (320) 
2

>  <i_i_glide_rotatable_bonds>  (320) 
4

>  <r_i_docking_score>  (320) 
-3.44175

>  <r_i_glide_ligand_efficiency>  (320) 
-0.127472

>  <r_i_glide_ligand_efficiency_sa>  (320) 
-0.382417

>  <r_i_glide_ligand_efficiency_ln>  (320) 
-0.801183

>  <r_i_glide_gscore>  (320) 
-3.44175

>  <r_i_glide_lipo>  (320) 
-0.261087

>  <r_i_glide_hbond>  (320) 
-0.0316028

>  <r_i_glide_metal>  (320) 
-0

>  <r_i_glide_rewards>  (320) 
-1.40383

>  <r_i_glide_evdw>  (320) 
-19.1397

>  <r_i_glide_ecoul>  (320) 
-7.15691

>  <r_i_glide_erotb>  (320) 
0.285291

>  <r_i_glide_esite>  (320) 
0

>  <r_i_glide_emodel>  (320) 
-33.4104

>  <r_i_glide_energy>  (320) 
-26.2966

>  <r_i_glide_einternal>  (320) 
7.44905

>  <r_i_glide_intrahb_reward>  (320) 
-0.5

>  <i_i_glide_confnum>  (320) 
4

>  <i_i_glide_posenum>  (320) 
25

>  <r_i_glide_eff_state_penalty>  (320) 
0

>  <ligand_id>  (320) 
92

>  <original_smiles>  (320) 
COc1ccc2c3c1OC1C(O)C=CC4OC45C(C2)N(CC2CC2)CCC315

>  <smiles>  (320) 
[H]OC1([H])C([H])=C([H])C2([H])OC23C2([H])N(C([H])([H])C4([H])C([H])([H])C4([H])[H])C([H])([H])C([H])([H])C34c3c(c(OC([H])([H])[H])c([H])c([H])c3C2([H])[H])OC14[H]

$$$$
92:1:1
     RDKit          3D

 52 58  0  0  1  0  0  0  0  0999 V2000
   -1.7858   -4.6466    8.8189 C   0  0  0  0  0  0  0  0  0  0  0  0
   -1.6125   -3.8612    7.6519 O   0  0  0  0  0  0  0  0  0  0  0  0
   -0.3815   -3.2815    7.4395 C   0  0  0  0  0  0  0  0  0  0  0  0
    0.7559   -3.4902    8.2691 C   0  0  0  0  0  0  0  0  0  0  0  0
    1.9702   -2.7982    8.0354 C   0  0  0  0  0  0  0  0  0  0  0  0
    2.0820   -1.9285    6.9391 C   0  0  0  0  0  0  0  0  0  0  0  0
    0.9489   -1.8134    6.1149 C   0  0  0  0  0  0  0  0  0  0  0  0
   -0.2820   -2.4016    6.3415 C   0  0  0  0  0  0  0  0  0  0  0  0
   -1.2657   -1.9992    5.4840 O   0  0  0  0  0  0  0  0  0  0  0  0
   -0.7198   -0.9270    4.6925 C   0  0  1  0  0  0  0  0  0  0  0  0
   -1.5128    0.3700    4.9678 C   0  0  1  0  0  0  0  0  0  0  0  0
   -1.4208    0.7930    6.3143 O   0  0  0  0  0  0  0  0  0  0  0  0
   -1.1391    1.4922    4.0202 C   0  0  0  0  0  0  0  0  0  0  0  0
    0.0941    2.0000    3.8367 C   0  0  0  0  0  0  0  0  0  0  0  0
    1.3493    1.6422    4.5435 C   0  0  1  0  0  0  0  0  0  0  0  0
    1.2011    1.2603    5.9292 O   0  0  0  0  0  0  0  0  0  0  0  0
    1.6893    0.2612    5.0301 C   0  0  2  0  0  0  0  0  0  0  0  0
    3.1325   -0.1824    5.2903 C   0  0  1  0  0  0  0  0  0  0  0  0
    3.2514   -1.0066    6.5919 C   0  0  0  0  0  0  0  0  0  0  0  0
    3.7187   -0.9176    4.1603 N   0  0  0  0  0  0  0  0  0  0  0  0
    4.0229   -0.0668    3.0101 C   0  0  0  0  0  0  0  0  0  0  0  0
    4.9805   -0.7113    2.0263 C   0  0  0  0  0  0  0  0  0  0  0  0
    5.0155   -0.2461    0.5887 C   0  0  0  0  0  0  0  0  0  0  0  0
    4.4514   -1.5966    0.9188 C   0  0  0  0  0  0  0  0  0  0  0  0
    2.9068   -2.0914    3.8215 C   0  0  0  0  0  0  0  0  0  0  0  0
    1.4208   -1.7483    3.6313 C   0  0  0  0  0  0  0  0  0  0  0  0
    0.8419   -0.9951    4.8574 C   0  0  1  0  0  0  0  0  0  0  0  0
   -2.8066   -5.0234    8.8352 H   0  0  0  0  0  0  0  0  0  0  0  0
   -1.6395   -4.0590    9.7262 H   0  0  0  0  0  0  0  0  0  0  0  0
   -1.1089   -5.4994    8.8329 H   0  0  0  0  0  0  0  0  0  0  0  0
    0.7144   -4.1547    9.1139 H   0  0  0  0  0  0  0  0  0  0  0  0
    2.8032   -2.9292    8.7082 H   0  0  0  0  0  0  0  0  0  0  0  0
   -0.9581   -1.1856    3.6740 H   0  0  0  0  0  0  0  0  0  0  0  0
   -2.5625    0.1492    4.7793 H   0  0  0  0  0  0  0  0  0  0  0  0
   -0.5350    1.1173    6.4400 H   0  0  0  0  0  0  0  0  0  0  0  0
   -1.9428    1.8603    3.3945 H   0  0  0  0  0  0  0  0  0  0  0  0
    0.2140    2.7642    3.0796 H   0  0  0  0  0  0  0  0  0  0  0  0
    2.1614    2.3420    4.3451 H   0  0  0  0  0  0  0  0  0  0  0  0
    3.7320    0.7178    5.4485 H   0  0  0  0  0  0  0  0  0  0  0  0
    3.3471   -0.3147    7.4273 H   0  0  0  0  0  0  0  0  0  0  0  0
    4.1701   -1.6001    6.5766 H   0  0  0  0  0  0  0  0  0  0  0  0
    3.1094    0.2275    2.4908 H   0  0  0  0  0  0  0  0  0  0  0  0
    4.4958    0.8595    3.3444 H   0  0  0  0  0  0  0  0  0  0  0  0
    5.9469   -0.9830    2.4553 H   0  0  0  0  0  0  0  0  0  0  0  0
    4.3107    0.5375    0.3167 H   0  0  0  0  0  0  0  0  0  0  0  0
    5.9715   -0.2276    0.0684 H   0  0  0  0  0  0  0  0  0  0  0  0
    5.0397   -2.4809    0.6762 H   0  0  0  0  0  0  0  0  0  0  0  0
    3.3693   -1.7126    0.8587 H   0  0  0  0  0  0  0  0  0  0  0  0
    3.2908   -2.5831    2.9318 H   0  0  0  0  0  0  0  0  0  0  0  0
    3.0021   -2.8417    4.6084 H   0  0  0  0  0  0  0  0  0  0  0  0
    1.3002   -1.1147    2.7516 H   0  0  0  0  0  0  0  0  0  0  0  0
    0.8660   -2.6590    3.4137 H   0  0  0  0  0  0  0  0  0  0  0  0
  1  2  1  0
  1 28  1  0
  1 29  1  0
  1 30  1  0
  2  3  1  0
  3  8  2  0
  3  4  1  0
  4  5  2  0
  4 31  1  0
  5  6  1  0
  5 32  1  0
  6 19  1  0
  6  7  2  0
  7 27  1  0
  7  8  1  0
  8  9  1  0
  9 10  1  0
 10 27  1  0
 10 11  1  0
 10 33  1  6
 11 12  1  0
 11 13  1  0
 11 34  1  6
 12 35  1  0
 13 14  2  0
 13 36  1  0
 14 15  1  0
 14 37  1  0
 15 17  1  0
 15 16  1  0
 15 38  1  1
 17 16  1  1
 17 27  1  0
 17 18  1  0
 18 19  1  0
 18 20  1  0
 18 39  1  1
 19 40  1  0
 19 41  1  0
 20 21  1  0
 20 25  1  0
 21 22  1  0
 21 42  1  0
 21 43  1  0
 22 24  1  0
 22 23  1  0
 22 44  1  0
 23 24  1  0
 23 45  1  0
 23 46  1  0
 24 47  1  0
 24 48  1  0
 25 26  1  0
 25 49  1  0
 25 50  1  0
 27 26  1  6
 26 51  1  0
 26 52  1  0
M  END
>  <i_m_ct_stereo_status>  (321) 
1

>  <s_m_source_file>  (321) 
/var/tmp/pbs.5076255.sched01/tmpl4jv_xt6/1264eazgjw7.sdf

>  <i_m_source_file_index>  (321) 
2

>  <i_lp_mmshare_version>  (321) 
48012

>  <i_f3d_flags>  (321) 
0

>  <s_epik_input>  (321) 
TzFbQ0BASF0yW0NIXT1bQ0hdW0NASF0oW09IXSlbQ0BASF0zT2M0YyhPW0NIM10pW2NIXVtjSF1jKGM0W0NAXTM1W0NAXTEyNilbQ0gyXVtDQEhdNk4oW0NIMl1bQ0gyXTUpW0NIMl1bQ0hdN1tDSDJdW0NIMl03

>  <s_epik_cmdline>  (321) 
J2VwaWtfcHl0aG9uJywgJy1waHQnLCAnMi4wJywgJy1waCcsICc3LjAnLCAnLXRuJywgJzgnLCAnLW1hJywgJzIwMCcsICctaW1hZScsICc8aW5maWxlLm1hZT4nLCAnLW9tYWUnLCAnPG91dGZpbGUubWFlPic=

>  <r_lp_tautomer_probability>  (321) 
1

>  <r_epik_Ionization_Penalty>  (321) 
0.793626

>  <r_epik_Ionization_Penalty_Charging>  (321) 
0

>  <r_epik_Ionization_Penalty_Neutral>  (321) 
0.793626

>  <r_epik_State_Penalty>  (321) 
0.824274

>  <r_epik_Charging_Adjusted_Penalty>  (321) 
0.824274

>  <i_epik_Tot_Q>  (321) 
0

>  <i_epik_Tot_abs_Q>  (321) 
0

>  <s_lp_Force_Field>  (321) 
OPLS3e

>  <r_lp_Energy>  (321) 
75.7349

>  <b_lp_Chiralities_Consistent>  (321) 
1

>  <s_lp_Variant>  (321) 
92:0-2

>  <s_i_glide_gridfile>  (321) 
pfpi4k_grid

>  <i_i_glide_lignum>  (321) 
2

>  <i_i_glide_rotatable_bonds>  (321) 
4

>  <r_i_docking_score>  (321) 
-3.28486

>  <r_i_glide_ligand_efficiency>  (321) 
-0.121662

>  <r_i_glide_ligand_efficiency_sa>  (321) 
-0.364985

>  <r_i_glide_ligand_efficiency_ln>  (321) 
-0.764662

>  <r_i_glide_gscore>  (321) 
-3.28486

>  <r_i_glide_lipo>  (321) 
-0.306226

>  <r_i_glide_hbond>  (321) 
-0.00616813

>  <r_i_glide_metal>  (321) 
-0

>  <r_i_glide_rewards>  (321) 
-1.40383

>  <r_i_glide_evdw>  (321) 
-18.5071

>  <r_i_glide_ecoul>  (321) 
-6.19049

>  <r_i_glide_erotb>  (321) 
0.285291

>  <r_i_glide_esite>  (321) 
0

>  <r_i_glide_emodel>  (321) 
-34.474

>  <r_i_glide_energy>  (321) 
-24.6976

>  <r_i_glide_einternal>  (321) 
1.43005

>  <r_i_glide_intrahb_reward>  (321) 
-0.5

>  <i_i_glide_confnum>  (321) 
4

>  <i_i_glide_posenum>  (321) 
9

>  <r_i_glide_eff_state_penalty>  (321) 
0

>  <ligand_id>  (321) 
92

>  <original_smiles>  (321) 
COc1ccc2c3c1OC1C(O)C=CC4OC45C(C2)N(CC2CC2)CCC315

>  <smiles>  (321) 
[H]OC1([H])C([H])=C([H])C2([H])OC23C2([H])N(C([H])([H])C4([H])C([H])([H])C4([H])[H])C([H])([H])C([H])([H])C34c3c(c(OC([H])([H])[H])c([H])c([H])c3C2([H])[H])OC14[H]

$$$$
92:1:2
     RDKit          3D

 52 58  0  0  1  0  0  0  0  0999 V2000
   -4.2353    4.1843    2.0711 C   0  0  0  0  0  0  0  0  0  0  0  0
   -3.0029    4.7241    2.5298 O   0  0  0  0  0  0  0  0  0  0  0  0
   -2.1799    3.9164    3.2846 C   0  0  0  0  0  0  0  0  0  0  0  0
   -2.5509    2.6336    3.7760 C   0  0  0  0  0  0  0  0  0  0  0  0
   -1.6739    1.8688    4.5812 C   0  0  0  0  0  0  0  0  0  0  0  0
   -0.3870    2.3513    4.8638 C   0  0  0  0  0  0  0  0  0  0  0  0
   -0.0475    3.5959    4.3038 C   0  0  0  0  0  0  0  0  0  0  0  0
   -0.9027    4.4236    3.6002 C   0  0  0  0  0  0  0  0  0  0  0  0
   -0.3833    5.6497    3.2976 O   0  0  0  0  0  0  0  0  0  0  0  0
    0.8868    5.7507    3.9678 C   0  0  1  0  0  0  0  0  0  0  0  0
    0.8054    6.8972    5.0042 C   0  0  1  0  0  0  0  0  0  0  0  0
   -0.1722    6.6854    6.0064 O   0  0  0  0  0  0  0  0  0  0  0  0
    2.1498    7.2041    5.6274 C   0  0  0  0  0  0  0  0  0  0  0  0
    2.9223    6.3405    6.3105 C   0  0  0  0  0  0  0  0  0  0  0  0
    2.6366    4.9250    6.6542 C   0  0  1  0  0  0  0  0  0  0  0  0
    1.2518    4.6085    6.9041 O   0  0  0  0  0  0  0  0  0  0  0  0
    1.8644    3.9788    5.7773 C   0  0  2  0  0  0  0  0  0  0  0  0
    2.0046    2.4578    5.8983 C   0  0  1  0  0  0  0  0  0  0  0  0
    0.6453    1.7394    5.8034 C   0  0  0  0  0  0  0  0  0  0  0  0
    2.9588    1.8860    4.9345 N   0  0  0  0  0  0  0  0  0  0  0  0
    4.3624    2.1406    5.2433 C   0  0  0  0  0  0  0  0  0  0  0  0
    4.8700    1.4624    6.5033 C   0  0  0  0  0  0  0  0  0  0  0  0
    6.3565    1.3128    6.7306 C   0  0  0  0  0  0  0  0  0  0  0  0
    5.5214    0.1036    6.3939 C   0  0  0  0  0  0  0  0  0  0  0  0
    2.6051    2.2482    3.5584 C   0  0  0  0  0  0  0  0  0  0  0  0
    2.3206    3.7470    3.3697 C   0  0  0  0  0  0  0  0  0  0  0  0
    1.2876    4.2869    4.4001 C   0  0  1  0  0  0  0  0  0  0  0  0
   -4.7681    4.9541    1.5157 H   0  0  0  0  0  0  0  0  0  0  0  0
   -4.8919    3.8653    2.8775 H   0  0  0  0  0  0  0  0  0  0  0  0
   -4.0779    3.3417    1.3974 H   0  0  0  0  0  0  0  0  0  0  0  0
   -3.5192    2.2183    3.5681 H   0  0  0  0  0  0  0  0  0  0  0  0
   -1.9957    0.9203    4.9832 H   0  0  0  0  0  0  0  0  0  0  0  0
    1.5869    6.0907    3.1987 H   0  0  0  0  0  0  0  0  0  0  0  0
    0.5140    7.8012    4.4749 H   0  0  0  0  0  0  0  0  0  0  0  0
    0.1333    5.9535    6.5313 H   0  0  0  0  0  0  0  0  0  0  0  0
    2.5166    8.2100    5.4646 H   0  0  0  0  0  0  0  0  0  0  0  0
    3.8762    6.7032    6.6668 H   0  0  0  0  0  0  0  0  0  0  0  0
    3.3373    4.5107    7.3760 H   0  0  0  0  0  0  0  0  0  0  0  0
    2.3536    2.2502    6.9071 H   0  0  0  0  0  0  0  0  0  0  0  0
    0.1954    1.7316    6.7936 H   0  0  0  0  0  0  0  0  0  0  0  0
    0.7939    0.6918    5.5300 H   0  0  0  0  0  0  0  0  0  0  0  0
    4.9707    1.7540    4.4240 H   0  0  0  0  0  0  0  0  0  0  0  0
    4.5563    3.2127    5.3097 H   0  0  0  0  0  0  0  0  0  0  0  0
    4.2999    1.6594    7.4105 H   0  0  0  0  0  0  0  0  0  0  0  0
    7.0197    1.7110    5.9637 H   0  0  0  0  0  0  0  0  0  0  0  0
    6.7130    1.4032    7.7550 H   0  0  0  0  0  0  0  0  0  0  0  0
    5.3050   -0.6087    7.1876 H   0  0  0  0  0  0  0  0  0  0  0  0
    5.6052   -0.3179    5.3922 H   0  0  0  0  0  0  0  0  0  0  0  0
    3.3919    1.9275    2.8751 H   0  0  0  0  0  0  0  0  0  0  0  0
    1.7161    1.6954    3.2572 H   0  0  0  0  0  0  0  0  0  0  0  0
    3.2552    4.2978    3.4870 H   0  0  0  0  0  0  0  0  0  0  0  0
    1.9963    3.9290    2.3434 H   0  0  0  0  0  0  0  0  0  0  0  0
  1  2  1  0
  1 28  1  0
  1 29  1  0
  1 30  1  0
  2  3  1  0
  3  8  2  0
  3  4  1  0
  4  5  2  0
  4 31  1  0
  5  6  1  0
  5 32  1  0
  6 19  1  0
  6  7  2  0
  7 27  1  0
  7  8  1  0
  8  9  1  0
  9 10  1  0
 10 27  1  0
 10 11  1  0
 10 33  1  6
 11 12  1  0
 11 13  1  0
 11 34  1  6
 12 35  1  0
 13 14  2  0
 13 36  1  0
 14 15  1  0
 14 37  1  0
 15 17  1  0
 15 16  1  0
 15 38  1  1
 17 16  1  1
 17 27  1  0
 17 18  1  0
 18 19  1  0
 18 20  1  0
 18 39  1  1
 19 40  1  0
 19 41  1  0
 20 21  1  0
 20 25  1  0
 21 22  1  0
 21 42  1  0
 21 43  1  0
 22 24  1  0
 22 23  1  0
 22 44  1  0
 23 24  1  0
 23 45  1  0
 23 46  1  0
 24 47  1  0
 24 48  1  0
 25 26  1  0
 25 49  1  0
 25 50  1  0
 27 26  1  6
 26 51  1  0
 26 52  1  0
M  END
>  <i_m_ct_stereo_status>  (322) 
1

>  <s_m_source_file>  (322) 
/var/tmp/pbs.5076255.sched01/tmpl4jv_xt6/1264eazgjw7.sdf

>  <i_m_source_file_index>  (322) 
2

>  <i_lp_mmshare_version>  (322) 
48012

>  <i_f3d_flags>  (322) 
0

>  <s_epik_input>  (322) 
TzFbQ0BASF0yW0NIXT1bQ0hdW0NASF0oW09IXSlbQ0BASF0zT2M0YyhPW0NIM10pW2NIXVtjSF1jKGM0W0NAXTM1W0NAXTEyNilbQ0gyXVtDQEhdNk4oW0NIMl1bQ0gyXTUpW0NIMl1bQ0hdN1tDSDJdW0NIMl03

>  <s_epik_cmdline>  (322) 
J2VwaWtfcHl0aG9uJywgJy1waHQnLCAnMi4wJywgJy1waCcsICc3LjAnLCAnLXRuJywgJzgnLCAnLW1hJywgJzIwMCcsICctaW1hZScsICc8aW5maWxlLm1hZT4nLCAnLW9tYWUnLCAnPG91dGZpbGUubWFlPic=

>  <r_lp_tautomer_probability>  (322) 
1

>  <r_epik_Ionization_Penalty>  (322) 
0.793626

>  <r_epik_Ionization_Penalty_Charging>  (322) 
0

>  <r_epik_Ionization_Penalty_Neutral>  (322) 
0.793626

>  <r_epik_State_Penalty>  (322) 
0.824274

>  <r_epik_Charging_Adjusted_Penalty>  (322) 
0.824274

>  <i_epik_Tot_Q>  (322) 
0

>  <i_epik_Tot_abs_Q>  (322) 
0

>  <s_lp_Force_Field>  (322) 
OPLS3e

>  <r_lp_Energy>  (322) 
75.7349

>  <b_lp_Chiralities_Consistent>  (322) 
1

>  <s_lp_Variant>  (322) 
92:0-2

>  <s_i_glide_gridfile>  (322) 
pfpi4k_grid

>  <i_i_glide_lignum>  (322) 
2

>  <i_i_glide_rotatable_bonds>  (322) 
4

>  <r_i_docking_score>  (322) 
-3.12385

>  <r_i_glide_ligand_efficiency>  (322) 
-0.115698

>  <r_i_glide_ligand_efficiency_sa>  (322) 
-0.347095

>  <r_i_glide_ligand_efficiency_ln>  (322) 
-0.727182

>  <r_i_glide_gscore>  (322) 
-3.12385

>  <r_i_glide_lipo>  (322) 
-0.173544

>  <r_i_glide_hbond>  (322) 
-0.159773

>  <r_i_glide_metal>  (322) 
-0

>  <r_i_glide_rewards>  (322) 
-1.40383

>  <r_i_glide_evdw>  (322) 
-19.5325

>  <r_i_glide_ecoul>  (322) 
-4.63583

>  <r_i_glide_erotb>  (322) 
0.285291

>  <r_i_glide_esite>  (322) 
0

>  <r_i_glide_emodel>  (322) 
-34.1904

>  <r_i_glide_energy>  (322) 
-24.1683

>  <r_i_glide_einternal>  (322) 
0.717865

>  <r_i_glide_intrahb_reward>  (322) 
-0.5

>  <i_i_glide_confnum>  (322) 
4

>  <i_i_glide_posenum>  (322) 
31

>  <r_i_glide_eff_state_penalty>  (322) 
0

>  <ligand_id>  (322) 
92

>  <original_smiles>  (322) 
COc1ccc2c3c1OC1C(O)C=CC4OC45C(C2)N(CC2CC2)CCC315

>  <smiles>  (322) 
[H]OC1([H])C([H])=C([H])C2([H])OC23C2([H])N(C([H])([H])C4([H])C([H])([H])C4([H])[H])C([H])([H])C([H])([H])C34c3c(c(OC([H])([H])[H])c([H])c([H])c3C2([H])[H])OC14[H]

$$$$
93:0:0
     RDKit          3D

 58 64  0  0  1  0  0  0  0  0999 V2000
    1.0529   -5.8843    0.4019 O   0  0  0  0  0  0  0  0  0  0  0  0
    2.0998   -6.1970    0.9702 C   0  0  0  0  0  0  0  0  0  0  0  0
    3.4919   -5.6687    0.6404 C   0  0  0  0  0  0  0  0  0  0  0  0
    4.3598   -6.2218    1.8041 C   0  0  0  0  0  0  0  0  0  0  0  0
    3.3598   -6.5303    2.9641 C   0  0  1  0  0  0  0  0  0  0  0  0
    2.2428   -7.1631    2.1164 C   0  0  1  0  0  0  0  0  0  0  0  0
    1.0468   -7.5854    2.7417 O   0  0  0  0  0  0  0  0  0  0  0  0
    1.2681   -8.2584    3.9292 C   0  0  0  0  0  0  0  0  0  0  0  0
    0.2253   -8.8888    4.6435 C   0  0  0  0  0  0  0  0  0  0  0  0
   -0.9903   -9.0499    4.0456 O   0  0  0  0  0  0  0  0  0  0  0  0
    0.3978   -9.3278    5.9845 C   0  0  0  0  0  0  0  0  0  0  0  0
    1.5983   -9.0691    6.6885 C   0  0  0  0  0  0  0  0  0  0  0  0
    2.6558   -8.4686    5.9878 C   0  0  0  0  0  0  0  0  0  0  0  0
    2.4953   -8.1931    4.6293 C   0  0  0  0  0  0  0  0  0  0  0  0
    3.7460   -7.5788    4.0225 C   0  0  1  0  0  0  0  0  0  0  0  0
    4.6244   -8.5745    3.5184 O   0  0  0  0  0  0  0  0  0  0  0  0
    4.3863   -6.9073    5.2339 C   0  0  2  0  0  0  0  0  0  0  0  0
    3.9378   -7.7907    6.4266 C   0  0  0  0  0  0  0  0  0  0  0  0
    3.8546   -5.4615    5.1787 C   0  0  2  0  0  0  0  0  0  0  0  0
    2.5976   -4.9994    5.9301 C   0  0  0  0  0  0  0  0  0  0  0  0
    1.8078   -5.0178    4.6250 C   0  0  0  0  0  0  0  0  0  0  0  0
    3.1074   -5.2532    3.8277 C   0  0  2  0  0  0  0  0  0  0  0  0
    3.3853   -4.0671    3.0664 O   0  0  0  0  0  0  0  0  0  0  0  0
    3.8816   -2.9014    3.7120 C   0  0  0  0  0  0  0  0  0  0  0  0
    3.9377   -1.7653    2.6929 C   0  0  0  0  0  0  0  0  0  0  0  0
    2.5582   -1.1925    2.3324 C   0  0  2  0  0  0  0  0  0  0  0  0
    2.6504   -0.0285    1.3460 C   0  0  0  0  0  0  0  0  0  0  0  0
    1.4442    0.8010    1.7183 C   0  0  0  0  0  0  0  0  0  0  0  0
    1.3873    0.6280    3.2287 C   0  0  0  0  0  0  0  0  0  0  0  0
    1.9235   -0.6632    3.4974 O   0  0  0  0  0  0  0  0  0  0  0  0
    3.8238   -6.0300   -0.3362 H   0  0  0  0  0  0  0  0  0  0  0  0
    3.4714   -4.5746    0.6221 H   0  0  0  0  0  0  0  0  0  0  0  0
    4.8414   -7.1361    1.4533 H   0  0  0  0  0  0  0  0  0  0  0  0
    5.1631   -5.5414    2.0953 H   0  0  0  0  0  0  0  0  0  0  0  0
    2.6481   -8.0637    1.6533 H   0  0  0  0  0  0  0  0  0  0  0  0
   -1.5050   -9.7432    4.4730 H   0  0  0  0  0  0  0  0  0  0  0  0
   -0.4249   -9.8095    6.4876 H   0  0  0  0  0  0  0  0  0  0  0  0
    1.6781   -9.2866    7.7429 H   0  0  0  0  0  0  0  0  0  0  0  0
    4.1526   -9.0938    2.8870 H   0  0  0  0  0  0  0  0  0  0  0  0
    5.4730   -6.8798    5.1580 H   0  0  0  0  0  0  0  0  0  0  0  0
    3.8266   -7.2238    7.3491 H   0  0  0  0  0  0  0  0  0  0  0  0
    4.6731   -8.5688    6.6137 H   0  0  0  0  0  0  0  0  0  0  0  0
    4.6509   -4.7449    5.3626 H   0  0  0  0  0  0  0  0  0  0  0  0
    2.2206   -5.6875    6.6842 H   0  0  0  0  0  0  0  0  0  0  0  0
    2.6976   -3.9920    6.3394 H   0  0  0  0  0  0  0  0  0  0  0  0
    1.0874   -5.8255    4.6030 H   0  0  0  0  0  0  0  0  0  0  0  0
    1.3193   -4.0663    4.4097 H   0  0  0  0  0  0  0  0  0  0  0  0
    3.2744   -2.6108    4.5678 H   0  0  0  0  0  0  0  0  0  0  0  0
    4.8911   -3.0860    4.0668 H   0  0  0  0  0  0  0  0  0  0  0  0
    4.5511   -0.9653    3.1034 H   0  0  0  0  0  0  0  0  0  0  0  0
    4.4459   -2.1152    1.7937 H   0  0  0  0  0  0  0  0  0  0  0  0
    1.9056   -1.9678    1.9244 H   0  0  0  0  0  0  0  0  0  0  0  0
    3.5610    0.5478    1.5123 H   0  0  0  0  0  0  0  0  0  0  0  0
    2.6423   -0.3647    0.3090 H   0  0  0  0  0  0  0  0  0  0  0  0
    1.5352    1.8413    1.4075 H   0  0  0  0  0  0  0  0  0  0  0  0
    0.5424    0.3809    1.2782 H   0  0  0  0  0  0  0  0  0  0  0  0
    2.0175    1.3657    3.7191 H   0  0  0  0  0  0  0  0  0  0  0  0
    0.3736    0.7275    3.6208 H   0  0  0  0  0  0  0  0  0  0  0  0
  1  2  2  0
  2  6  1  0
  2  3  1  0
  3  4  1  0
  3 31  1  0
  3 32  1  0
  5  4  1  6
  4 33  1  0
  4 34  1  0
  5 15  1  0
  5 22  1  0
  5  6  1  0
  6  7  1  0
  6 35  1  6
  7  8  1  0
  8 14  2  0
  8  9  1  0
  9 10  1  0
  9 11  2  0
 10 36  1  0
 11 12  1  0
 11 37  1  0
 12 13  2  0
 12 38  1  0
 13 18  1  0
 13 14  1  0
 14 15  1  0
 15 16  1  6
 15 17  1  0
 16 39  1  0
 17 18  1  0
 17 19  1  0
 17 40  1  6
 18 41  1  0
 18 42  1  0
 19 22  1  0
 19 20  1  0
 19 43  1  6
 20 21  1  0
 20 44  1  0
 20 45  1  0
 21 22  1  0
 21 46  1  0
 21 47  1  0
 22 23  1  6
 23 24  1  0
 24 25  1  0
 24 48  1  0
 24 49  1  0
 25 26  1  0
 25 50  1  0
 25 51  1  0
 26 30  1  0
 26 27  1  0
 26 52  1  6
 27 28  1  0
 27 53  1  0
 27 54  1  0
 28 29  1  0
 28 55  1  0
 28 56  1  0
 29 30  1  0
 29 57  1  0
 29 58  1  0
M  END
>  <i_m_ct_stereo_status>  (323) 
1

>  <s_m_source_file>  (323) 
/var/tmp/pbs.5076255.sched01/tmpl4jv_xt6/1264eazgjw7.sdf

>  <i_m_source_file_index>  (323) 
3

>  <i_lp_mmshare_version>  (323) 
48012

>  <i_f3d_flags>  (323) 
0

>  <s_epik_input>  (323) 
W0NIMl0xW0NIMl1DKD1PKVtDQEBIXShDMTIzKU9jNGM1YyhbY0hdW2NIXWM0W09IXSlbQ0gyXVtDQEBIXShbQ0BdMjVbT0hdKVtDQEhdNltDQEBdMyhbQ0gyXVtDSDJdNilPW0NIMl1bQ0gyXVtDQEBIXTdbQ0gyXVtDSDJdW0NIMl1PNw==

>  <s_epik_cmdline>  (323) 
J2VwaWtfcHl0aG9uJywgJy1waHQnLCAnMi4wJywgJy1waCcsICc3LjAnLCAnLXRuJywgJzgnLCAnLW1hJywgJzIwMCcsICctaW1hZScsICc8aW5maWxlLm1hZT4nLCAnLW9tYWUnLCAnPG91dGZpbGUubWFlPic=

>  <r_lp_tautomer_probability>  (323) 
1

>  <r_epik_Ionization_Penalty>  (323) 
0.000765824

>  <r_epik_Ionization_Penalty_Charging>  (323) 
0

>  <r_epik_Ionization_Penalty_Neutral>  (323) 
0.000765824

>  <r_epik_State_Penalty>  (323) 
0.000490295

>  <r_epik_Charging_Adjusted_Penalty>  (323) 
0.000490295

>  <i_epik_Tot_Q>  (323) 
0

>  <i_epik_Tot_abs_Q>  (323) 
0

>  <s_lp_Force_Field>  (323) 
OPLS3e

>  <r_lp_Energy>  (323) 
65.0969

>  <b_lp_Chiralities_Consistent>  (323) 
1

>  <s_lp_Variant>  (323) 
93:0-1

>  <s_i_glide_gridfile>  (323) 
pfpi4k_grid

>  <i_i_glide_lignum>  (323) 
3

>  <i_i_glide_rotatable_bonds>  (323) 
6

>  <r_i_docking_score>  (323) 
-2.77522

>  <r_i_glide_ligand_efficiency>  (323) 
-0.0925074

>  <r_i_glide_ligand_efficiency_sa>  (323) 
-0.287442

>  <r_i_glide_ligand_efficiency_ln>  (323) 
-0.630561

>  <r_i_glide_gscore>  (323) 
-2.77522

>  <r_i_glide_lipo>  (323) 
-0.0373124

>  <r_i_glide_hbond>  (323) 
-0.163249

>  <r_i_glide_metal>  (323) 
-0

>  <r_i_glide_rewards>  (323) 
-0.596758

>  <r_i_glide_evdw>  (323) 
-17.2161

>  <r_i_glide_ecoul>  (323) 
-9.55145

>  <r_i_glide_erotb>  (323) 
0.347709

>  <r_i_glide_esite>  (323) 
-0.0320892

>  <r_i_glide_emodel>  (323) 
-31.5692

>  <r_i_glide_energy>  (323) 
-26.7676

>  <r_i_glide_einternal>  (323) 
1.88865

>  <r_i_glide_intrahb_reward>  (323) 
-0

>  <i_i_glide_confnum>  (323) 
2

>  <i_i_glide_posenum>  (323) 
37

>  <r_i_glide_eff_state_penalty>  (323) 
0

>  <ligand_id>  (323) 
93

>  <original_smiles>  (323) 
O=C1CCC23C1Oc1c(O)ccc4c1C2(O)C(C4)C1CCC13OCCC1CCCO1

>  <smiles>  (323) 
[H]Oc1c([H])c([H])c2c3c1OC1([H])C(=O)C([H])([H])C([H])([H])C14C3(O[H])C([H])(C2([H])[H])C1([H])C([H])([H])C([H])([H])C14OC([H])([H])C([H])([H])C1([H])OC([H])([H])C([H])([H])C1([H])[H]

$$$$
93:0:1
     RDKit          3D

 58 64  0  0  1  0  0  0  0  0999 V2000
    4.1029   -9.0571    0.5348 O   0  0  0  0  0  0  0  0  0  0  0  0
    4.2446   -8.6207    1.6764 C   0  0  0  0  0  0  0  0  0  0  0  0
    5.5643   -8.1639    2.2780 C   0  0  0  0  0  0  0  0  0  0  0  0
    5.1184   -7.5561    3.6410 C   0  0  0  0  0  0  0  0  0  0  0  0
    3.6179   -7.1654    3.4553 C   0  0  1  0  0  0  0  0  0  0  0  0
    3.1709   -8.4385    2.7127 C   0  0  1  0  0  0  0  0  0  0  0  0
    1.8261   -8.5753    2.2866 O   0  0  0  0  0  0  0  0  0  0  0  0
    0.9211   -8.1683    3.2456 C   0  0  0  0  0  0  0  0  0  0  0  0
   -0.4798   -8.3196    3.0852 C   0  0  0  0  0  0  0  0  0  0  0  0
   -0.9514   -9.1172    2.0826 O   0  0  0  0  0  0  0  0  0  0  0  0
   -1.4081   -7.6409    3.8976 C   0  0  0  0  0  0  0  0  0  0  0  0
   -0.9934   -6.6839    4.8650 C   0  0  0  0  0  0  0  0  0  0  0  0
    0.3876   -6.5395    5.0670 C   0  0  0  0  0  0  0  0  0  0  0  0
    1.2669   -7.3341    4.3494 C   0  0  0  0  0  0  0  0  0  0  0  0
    2.7165   -7.0445    4.6992 C   0  0  1  0  0  0  0  0  0  0  0  0
    3.1596   -7.8415    5.7741 O   0  0  0  0  0  0  0  0  0  0  0  0
    2.6383   -5.5929    5.1728 C   0  0  2  0  0  0  0  0  0  0  0  0
    1.2112   -5.4524    5.7465 C   0  0  0  0  0  0  0  0  0  0  0  0
    2.9602   -4.7791    3.9152 C   0  0  2  0  0  0  0  0  0  0  0  0
    1.8903   -4.2383    2.9577 C   0  0  0  0  0  0  0  0  0  0  0  0
    2.1766   -5.3877    2.0104 C   0  0  0  0  0  0  0  0  0  0  0  0
    3.4563   -5.7566    2.8087 C   0  0  2  0  0  0  0  0  0  0  0  0
    4.5653   -5.3502    1.9854 O   0  0  0  0  0  0  0  0  0  0  0  0
    5.5678   -4.4312    2.4420 C   0  0  0  0  0  0  0  0  0  0  0  0
    6.4605   -4.0321    1.2643 C   0  0  0  0  0  0  0  0  0  0  0  0
    5.6876   -3.2674    0.1737 C   0  0  2  0  0  0  0  0  0  0  0  0
    4.7193   -4.1544   -0.6031 C   0  0  0  0  0  0  0  0  0  0  0  0
    4.6371   -3.5246   -1.9451 C   0  0  0  0  0  0  0  0  0  0  0  0
    6.0656   -3.0490   -2.1053 C   0  0  0  0  0  0  0  0  0  0  0  0
    6.5656   -2.7289   -0.8077 O   0  0  0  0  0  0  0  0  0  0  0  0
    6.2415   -9.0126    2.4004 H   0  0  0  0  0  0  0  0  0  0  0  0
    6.0225   -7.4306    1.6085 H   0  0  0  0  0  0  0  0  0  0  0  0
    5.2283   -8.3288    4.4040 H   0  0  0  0  0  0  0  0  0  0  0  0
    5.7522   -6.7439    3.9829 H   0  0  0  0  0  0  0  0  0  0  0  0
    3.3243   -9.2764    3.3942 H   0  0  0  0  0  0  0  0  0  0  0  0
   -0.2679   -9.4493    1.4990 H   0  0  0  0  0  0  0  0  0  0  0  0
   -2.4651   -7.8119    3.7273 H   0  0  0  0  0  0  0  0  0  0  0  0
   -1.7064   -6.0806    5.3950 H   0  0  0  0  0  0  0  0  0  0  0  0
    3.0734   -8.7511    5.5168 H   0  0  0  0  0  0  0  0  0  0  0  0
    3.3940   -5.3594    5.9285 H   0  0  0  0  0  0  0  0  0  0  0  0
    0.7980   -4.4547    5.6150 H   0  0  0  0  0  0  0  0  0  0  0  0
    1.2185   -5.6705    6.8080 H   0  0  0  0  0  0  0  0  0  0  0  0
    3.6121   -3.9492    4.1633 H   0  0  0  0  0  0  0  0  0  0  0  0
    0.8671   -4.2416    3.3200 H   0  0  0  0  0  0  0  0  0  0  0  0
    2.1685   -3.2715    2.5277 H   0  0  0  0  0  0  0  0  0  0  0  0
    1.3855   -6.1234    1.9976 H   0  0  0  0  0  0  0  0  0  0  0  0
    2.3129   -5.0435    0.9906 H   0  0  0  0  0  0  0  0  0  0  0  0
    5.1600   -3.5018    2.8255 H   0  0  0  0  0  0  0  0  0  0  0  0
    6.2035   -4.8431    3.2208 H   0  0  0  0  0  0  0  0  0  0  0  0
    7.2485   -3.3869    1.6520 H   0  0  0  0  0  0  0  0  0  0  0  0
    6.9539   -4.9066    0.8376 H   0  0  0  0  0  0  0  0  0  0  0  0
    5.1260   -2.4310    0.6010 H   0  0  0  0  0  0  0  0  0  0  0  0
    5.0743   -5.1864   -0.6647 H   0  0  0  0  0  0  0  0  0  0  0  0
    3.7305   -4.1104   -0.1663 H   0  0  0  0  0  0  0  0  0  0  0  0
    4.3023   -4.2334   -2.7008 H   0  0  0  0  0  0  0  0  0  0  0  0
    3.9393   -2.6900   -1.9018 H   0  0  0  0  0  0  0  0  0  0  0  0
    6.6688   -3.8535   -2.5257 H   0  0  0  0  0  0  0  0  0  0  0  0
    6.1053   -2.1850   -2.7538 H   0  0  0  0  0  0  0  0  0  0  0  0
  1  2  2  0
  2  6  1  0
  2  3  1  0
  3  4  1  0
  3 31  1  0
  3 32  1  0
  5  4  1  1
  4 33  1  0
  4 34  1  0
  5 15  1  0
  5 22  1  0
  5  6  1  0
  6  7  1  0
  6 35  1  1
  7  8  1  0
  8 14  2  0
  8  9  1  0
  9 10  1  0
  9 11  2  0
 10 36  1  0
 11 12  1  0
 11 37  1  0
 12 13  2  0
 12 38  1  0
 13 18  1  0
 13 14  1  0
 14 15  1  0
 15 16  1  1
 15 17  1  0
 16 39  1  0
 17 18  1  0
 17 19  1  0
 17 40  1  1
 18 41  1  0
 18 42  1  0
 19 22  1  0
 19 20  1  0
 19 43  1  1
 20 21  1  0
 20 44  1  0
 20 45  1  0
 21 22  1  0
 21 46  1  0
 21 47  1  0
 22 23  1  6
 23 24  1  0
 24 25  1  0
 24 48  1  0
 24 49  1  0
 25 26  1  0
 25 50  1  0
 25 51  1  0
 26 30  1  0
 26 27  1  0
 26 52  1  1
 27 28  1  0
 27 53  1  0
 27 54  1  0
 28 29  1  0
 28 55  1  0
 28 56  1  0
 29 30  1  0
 29 57  1  0
 29 58  1  0
M  END
>  <i_m_ct_stereo_status>  (324) 
1

>  <s_m_source_file>  (324) 
/var/tmp/pbs.5076255.sched01/tmpl4jv_xt6/1264eazgjw7.sdf

>  <i_m_source_file_index>  (324) 
3

>  <i_lp_mmshare_version>  (324) 
48012

>  <i_f3d_flags>  (324) 
0

>  <s_epik_input>  (324) 
W0NIMl0xW0NIMl1DKD1PKVtDQEBIXShDMTIzKU9jNGM1YyhbY0hdW2NIXWM0W09IXSlbQ0gyXVtDQEBIXShbQ0BdMjVbT0hdKVtDQEhdNltDQEBdMyhbQ0gyXVtDSDJdNilPW0NIMl1bQ0gyXVtDQEBIXTdbQ0gyXVtDSDJdW0NIMl1PNw==

>  <s_epik_cmdline>  (324) 
J2VwaWtfcHl0aG9uJywgJy1waHQnLCAnMi4wJywgJy1waCcsICc3LjAnLCAnLXRuJywgJzgnLCAnLW1hJywgJzIwMCcsICctaW1hZScsICc8aW5maWxlLm1hZT4nLCAnLW9tYWUnLCAnPG91dGZpbGUubWFlPic=

>  <r_lp_tautomer_probability>  (324) 
1

>  <r_epik_Ionization_Penalty>  (324) 
0.000765824

>  <r_epik_Ionization_Penalty_Charging>  (324) 
0

>  <r_epik_Ionization_Penalty_Neutral>  (324) 
0.000765824

>  <r_epik_State_Penalty>  (324) 
0.000490295

>  <r_epik_Charging_Adjusted_Penalty>  (324) 
0.000490295

>  <i_epik_Tot_Q>  (324) 
0

>  <i_epik_Tot_abs_Q>  (324) 
0

>  <s_lp_Force_Field>  (324) 
OPLS3e

>  <r_lp_Energy>  (324) 
65.0969

>  <b_lp_Chiralities_Consistent>  (324) 
1

>  <s_lp_Variant>  (324) 
93:0-1

>  <s_i_glide_gridfile>  (324) 
pfpi4k_grid

>  <i_i_glide_lignum>  (324) 
3

>  <i_i_glide_rotatable_bonds>  (324) 
6

>  <r_i_docking_score>  (324) 
-2.5141

>  <r_i_glide_ligand_efficiency>  (324) 
-0.0838034

>  <r_i_glide_ligand_efficiency_sa>  (324) 
-0.260397

>  <r_i_glide_ligand_efficiency_ln>  (324) 
-0.571231

>  <r_i_glide_gscore>  (324) 
-2.5141

>  <r_i_glide_lipo>  (324) 
-0.345803

>  <r_i_glide_hbond>  (324) 
0

>  <r_i_glide_metal>  (324) 
-0

>  <r_i_glide_rewards>  (324) 
-0.596758

>  <r_i_glide_evdw>  (324) 
-23.6272

>  <r_i_glide_ecoul>  (324) 
-4.76037

>  <r_i_glide_erotb>  (324) 
0.347709

>  <r_i_glide_esite>  (324) 
-0.0238344

>  <r_i_glide_emodel>  (324) 
-31.589

>  <r_i_glide_energy>  (324) 
-28.3876

>  <r_i_glide_einternal>  (324) 
2.13431

>  <r_i_glide_intrahb_reward>  (324) 
-0

>  <i_i_glide_confnum>  (324) 
2

>  <i_i_glide_posenum>  (324) 
3

>  <r_i_glide_eff_state_penalty>  (324) 
0

>  <ligand_id>  (324) 
93

>  <original_smiles>  (324) 
O=C1CCC23C1Oc1c(O)ccc4c1C2(O)C(C4)C1CCC13OCCC1CCCO1

>  <smiles>  (324) 
[H]Oc1c([H])c([H])c2c3c1OC1([H])C(=O)C([H])([H])C([H])([H])C14C3(O[H])C([H])(C2([H])[H])C1([H])C([H])([H])C([H])([H])C14OC([H])([H])C([H])([H])C1([H])OC([H])([H])C([H])([H])C1([H])[H]

$$$$
93:0:2
     RDKit          3D

 58 64  0  0  1  0  0  0  0  0999 V2000
    4.1608   -8.9396    0.5298 O   0  0  0  0  0  0  0  0  0  0  0  0
    4.2757   -8.4884    1.6661 C   0  0  0  0  0  0  0  0  0  0  0  0
    5.5668   -7.9575    2.2627 C   0  0  0  0  0  0  0  0  0  0  0  0
    5.0956   -7.3197    3.6043 C   0  0  0  0  0  0  0  0  0  0  0  0
    3.5689   -7.0328    3.4242 C   0  0  1  0  0  0  0  0  0  0  0  0
    3.1902   -8.3465    2.7058 C   0  0  1  0  0  0  0  0  0  0  0  0
    1.8562   -8.5462    2.2830 O   0  0  0  0  0  0  0  0  0  0  0  0
    0.9294   -8.1598    3.2345 C   0  0  0  0  0  0  0  0  0  0  0  0
   -0.4538   -8.3981    3.0768 C   0  0  0  0  0  0  0  0  0  0  0  0
   -0.8982   -9.2232    2.0969 O   0  0  0  0  0  0  0  0  0  0  0  0
   -1.4195   -7.7566    3.8911 C   0  0  0  0  0  0  0  0  0  0  0  0
   -1.0387   -6.7734    4.8322 C   0  0  0  0  0  0  0  0  0  0  0  0
    0.3288   -6.5350    5.0294 C   0  0  0  0  0  0  0  0  0  0  0  0
    1.2437   -7.3006    4.3119 C   0  0  0  0  0  0  0  0  0  0  0  0
    2.6739   -6.9460    4.6709 C   0  0  1  0  0  0  0  0  0  0  0  0
    3.1390   -7.7489    5.7402 O   0  0  0  0  0  0  0  0  0  0  0  0
    2.5392   -5.4865    5.1264 C   0  0  2  0  0  0  0  0  0  0  0  0
    1.1025   -5.4190    5.7047 C   0  0  0  0  0  0  0  0  0  0  0  0
    2.8274   -4.6748    3.8459 C   0  0  2  0  0  0  0  0  0  0  0  0
    1.7107   -4.2011    2.8955 C   0  0  0  0  0  0  0  0  0  0  0  0
    2.0918   -5.3040    1.9065 C   0  0  0  0  0  0  0  0  0  0  0  0
    3.3455   -5.6421    2.7431 C   0  0  2  0  0  0  0  0  0  0  0  0
    4.4977   -5.2536    1.9802 O   0  0  0  0  0  0  0  0  0  0  0  0
    4.8221   -3.8793    1.8117 C   0  0  0  0  0  0  0  0  0  0  0  0
    5.5433   -3.6891    0.4760 C   0  0  0  0  0  0  0  0  0  0  0  0
    4.6165   -3.8512   -0.7432 C   0  0  2  0  0  0  0  0  0  0  0  0
    5.2870   -3.4427   -2.0565 C   0  0  0  0  0  0  0  0  0  0  0  0
    4.1225   -2.9595   -2.8850 C   0  0  0  0  0  0  0  0  0  0  0  0
    3.2370   -2.2971   -1.8380 C   0  0  0  0  0  0  0  0  0  0  0  0
    3.4779   -2.9985   -0.6240 O   0  0  0  0  0  0  0  0  0  0  0  0
    6.2816   -8.7686    2.4093 H   0  0  0  0  0  0  0  0  0  0  0  0
    5.9970   -7.2188    1.5857 H   0  0  0  0  0  0  0  0  0  0  0  0
    5.2593   -8.0596    4.3874 H   0  0  0  0  0  0  0  0  0  0  0  0
    5.6728   -6.4350    3.8733 H   0  0  0  0  0  0  0  0  0  0  0  0
    3.3810   -9.1655    3.4031 H   0  0  0  0  0  0  0  0  0  0  0  0
   -0.2205   -9.4662    1.4659 H   0  0  0  0  0  0  0  0  0  0  0  0
   -2.4603   -7.9756    3.7216 H   0  0  0  0  0  0  0  0  0  0  0  0
   -1.7890   -6.2032    5.3552 H   0  0  0  0  0  0  0  0  0  0  0  0
    4.0191   -7.4830    5.9597 H   0  0  0  0  0  0  0  0  0  0  0  0
    3.2732   -5.2131    5.8864 H   0  0  0  0  0  0  0  0  0  0  0  0
    0.6333   -4.4450    5.5756 H   0  0  0  0  0  0  0  0  0  0  0  0
    1.1119   -5.6382    6.7706 H   0  0  0  0  0  0  0  0  0  0  0  0
    3.5079   -3.8456    4.0378 H   0  0  0  0  0  0  0  0  0  0  0  0
    0.6954   -4.2835    3.2801 H   0  0  0  0  0  0  0  0  0  0  0  0
    1.8806   -3.2029    2.4918 H   0  0  0  0  0  0  0  0  0  0  0  0
    1.3408   -6.0823    1.8513 H   0  0  0  0  0  0  0  0  0  0  0  0
    2.3163   -4.9243    0.9104 H   0  0  0  0  0  0  0  0  0  0  0  0
    3.9627   -3.2160    1.8198 H   0  0  0  0  0  0  0  0  0  0  0  0
    5.4562   -3.5711    2.6410 H   0  0  0  0  0  0  0  0  0  0  0  0
    5.9591   -2.6828    0.4653 H   0  0  0  0  0  0  0  0  0  0  0  0
    6.3838   -4.3799    0.4021 H   0  0  0  0  0  0  0  0  0  0  0  0
    4.2477   -4.8768   -0.8189 H   0  0  0  0  0  0  0  0  0  0  0  0
    5.9857   -2.6207   -1.8898 H   0  0  0  0  0  0  0  0  0  0  0  0
    5.8254   -4.2586   -2.5284 H   0  0  0  0  0  0  0  0  0  0  0  0
    4.4248   -2.2800   -3.6808 H   0  0  0  0  0  0  0  0  0  0  0  0
    3.5997   -3.8102   -3.3254 H   0  0  0  0  0  0  0  0  0  0  0  0
    3.5236   -1.2564   -1.6883 H   0  0  0  0  0  0  0  0  0  0  0  0
    2.1862   -2.3242   -2.1185 H   0  0  0  0  0  0  0  0  0  0  0  0
  1  2  2  0
  2  6  1  0
  2  3  1  0
  3  4  1  0
  3 31  1  0
  3 32  1  0
  5  4  1  1
  4 33  1  0
  4 34  1  0
  5 15  1  0
  5 22  1  0
  5  6  1  0
  6  7  1  0
  6 35  1  1
  7  8  1  0
  8 14  2  0
  8  9  1  0
  9 10  1  0
  9 11  2  0
 10 36  1  0
 11 12  1  0
 11 37  1  0
 12 13  2  0
 12 38  1  0
 13 18  1  0
 13 14  1  0
 14 15  1  0
 15 16  1  1
 15 17  1  0
 16 39  1  0
 17 18  1  0
 17 19  1  0
 17 40  1  1
 18 41  1  0
 18 42  1  0
 19 22  1  0
 19 20  1  0
 19 43  1  1
 20 21  1  0
 20 44  1  0
 20 45  1  0
 21 22  1  0
 21 46  1  0
 21 47  1  0
 22 23  1  6
 23 24  1  0
 24 25  1  0
 24 48  1  0
 24 49  1  0
 25 26  1  0
 25 50  1  0
 25 51  1  0
 26 30  1  0
 26 27  1  0
 26 52  1  6
 27 28  1  0
 27 53  1  0
 27 54  1  0
 28 29  1  0
 28 55  1  0
 28 56  1  0
 29 30  1  0
 29 57  1  0
 29 58  1  0
M  END
>  <i_m_ct_stereo_status>  (325) 
1

>  <s_m_source_file>  (325) 
/var/tmp/pbs.5076255.sched01/tmpl4jv_xt6/1264eazgjw7.sdf

>  <i_m_source_file_index>  (325) 
3

>  <i_lp_mmshare_version>  (325) 
48012

>  <i_f3d_flags>  (325) 
0

>  <s_epik_input>  (325) 
W0NIMl0xW0NIMl1DKD1PKVtDQEBIXShDMTIzKU9jNGM1YyhbY0hdW2NIXWM0W09IXSlbQ0gyXVtDQEBIXShbQ0BdMjVbT0hdKVtDQEhdNltDQEBdMyhbQ0gyXVtDSDJdNilPW0NIMl1bQ0gyXVtDQEBIXTdbQ0gyXVtDSDJdW0NIMl1PNw==

>  <s_epik_cmdline>  (325) 
J2VwaWtfcHl0aG9uJywgJy1waHQnLCAnMi4wJywgJy1waCcsICc3LjAnLCAnLXRuJywgJzgnLCAnLW1hJywgJzIwMCcsICctaW1hZScsICc8aW5maWxlLm1hZT4nLCAnLW9tYWUnLCAnPG91dGZpbGUubWFlPic=

>  <r_lp_tautomer_probability>  (325) 
1

>  <r_epik_Ionization_Penalty>  (325) 
0.000765824

>  <r_epik_Ionization_Penalty_Charging>  (325) 
0

>  <r_epik_Ionization_Penalty_Neutral>  (325) 
0.000765824

>  <r_epik_State_Penalty>  (325) 
0.000490295

>  <r_epik_Charging_Adjusted_Penalty>  (325) 
0.000490295

>  <i_epik_Tot_Q>  (325) 
0

>  <i_epik_Tot_abs_Q>  (325) 
0

>  <s_lp_Force_Field>  (325) 
OPLS3e

>  <r_lp_Energy>  (325) 
65.0969

>  <b_lp_Chiralities_Consistent>  (325) 
1

>  <s_lp_Variant>  (325) 
93:0-1

>  <s_i_glide_gridfile>  (325) 
pfpi4k_grid

>  <i_i_glide_lignum>  (325) 
3

>  <i_i_glide_rotatable_bonds>  (325) 
6

>  <r_i_docking_score>  (325) 
-2.2822

>  <r_i_glide_ligand_efficiency>  (325) 
-0.0760733

>  <r_i_glide_ligand_efficiency_sa>  (325) 
-0.236377

>  <r_i_glide_ligand_efficiency_ln>  (325) 
-0.51854

>  <r_i_glide_gscore>  (325) 
-2.2822

>  <r_i_glide_lipo>  (325) 
-0.286002

>  <r_i_glide_hbond>  (325) 
0

>  <r_i_glide_metal>  (325) 
-0

>  <r_i_glide_rewards>  (325) 
-0.596758

>  <r_i_glide_evdw>  (325) 
-24.5276

>  <r_i_glide_ecoul>  (325) 
-3.36258

>  <r_i_glide_erotb>  (325) 
0.347709

>  <r_i_glide_esite>  (325) 
-0.0163794

>  <r_i_glide_emodel>  (325) 
-31.4304

>  <r_i_glide_energy>  (325) 
-27.8902

>  <r_i_glide_einternal>  (325) 
2.37482

>  <r_i_glide_intrahb_reward>  (325) 
-0

>  <i_i_glide_confnum>  (325) 
2

>  <i_i_glide_posenum>  (325) 
30

>  <r_i_glide_eff_state_penalty>  (325) 
0

>  <ligand_id>  (325) 
93

>  <original_smiles>  (325) 
O=C1CCC23C1Oc1c(O)ccc4c1C2(O)C(C4)C1CCC13OCCC1CCCO1

>  <smiles>  (325) 
[H]Oc1c([H])c([H])c2c3c1OC1([H])C(=O)C([H])([H])C([H])([H])C14C3(O[H])C([H])(C2([H])[H])C1([H])C([H])([H])C([H])([H])C14OC([H])([H])C([H])([H])C1([H])OC([H])([H])C([H])([H])C1([H])[H]

$$$$
93:1:0
     RDKit          3D

 58 64  0  0  1  0  0  0  0  0999 V2000
    2.5333    0.9172    1.3878 O   0  0  0  0  0  0  0  0  0  0  0  0
    2.1901    0.8106    2.5601 C   0  0  0  0  0  0  0  0  0  0  0  0
    2.9882    1.3729    3.7134 C   0  0  0  0  0  0  0  0  0  0  0  0
    2.0584    1.1369    4.9078 C   0  0  0  0  0  0  0  0  0  0  0  0
    1.2128   -0.1559    4.5519 C   0  0  2  0  0  0  0  0  0  0  0  0
    0.9238    0.1183    3.0317 C   0  0  1  0  0  0  0  0  0  0  0  0
   -0.2061    1.0463    2.8103 O   0  0  0  0  0  0  0  0  0  0  0  0
   -0.8205    1.6269    3.9252 C   0  0  0  0  0  0  0  0  0  0  0  0
   -1.3133    2.9532    4.0223 C   0  0  0  0  0  0  0  0  0  0  0  0
   -1.3940    3.7507    2.9152 O   0  0  0  0  0  0  0  0  0  0  0  0
   -1.6468    3.5152    5.2883 C   0  0  0  0  0  0  0  0  0  0  0  0
   -1.4126    2.8194    6.5094 C   0  0  0  0  0  0  0  0  0  0  0  0
   -0.9476    1.4980    6.4317 C   0  0  0  0  0  0  0  0  0  0  0  0
   -0.7709    0.9814    5.1617 C   0  0  0  0  0  0  0  0  0  0  0  0
   -0.1849   -0.3463    5.1653 C   0  0  1  0  0  0  0  0  0  0  0  0
   -0.9958   -1.3110    4.5024 O   0  0  0  0  0  0  0  0  0  0  0  0
   -0.0446   -0.8006    6.6002 C   0  0  2  0  0  0  0  0  0  0  0  0
   -0.2531    0.5280    7.3993 C   0  0  0  0  0  0  0  0  0  0  0  0
    1.2738   -1.6046    6.5349 C   0  0  2  0  0  0  0  0  0  0  0  0
    2.5997   -1.1954    7.1791 C   0  0  0  0  0  0  0  0  0  0  0  0
    3.2828   -1.4374    5.8237 C   0  0  0  0  0  0  0  0  0  0  0  0
    1.9096   -1.4193    5.1173 C   0  0  2  0  0  0  0  0  0  0  0  0
    1.7890   -2.4629    4.1443 O   0  0  0  0  0  0  0  0  0  0  0  0
    1.5049   -3.7881    4.5695 C   0  0  0  0  0  0  0  0  0  0  0  0
    1.4381   -4.6706    3.3217 C   0  0  0  0  0  0  0  0  0  0  0  0
    0.6009   -5.9556    3.5021 C   0  0  2  0  0  0  0  0  0  0  0  0
    1.4519   -7.1793    3.8492 C   0  0  0  0  0  0  0  0  0  0  0  0
    1.7491   -7.8210    2.4983 C   0  0  0  0  0  0  0  0  0  0  0  0
    0.9984   -6.9576    1.4838 C   0  0  0  0  0  0  0  0  0  0  0  0
    0.0076   -6.3005    2.2563 O   0  0  0  0  0  0  0  0  0  0  0  0
    3.9219    0.8159    3.8006 H   0  0  0  0  0  0  0  0  0  0  0  0
    3.2278    2.4307    3.5772 H   0  0  0  0  0  0  0  0  0  0  0  0
    2.6155    1.0946    5.8389 H   0  0  0  0  0  0  0  0  0  0  0  0
    1.4684    2.0465    5.0093 H   0  0  0  0  0  0  0  0  0  0  0  0
    0.7567   -0.7961    2.4614 H   0  0  0  0  0  0  0  0  0  0  0  0
   -0.7571    3.5898    2.2215 H   0  0  0  0  0  0  0  0  0  0  0  0
   -1.9653    4.5413    5.3241 H   0  0  0  0  0  0  0  0  0  0  0  0
   -1.5097    3.3188    7.4664 H   0  0  0  0  0  0  0  0  0  0  0  0
   -0.8800   -1.1898    3.5717 H   0  0  0  0  0  0  0  0  0  0  0  0
   -0.8782   -1.4568    6.8530 H   0  0  0  0  0  0  0  0  0  0  0  0
    0.7023    0.9696    7.6726 H   0  0  0  0  0  0  0  0  0  0  0  0
   -0.8285    0.3879    8.3109 H   0  0  0  0  0  0  0  0  0  0  0  0
    1.1162   -2.6471    6.8028 H   0  0  0  0  0  0  0  0  0  0  0  0
    2.6379   -0.1685    7.5289 H   0  0  0  0  0  0  0  0  0  0  0  0
    2.9332   -1.8821    7.9533 H   0  0  0  0  0  0  0  0  0  0  0  0
    3.9866   -0.6612    5.5221 H   0  0  0  0  0  0  0  0  0  0  0  0
    3.7601   -2.4166    5.7743 H   0  0  0  0  0  0  0  0  0  0  0  0
    2.2618   -4.1627    5.2590 H   0  0  0  0  0  0  0  0  0  0  0  0
    0.5398   -3.8140    5.0725 H   0  0  0  0  0  0  0  0  0  0  0  0
    1.0137   -4.0799    2.5139 H   0  0  0  0  0  0  0  0  0  0  0  0
    2.4483   -4.9025    2.9844 H   0  0  0  0  0  0  0  0  0  0  0  0
   -0.1969   -5.8085    4.2322 H   0  0  0  0  0  0  0  0  0  0  0  0
    2.3576   -6.9091    4.3945 H   0  0  0  0  0  0  0  0  0  0  0  0
    0.8895   -7.8716    4.4794 H   0  0  0  0  0  0  0  0  0  0  0  0
    2.8161   -7.8442    2.2791 H   0  0  0  0  0  0  0  0  0  0  0  0
    1.3776   -8.8458    2.4797 H   0  0  0  0  0  0  0  0  0  0  0  0
    1.6599   -6.2072    1.0495 H   0  0  0  0  0  0  0  0  0  0  0  0
    0.5646   -7.5294    0.6641 H   0  0  0  0  0  0  0  0  0  0  0  0
  1  2  2  0
  2  6  1  0
  2  3  1  0
  3  4  1  0
  3 31  1  0
  3 32  1  0
  5  4  1  1
  4 33  1  0
  4 34  1  0
  5 15  1  0
  5 22  1  0
  5  6  1  0
  6  7  1  0
  6 35  1  6
  7  8  1  0
  8 14  2  0
  8  9  1  0
  9 10  1  0
  9 11  2  0
 10 36  1  0
 11 12  1  0
 11 37  1  0
 12 13  2  0
 12 38  1  0
 13 18  1  0
 13 14  1  0
 14 15  1  0
 15 16  1  6
 15 17  1  0
 16 39  1  0
 17 18  1  0
 17 19  1  0
 17 40  1  1
 18 41  1  0
 18 42  1  0
 19 22  1  0
 19 20  1  0
 19 43  1  1
 20 21  1  0
 20 44  1  0
 20 45  1  0
 21 22  1  0
 21 46  1  0
 21 47  1  0
 22 23  1  6
 23 24  1  0
 24 25  1  0
 24 48  1  0
 24 49  1  0
 25 26  1  0
 25 50  1  0
 25 51  1  0
 26 30  1  0
 26 27  1  0
 26 52  1  1
 27 28  1  0
 27 53  1  0
 27 54  1  0
 28 29  1  0
 28 55  1  0
 28 56  1  0
 29 30  1  0
 29 57  1  0
 29 58  1  0
M  END
>  <i_m_ct_stereo_status>  (326) 
1

>  <s_m_source_file>  (326) 
/var/tmp/pbs.5076255.sched01/tmpl4jv_xt6/1264eazgjw7.sdf

>  <i_m_source_file_index>  (326) 
4

>  <i_lp_mmshare_version>  (326) 
48012

>  <i_f3d_flags>  (326) 
0

>  <s_epik_input>  (326) 
W0NIMl0xW0NIMl1DKD1PKVtDQEBIXShDMTIzKU9jNGM1YyhbY0hdW2NIXWM0W09IXSlbQ0gyXVtDQEBIXShbQ0BdMjVbT0hdKVtDQEhdNltDQEBdMyhbQ0gyXVtDSDJdNilPW0NIMl1bQ0gyXVtDQEBIXTdbQ0gyXVtDSDJdW0NIMl1PNw==

>  <s_epik_cmdline>  (326) 
J2VwaWtfcHl0aG9uJywgJy1waHQnLCAnMi4wJywgJy1waCcsICc3LjAnLCAnLXRuJywgJzgnLCAnLW1hJywgJzIwMCcsICctaW1hZScsICc8aW5maWxlLm1hZT4nLCAnLW9tYWUnLCAnPG91dGZpbGUubWFlPic=

>  <r_lp_tautomer_probability>  (326) 
1

>  <r_epik_Ionization_Penalty>  (326) 
0.000765824

>  <r_epik_Ionization_Penalty_Charging>  (326) 
0

>  <r_epik_Ionization_Penalty_Neutral>  (326) 
0.000765824

>  <r_epik_State_Penalty>  (326) 
0.000490295

>  <r_epik_Charging_Adjusted_Penalty>  (326) 
0.000490295

>  <i_epik_Tot_Q>  (326) 
0

>  <i_epik_Tot_abs_Q>  (326) 
0

>  <s_lp_Force_Field>  (326) 
OPLS3e

>  <r_lp_Energy>  (326) 
88.6051

>  <b_lp_Chiralities_Consistent>  (326) 
1

>  <s_lp_Variant>  (326) 
93:0-2

>  <s_i_glide_gridfile>  (326) 
pfpi4k_grid

>  <i_i_glide_lignum>  (326) 
4

>  <i_i_glide_rotatable_bonds>  (326) 
6

>  <r_i_docking_score>  (326) 
-2.6257

>  <r_i_glide_ligand_efficiency>  (326) 
-0.0875234

>  <r_i_glide_ligand_efficiency_sa>  (326) 
-0.271956

>  <r_i_glide_ligand_efficiency_ln>  (326) 
-0.596588

>  <r_i_glide_gscore>  (326) 
-2.6257

>  <r_i_glide_lipo>  (326) 
-0.0436102

>  <r_i_glide_hbond>  (326) 
-0.211179

>  <r_i_glide_metal>  (326) 
-0

>  <r_i_glide_rewards>  (326) 
-0.596758

>  <r_i_glide_evdw>  (326) 
-20.543

>  <r_i_glide_ecoul>  (326) 
-7.25647

>  <r_i_glide_erotb>  (326) 
0.347709

>  <r_i_glide_esite>  (326) 
-0.00624301

>  <r_i_glide_emodel>  (326) 
-28.8544

>  <r_i_glide_energy>  (326) 
-27.7995

>  <r_i_glide_einternal>  (326) 
5.78718

>  <r_i_glide_intrahb_reward>  (326) 
-0

>  <i_i_glide_confnum>  (326) 
1

>  <i_i_glide_posenum>  (326) 
37

>  <r_i_glide_eff_state_penalty>  (326) 
0

>  <ligand_id>  (326) 
93

>  <original_smiles>  (326) 
O=C1CCC23C1Oc1c(O)ccc4c1C2(O)C(C4)C1CCC13OCCC1CCCO1

>  <smiles>  (326) 
[H]Oc1c([H])c([H])c2c3c1OC1([H])C(=O)C([H])([H])C([H])([H])C14C3(O[H])C([H])(C2([H])[H])C1([H])C([H])([H])C([H])([H])C14OC([H])([H])C([H])([H])C1([H])OC([H])([H])C([H])([H])C1([H])[H]

$$$$
93:1:1
     RDKit          3D

 58 64  0  0  1  0  0  0  0  0999 V2000
    2.7079    0.9410    1.6948 O   0  0  0  0  0  0  0  0  0  0  0  0
    2.3716    0.8058    2.8761 C   0  0  0  0  0  0  0  0  0  0  0  0
    3.1894    1.3232    4.0329 C   0  0  0  0  0  0  0  0  0  0  0  0
    2.2561    1.0694    5.2344 C   0  0  0  0  0  0  0  0  0  0  0  0
    1.3817   -0.2026    4.8422 C   0  0  2  0  0  0  0  0  0  0  0  0
    1.0926    0.1223    3.3266 C   0  0  1  0  0  0  0  0  0  0  0  0
   -0.0091    1.0861    3.1448 O   0  0  0  0  0  0  0  0  0  0  0  0
   -0.6173    1.6277    4.2506 C   0  0  0  0  0  0  0  0  0  0  0  0
   -1.0928    2.9741    4.4046 C   0  0  0  0  0  0  0  0  0  0  0  0
   -1.1542    3.7881    3.3125 O   0  0  0  0  0  0  0  0  0  0  0  0
   -1.4081    3.5106    5.6876 C   0  0  0  0  0  0  0  0  0  0  0  0
   -1.1839    2.7740    6.8936 C   0  0  0  0  0  0  0  0  0  0  0  0
   -0.7495    1.4415    6.7769 C   0  0  0  0  0  0  0  0  0  0  0  0
   -0.5783    0.9666    5.4974 C   0  0  0  0  0  0  0  0  0  0  0  0
   -0.0202   -0.3644    5.4487 C   0  0  1  0  0  0  0  0  0  0  0  0
   -0.8425   -1.3120    4.7625 O   0  0  0  0  0  0  0  0  0  0  0  0
    0.1267   -0.8823    6.8775 C   0  0  2  0  0  0  0  0  0  0  0  0
   -0.0639    0.4330    7.7065 C   0  0  0  0  0  0  0  0  0  0  0  0
    1.4229   -1.6860    6.7932 C   0  0  2  0  0  0  0  0  0  0  0  0
    2.7654   -1.3281    7.4364 C   0  0  0  0  0  0  0  0  0  0  0  0
    3.4369   -1.5530    6.0745 C   0  0  0  0  0  0  0  0  0  0  0  0
    2.0628   -1.4836    5.3732 C   0  0  2  0  0  0  0  0  0  0  0  0
    1.8820   -2.5018    4.3728 O   0  0  0  0  0  0  0  0  0  0  0  0
    1.6652   -3.8560    4.7518 C   0  0  0  0  0  0  0  0  0  0  0  0
    1.3139   -4.6373    3.4840 C   0  0  0  0  0  0  0  0  0  0  0  0
    0.6711   -6.0043    3.7768 C   0  0  2  0  0  0  0  0  0  0  0  0
    1.6899   -7.0865    4.1307 C   0  0  0  0  0  0  0  0  0  0  0  0
    1.0195   -8.3396    3.6296 C   0  0  0  0  0  0  0  0  0  0  0  0
    0.2917   -7.8478    2.3823 C   0  0  0  0  0  0  0  0  0  0  0  0
   -0.0220   -6.4779    2.6184 O   0  0  0  0  0  0  0  0  0  0  0  0
    4.1099    0.7473    4.1134 H   0  0  0  0  0  0  0  0  0  0  0  0
    3.4442    2.3781    3.9346 H   0  0  0  0  0  0  0  0  0  0  0  0
    2.8124    0.9929    6.1600 H   0  0  0  0  0  0  0  0  0  0  0  0
    1.6801    1.9855    5.3613 H   0  0  0  0  0  0  0  0  0  0  0  0
    0.9134   -0.7674    2.7393 H   0  0  0  0  0  0  0  0  0  0  0  0
   -0.6655    3.4933    2.5583 H   0  0  0  0  0  0  0  0  0  0  0  0
   -1.7006    4.5381    5.7585 H   0  0  0  0  0  0  0  0  0  0  0  0
   -1.2684    3.2435    7.8582 H   0  0  0  0  0  0  0  0  0  0  0  0
   -0.7296   -1.1673    3.8435 H   0  0  0  0  0  0  0  0  0  0  0  0
   -0.7097   -1.5290    7.1151 H   0  0  0  0  0  0  0  0  0  0  0  0
    0.8974    0.8523    7.9951 H   0  0  0  0  0  0  0  0  0  0  0  0
   -0.6385    0.2747    8.6193 H   0  0  0  0  0  0  0  0  0  0  0  0
    1.2583   -2.7324    7.0634 H   0  0  0  0  0  0  0  0  0  0  0  0
    2.8195   -0.3115    7.8207 H   0  0  0  0  0  0  0  0  0  0  0  0
    3.0814   -2.0420    8.1947 H   0  0  0  0  0  0  0  0  0  0  0  0
    4.1525   -0.7782    5.7937 H   0  0  0  0  0  0  0  0  0  0  0  0
    3.8972   -2.5361    6.0032 H   0  0  0  0  0  0  0  0  0  0  0  0
    2.5383   -4.2776    5.2493 H   0  0  0  0  0  0  0  0  0  0  0  0
    0.8086   -3.9427    5.4122 H   0  0  0  0  0  0  0  0  0  0  0  0
    0.6118   -4.0295    2.9246 H   0  0  0  0  0  0  0  0  0  0  0  0
    2.1888   -4.7495    2.8434 H   0  0  0  0  0  0  0  0  0  0  0  0
   -0.0804   -5.9360    4.5721 H   0  0  0  0  0  0  0  0  0  0  0  0
    2.6194   -6.9241    3.5760 H   0  0  0  0  0  0  0  0  0  0  0  0
    1.9343   -7.1144    5.1939 H   0  0  0  0  0  0  0  0  0  0  0  0
    1.7291   -9.1391    3.4215 H   0  0  0  0  0  0  0  0  0  0  0  0
    0.2962   -8.7017    4.3644 H   0  0  0  0  0  0  0  0  0  0  0  0
    0.9525   -7.8920    1.5131 H   0  0  0  0  0  0  0  0  0  0  0  0
   -0.5939   -8.4369    2.1574 H   0  0  0  0  0  0  0  0  0  0  0  0
  1  2  2  0
  2  6  1  0
  2  3  1  0
  3  4  1  0
  3 31  1  0
  3 32  1  0
  5  4  1  1
  4 33  1  0
  4 34  1  0
  5 15  1  0
  5 22  1  0
  5  6  1  0
  6  7  1  0
  6 35  1  6
  7  8  1  0
  8 14  2  0
  8  9  1  0
  9 10  1  0
  9 11  2  0
 10 36  1  0
 11 12  1  0
 11 37  1  0
 12 13  2  0
 12 38  1  0
 13 18  1  0
 13 14  1  0
 14 15  1  0
 15 16  1  6
 15 17  1  0
 16 39  1  0
 17 18  1  0
 17 19  1  0
 17 40  1  1
 18 41  1  0
 18 42  1  0
 19 22  1  0
 19 20  1  0
 19 43  1  6
 20 21  1  0
 20 44  1  0
 20 45  1  0
 21 22  1  0
 21 46  1  0
 21 47  1  0
 22 23  1  6
 23 24  1  0
 24 25  1  0
 24 48  1  0
 24 49  1  0
 25 26  1  0
 25 50  1  0
 25 51  1  0
 26 30  1  0
 26 27  1  0
 26 52  1  1
 27 28  1  0
 27 53  1  0
 27 54  1  0
 28 29  1  0
 28 55  1  0
 28 56  1  0
 29 30  1  0
 29 57  1  0
 29 58  1  0
M  END
>  <i_m_ct_stereo_status>  (327) 
1

>  <s_m_source_file>  (327) 
/var/tmp/pbs.5076255.sched01/tmpl4jv_xt6/1264eazgjw7.sdf

>  <i_m_source_file_index>  (327) 
4

>  <i_lp_mmshare_version>  (327) 
48012

>  <i_f3d_flags>  (327) 
0

>  <s_epik_input>  (327) 
W0NIMl0xW0NIMl1DKD1PKVtDQEBIXShDMTIzKU9jNGM1YyhbY0hdW2NIXWM0W09IXSlbQ0gyXVtDQEBIXShbQ0BdMjVbT0hdKVtDQEhdNltDQEBdMyhbQ0gyXVtDSDJdNilPW0NIMl1bQ0gyXVtDQEBIXTdbQ0gyXVtDSDJdW0NIMl1PNw==

>  <s_epik_cmdline>  (327) 
J2VwaWtfcHl0aG9uJywgJy1waHQnLCAnMi4wJywgJy1waCcsICc3LjAnLCAnLXRuJywgJzgnLCAnLW1hJywgJzIwMCcsICctaW1hZScsICc8aW5maWxlLm1hZT4nLCAnLW9tYWUnLCAnPG91dGZpbGUubWFlPic=

>  <r_lp_tautomer_probability>  (327) 
1

>  <r_epik_Ionization_Penalty>  (327) 
0.000765824

>  <r_epik_Ionization_Penalty_Charging>  (327) 
0

>  <r_epik_Ionization_Penalty_Neutral>  (327) 
0.000765824

>  <r_epik_State_Penalty>  (327) 
0.000490295

>  <r_epik_Charging_Adjusted_Penalty>  (327) 
0.000490295

>  <i_epik_Tot_Q>  (327) 
0

>  <i_epik_Tot_abs_Q>  (327) 
0

>  <s_lp_Force_Field>  (327) 
OPLS3e

>  <r_lp_Energy>  (327) 
88.6051

>  <b_lp_Chiralities_Consistent>  (327) 
1

>  <s_lp_Variant>  (327) 
93:0-2

>  <s_i_glide_gridfile>  (327) 
pfpi4k_grid

>  <i_i_glide_lignum>  (327) 
4

>  <i_i_glide_rotatable_bonds>  (327) 
6

>  <r_i_docking_score>  (327) 
-2.29738

>  <r_i_glide_ligand_efficiency>  (327) 
-0.0765795

>  <r_i_glide_ligand_efficiency_sa>  (327) 
-0.23795

>  <r_i_glide_ligand_efficiency_ln>  (327) 
-0.521991

>  <r_i_glide_gscore>  (327) 
-2.29738

>  <r_i_glide_lipo>  (327) 
-0.0203929

>  <r_i_glide_hbond>  (327) 
-0.16

>  <r_i_glide_metal>  (327) 
-0

>  <r_i_glide_rewards>  (327) 
-0.596758

>  <r_i_glide_evdw>  (327) 
-20.4606

>  <r_i_glide_ecoul>  (327) 
-5.61198

>  <r_i_glide_erotb>  (327) 
0.347709

>  <r_i_glide_esite>  (327) 
-0.00311541

>  <r_i_glide_emodel>  (327) 
-27.7563

>  <r_i_glide_energy>  (327) 
-26.0726

>  <r_i_glide_einternal>  (327) 
3.90626

>  <r_i_glide_intrahb_reward>  (327) 
-0

>  <i_i_glide_confnum>  (327) 
2

>  <i_i_glide_posenum>  (327) 
17

>  <r_i_glide_eff_state_penalty>  (327) 
0

>  <ligand_id>  (327) 
93

>  <original_smiles>  (327) 
O=C1CCC23C1Oc1c(O)ccc4c1C2(O)C(C4)C1CCC13OCCC1CCCO1

>  <smiles>  (327) 
[H]Oc1c([H])c([H])c2c3c1OC1([H])C(=O)C([H])([H])C([H])([H])C14C3(O[H])C([H])(C2([H])[H])C1([H])C([H])([H])C([H])([H])C14OC([H])([H])C([H])([H])C1([H])OC([H])([H])C([H])([H])C1([H])[H]

$$$$
93:1:2
     RDKit          3D

 58 64  0  0  1  0  0  0  0  0999 V2000
    2.1883    1.3250    1.7280 O   0  0  0  0  0  0  0  0  0  0  0  0
    1.9413    1.0935    2.9103 C   0  0  0  0  0  0  0  0  0  0  0  0
    2.7625    1.6506    4.0455 C   0  0  0  0  0  0  0  0  0  0  0  0
    1.9457    1.2261    5.2784 C   0  0  0  0  0  0  0  0  0  0  0  0
    1.2077   -0.1212    4.8681 C   0  0  2  0  0  0  0  0  0  0  0  0
    0.7826    0.2380    3.3929 C   0  0  1  0  0  0  0  0  0  0  0  0
   -0.4336    1.0725    3.3270 O   0  0  0  0  0  0  0  0  0  0  0  0
   -1.0344    1.4692    4.5012 C   0  0  0  0  0  0  0  0  0  0  0  0
   -1.6563    2.7340    4.7573 C   0  0  0  0  0  0  0  0  0  0  0  0
   -1.8802    3.5744    3.7073 O   0  0  0  0  0  0  0  0  0  0  0  0
   -1.9521    3.1671    6.0832 C   0  0  0  0  0  0  0  0  0  0  0  0
   -1.5552    2.4072    7.2260 C   0  0  0  0  0  0  0  0  0  0  0  0
   -0.9714    1.1472    7.0091 C   0  0  0  0  0  0  0  0  0  0  0  0
   -0.8370    0.7519    5.6975 C   0  0  0  0  0  0  0  0  0  0  0  0
   -0.1168   -0.4904    5.5475 C   0  0  1  0  0  0  0  0  0  0  0  0
   -0.8433   -1.5044    4.8599 O   0  0  0  0  0  0  0  0  0  0  0  0
    0.1806   -1.0468    6.9354 C   0  0  2  0  0  0  0  0  0  0  0  0
   -0.1066    0.1929    7.8421 C   0  0  0  0  0  0  0  0  0  0  0  0
    1.5573   -1.6806    6.7311 C   0  0  2  0  0  0  0  0  0  0  0  0
    2.8881   -1.1873    7.3053 C   0  0  0  0  0  0  0  0  0  0  0  0
    3.4876   -1.2680    5.8916 C   0  0  0  0  0  0  0  0  0  0  0  0
    2.0674   -1.3384    5.2865 C   0  0  2  0  0  0  0  0  0  0  0  0
    1.9010   -2.3247    4.2529 O   0  0  0  0  0  0  0  0  0  0  0  0
    1.9496   -3.7139    4.5483 C   0  0  0  0  0  0  0  0  0  0  0  0
    1.4682   -4.4587    3.2997 C   0  0  0  0  0  0  0  0  0  0  0  0
    1.0460   -5.9057    3.6053 C   0  0  2  0  0  0  0  0  0  0  0  0
    2.2293   -6.8657    3.7178 C   0  0  0  0  0  0  0  0  0  0  0  0
    1.6327   -8.1673    3.2484 C   0  0  0  0  0  0  0  0  0  0  0  0
    0.6526   -7.7108    2.1719 C   0  0  0  0  0  0  0  0  0  0  0  0
    0.2285   -6.4015    2.5436 O   0  0  0  0  0  0  0  0  0  0  0  0
    3.7499    1.1906    4.0307 H   0  0  0  0  0  0  0  0  0  0  0  0
    2.8825    2.7332    3.9850 H   0  0  0  0  0  0  0  0  0  0  0  0
    2.5684    1.1752    6.1616 H   0  0  0  0  0  0  0  0  0  0  0  0
    1.2735    2.0571    5.4871 H   0  0  0  0  0  0  0  0  0  0  0  0
    0.6665   -0.6368    2.7654 H   0  0  0  0  0  0  0  0  0  0  0  0
   -1.4995    3.2624    2.9033 H   0  0  0  0  0  0  0  0  0  0  0  0
   -2.3715    4.1428    6.2326 H   0  0  0  0  0  0  0  0  0  0  0  0
   -1.6318    2.8174    8.2195 H   0  0  0  0  0  0  0  0  0  0  0  0
   -0.2399   -2.1995    4.6689 H   0  0  0  0  0  0  0  0  0  0  0  0
   -0.5593   -1.7995    7.1953 H   0  0  0  0  0  0  0  0  0  0  0  0
    0.8145    0.7130    8.0923 H   0  0  0  0  0  0  0  0  0  0  0  0
   -0.5883   -0.0785    8.7800 H   0  0  0  0  0  0  0  0  0  0  0  0
    1.5409   -2.7434    6.9751 H   0  0  0  0  0  0  0  0  0  0  0  0
    2.8476   -0.1916    7.7426 H   0  0  0  0  0  0  0  0  0  0  0  0
    3.3371   -1.8925    8.0024 H   0  0  0  0  0  0  0  0  0  0  0  0
    4.0867   -0.3977    5.6143 H   0  0  0  0  0  0  0  0  0  0  0  0
    4.0615   -2.1810    5.7420 H   0  0  0  0  0  0  0  0  0  0  0  0
    2.9472   -4.0348    4.8520 H   0  0  0  0  0  0  0  0  0  0  0  0
    1.2470   -3.9733    5.3298 H   0  0  0  0  0  0  0  0  0  0  0  0
    0.6139   -3.9210    2.9050 H   0  0  0  0  0  0  0  0  0  0  0  0
    2.2266   -4.4330    2.5149 H   0  0  0  0  0  0  0  0  0  0  0  0
    0.4378   -5.9693    4.5148 H   0  0  0  0  0  0  0  0  0  0  0  0
    3.0259   -6.5614    3.0334 H   0  0  0  0  0  0  0  0  0  0  0  0
    2.6500   -6.9139    4.7235 H   0  0  0  0  0  0  0  0  0  0  0  0
    2.3844   -8.8606    2.8738 H   0  0  0  0  0  0  0  0  0  0  0  0
    1.0916   -8.6514    4.0643 H   0  0  0  0  0  0  0  0  0  0  0  0
    1.1565   -7.6345    1.2066 H   0  0  0  0  0  0  0  0  0  0  0  0
   -0.1854   -8.3950    2.0579 H   0  0  0  0  0  0  0  0  0  0  0  0
  1  2  2  0
  2  6  1  0
  2  3  1  0
  3  4  1  0
  3 31  1  0
  3 32  1  0
  5  4  1  1
  4 33  1  0
  4 34  1  0
  5 15  1  0
  5 22  1  0
  5  6  1  0
  6  7  1  0
  6 35  1  6
  7  8  1  0
  8 14  2  0
  8  9  1  0
  9 10  1  0
  9 11  2  0
 10 36  1  0
 11 12  1  0
 11 37  1  0
 12 13  2  0
 12 38  1  0
 13 18  1  0
 13 14  1  0
 14 15  1  0
 15 16  1  6
 15 17  1  0
 16 39  1  0
 17 18  1  0
 17 19  1  0
 17 40  1  1
 18 41  1  0
 18 42  1  0
 19 22  1  0
 19 20  1  0
 19 43  1  6
 20 21  1  0
 20 44  1  0
 20 45  1  0
 21 22  1  0
 21 46  1  0
 21 47  1  0
 22 23  1  6
 23 24  1  0
 24 25  1  0
 24 48  1  0
 24 49  1  0
 25 26  1  0
 25 50  1  0
 25 51  1  0
 26 30  1  0
 26 27  1  0
 26 52  1  1
 27 28  1  0
 27 53  1  0
 27 54  1  0
 28 29  1  0
 28 55  1  0
 28 56  1  0
 29 30  1  0
 29 57  1  0
 29 58  1  0
M  END
>  <i_m_ct_stereo_status>  (328) 
1

>  <s_m_source_file>  (328) 
/var/tmp/pbs.5076255.sched01/tmpl4jv_xt6/1264eazgjw7.sdf

>  <i_m_source_file_index>  (328) 
4

>  <i_lp_mmshare_version>  (328) 
48012

>  <i_f3d_flags>  (328) 
0

>  <s_epik_input>  (328) 
W0NIMl0xW0NIMl1DKD1PKVtDQEBIXShDMTIzKU9jNGM1YyhbY0hdW2NIXWM0W09IXSlbQ0gyXVtDQEBIXShbQ0BdMjVbT0hdKVtDQEhdNltDQEBdMyhbQ0gyXVtDSDJdNilPW0NIMl1bQ0gyXVtDQEBIXTdbQ0gyXVtDSDJdW0NIMl1PNw==

>  <s_epik_cmdline>  (328) 
J2VwaWtfcHl0aG9uJywgJy1waHQnLCAnMi4wJywgJy1waCcsICc3LjAnLCAnLXRuJywgJzgnLCAnLW1hJywgJzIwMCcsICctaW1hZScsICc8aW5maWxlLm1hZT4nLCAnLW9tYWUnLCAnPG91dGZpbGUubWFlPic=

>  <r_lp_tautomer_probability>  (328) 
1

>  <r_epik_Ionization_Penalty>  (328) 
0.000765824

>  <r_epik_Ionization_Penalty_Charging>  (328) 
0

>  <r_epik_Ionization_Penalty_Neutral>  (328) 
0.000765824

>  <r_epik_State_Penalty>  (328) 
0.000490295

>  <r_epik_Charging_Adjusted_Penalty>  (328) 
0.000490295

>  <i_epik_Tot_Q>  (328) 
0

>  <i_epik_Tot_abs_Q>  (328) 
0

>  <s_lp_Force_Field>  (328) 
OPLS3e

>  <r_lp_Energy>  (328) 
88.6051

>  <b_lp_Chiralities_Consistent>  (328) 
1

>  <s_lp_Variant>  (328) 
93:0-2

>  <s_i_glide_gridfile>  (328) 
pfpi4k_grid

>  <i_i_glide_lignum>  (328) 
4

>  <i_i_glide_rotatable_bonds>  (328) 
6

>  <r_i_docking_score>  (328) 
-2.06535

>  <r_i_glide_ligand_efficiency>  (328) 
-0.068845

>  <r_i_glide_ligand_efficiency_sa>  (328) 
-0.213917

>  <r_i_glide_ligand_efficiency_ln>  (328) 
-0.46927

>  <r_i_glide_gscore>  (328) 
-2.06535

>  <r_i_glide_lipo>  (328) 
-0.0524032

>  <r_i_glide_hbond>  (328) 
-0.129364

>  <r_i_glide_metal>  (328) 
-0

>  <r_i_glide_rewards>  (328) 
-0.596758

>  <r_i_glide_evdw>  (328) 
-22.1301

>  <r_i_glide_ecoul>  (328) 
-3.47939

>  <r_i_glide_erotb>  (328) 
0.347709

>  <r_i_glide_esite>  (328) 
-0.00612228

>  <r_i_glide_emodel>  (328) 
-27.3807

>  <r_i_glide_energy>  (328) 
-25.6095

>  <r_i_glide_einternal>  (328) 
2.98465

>  <r_i_glide_intrahb_reward>  (328) 
-0

>  <i_i_glide_confnum>  (328) 
2

>  <i_i_glide_posenum>  (328) 
6

>  <r_i_glide_eff_state_penalty>  (328) 
0

>  <ligand_id>  (328) 
93

>  <original_smiles>  (328) 
O=C1CCC23C1Oc1c(O)ccc4c1C2(O)C(C4)C1CCC13OCCC1CCCO1

>  <smiles>  (328) 
[H]Oc1c([H])c([H])c2c3c1OC1([H])C(=O)C([H])([H])C([H])([H])C14C3(O[H])C([H])(C2([H])[H])C1([H])C([H])([H])C([H])([H])C14OC([H])([H])C([H])([H])C1([H])OC([H])([H])C([H])([H])C1([H])[H]

$$$$
94:0:0
     RDKit          3D

 40 42  0  0  1  0  0  0  0  0999 V2000
    0.4715   -5.6906    4.9444 C   0  0  0  0  0  0  0  0  0  0  0  0
    1.3499   -6.6414    4.1238 C   0  0  0  0  0  0  0  0  0  0  0  0
    1.0585   -6.5619    2.6953 N   0  0  0  0  0  0  0  0  0  0  0  0
   -0.1493   -6.9703    2.2248 N   0  0  0  0  0  0  0  0  0  0  0  0
   -0.1343   -6.7923    0.9404 N   0  0  0  0  0  0  0  0  0  0  0  0
    1.0630   -6.2607    0.5343 N   0  0  0  0  0  0  0  0  0  0  0  0
    1.7768   -6.1581    1.6538 C   0  0  0  0  0  0  0  0  0  0  0  0
    3.1698   -5.5849    1.7444 C   0  0  2  0  0  0  0  0  0  0  0  0
    3.1911   -4.1718    1.1698 C   0  0  0  0  0  0  0  0  0  0  0  0
    4.5339   -3.5786    1.1333 N   0  0  0  0  0  0  0  0  0  0  0  0
    4.5907   -2.2226    0.5268 C   0  0  2  0  0  0  0  0  0  0  0  0
    3.6588   -1.1955    1.2032 C   0  0  0  0  0  0  0  0  0  0  0  0
    4.3894   -2.2112   -0.9662 C   0  0  0  0  0  0  0  0  0  0  0  0
    5.2533   -1.8167   -1.9146 N   0  0  0  0  0  0  0  0  0  0  0  0
    4.6318   -2.1071   -3.1152 N   0  0  0  0  0  0  0  0  0  0  0  0
    3.4393   -2.6229   -2.7918 C   0  0  0  0  0  0  0  0  0  0  0  0
    2.3822   -3.1367   -3.6901 C   0  0  0  0  0  0  0  0  0  0  0  0
    3.2167   -2.6667   -1.4657 O   0  0  0  0  0  0  0  0  0  0  0  0
    5.4739   -4.5157    0.4972 C   0  0  0  0  0  0  0  0  0  0  0  0
    5.3939   -5.9436    1.0665 C   0  0  0  0  0  0  0  0  0  0  0  0
    4.0494   -6.4150    0.9958 O   0  0  0  0  0  0  0  0  0  0  0  0
    0.7465   -5.7503    5.9997 H   0  0  0  0  0  0  0  0  0  0  0  0
   -0.5871   -5.9448    4.8663 H   0  0  0  0  0  0  0  0  0  0  0  0
    0.5970   -4.6524    4.6328 H   0  0  0  0  0  0  0  0  0  0  0  0
    2.3955   -6.4099    4.3216 H   0  0  0  0  0  0  0  0  0  0  0  0
    1.2002   -7.6746    4.4379 H   0  0  0  0  0  0  0  0  0  0  0  0
    3.5129   -5.5290    2.7703 H   0  0  0  0  0  0  0  0  0  0  0  0
    2.7737   -4.2614    0.1716 H   0  0  0  0  0  0  0  0  0  0  0  0
    2.5228   -3.5617    1.7797 H   0  0  0  0  0  0  0  0  0  0  0  0
    5.6047   -1.8487    0.6870 H   0  0  0  0  0  0  0  0  0  0  0  0
    3.7433   -0.2227    0.7188 H   0  0  0  0  0  0  0  0  0  0  0  0
    3.8890   -1.0726    2.2635 H   0  0  0  0  0  0  0  0  0  0  0  0
    2.6082   -1.4764    1.1164 H   0  0  0  0  0  0  0  0  0  0  0  0
    2.6459   -2.9394   -4.7228 H   0  0  0  0  0  0  0  0  0  0  0  0
    1.4431   -2.6526   -3.4474 H   0  0  0  0  0  0  0  0  0  0  0  0
    2.2506   -4.2067   -3.5549 H   0  0  0  0  0  0  0  0  0  0  0  0
    5.2599   -4.6049   -0.5685 H   0  0  0  0  0  0  0  0  0  0  0  0
    6.4989   -4.1489    0.5814 H   0  0  0  0  0  0  0  0  0  0  0  0
    6.0244   -6.6156    0.4805 H   0  0  0  0  0  0  0  0  0  0  0  0
    5.7498   -5.9745    2.0990 H   0  0  0  0  0  0  0  0  0  0  0  0
  1  2  1  0
  1 22  1  0
  1 23  1  0
  1 24  1  0
  2  3  1  0
  2 25  1  0
  2 26  1  0
  3  7  1  0
  3  4  1  0
  4  5  2  0
  5  6  1  0
  6  7  2  0
  7  8  1  0
  8 21  1  0
  8  9  1  0
  8 27  1  1
  9 10  1  0
  9 28  1  0
  9 29  1  0
 10 11  1  0
 10 19  1  0
 11 12  1  0
 11 13  1  0
 11 30  1  6
 12 31  1  0
 12 32  1  0
 12 33  1  0
 13 18  1  0
 13 14  2  0
 14 15  1  0
 15 16  2  0
 16 17  1  0
 16 18  1  0
 17 34  1  0
 17 35  1  0
 17 36  1  0
 19 20  1  0
 19 37  1  0
 19 38  1  0
 20 21  1  0
 20 39  1  0
 20 40  1  0
M  END
>  <i_m_ct_stereo_status>  (329) 
1

>  <s_m_source_file>  (329) 
/var/tmp/pbs.5076255.sched01/tmpl4jv_xt6/1264eazgjw7.sdf

>  <i_m_source_file_index>  (329) 
5

>  <i_lp_mmshare_version>  (329) 
48012

>  <i_f3d_flags>  (329) 
0

>  <s_epik_input>  (329) 
W0NIM11bQ0gyXW4xbm5uYzFbQ0BASF0yW0NIMl1OKFtDSDJdW0NIMl1PMilbQ0BIXShbQ0gzXSljM25uYyhvMylbQ0gzXQ==

>  <s_epik_cmdline>  (329) 
J2VwaWtfcHl0aG9uJywgJy1waHQnLCAnMi4wJywgJy1waCcsICc3LjAnLCAnLXRuJywgJzgnLCAnLW1hJywgJzIwMCcsICctaW1hZScsICc8aW5maWxlLm1hZT4nLCAnLW9tYWUnLCAnPG91dGZpbGUubWFlPic=

>  <r_lp_tautomer_probability>  (329) 
1

>  <r_epik_Ionization_Penalty>  (329) 
0.0473384

>  <r_epik_Ionization_Penalty_Charging>  (329) 
0

>  <r_epik_Ionization_Penalty_Neutral>  (329) 
0.0473384

>  <r_epik_State_Penalty>  (329) 
0.0403065

>  <r_epik_Charging_Adjusted_Penalty>  (329) 
0.0403065

>  <i_epik_Tot_Q>  (329) 
0

>  <i_epik_Tot_abs_Q>  (329) 
0

>  <s_lp_Force_Field>  (329) 
OPLS3e

>  <r_lp_Energy>  (329) 
13.1747

>  <b_lp_Chiralities_Consistent>  (329) 
1

>  <s_lp_Variant>  (329) 
94:0-1

>  <s_i_glide_gridfile>  (329) 
pfpi4k_grid

>  <i_i_glide_lignum>  (329) 
5

>  <i_i_glide_rotatable_bonds>  (329) 
4

>  <r_i_docking_score>  (329) 
-3.77902

>  <r_i_glide_ligand_efficiency>  (329) 
-0.179953

>  <r_i_glide_ligand_efficiency_sa>  (329) 
-0.496477

>  <r_i_glide_ligand_efficiency_ln>  (329) 
-0.934354

>  <r_i_glide_gscore>  (329) 
-3.77902

>  <r_i_glide_lipo>  (329) 
-0.388072

>  <r_i_glide_hbond>  (329) 
0

>  <r_i_glide_metal>  (329) 
-0

>  <r_i_glide_rewards>  (329) 
-1.40915

>  <r_i_glide_evdw>  (329) 
-26.045

>  <r_i_glide_ecoul>  (329) 
-6.02272

>  <r_i_glide_erotb>  (329) 
0.637069

>  <r_i_glide_esite>  (329) 
-0.413208

>  <r_i_glide_emodel>  (329) 
-37.0012

>  <r_i_glide_energy>  (329) 
-32.0677

>  <r_i_glide_einternal>  (329) 
5.55817

>  <r_i_glide_intrahb_reward>  (329) 
-0

>  <i_i_glide_confnum>  (329) 
4

>  <i_i_glide_posenum>  (329) 
3

>  <r_i_glide_eff_state_penalty>  (329) 
0

>  <ligand_id>  (329) 
94

>  <original_smiles>  (329) 
CCn1nnnc1C1CN(C(C)c2nnc(C)o2)CCO1

>  <smiles>  (329) 
[H]C([H])([H])c1nnc(C([H])(N2C([H])([H])C([H])([H])OC([H])(c3nnnn3C([H])([H])C([H])([H])[H])C2([H])[H])C([H])([H])[H])o1

$$$$
94:0:1
     RDKit          3D

 40 42  0  0  1  0  0  0  0  0999 V2000
    3.7441   -2.8633   -3.9227 C   0  0  0  0  0  0  0  0  0  0  0  0
    3.1485   -2.4076   -2.5863 C   0  0  0  0  0  0  0  0  0  0  0  0
    4.1981   -2.1958   -1.6027 N   0  0  0  0  0  0  0  0  0  0  0  0
    4.9365   -1.0577   -1.6215 N   0  0  0  0  0  0  0  0  0  0  0  0
    5.7800   -1.1428   -0.6305 N   0  0  0  0  0  0  0  0  0  0  0  0
    5.6542   -2.3485    0.0322 N   0  0  0  0  0  0  0  0  0  0  0  0
    4.6591   -2.9547   -0.6015 C   0  0  0  0  0  0  0  0  0  0  0  0
    4.0992   -4.2994   -0.2401 C   0  0  2  0  0  0  0  0  0  0  0  0
    3.1887   -4.2270    1.0039 C   0  0  0  0  0  0  0  0  0  0  0  0
    2.7007   -5.5498    1.3949 N   0  0  0  0  0  0  0  0  0  0  0  0
    1.8247   -5.5268    2.5804 C   0  0  2  0  0  0  0  0  0  0  0  0
    2.5429   -5.3577    3.9404 C   0  0  0  0  0  0  0  0  0  0  0  0
    0.9008   -6.7045    2.6107 C   0  0  0  0  0  0  0  0  0  0  0  0
   -0.4110   -6.6954    2.3678 N   0  0  0  0  0  0  0  0  0  0  0  0
   -0.8356   -7.9937    2.5477 N   0  0  0  0  0  0  0  0  0  0  0  0
    0.2560   -8.6822    2.8895 C   0  0  0  0  0  0  0  0  0  0  0  0
    0.3738  -10.1297    3.1997 C   0  0  0  0  0  0  0  0  0  0  0  0
    1.3780   -7.9265    2.9514 O   0  0  0  0  0  0  0  0  0  0  0  0
    3.8339   -6.4675    1.5354 C   0  0  0  0  0  0  0  0  0  0  0  0
    4.7345   -6.5077    0.3005 C   0  0  0  0  0  0  0  0  0  0  0  0
    5.1879   -5.1925    0.0031 O   0  0  0  0  0  0  0  0  0  0  0  0
    2.9578   -3.0541   -4.6576 H   0  0  0  0  0  0  0  0  0  0  0  0
    4.3208   -3.7813   -3.7997 H   0  0  0  0  0  0  0  0  0  0  0  0
    4.4098   -2.0972   -4.3237 H   0  0  0  0  0  0  0  0  0  0  0  0
    2.6051   -1.4716   -2.7099 H   0  0  0  0  0  0  0  0  0  0  0  0
    2.4242   -3.1379   -2.2197 H   0  0  0  0  0  0  0  0  0  0  0  0
    3.5415   -4.6585   -1.0981 H   0  0  0  0  0  0  0  0  0  0  0  0
    3.7411   -3.7672    1.8249 H   0  0  0  0  0  0  0  0  0  0  0  0
    2.3446   -3.5673    0.7853 H   0  0  0  0  0  0  0  0  0  0  0  0
    1.1618   -4.6658    2.4808 H   0  0  0  0  0  0  0  0  0  0  0  0
    1.8260   -5.3272    4.7630 H   0  0  0  0  0  0  0  0  0  0  0  0
    3.1283   -4.4390    3.9745 H   0  0  0  0  0  0  0  0  0  0  0  0
    3.2194   -6.1905    4.1452 H   0  0  0  0  0  0  0  0  0  0  0  0
   -0.5965  -10.6163    3.1616 H   0  0  0  0  0  0  0  0  0  0  0  0
    0.7866  -10.2631    4.1992 H   0  0  0  0  0  0  0  0  0  0  0  0
    1.0351  -10.6119    2.4803 H   0  0  0  0  0  0  0  0  0  0  0  0
    4.4708   -6.1589    2.3652 H   0  0  0  0  0  0  0  0  0  0  0  0
    3.4896   -7.4778    1.7464 H   0  0  0  0  0  0  0  0  0  0  0  0
    5.6021   -7.1243    0.5275 H   0  0  0  0  0  0  0  0  0  0  0  0
    4.2197   -6.9498   -0.5552 H   0  0  0  0  0  0  0  0  0  0  0  0
  1  2  1  0
  1 22  1  0
  1 23  1  0
  1 24  1  0
  2  3  1  0
  2 25  1  0
  2 26  1  0
  3  7  1  0
  3  4  1  0
  4  5  2  0
  5  6  1  0
  6  7  2  0
  7  8  1  0
  8 21  1  0
  8  9  1  0
  8 27  1  6
  9 10  1  0
  9 28  1  0
  9 29  1  0
 10 11  1  0
 10 19  1  0
 11 12  1  0
 11 13  1  0
 11 30  1  6
 12 31  1  0
 12 32  1  0
 12 33  1  0
 13 18  1  0
 13 14  2  0
 14 15  1  0
 15 16  2  0
 16 17  1  0
 16 18  1  0
 17 34  1  0
 17 35  1  0
 17 36  1  0
 19 20  1  0
 19 37  1  0
 19 38  1  0
 20 21  1  0
 20 39  1  0
 20 40  1  0
M  END
>  <i_m_ct_stereo_status>  (330) 
1

>  <s_m_source_file>  (330) 
/var/tmp/pbs.5076255.sched01/tmpl4jv_xt6/1264eazgjw7.sdf

>  <i_m_source_file_index>  (330) 
5

>  <i_lp_mmshare_version>  (330) 
48012

>  <i_f3d_flags>  (330) 
0

>  <s_epik_input>  (330) 
W0NIM11bQ0gyXW4xbm5uYzFbQ0BASF0yW0NIMl1OKFtDSDJdW0NIMl1PMilbQ0BIXShbQ0gzXSljM25uYyhvMylbQ0gzXQ==

>  <s_epik_cmdline>  (330) 
J2VwaWtfcHl0aG9uJywgJy1waHQnLCAnMi4wJywgJy1waCcsICc3LjAnLCAnLXRuJywgJzgnLCAnLW1hJywgJzIwMCcsICctaW1hZScsICc8aW5maWxlLm1hZT4nLCAnLW9tYWUnLCAnPG91dGZpbGUubWFlPic=

>  <r_lp_tautomer_probability>  (330) 
1

>  <r_epik_Ionization_Penalty>  (330) 
0.0473384

>  <r_epik_Ionization_Penalty_Charging>  (330) 
0

>  <r_epik_Ionization_Penalty_Neutral>  (330) 
0.0473384

>  <r_epik_State_Penalty>  (330) 
0.0403065

>  <r_epik_Charging_Adjusted_Penalty>  (330) 
0.0403065

>  <i_epik_Tot_Q>  (330) 
0

>  <i_epik_Tot_abs_Q>  (330) 
0

>  <s_lp_Force_Field>  (330) 
OPLS3e

>  <r_lp_Energy>  (330) 
13.1747

>  <b_lp_Chiralities_Consistent>  (330) 
1

>  <s_lp_Variant>  (330) 
94:0-1

>  <s_i_glide_gridfile>  (330) 
pfpi4k_grid

>  <i_i_glide_lignum>  (330) 
5

>  <i_i_glide_rotatable_bonds>  (330) 
4

>  <r_i_docking_score>  (330) 
-3.56283

>  <r_i_glide_ligand_efficiency>  (330) 
-0.169659

>  <r_i_glide_ligand_efficiency_sa>  (330) 
-0.468075

>  <r_i_glide_ligand_efficiency_ln>  (330) 
-0.880903

>  <r_i_glide_gscore>  (330) 
-3.56283

>  <r_i_glide_lipo>  (330) 
-0.25307

>  <r_i_glide_hbond>  (330) 
0

>  <r_i_glide_metal>  (330) 
-0

>  <r_i_glide_rewards>  (330) 
-1.42155

>  <r_i_glide_evdw>  (330) 
-26.0785

>  <r_i_glide_ecoul>  (330) 
-6.1039

>  <r_i_glide_erotb>  (330) 
0.637069

>  <r_i_glide_esite>  (330) 
-0.305767

>  <r_i_glide_emodel>  (330) 
-36.6614

>  <r_i_glide_energy>  (330) 
-32.1824

>  <r_i_glide_einternal>  (330) 
6.17528

>  <r_i_glide_intrahb_reward>  (330) 
-0

>  <i_i_glide_confnum>  (330) 
3

>  <i_i_glide_posenum>  (330) 
15

>  <r_i_glide_eff_state_penalty>  (330) 
0

>  <ligand_id>  (330) 
94

>  <original_smiles>  (330) 
CCn1nnnc1C1CN(C(C)c2nnc(C)o2)CCO1

>  <smiles>  (330) 
[H]C([H])([H])c1nnc(C([H])(N2C([H])([H])C([H])([H])OC([H])(c3nnnn3C([H])([H])C([H])([H])[H])C2([H])[H])C([H])([H])[H])o1

$$$$
94:0:2
     RDKit          3D

 40 42  0  0  1  0  0  0  0  0999 V2000
    0.9046   -3.7330    4.2584 C   0  0  0  0  0  0  0  0  0  0  0  0
    1.5333   -3.9253    5.6534 C   0  0  0  0  0  0  0  0  0  0  0  0
    0.5544   -4.2940    6.6663 N   0  0  0  0  0  0  0  0  0  0  0  0
   -0.1956   -3.3396    7.2763 N   0  0  0  0  0  0  0  0  0  0  0  0
   -0.9831   -3.9570    8.1111 N   0  0  0  0  0  0  0  0  0  0  0  0
   -0.7745   -5.3215    8.0741 N   0  0  0  0  0  0  0  0  0  0  0  0
    0.1938   -5.4796    7.1785 C   0  0  0  0  0  0  0  0  0  0  0  0
    0.7765   -6.7982    6.7265 C   0  0  2  0  0  0  0  0  0  0  0  0
    0.2441   -7.2283    5.3442 C   0  0  0  0  0  0  0  0  0  0  0  0
    0.7677   -8.5189    4.9035 N   0  0  0  0  0  0  0  0  0  0  0  0
    0.2590   -8.8857    3.5632 C   0  0  2  0  0  0  0  0  0  0  0  0
    0.7022  -10.2805    3.0810 C   0  0  0  0  0  0  0  0  0  0  0  0
    0.6361   -7.8594    2.5209 C   0  0  0  0  0  0  0  0  0  0  0  0
   -0.1829   -7.0607    1.8249 N   0  0  0  0  0  0  0  0  0  0  0  0
    0.6301   -6.2905    1.0210 N   0  0  0  0  0  0  0  0  0  0  0  0
    1.8773   -6.6876    1.2869 C   0  0  0  0  0  0  0  0  0  0  0  0
    3.1372   -6.1810    0.6768 C   0  0  0  0  0  0  0  0  0  0  0  0
    1.9500   -7.6623    2.2262 O   0  0  0  0  0  0  0  0  0  0  0  0
    0.4567   -9.5059    5.9374 C   0  0  0  0  0  0  0  0  0  0  0  0
    0.9645   -9.0776    7.3241 C   0  0  0  0  0  0  0  0  0  0  0  0
    0.4353   -7.8020    7.6840 O   0  0  0  0  0  0  0  0  0  0  0  0
    1.6782   -3.4832    3.5281 H   0  0  0  0  0  0  0  0  0  0  0  0
    0.1658   -2.9300    4.2561 H   0  0  0  0  0  0  0  0  0  0  0  0
    0.4004   -4.6210    3.8823 H   0  0  0  0  0  0  0  0  0  0  0  0
    2.3209   -4.6809    5.6228 H   0  0  0  0  0  0  0  0  0  0  0  0
    2.0115   -2.9972    5.9686 H   0  0  0  0  0  0  0  0  0  0  0  0
    1.8613   -6.6958    6.6936 H   0  0  0  0  0  0  0  0  0  0  0  0
   -0.8489   -7.2532    5.3469 H   0  0  0  0  0  0  0  0  0  0  0  0
    0.5520   -6.4775    4.6250 H   0  0  0  0  0  0  0  0  0  0  0  0
   -0.8327   -8.8996    3.6007 H   0  0  0  0  0  0  0  0  0  0  0  0
    0.3432  -10.4717    2.0712 H   0  0  0  0  0  0  0  0  0  0  0  0
    0.2995  -11.0785    3.7049 H   0  0  0  0  0  0  0  0  0  0  0  0
    1.7897  -10.3660    3.0751 H   0  0  0  0  0  0  0  0  0  0  0  0
    2.9147   -5.4435   -0.0957 H   0  0  0  0  0  0  0  0  0  0  0  0
    3.6985   -7.0009    0.2265 H   0  0  0  0  0  0  0  0  0  0  0  0
    3.7606   -5.7173    1.4413 H   0  0  0  0  0  0  0  0  0  0  0  0
   -0.6182   -9.6604    5.9862 H   0  0  0  0  0  0  0  0  0  0  0  0
    0.9123  -10.4696    5.7084 H   0  0  0  0  0  0  0  0  0  0  0  0
    0.6618   -9.8125    8.0684 H   0  0  0  0  0  0  0  0  0  0  0  0
    2.0549   -9.0437    7.3305 H   0  0  0  0  0  0  0  0  0  0  0  0
  1  2  1  0
  1 22  1  0
  1 23  1  0
  1 24  1  0
  2  3  1  0
  2 25  1  0
  2 26  1  0
  3  7  1  0
  3  4  1  0
  4  5  2  0
  5  6  1  0
  6  7  2  0
  7  8  1  0
  8 21  1  0
  8  9  1  0
  8 27  1  6
  9 10  1  0
  9 28  1  0
  9 29  1  0
 10 11  1  0
 10 19  1  0
 11 12  1  0
 11 13  1  0
 11 30  1  1
 12 31  1  0
 12 32  1  0
 12 33  1  0
 13 18  1  0
 13 14  2  0
 14 15  1  0
 15 16  2  0
 16 17  1  0
 16 18  1  0
 17 34  1  0
 17 35  1  0
 17 36  1  0
 19 20  1  0
 19 37  1  0
 19 38  1  0
 20 21  1  0
 20 39  1  0
 20 40  1  0
M  END
>  <i_m_ct_stereo_status>  (331) 
1

>  <s_m_source_file>  (331) 
/var/tmp/pbs.5076255.sched01/tmpl4jv_xt6/1264eazgjw7.sdf

>  <i_m_source_file_index>  (331) 
5

>  <i_lp_mmshare_version>  (331) 
48012

>  <i_f3d_flags>  (331) 
0

>  <s_epik_input>  (331) 
W0NIM11bQ0gyXW4xbm5uYzFbQ0BASF0yW0NIMl1OKFtDSDJdW0NIMl1PMilbQ0BIXShbQ0gzXSljM25uYyhvMylbQ0gzXQ==

>  <s_epik_cmdline>  (331) 
J2VwaWtfcHl0aG9uJywgJy1waHQnLCAnMi4wJywgJy1waCcsICc3LjAnLCAnLXRuJywgJzgnLCAnLW1hJywgJzIwMCcsICctaW1hZScsICc8aW5maWxlLm1hZT4nLCAnLW9tYWUnLCAnPG91dGZpbGUubWFlPic=

>  <r_lp_tautomer_probability>  (331) 
1

>  <r_epik_Ionization_Penalty>  (331) 
0.0473384

>  <r_epik_Ionization_Penalty_Charging>  (331) 
0

>  <r_epik_Ionization_Penalty_Neutral>  (331) 
0.0473384

>  <r_epik_State_Penalty>  (331) 
0.0403065

>  <r_epik_Charging_Adjusted_Penalty>  (331) 
0.0403065

>  <i_epik_Tot_Q>  (331) 
0

>  <i_epik_Tot_abs_Q>  (331) 
0

>  <s_lp_Force_Field>  (331) 
OPLS3e

>  <r_lp_Energy>  (331) 
13.1747

>  <b_lp_Chiralities_Consistent>  (331) 
1

>  <s_lp_Variant>  (331) 
94:0-1

>  <s_i_glide_gridfile>  (331) 
pfpi4k_grid

>  <i_i_glide_lignum>  (331) 
5

>  <i_i_glide_rotatable_bonds>  (331) 
4

>  <r_i_docking_score>  (331) 
-3.45126

>  <r_i_glide_ligand_efficiency>  (331) 
-0.164346

>  <r_i_glide_ligand_efficiency_sa>  (331) 
-0.453417

>  <r_i_glide_ligand_efficiency_ln>  (331) 
-0.853316

>  <r_i_glide_gscore>  (331) 
-3.45126

>  <r_i_glide_lipo>  (331) 
-0.0938873

>  <r_i_glide_hbond>  (331) 
0

>  <r_i_glide_metal>  (331) 
-0

>  <r_i_glide_rewards>  (331) 
-1.40915

>  <r_i_glide_evdw>  (331) 
-20.7783

>  <r_i_glide_ecoul>  (331) 
-8.39633

>  <r_i_glide_erotb>  (331) 
0.637069

>  <r_i_glide_esite>  (331) 
-0.286924

>  <r_i_glide_emodel>  (331) 
-36.2251

>  <r_i_glide_energy>  (331) 
-29.1747

>  <r_i_glide_einternal>  (331) 
0.652406

>  <r_i_glide_intrahb_reward>  (331) 
-0

>  <i_i_glide_confnum>  (331) 
1

>  <i_i_glide_posenum>  (331) 
19

>  <r_i_glide_eff_state_penalty>  (331) 
0

>  <ligand_id>  (331) 
94

>  <original_smiles>  (331) 
CCn1nnnc1C1CN(C(C)c2nnc(C)o2)CCO1

>  <smiles>  (331) 
[H]C([H])([H])c1nnc(C([H])(N2C([H])([H])C([H])([H])OC([H])(c3nnnn3C([H])([H])C([H])([H])[H])C2([H])[H])C([H])([H])[H])o1

$$$$
94:1:0
     RDKit          3D

 41 43  0  0  1  0  0  0  0  0999 V2000
    1.0964   -5.2552    4.8201 C   0  0  0  0  0  0  0  0  0  0  0  0
    2.0234   -6.2053    4.0526 C   0  0  0  0  0  0  0  0  0  0  0  0
    1.7045   -6.2047    2.6228 N   0  0  0  0  0  0  0  0  0  0  0  0
    0.6919   -7.0094    2.2017 N   0  0  0  0  0  0  0  0  0  0  0  0
    0.5475   -6.8081    0.9263 N   0  0  0  0  0  0  0  0  0  0  0  0
    1.4366   -5.8621    0.4772 N   0  0  0  0  0  0  0  0  0  0  0  0
    2.1366   -5.5280    1.5603 C   0  0  0  0  0  0  0  0  0  0  0  0
    3.1636   -4.4321    1.5551 C   0  0  2  0  0  0  0  0  0  0  0  0
    3.9958   -4.4411    0.2599 C   0  0  0  0  0  0  0  0  0  0  0  0
    5.1230   -3.4649    0.3146 N   0  0  2  0  0  0  0  0  0  0  0  0
    5.9573   -3.4821   -0.9258 C   0  0  2  0  0  0  0  0  0  0  0  0
    7.2746   -2.7011   -0.8095 C   0  0  0  0  0  0  0  0  0  0  0  0
    5.0797   -2.9316   -2.0171 C   0  0  0  0  0  0  0  0  0  0  0  0
    4.9049   -3.4617   -3.2294 N   0  0  0  0  0  0  0  0  0  0  0  0
    4.0895   -2.5899   -3.9072 N   0  0  0  0  0  0  0  0  0  0  0  0
    3.8581   -1.5818   -3.0628 C   0  0  0  0  0  0  0  0  0  0  0  0
    3.0677   -0.3564   -3.3405 C   0  0  0  0  0  0  0  0  0  0  0  0
    4.4621   -1.7306   -1.8537 O   0  0  0  0  0  0  0  0  0  0  0  0
    5.9259   -3.6939    1.5522 C   0  0  0  0  0  0  0  0  0  0  0  0
    5.0466   -3.6890    2.7930 C   0  0  0  0  0  0  0  0  0  0  0  0
    4.0569   -4.6805    2.6258 O   0  0  0  0  0  0  0  0  0  0  0  0
    1.4111   -5.1858    5.8621 H   0  0  0  0  0  0  0  0  0  0  0  0
    0.0606   -5.6053    4.7990 H   0  0  0  0  0  0  0  0  0  0  0  0
    1.1188   -4.2472    4.4008 H   0  0  0  0  0  0  0  0  0  0  0  0
    3.0555   -5.9238    4.2492 H   0  0  0  0  0  0  0  0  0  0  0  0
    1.9379   -7.2276    4.4308 H   0  0  0  0  0  0  0  0  0  0  0  0
    2.6583   -3.4707    1.6847 H   0  0  0  0  0  0  0  0  0  0  0  0
    4.3938   -5.4462    0.1149 H   0  0  0  0  0  0  0  0  0  0  0  0
    3.3358   -4.2443   -0.5910 H   0  0  0  0  0  0  0  0  0  0  0  0
    6.1837   -4.5219   -1.1526 H   0  0  0  0  0  0  0  0  0  0  0  0
    7.7884   -2.6440   -1.7667 H   0  0  0  0  0  0  0  0  0  0  0  0
    7.9645   -3.1810   -0.1178 H   0  0  0  0  0  0  0  0  0  0  0  0
    7.0784   -1.6972   -0.4431 H   0  0  0  0  0  0  0  0  0  0  0  0
    2.6488   -0.3944   -4.3466 H   0  0  0  0  0  0  0  0  0  0  0  0
    3.7049    0.5230   -3.2544 H   0  0  0  0  0  0  0  0  0  0  0  0
    2.2496   -0.2787   -2.6276 H   0  0  0  0  0  0  0  0  0  0  0  0
    6.4312   -4.6565    1.4731 H   0  0  0  0  0  0  0  0  0  0  0  0
    6.6868   -2.9320    1.7156 H   0  0  0  0  0  0  0  0  0  0  0  0
    5.6515   -3.9511    3.6597 H   0  0  0  0  0  0  0  0  0  0  0  0
    4.6272   -2.7001    2.9847 H   0  0  0  0  0  0  0  0  0  0  0  0
    4.7110   -2.5432    0.3851 H   0  0  0  0  0  0  0  0  0  0  0  0
  1  2  1  0
  1 22  1  0
  1 23  1  0
  1 24  1  0
  2  3  1  0
  2 25  1  0
  2 26  1  0
  3  7  1  0
  3  4  1  0
  4  5  2  0
  5  6  1  0
  6  7  2  0
  7  8  1  0
  8 21  1  0
  8  9  1  0
  8 27  1  1
  9 10  1  0
  9 28  1  0
  9 29  1  0
 10 11  1  0
 10 19  1  0
 10 41  1  1
 11 12  1  0
 11 13  1  0
 11 30  1  6
 12 31  1  0
 12 32  1  0
 12 33  1  0
 13 18  1  0
 13 14  2  0
 14 15  1  0
 15 16  2  0
 16 17  1  0
 16 18  1  0
 17 34  1  0
 17 35  1  0
 17 36  1  0
 19 20  1  0
 19 37  1  0
 19 38  1  0
 20 21  1  0
 20 39  1  0
 20 40  1  0
M  CHG  1  10   1
M  END
>  <i_m_ct_stereo_status>  (332) 
1

>  <s_m_source_file>  (332) 
/var/tmp/pbs.5076255.sched01/tmpl4jv_xt6/1264eazgjw7.sdf

>  <i_m_source_file_index>  (332) 
6

>  <i_lp_mmshare_version>  (332) 
48012

>  <i_f3d_flags>  (332) 
0

>  <s_epik_input>  (332) 
W0NIM11bQ0gyXW4xbm5uYzFbQ0BASF0yW0NIMl1OKFtDSDJdW0NIMl1PMilbQ0BIXShbQ0gzXSljM25uYyhvMylbQ0gzXQ==

>  <s_epik_cmdline>  (332) 
J2VwaWtfcHl0aG9uJywgJy1waHQnLCAnMi4wJywgJy1waCcsICc3LjAnLCAnLXRuJywgJzgnLCAnLW1hJywgJzIwMCcsICctaW1hZScsICc8aW5maWxlLm1hZT4nLCAnLW9tYWUnLCAnPG91dGZpbGUubWFlPic=

>  <r_lp_tautomer_probability>  (332) 
1

>  <r_epik_Ionization_Penalty>  (332) 
1.52073

>  <r_epik_Ionization_Penalty_Charging>  (332) 
1.52073

>  <r_epik_Ionization_Penalty_Neutral>  (332) 
1.09635e-11

>  <r_epik_State_Penalty>  (332) 
1.61253

>  <r_epik_Charging_Adjusted_Penalty>  (332) 
3.13326

>  <i_epik_Tot_Q>  (332) 
1

>  <i_epik_Tot_abs_Q>  (332) 
1

>  <s_lp_Force_Field>  (332) 
OPLS3e

>  <r_lp_Energy>  (332) 
16.1428

>  <b_lp_Chiralities_Consistent>  (332) 
1

>  <s_lp_Variant>  (332) 
94:0-2

>  <s_i_glide_gridfile>  (332) 
pfpi4k_grid

>  <i_i_glide_lignum>  (332) 
6

>  <i_i_glide_rotatable_bonds>  (332) 
4

>  <r_i_docking_score>  (332) 
-3.78328

>  <r_i_glide_ligand_efficiency>  (332) 
-0.180156

>  <r_i_glide_ligand_efficiency_sa>  (332) 
-0.497038

>  <r_i_glide_ligand_efficiency_ln>  (332) 
-0.935409

>  <r_i_glide_gscore>  (332) 
-3.78328

>  <r_i_glide_lipo>  (332) 
-0.453525

>  <r_i_glide_hbond>  (332) 
0

>  <r_i_glide_metal>  (332) 
-0

>  <r_i_glide_rewards>  (332) 
-1.40228

>  <r_i_glide_evdw>  (332) 
-25.7819

>  <r_i_glide_ecoul>  (332) 
-6.35882

>  <r_i_glide_erotb>  (332) 
0.633265

>  <r_i_glide_esite>  (332) 
-0.317829

>  <r_i_glide_emodel>  (332) 
-39.8518

>  <r_i_glide_energy>  (332) 
-32.1407

>  <r_i_glide_einternal>  (332) 
2.99526

>  <r_i_glide_intrahb_reward>  (332) 
-0

>  <i_i_glide_confnum>  (332) 
3

>  <i_i_glide_posenum>  (332) 
23

>  <r_i_glide_eff_state_penalty>  (332) 
0

>  <ligand_id>  (332) 
94

>  <original_smiles>  (332) 
CCn1nnnc1C1CN(C(C)c2nnc(C)o2)CCO1

>  <smiles>  (332) 
[H]C([H])([H])c1nnc(C([H])(C([H])([H])[H])[N+]2([H])C([H])([H])C([H])([H])OC([H])(c3nnnn3C([H])([H])C([H])([H])[H])C2([H])[H])o1

$$$$
94:1:1
     RDKit          3D

 41 43  0  0  1  0  0  0  0  0999 V2000
    4.7247   -8.6000    1.0252 C   0  0  0  0  0  0  0  0  0  0  0  0
    4.1888   -7.6738    2.1253 C   0  0  0  0  0  0  0  0  0  0  0  0
    2.8798   -7.1200    1.7997 N   0  0  0  0  0  0  0  0  0  0  0  0
    1.8001   -7.9355    1.7007 N   0  0  0  0  0  0  0  0  0  0  0  0
    0.7868   -7.1930    1.3775 N   0  0  0  0  0  0  0  0  0  0  0  0
    1.1575   -5.8716    1.2745 N   0  0  0  0  0  0  0  0  0  0  0  0
    2.4487   -5.8707    1.5604 C   0  0  0  0  0  0  0  0  0  0  0  0
    3.3118   -4.6428    1.5427 C   0  0  2  0  0  0  0  0  0  0  0  0
    4.1345   -4.5562    0.2415 C   0  0  0  0  0  0  0  0  0  0  0  0
    5.0854   -3.4082    0.2686 N   0  0  2  0  0  0  0  0  0  0  0  0
    5.9178   -3.3219   -0.9727 C   0  0  2  0  0  0  0  0  0  0  0  0
    7.1740   -2.4401   -0.8482 C   0  0  0  0  0  0  0  0  0  0  0  0
    5.0005   -2.8297   -2.0554 C   0  0  0  0  0  0  0  0  0  0  0  0
    4.7498   -3.4352   -3.2170 N   0  0  0  0  0  0  0  0  0  0  0  0
    3.9383   -2.5811   -3.9202 N   0  0  0  0  0  0  0  0  0  0  0  0
    3.7822   -1.5115   -3.1440 C   0  0  0  0  0  0  0  0  0  0  0  0
    3.0259   -0.2730   -3.4635 C   0  0  0  0  0  0  0  0  0  0  0  0
    4.4305   -1.5990   -1.9490 O   0  0  0  0  0  0  0  0  0  0  0  0
    5.8984   -3.4864    1.5165 C   0  0  0  0  0  0  0  0  0  0  0  0
    5.0279   -3.5770    2.7704 C   0  0  0  0  0  0  0  0  0  0  0  0
    4.1567   -4.6898    2.6860 O   0  0  0  0  0  0  0  0  0  0  0  0
    5.7176   -8.9620    1.2983 H   0  0  0  0  0  0  0  0  0  0  0  0
    4.8178   -8.0717    0.0752 H   0  0  0  0  0  0  0  0  0  0  0  0
    4.0831   -9.4707    0.8715 H   0  0  0  0  0  0  0  0  0  0  0  0
    4.1032   -8.2073    3.0752 H   0  0  0  0  0  0  0  0  0  0  0  0
    4.9230   -6.8801    2.2644 H   0  0  0  0  0  0  0  0  0  0  0  0
    2.6621   -3.7656    1.6219 H   0  0  0  0  0  0  0  0  0  0  0  0
    4.6994   -5.4816    0.1097 H   0  0  0  0  0  0  0  0  0  0  0  0
    3.4565   -4.4936   -0.6119 H   0  0  0  0  0  0  0  0  0  0  0  0
    6.2165   -4.3305   -1.2373 H   0  0  0  0  0  0  0  0  0  0  0  0
    7.6829   -2.3225   -1.8025 H   0  0  0  0  0  0  0  0  0  0  0  0
    7.9040   -2.8695   -0.1640 H   0  0  0  0  0  0  0  0  0  0  0  0
    6.9030   -1.4565   -0.4714 H   0  0  0  0  0  0  0  0  0  0  0  0
    2.5580   -0.3570   -4.4451 H   0  0  0  0  0  0  0  0  0  0  0  0
    3.6985    0.5842   -3.4703 H   0  0  0  0  0  0  0  0  0  0  0  0
    2.2457   -0.1210   -2.7203 H   0  0  0  0  0  0  0  0  0  0  0  0
    6.5650   -4.3488    1.4557 H   0  0  0  0  0  0  0  0  0  0  0  0
    6.5217   -2.6060    1.6566 H   0  0  0  0  0  0  0  0  0  0  0  0
    5.6751   -3.7068    3.6366 H   0  0  0  0  0  0  0  0  0  0  0  0
    4.4744   -2.6503    2.9197 H   0  0  0  0  0  0  0  0  0  0  0  0
    4.5387   -2.5583    0.3126 H   0  0  0  0  0  0  0  0  0  0  0  0
  1  2  1  0
  1 22  1  0
  1 23  1  0
  1 24  1  0
  2  3  1  0
  2 25  1  0
  2 26  1  0
  3  7  1  0
  3  4  1  0
  4  5  2  0
  5  6  1  0
  6  7  2  0
  7  8  1  0
  8 21  1  0
  8  9  1  0
  8 27  1  1
  9 10  1  0
  9 28  1  0
  9 29  1  0
 10 11  1  0
 10 19  1  0
 10 41  1  1
 11 12  1  0
 11 13  1  0
 11 30  1  6
 12 31  1  0
 12 32  1  0
 12 33  1  0
 13 18  1  0
 13 14  2  0
 14 15  1  0
 15 16  2  0
 16 17  1  0
 16 18  1  0
 17 34  1  0
 17 35  1  0
 17 36  1  0
 19 20  1  0
 19 37  1  0
 19 38  1  0
 20 21  1  0
 20 39  1  0
 20 40  1  0
M  CHG  1  10   1
M  END
>  <i_m_ct_stereo_status>  (333) 
1

>  <s_m_source_file>  (333) 
/var/tmp/pbs.5076255.sched01/tmpl4jv_xt6/1264eazgjw7.sdf

>  <i_m_source_file_index>  (333) 
6

>  <i_lp_mmshare_version>  (333) 
48012

>  <i_f3d_flags>  (333) 
0

>  <s_epik_input>  (333) 
W0NIM11bQ0gyXW4xbm5uYzFbQ0BASF0yW0NIMl1OKFtDSDJdW0NIMl1PMilbQ0BIXShbQ0gzXSljM25uYyhvMylbQ0gzXQ==

>  <s_epik_cmdline>  (333) 
J2VwaWtfcHl0aG9uJywgJy1waHQnLCAnMi4wJywgJy1waCcsICc3LjAnLCAnLXRuJywgJzgnLCAnLW1hJywgJzIwMCcsICctaW1hZScsICc8aW5maWxlLm1hZT4nLCAnLW9tYWUnLCAnPG91dGZpbGUubWFlPic=

>  <r_lp_tautomer_probability>  (333) 
1

>  <r_epik_Ionization_Penalty>  (333) 
1.52073

>  <r_epik_Ionization_Penalty_Charging>  (333) 
1.52073

>  <r_epik_Ionization_Penalty_Neutral>  (333) 
1.09635e-11

>  <r_epik_State_Penalty>  (333) 
1.61253

>  <r_epik_Charging_Adjusted_Penalty>  (333) 
3.13326

>  <i_epik_Tot_Q>  (333) 
1

>  <i_epik_Tot_abs_Q>  (333) 
1

>  <s_lp_Force_Field>  (333) 
OPLS3e

>  <r_lp_Energy>  (333) 
16.1428

>  <b_lp_Chiralities_Consistent>  (333) 
1

>  <s_lp_Variant>  (333) 
94:0-2

>  <s_i_glide_gridfile>  (333) 
pfpi4k_grid

>  <i_i_glide_lignum>  (333) 
6

>  <i_i_glide_rotatable_bonds>  (333) 
4

>  <r_i_docking_score>  (333) 
-3.69583

>  <r_i_glide_ligand_efficiency>  (333) 
-0.175992

>  <r_i_glide_ligand_efficiency_sa>  (333) 
-0.485548

>  <r_i_glide_ligand_efficiency_ln>  (333) 
-0.913786

>  <r_i_glide_gscore>  (333) 
-3.69583

>  <r_i_glide_lipo>  (333) 
-0.50099

>  <r_i_glide_hbond>  (333) 
0

>  <r_i_glide_metal>  (333) 
-0

>  <r_i_glide_rewards>  (333) 
-1.42659

>  <r_i_glide_evdw>  (333) 
-26.1646

>  <r_i_glide_ecoul>  (333) 
-5.83692

>  <r_i_glide_erotb>  (333) 
0.633265

>  <r_i_glide_esite>  (333) 
-0.217743

>  <r_i_glide_emodel>  (333) 
-40.1198

>  <r_i_glide_energy>  (333) 
-32.0015

>  <r_i_glide_einternal>  (333) 
1.85176

>  <r_i_glide_intrahb_reward>  (333) 
-0

>  <i_i_glide_confnum>  (333) 
3

>  <i_i_glide_posenum>  (333) 
3

>  <r_i_glide_eff_state_penalty>  (333) 
0

>  <ligand_id>  (333) 
94

>  <original_smiles>  (333) 
CCn1nnnc1C1CN(C(C)c2nnc(C)o2)CCO1

>  <smiles>  (333) 
[H]C([H])([H])c1nnc(C([H])(C([H])([H])[H])[N+]2([H])C([H])([H])C([H])([H])OC([H])(c3nnnn3C([H])([H])C([H])([H])[H])C2([H])[H])o1

$$$$
94:1:2
     RDKit          3D

 41 43  0  0  1  0  0  0  0  0999 V2000
    2.8162   -1.8056   -3.7603 C   0  0  0  0  0  0  0  0  0  0  0  0
    3.1036   -3.1446   -3.0755 C   0  0  0  0  0  0  0  0  0  0  0  0
    4.3266   -3.0704   -2.2858 N   0  0  0  0  0  0  0  0  0  0  0  0
    5.5395   -3.1384   -2.8907 N   0  0  0  0  0  0  0  0  0  0  0  0
    6.4279   -3.0093   -1.9552 N   0  0  0  0  0  0  0  0  0  0  0  0
    5.8373   -2.8478   -0.7162 N   0  0  0  0  0  0  0  0  0  0  0  0
    4.5330   -2.8907   -0.9791 C   0  0  0  0  0  0  0  0  0  0  0  0
    3.4443   -2.7171    0.0482 C   0  0  2  0  0  0  0  0  0  0  0  0
    3.2943   -1.2359    0.4548 C   0  0  0  0  0  0  0  0  0  0  0  0
    2.2861   -1.0669    1.5410 N   0  0  2  0  0  0  0  0  0  0  0  0
    2.1168    0.3704    1.9312 C   0  0  2  0  0  0  0  0  0  0  0  0
    3.2606    0.8949    2.8104 C   0  0  0  0  0  0  0  0  0  0  0  0
    0.7632    0.5157    2.5790 C   0  0  0  0  0  0  0  0  0  0  0  0
    0.2053   -0.2485    3.5245 N   0  0  0  0  0  0  0  0  0  0  0  0
   -0.9793    0.3527    3.8643 N   0  0  0  0  0  0  0  0  0  0  0  0
   -1.0657    1.4412    3.0952 C   0  0  0  0  0  0  0  0  0  0  0  0
   -2.1769    2.4400    3.0696 C   0  0  0  0  0  0  0  0  0  0  0  0
    0.0018    1.6001    2.2670 O   0  0  0  0  0  0  0  0  0  0  0  0
    2.6117   -1.9994    2.6635 C   0  0  0  0  0  0  0  0  0  0  0  0
    2.7686   -3.4436    2.1852 C   0  0  0  0  0  0  0  0  0  0  0  0
    3.7814   -3.5069    1.1945 O   0  0  0  0  0  0  0  0  0  0  0  0
    1.8727   -1.8645   -4.3014 H   0  0  0  0  0  0  0  0  0  0  0  0
    3.6038   -1.5371   -4.4706 H   0  0  0  0  0  0  0  0  0  0  0  0
    2.7205   -0.9930   -3.0364 H   0  0  0  0  0  0  0  0  0  0  0  0
    2.2616   -3.4281   -2.4409 H   0  0  0  0  0  0  0  0  0  0  0  0
    3.2190   -3.9324   -3.8184 H   0  0  0  0  0  0  0  0  0  0  0  0
    2.5075   -3.0943   -0.3548 H   0  0  0  0  0  0  0  0  0  0  0  0
    4.2616   -0.8613    0.7877 H   0  0  0  0  0  0  0  0  0  0  0  0
    3.0333   -0.6489   -0.4244 H   0  0  0  0  0  0  0  0  0  0  0  0
    2.0725    0.9540    1.0173 H   0  0  0  0  0  0  0  0  0  0  0  0
    3.0917    1.9299    3.1022 H   0  0  0  0  0  0  0  0  0  0  0  0
    4.2022    0.8668    2.2671 H   0  0  0  0  0  0  0  0  0  0  0  0
    3.3934    0.2968    3.7107 H   0  0  0  0  0  0  0  0  0  0  0  0
   -2.9599    2.1520    3.7736 H   0  0  0  0  0  0  0  0  0  0  0  0
   -2.6214    2.4792    2.0794 H   0  0  0  0  0  0  0  0  0  0  0  0
   -1.8051    3.4291    3.3423 H   0  0  0  0  0  0  0  0  0  0  0  0
    3.5575   -1.7074    3.1238 H   0  0  0  0  0  0  0  0  0  0  0  0
    1.8596   -2.0055    3.4460 H   0  0  0  0  0  0  0  0  0  0  0  0
    3.0745   -4.0584    3.0318 H   0  0  0  0  0  0  0  0  0  0  0  0
    1.8312   -3.8571    1.8110 H   0  0  0  0  0  0  0  0  0  0  0  0
    1.4104   -1.3375    1.1020 H   0  0  0  0  0  0  0  0  0  0  0  0
  1  2  1  0
  1 22  1  0
  1 23  1  0
  1 24  1  0
  2  3  1  0
  2 25  1  0
  2 26  1  0
  3  7  1  0
  3  4  1  0
  4  5  2  0
  5  6  1  0
  6  7  2  0
  7  8  1  0
  8 21  1  0
  8  9  1  0
  8 27  1  6
  9 10  1  0
  9 28  1  0
  9 29  1  0
 10 11  1  0
 10 19  1  0
 10 41  1  6
 11 12  1  0
 11 13  1  0
 11 30  1  6
 12 31  1  0
 12 32  1  0
 12 33  1  0
 13 18  1  0
 13 14  2  0
 14 15  1  0
 15 16  2  0
 16 17  1  0
 16 18  1  0
 17 34  1  0
 17 35  1  0
 17 36  1  0
 19 20  1  0
 19 37  1  0
 19 38  1  0
 20 21  1  0
 20 39  1  0
 20 40  1  0
M  CHG  1  10   1
M  END
>  <i_m_ct_stereo_status>  (334) 
1

>  <s_m_source_file>  (334) 
/var/tmp/pbs.5076255.sched01/tmpl4jv_xt6/1264eazgjw7.sdf

>  <i_m_source_file_index>  (334) 
6

>  <i_lp_mmshare_version>  (334) 
48012

>  <i_f3d_flags>  (334) 
0

>  <s_epik_input>  (334) 
W0NIM11bQ0gyXW4xbm5uYzFbQ0BASF0yW0NIMl1OKFtDSDJdW0NIMl1PMilbQ0BIXShbQ0gzXSljM25uYyhvMylbQ0gzXQ==

>  <s_epik_cmdline>  (334) 
J2VwaWtfcHl0aG9uJywgJy1waHQnLCAnMi4wJywgJy1waCcsICc3LjAnLCAnLXRuJywgJzgnLCAnLW1hJywgJzIwMCcsICctaW1hZScsICc8aW5maWxlLm1hZT4nLCAnLW9tYWUnLCAnPG91dGZpbGUubWFlPic=

>  <r_lp_tautomer_probability>  (334) 
1

>  <r_epik_Ionization_Penalty>  (334) 
1.52073

>  <r_epik_Ionization_Penalty_Charging>  (334) 
1.52073

>  <r_epik_Ionization_Penalty_Neutral>  (334) 
1.09635e-11

>  <r_epik_State_Penalty>  (334) 
1.61253

>  <r_epik_Charging_Adjusted_Penalty>  (334) 
3.13326

>  <i_epik_Tot_Q>  (334) 
1

>  <i_epik_Tot_abs_Q>  (334) 
1

>  <s_lp_Force_Field>  (334) 
OPLS3e

>  <r_lp_Energy>  (334) 
16.1428

>  <b_lp_Chiralities_Consistent>  (334) 
1

>  <s_lp_Variant>  (334) 
94:0-2

>  <s_i_glide_gridfile>  (334) 
pfpi4k_grid

>  <i_i_glide_lignum>  (334) 
6

>  <i_i_glide_rotatable_bonds>  (334) 
4

>  <r_i_docking_score>  (334) 
-3.6191

>  <r_i_glide_ligand_efficiency>  (334) 
-0.172338

>  <r_i_glide_ligand_efficiency_sa>  (334) 
-0.475468

>  <r_i_glide_ligand_efficiency_ln>  (334) 
-0.894816

>  <r_i_glide_gscore>  (334) 
-3.6191

>  <r_i_glide_lipo>  (334) 
-0.211056

>  <r_i_glide_hbond>  (334) 
-0.124749

>  <r_i_glide_metal>  (334) 
-0

>  <r_i_glide_rewards>  (334) 
-1.40228

>  <r_i_glide_evdw>  (334) 
-27.4174

>  <r_i_glide_ecoul>  (334) 
-6.72687

>  <r_i_glide_erotb>  (334) 
0.633265

>  <r_i_glide_esite>  (334) 
-0.13439

>  <r_i_glide_emodel>  (334) 
-40.1691

>  <r_i_glide_energy>  (334) 
-34.1442

>  <r_i_glide_einternal>  (334) 
5.37219

>  <r_i_glide_intrahb_reward>  (334) 
-0

>  <i_i_glide_confnum>  (334) 
4

>  <i_i_glide_posenum>  (334) 
1

>  <r_i_glide_eff_state_penalty>  (334) 
0

>  <ligand_id>  (334) 
94

>  <original_smiles>  (334) 
CCn1nnnc1C1CN(C(C)c2nnc(C)o2)CCO1

>  <smiles>  (334) 
[H]C([H])([H])c1nnc(C([H])(C([H])([H])[H])[N+]2([H])C([H])([H])C([H])([H])OC([H])(c3nnnn3C([H])([H])C([H])([H])[H])C2([H])[H])o1

$$$$
95:0:0
     RDKit          3D

 66 73  0  0  1  0  0  0  0  0999 V2000
    4.8611   -2.8437    6.1941 C   0  0  0  0  0  0  0  0  0  0  0  0
    5.2098   -3.0793    4.8364 O   0  0  0  0  0  0  0  0  0  0  0  0
    4.1104   -3.4384    4.0687 C   0  0  2  0  0  0  0  0  0  0  0  0
    3.5779   -4.7331    4.4382 O   0  0  0  0  0  0  0  0  0  0  0  0
    3.1232   -5.5265    3.2580 C   0  0  2  0  0  0  0  0  0  0  0  0
    1.7592   -6.1892    3.4570 C   0  0  0  0  0  0  0  0  0  0  0  0
    1.0075   -5.8755    4.5298 C   0  0  0  0  0  0  0  0  0  0  0  0
   -0.0343   -6.7594    5.1774 C   0  0  1  0  0  0  0  0  0  0  0  0
   -0.0074   -6.5877    6.5828 O   0  0  0  0  0  0  0  0  0  0  0  0
   -1.3514   -6.6341    4.6095 O   0  0  0  0  0  0  0  0  0  0  0  0
   -1.3246   -8.0391    4.2429 C   0  0  1  0  0  0  0  0  0  0  0  0
   -0.9243   -8.2345    2.7961 C   0  0  0  0  0  0  0  0  0  0  0  0
    0.5587   -8.4865    3.2070 C   0  0  1  0  0  0  0  0  0  0  0  0
    0.9389   -9.9421    2.8969 C   0  0  0  0  0  0  0  0  0  0  0  0
    1.6256   -7.4647    2.6015 C   0  0  1  0  0  0  0  0  0  0  0  0
    1.1942   -7.0975    1.1617 C   0  0  0  0  0  0  0  0  0  0  0  0
    3.1291   -7.8961    2.5676 C   0  0  1  0  0  0  0  0  0  0  0  0
    3.4794   -8.8586    1.5983 O   0  0  0  0  0  0  0  0  0  0  0  0
    4.0326   -6.6236    2.5690 C   0  0  1  0  0  0  0  0  0  0  0  0
    4.4953   -5.9859    1.2021 C   0  0  0  0  0  0  0  0  0  0  0  0
    5.8137   -5.7485    1.0453 C   0  0  0  0  0  0  0  0  0  0  0  0
    6.3492   -4.2806    1.0218 C   0  0  0  0  0  0  0  0  0  0  0  0
    5.2319   -3.2337    1.4300 C   0  0  2  0  0  0  0  0  0  0  0  0
    5.7810   -1.7923    1.5546 C   0  0  0  0  0  0  0  0  0  0  0  0
    4.5315   -3.8495    2.7026 C   0  0  2  0  0  0  0  0  0  0  0  0
    3.1926   -4.4310    2.2520 C   0  0  1  0  0  0  0  0  0  0  0  0
    3.5311   -4.8261    0.8597 C   0  0  1  0  0  0  0  0  0  0  0  0
    4.1624   -3.4888    0.3203 C   0  0  0  0  0  0  0  0  0  0  0  0
    3.1365   -2.3257    0.2558 C   0  0  0  0  0  0  0  0  0  0  0  0
    4.6513   -3.6430   -1.1522 C   0  0  0  0  0  0  0  0  0  0  0  0
    0.1061   -8.2023    4.6742 C   0  0  1  0  0  0  0  0  0  0  0  0
    0.3889   -9.1671    5.6675 O   0  0  0  0  0  0  0  0  0  0  0  0
    5.7435   -2.5664    6.7709 H   0  0  0  0  0  0  0  0  0  0  0  0
    4.4364   -3.7352    6.6559 H   0  0  0  0  0  0  0  0  0  0  0  0
    4.1344   -2.0362    6.2870 H   0  0  0  0  0  0  0  0  0  0  0  0
    3.3322   -2.6778    4.0798 H   0  0  0  0  0  0  0  0  0  0  0  0
    1.2860   -5.0366    5.1432 H   0  0  0  0  0  0  0  0  0  0  0  0
    0.7844   -6.9958    6.9079 H   0  0  0  0  0  0  0  0  0  0  0  0
   -2.0789   -8.6674    4.7117 H   0  0  0  0  0  0  0  0  0  0  0  0
   -1.4258   -9.0825    2.3375 H   0  0  0  0  0  0  0  0  0  0  0  0
   -1.1101   -7.3157    2.2486 H   0  0  0  0  0  0  0  0  0  0  0  0
    1.8495  -10.2696    3.3962 H   0  0  0  0  0  0  0  0  0  0  0  0
    1.0402  -10.1176    1.8266 H   0  0  0  0  0  0  0  0  0  0  0  0
    0.1555  -10.6233    3.2291 H   0  0  0  0  0  0  0  0  0  0  0  0
    0.5551   -7.8481    0.7121 H   0  0  0  0  0  0  0  0  0  0  0  0
    2.0416   -7.0368    0.4913 H   0  0  0  0  0  0  0  0  0  0  0  0
    0.6492   -6.1571    1.1383 H   0  0  0  0  0  0  0  0  0  0  0  0
    3.3104   -8.3769    3.5245 H   0  0  0  0  0  0  0  0  0  0  0  0
    3.0539   -9.6737    1.8248 H   0  0  0  0  0  0  0  0  0  0  0  0
    4.9302   -6.8257    3.1718 H   0  0  0  0  0  0  0  0  0  0  0  0
    6.5325   -6.4250    1.5004 H   0  0  0  0  0  0  0  0  0  0  0  0
    7.1585   -4.2136    1.7455 H   0  0  0  0  0  0  0  0  0  0  0  0
    6.8277   -4.0588    0.0701 H   0  0  0  0  0  0  0  0  0  0  0  0
    5.0214   -1.0827    1.8822 H   0  0  0  0  0  0  0  0  0  0  0  0
    6.1705   -1.4232    0.6050 H   0  0  0  0  0  0  0  0  0  0  0  0
    6.5994   -1.7283    2.2699 H   0  0  0  0  0  0  0  0  0  0  0  0
    5.2901   -4.5533    3.0649 H   0  0  0  0  0  0  0  0  0  0  0  0
    2.3510   -3.7488    2.3120 H   0  0  0  0  0  0  0  0  0  0  0  0
    2.6837   -5.1132    0.2471 H   0  0  0  0  0  0  0  0  0  0  0  0
    2.2350   -2.6513   -0.2623 H   0  0  0  0  0  0  0  0  0  0  0  0
    3.5326   -1.4677   -0.2898 H   0  0  0  0  0  0  0  0  0  0  0  0
    2.8433   -1.9421    1.2310 H   0  0  0  0  0  0  0  0  0  0  0  0
    3.8022   -3.6614   -1.8354 H   0  0  0  0  0  0  0  0  0  0  0  0
    5.1825   -4.5759   -1.3392 H   0  0  0  0  0  0  0  0  0  0  0  0
    5.2941   -2.8190   -1.4667 H   0  0  0  0  0  0  0  0  0  0  0  0
   -0.1678   -9.9093    5.4963 H   0  0  0  0  0  0  0  0  0  0  0  0
  1  2  1  0
  1 33  1  0
  1 34  1  0
  1 35  1  0
  2  3  1  0
  3 25  1  0
  3  4  1  0
  3 36  1  6
  5  4  1  1
  5 19  1  0
  5 26  1  0
  5  6  1  0
  6 15  1  0
  6  7  2  0
  7  8  1  0
  7 37  1  0
  8 31  1  0
  8  9  1  1
  8 10  1  0
  9 38  1  0
 10 11  1  0
 11 31  1  0
 11 12  1  0
 11 39  1  1
 12 13  1  0
 12 40  1  0
 12 41  1  0
 13 14  1  1
 13 15  1  0
 13 31  1  0
 14 42  1  0
 14 43  1  0
 14 44  1  0
 15 16  1  6
 15 17  1  0
 16 45  1  0
 16 46  1  0
 16 47  1  0
 17 18  1  0
 17 19  1  0
 17 48  1  1
 18 49  1  0
 19 20  1  0
 19 50  1  1
 20 27  1  0
 20 21  2  0
 21 22  1  0
 21 51  1  0
 22 23  1  0
 22 52  1  0
 22 53  1  0
 23 28  1  0
 23 24  1  1
 23 25  1  0
 24 54  1  0
 24 55  1  0
 24 56  1  0
 25 26  1  0
 25 57  1  1
 26 27  1  0
 26 58  1  6
 27 28  1  0
 27 59  1  6
 28 29  1  0
 28 30  1  0
 29 60  1  0
 29 61  1  0
 29 62  1  0
 30 63  1  0
 30 64  1  0
 30 65  1  0
 31 32  1  1
 32 66  1  0
M  END
>  <i_m_ct_stereo_status>  (335) 
1

>  <s_m_source_file>  (335) 
/var/tmp/pbs.5076255.sched01/tmpl4jv_xt6/1264eazgjw7.sdf

>  <i_m_source_file_index>  (335) 
7

>  <i_lp_mmshare_version>  (335) 
48012

>  <i_f3d_flags>  (335) 
1

>  <s_epik_input>  (335) 
W0NIM11PW0NASF0oTzEpW0NASF0oW0NAQF0oW0NIM10pKFtDSDJdW0NIXTIpQzMoW0NIM10pW0NIM10pW0NASF00W0NAQEhdM0M9MltDQEBIXTVbQ0BIXShbT0hdKVtDQEBdKEM9NltDQF0xNDUpKFtDSDNdKVtDQEBdNyhbQ0gzXSlbQ0BAXTgoW09IXSlbQ0BdKFtDSF02KShbT0hdKU9bQ0BIXThbQ0gyXTc=

>  <s_epik_cmdline>  (335) 
J2VwaWtfcHl0aG9uJywgJy1waHQnLCAnMi4wJywgJy1waCcsICc3LjAnLCAnLXRuJywgJzgnLCAnLW1hJywgJzIwMCcsICctaW1hZScsICc8aW5maWxlLm1hZT4nLCAnLW9tYWUnLCAnPG91dGZpbGUubWFlPic=

>  <r_lp_tautomer_probability>  (335) 
1

>  <r_epik_Ionization_Penalty>  (335) 
5.94769e-06

>  <r_epik_Ionization_Penalty_Charging>  (335) 
0

>  <r_epik_Ionization_Penalty_Neutral>  (335) 
5.94769e-06

>  <r_epik_State_Penalty>  (335) 
-0

>  <r_epik_Charging_Adjusted_Penalty>  (335) 
0

>  <i_epik_Tot_Q>  (335) 
0

>  <i_epik_Tot_abs_Q>  (335) 
0

>  <s_epik_Chemistry_Notes>  (335) 
This compound contains an acetal/aminal-like group ( X-CH(R)-Y where X, Y are N, S, or O) that may be acid/base labile, releasing an aldehyde.

>  <s_lp_Force_Field>  (335) 
OPLS3e

>  <r_lp_Energy>  (335) 
164.678

>  <b_lp_Chiralities_Consistent>  (335) 
1

>  <s_lp_Variant>  (335) 
95:0-1

>  <s_i_glide_gridfile>  (335) 
pfpi4k_grid

>  <i_i_glide_lignum>  (335) 
7

>  <i_i_glide_rotatable_bonds>  (335) 
4

>  <r_i_docking_score>  (335) 
-2.7624

>  <r_i_glide_ligand_efficiency>  (335) 
-0.086325

>  <r_i_glide_ligand_efficiency_sa>  (335) 
-0.274065

>  <r_i_glide_ligand_efficiency_ln>  (335) 
-0.618576

>  <r_i_glide_gscore>  (335) 
-2.7624

>  <r_i_glide_lipo>  (335) 
-0.556491

>  <r_i_glide_hbond>  (335) 
0

>  <r_i_glide_metal>  (335) 
-0

>  <r_i_glide_rewards>  (335) 
-0.391742

>  <r_i_glide_evdw>  (335) 
-24.1567

>  <r_i_glide_ecoul>  (335) 
-3.91849

>  <r_i_glide_erotb>  (335) 
0

>  <r_i_glide_esite>  (335) 
-0.0185586

>  <r_i_glide_emodel>  (335) 
-32.3676

>  <r_i_glide_energy>  (335) 
-28.0752

>  <r_i_glide_einternal>  (335) 
1.42174

>  <r_i_glide_intrahb_reward>  (335) 
-0

>  <i_i_glide_confnum>  (335) 
1

>  <i_i_glide_posenum>  (335) 
30

>  <r_i_glide_eff_state_penalty>  (335) 
0

>  <ligand_id>  (335) 
95

>  <original_smiles>  (335) 
COC1OC23C4=CC5(O)OC6CC(C)(C4(C)C(O)C2C2=CCC4(C)C1C3C2C4(C)C)C65O

>  <smiles>  (335) 
[H]OC12OC3([H])C([H])([H])C(C([H])([H])[H])(C13O[H])C1(C([H])([H])[H])C(=C2[H])C23OC([H])(OC([H])([H])[H])C4([H])C2([H])C2([H])C(=C([H])C([H])([H])C4(C([H])([H])[H])C2(C([H])([H])[H])C([H])([H])[H])C3([H])C1([H])O[H]

$$$$
95:0:1
     RDKit          3D

 66 73  0  0  1  0  0  0  0  0999 V2000
    0.2874   -7.1994    1.5363 C   0  0  0  0  0  0  0  0  0  0  0  0
    1.0199   -6.7396    2.6691 O   0  0  0  0  0  0  0  0  0  0  0  0
    1.4991   -5.4424    2.5190 C   0  0  2  0  0  0  0  0  0  0  0  0
    2.3351   -5.2996    1.3451 O   0  0  0  0  0  0  0  0  0  0  0  0
    3.5014   -4.4020    1.5652 C   0  0  2  0  0  0  0  0  0  0  0  0
    3.7238   -3.4212    0.4117 C   0  0  0  0  0  0  0  0  0  0  0  0
    2.8160   -3.2937   -0.5768 C   0  0  0  0  0  0  0  0  0  0  0  0
    3.0789   -2.8054   -1.9929 C   0  0  1  0  0  0  0  0  0  0  0  0
    2.2641   -3.4596   -2.9361 O   0  0  0  0  0  0  0  0  0  0  0  0
    3.0239   -1.3790   -2.1558 O   0  0  0  0  0  0  0  0  0  0  0  0
    4.3971   -1.3831   -2.5867 C   0  0  1  0  0  0  0  0  0  0  0  0
    5.2821   -1.0234   -1.4363 C   0  0  0  0  0  0  0  0  0  0  0  0
    5.5942   -2.5146   -1.1355 C   0  0  1  0  0  0  0  0  0  0  0  0
    7.0751   -2.8018   -1.4520 C   0  0  0  0  0  0  0  0  0  0  0  0
    5.2079   -2.9954    0.3296 C   0  0  1  0  0  0  0  0  0  0  0  0
    5.5202   -1.8466    1.3246 C   0  0  0  0  0  0  0  0  0  0  0  0
    5.8636   -4.3053    0.8717 C   0  0  1  0  0  0  0  0  0  0  0  0
    7.2296   -4.2150    1.2329 O   0  0  0  0  0  0  0  0  0  0  0  0
    4.9361   -4.9349    1.9569 C   0  0  1  0  0  0  0  0  0  0  0  0
    5.1135   -4.5629    3.4797 C   0  0  0  0  0  0  0  0  0  0  0  0
    5.2247   -5.5858    4.3669 C   0  0  0  0  0  0  0  0  0  0  0  0
    4.0687   -5.8711    5.3754 C   0  0  0  0  0  0  0  0  0  0  0  0
    2.7731   -5.0150    5.0555 C   0  0  2  0  0  0  0  0  0  0  0  0
    1.5714   -5.3977    5.9488 C   0  0  0  0  0  0  0  0  0  0  0  0
    2.5722   -5.1440    3.4973 C   0  0  2  0  0  0  0  0  0  0  0  0
    3.0434   -3.8347    2.8630 C   0  0  1  0  0  0  0  0  0  0  0  0
    4.1082   -3.4433    3.8278 C   0  0  1  0  0  0  0  0  0  0  0  0
    3.3245   -3.5551    5.1895 C   0  0  0  0  0  0  0  0  0  0  0  0
    2.1614   -2.5288    5.3115 C   0  0  0  0  0  0  0  0  0  0  0  0
    4.2482   -3.2325    6.4025 C   0  0  0  0  0  0  0  0  0  0  0  0
    4.5840   -2.8454   -2.2748 C   0  0  1  0  0  0  0  0  0  0  0  0
    5.0103   -3.6875   -3.3212 O   0  0  0  0  0  0  0  0  0  0  0  0
   -0.0730   -8.2112    1.7079 H   0  0  0  0  0  0  0  0  0  0  0  0
    0.9091   -7.2332    0.6427 H   0  0  0  0  0  0  0  0  0  0  0  0
   -0.5751   -6.5701    1.3214 H   0  0  0  0  0  0  0  0  0  0  0  0
    0.6985   -4.7085    2.5448 H   0  0  0  0  0  0  0  0  0  0  0  0
    1.8493   -3.7554   -0.4586 H   0  0  0  0  0  0  0  0  0  0  0  0
    2.3467   -4.3826   -2.7934 H   0  0  0  0  0  0  0  0  0  0  0  0
    4.6004   -1.0484   -3.6013 H   0  0  0  0  0  0  0  0  0  0  0  0
    6.1254   -0.4626   -1.7786 H   0  0  0  0  0  0  0  0  0  0  0  0
    4.7107   -0.4810   -0.6859 H   0  0  0  0  0  0  0  0  0  0  0  0
    7.2889   -3.8489   -1.5193 H   0  0  0  0  0  0  0  0  0  0  0  0
    7.7536   -2.3529   -0.7218 H   0  0  0  0  0  0  0  0  0  0  0  0
    7.3557   -2.3907   -2.4220 H   0  0  0  0  0  0  0  0  0  0  0  0
    6.2738   -1.1575    0.9458 H   0  0  0  0  0  0  0  0  0  0  0  0
    5.9464   -2.2168    2.2507 H   0  0  0  0  0  0  0  0  0  0  0  0
    4.6215   -1.2707    1.5506 H   0  0  0  0  0  0  0  0  0  0  0  0
    5.8448   -5.0000    0.0376 H   0  0  0  0  0  0  0  0  0  0  0  0
    7.7050   -3.9156    0.4695 H   0  0  0  0  0  0  0  0  0  0  0  0
    4.9945   -6.0301    1.8643 H   0  0  0  0  0  0  0  0  0  0  0  0
    5.7215   -6.4976    4.0567 H   0  0  0  0  0  0  0  0  0  0  0  0
    3.8079   -6.9256    5.2948 H   0  0  0  0  0  0  0  0  0  0  0  0
    4.4154   -5.7711    6.4022 H   0  0  0  0  0  0  0  0  0  0  0  0
    0.6693   -4.8437    5.6907 H   0  0  0  0  0  0  0  0  0  0  0  0
    1.7748   -5.2040    7.0035 H   0  0  0  0  0  0  0  0  0  0  0  0
    1.3292   -6.4571    5.8652 H   0  0  0  0  0  0  0  0  0  0  0  0
    3.1391   -6.0506    3.2658 H   0  0  0  0  0  0  0  0  0  0  0  0
    2.2781   -3.0699    2.7402 H   0  0  0  0  0  0  0  0  0  0  0  0
    4.4883   -2.4356    3.6932 H   0  0  0  0  0  0  0  0  0  0  0  0
    2.5054   -1.5199    5.0848 H   0  0  0  0  0  0  0  0  0  0  0  0
    1.7544   -2.5038    6.3239 H   0  0  0  0  0  0  0  0  0  0  0  0
    1.3190   -2.7451    4.6566 H   0  0  0  0  0  0  0  0  0  0  0  0
    4.4365   -2.1601    6.4652 H   0  0  0  0  0  0  0  0  0  0  0  0
    5.2342   -3.6920    6.3301 H   0  0  0  0  0  0  0  0  0  0  0  0
    3.8067   -3.5346    7.3545 H   0  0  0  0  0  0  0  0  0  0  0  0
    4.7734   -4.5692   -3.0633 H   0  0  0  0  0  0  0  0  0  0  0  0
  1  2  1  0
  1 33  1  0
  1 34  1  0
  1 35  1  0
  2  3  1  0
  3 25  1  0
  3  4  1  0
  3 36  1  6
  5  4  1  6
  5 19  1  0
  5 26  1  0
  5  6  1  0
  6 15  1  0
  6  7  2  0
  7  8  1  0
  7 37  1  0
  8 31  1  0
  8  9  1  6
  8 10  1  0
  9 38  1  0
 10 11  1  0
 11 31  1  0
 11 12  1  0
 11 39  1  6
 12 13  1  0
 12 40  1  0
 12 41  1  0
 13 14  1  6
 13 15  1  0
 13 31  1  0
 14 42  1  0
 14 43  1  0
 14 44  1  0
 15 16  1  1
 15 17  1  0
 16 45  1  0
 16 46  1  0
 16 47  1  0
 17 18  1  0
 17 19  1  0
 17 48  1  6
 18 49  1  0
 19 20  1  0
 19 50  1  1
 20 27  1  0
 20 21  2  0
 21 22  1  0
 21 51  1  0
 22 23  1  0
 22 52  1  0
 22 53  1  0
 23 28  1  0
 23 24  1  1
 23 25  1  0
 24 54  1  0
 24 55  1  0
 24 56  1  0
 25 26  1  0
 25 57  1  6
 26 27  1  0
 26 58  1  6
 27 28  1  0
 27 59  1  6
 28 29  1  0
 28 30  1  0
 29 60  1  0
 29 61  1  0
 29 62  1  0
 30 63  1  0
 30 64  1  0
 30 65  1  0
 31 32  1  6
 32 66  1  0
M  END
>  <i_m_ct_stereo_status>  (336) 
1

>  <s_m_source_file>  (336) 
/var/tmp/pbs.5076255.sched01/tmpl4jv_xt6/1264eazgjw7.sdf

>  <i_m_source_file_index>  (336) 
7

>  <i_lp_mmshare_version>  (336) 
48012

>  <i_f3d_flags>  (336) 
1

>  <s_epik_input>  (336) 
W0NIM11PW0NASF0oTzEpW0NASF0oW0NAQF0oW0NIM10pKFtDSDJdW0NIXTIpQzMoW0NIM10pW0NIM10pW0NASF00W0NAQEhdM0M9MltDQEBIXTVbQ0BIXShbT0hdKVtDQEBdKEM9NltDQF0xNDUpKFtDSDNdKVtDQEBdNyhbQ0gzXSlbQ0BAXTgoW09IXSlbQ0BdKFtDSF02KShbT0hdKU9bQ0BIXThbQ0gyXTc=

>  <s_epik_cmdline>  (336) 
J2VwaWtfcHl0aG9uJywgJy1waHQnLCAnMi4wJywgJy1waCcsICc3LjAnLCAnLXRuJywgJzgnLCAnLW1hJywgJzIwMCcsICctaW1hZScsICc8aW5maWxlLm1hZT4nLCAnLW9tYWUnLCAnPG91dGZpbGUubWFlPic=

>  <r_lp_tautomer_probability>  (336) 
1

>  <r_epik_Ionization_Penalty>  (336) 
5.94769e-06

>  <r_epik_Ionization_Penalty_Charging>  (336) 
0

>  <r_epik_Ionization_Penalty_Neutral>  (336) 
5.94769e-06

>  <r_epik_State_Penalty>  (336) 
-0

>  <r_epik_Charging_Adjusted_Penalty>  (336) 
0

>  <i_epik_Tot_Q>  (336) 
0

>  <i_epik_Tot_abs_Q>  (336) 
0

>  <s_epik_Chemistry_Notes>  (336) 
This compound contains an acetal/aminal-like group ( X-CH(R)-Y where X, Y are N, S, or O) that may be acid/base labile, releasing an aldehyde.

>  <s_lp_Force_Field>  (336) 
OPLS3e

>  <r_lp_Energy>  (336) 
164.678

>  <b_lp_Chiralities_Consistent>  (336) 
1

>  <s_lp_Variant>  (336) 
95:0-1

>  <s_i_glide_gridfile>  (336) 
pfpi4k_grid

>  <i_i_glide_lignum>  (336) 
7

>  <i_i_glide_rotatable_bonds>  (336) 
4

>  <r_i_docking_score>  (336) 
-2.67756

>  <r_i_glide_ligand_efficiency>  (336) 
-0.0836737

>  <r_i_glide_ligand_efficiency_sa>  (336) 
-0.265648

>  <r_i_glide_ligand_efficiency_ln>  (336) 
-0.599579

>  <r_i_glide_gscore>  (336) 
-2.67756

>  <r_i_glide_lipo>  (336) 
-0.299058

>  <r_i_glide_hbond>  (336) 
0

>  <r_i_glide_metal>  (336) 
-0

>  <r_i_glide_rewards>  (336) 
-0.391742

>  <r_i_glide_evdw>  (336) 
-23.4569

>  <r_i_glide_ecoul>  (336) 
-4.96251

>  <r_i_glide_erotb>  (336) 
0

>  <r_i_glide_esite>  (336) 
-0.0695364

>  <r_i_glide_emodel>  (336) 
-32.1691

>  <r_i_glide_energy>  (336) 
-28.4194

>  <r_i_glide_einternal>  (336) 
1.66827

>  <r_i_glide_intrahb_reward>  (336) 
-0

>  <i_i_glide_confnum>  (336) 
1

>  <i_i_glide_posenum>  (336) 
2

>  <r_i_glide_eff_state_penalty>  (336) 
0

>  <ligand_id>  (336) 
95

>  <original_smiles>  (336) 
COC1OC23C4=CC5(O)OC6CC(C)(C4(C)C(O)C2C2=CCC4(C)C1C3C2C4(C)C)C65O

>  <smiles>  (336) 
[H]OC12OC3([H])C([H])([H])C(C([H])([H])[H])(C13O[H])C1(C([H])([H])[H])C(=C2[H])C23OC([H])(OC([H])([H])[H])C4([H])C2([H])C2([H])C(=C([H])C([H])([H])C4(C([H])([H])[H])C2(C([H])([H])[H])C([H])([H])[H])C3([H])C1([H])O[H]

$$$$
95:0:2
     RDKit          3D

 66 73  0  0  1  0  0  0  0  0999 V2000
    4.2309   -0.3289    3.8665 C   0  0  0  0  0  0  0  0  0  0  0  0
    4.1921   -1.7006    4.2331 O   0  0  0  0  0  0  0  0  0  0  0  0
    3.3809   -2.4952    3.4158 C   0  0  2  0  0  0  0  0  0  0  0  0
    3.0290   -3.7634    4.0407 O   0  0  0  0  0  0  0  0  0  0  0  0
    3.0095   -4.9095    3.0897 C   0  0  2  0  0  0  0  0  0  0  0  0
    1.7991   -5.8127    3.2754 C   0  0  0  0  0  0  0  0  0  0  0  0
    0.7763   -5.4332    4.0949 C   0  0  0  0  0  0  0  0  0  0  0  0
   -0.1923   -6.3625    4.7805 C   0  0  1  0  0  0  0  0  0  0  0  0
   -0.5234   -5.8496    6.0546 O   0  0  0  0  0  0  0  0  0  0  0  0
   -1.3602   -6.6959    3.9962 O   0  0  0  0  0  0  0  0  0  0  0  0
   -0.9926   -8.1053    4.0582 C   0  0  1  0  0  0  0  0  0  0  0  0
   -0.2548   -8.5450    2.8169 C   0  0  0  0  0  0  0  0  0  0  0  0
    1.1266   -8.3155    3.5158 C   0  0  1  0  0  0  0  0  0  0  0  0
    1.8396   -9.6707    3.6958 C   0  0  0  0  0  0  0  0  0  0  0  0
    2.0828   -7.2515    2.8163 C   0  0  1  0  0  0  0  0  0  0  0  0
    1.9286   -7.3846    1.2793 C   0  0  0  0  0  0  0  0  0  0  0  0
    3.6114   -7.2977    3.1597 C   0  0  1  0  0  0  0  0  0  0  0  0
    4.3764   -8.3450    2.5799 O   0  0  0  0  0  0  0  0  0  0  0  0
    4.2320   -5.8922    2.9078 C   0  0  1  0  0  0  0  0  0  0  0  0
    4.8581   -5.5058    1.5156 C   0  0  0  0  0  0  0  0  0  0  0  0
    6.1225   -5.0085    1.4987 C   0  0  0  0  0  0  0  0  0  0  0  0
    6.3556   -3.5137    1.1212 C   0  0  0  0  0  0  0  0  0  0  0  0
    5.0008   -2.7002    1.0133 C   0  0  2  0  0  0  0  0  0  0  0  0
    5.2754   -1.2091    0.7311 C   0  0  0  0  0  0  0  0  0  0  0  0
    4.1651   -3.1061    2.3014 C   0  0  2  0  0  0  0  0  0  0  0  0
    3.0929   -4.0985    1.8456 C   0  0  1  0  0  0  0  0  0  0  0  0
    3.7877   -4.7511    0.6976 C   0  0  1  0  0  0  0  0  0  0  0  0
    4.2511   -3.4845   -0.1128 C   0  0  0  0  0  0  0  0  0  0  0  0
    3.0652   -2.6501   -0.6635 C   0  0  0  0  0  0  0  0  0  0  0  0
    5.0716   -3.8668   -1.3754 C   0  0  0  0  0  0  0  0  0  0  0  0
    0.3179   -7.8082    4.7497 C   0  0  1  0  0  0  0  0  0  0  0  0
    0.5701   -8.4034    6.0080 O   0  0  0  0  0  0  0  0  0  0  0  0
    4.8318    0.2043    4.6032 H   0  0  0  0  0  0  0  0  0  0  0  0
    3.2282    0.1037    3.9266 H   0  0  0  0  0  0  0  0  0  0  0  0
    4.6684   -0.1973    2.9045 H   0  0  0  0  0  0  0  0  0  0  0  0
    2.4650   -1.9925    3.1045 H   0  0  0  0  0  0  0  0  0  0  0  0
    0.7418   -4.4252    4.4600 H   0  0  0  0  0  0  0  0  0  0  0  0
    0.2509   -5.9099    6.5901 H   0  0  0  0  0  0  0  0  0  0  0  0
   -1.6908   -8.7736    4.5584 H   0  0  0  0  0  0  0  0  0  0  0  0
   -0.4637   -9.5791    2.5404 H   0  0  0  0  0  0  0  0  0  0  0  0
   -0.4806   -7.8707    1.9926 H   0  0  0  0  0  0  0  0  0  0  0  0
    2.6724   -9.6294    4.3969 H   0  0  0  0  0  0  0  0  0  0  0  0
    2.2068  -10.0761    2.7512 H   0  0  0  0  0  0  0  0  0  0  0  0
    1.1531  -10.4202    4.0875 H   0  0  0  0  0  0  0  0  0  0  0  0
    1.5754   -8.3720    0.9826 H   0  0  0  0  0  0  0  0  0  0  0  0
    2.8888   -7.2787    0.7891 H   0  0  0  0  0  0  0  0  0  0  0  0
    1.2343   -6.6410    0.8815 H   0  0  0  0  0  0  0  0  0  0  0  0
    3.6707   -7.4592    4.2322 H   0  0  0  0  0  0  0  0  0  0  0  0
    4.2161   -8.3946    1.6472 H   0  0  0  0  0  0  0  0  0  0  0  0
    4.9942   -5.7067    3.6799 H   0  0  0  0  0  0  0  0  0  0  0  0
    6.8278   -5.3550    2.2470 H   0  0  0  0  0  0  0  0  0  0  0  0
    6.9364   -3.0653    1.9228 H   0  0  0  0  0  0  0  0  0  0  0  0
    6.9887   -3.4252    0.2380 H   0  0  0  0  0  0  0  0  0  0  0  0
    4.3666   -0.6168    0.7727 H   0  0  0  0  0  0  0  0  0  0  0  0
    5.6920   -1.0385   -0.2694 H   0  0  0  0  0  0  0  0  0  0  0  0
    5.9384   -0.7815    1.4811 H   0  0  0  0  0  0  0  0  0  0  0  0
    4.9414   -3.4999    2.9635 H   0  0  0  0  0  0  0  0  0  0  0  0
    2.1372   -3.6608    1.5697 H   0  0  0  0  0  0  0  0  0  0  0  0
    3.1563   -5.3820    0.0724 H   0  0  0  0  0  0  0  0  0  0  0  0
    2.3557   -3.2742   -1.2098 H   0  0  0  0  0  0  0  0  0  0  0  0
    3.4009   -1.8728   -1.3522 H   0  0  0  0  0  0  0  0  0  0  0  0
    2.5261   -2.1264    0.1224 H   0  0  0  0  0  0  0  0  0  0  0  0
    4.4166   -4.2633   -2.1534 H   0  0  0  0  0  0  0  0  0  0  0  0
    5.8023   -4.6510   -1.1807 H   0  0  0  0  0  0  0  0  0  0  0  0
    5.6003   -3.0085   -1.7988 H   0  0  0  0  0  0  0  0  0  0  0  0
    0.3444   -9.3152    5.9266 H   0  0  0  0  0  0  0  0  0  0  0  0
  1  2  1  0
  1 33  1  0
  1 34  1  0
  1 35  1  0
  2  3  1  0
  3 25  1  0
  3  4  1  0
  3 36  1  6
  5  4  1  1
  5 19  1  0
  5 26  1  0
  5  6  1  0
  6 15  1  0
  6  7  2  0
  7  8  1  0
  7 37  1  0
  8 31  1  0
  8  9  1  1
  8 10  1  0
  9 38  1  0
 10 11  1  0
 11 31  1  0
 11 12  1  0
 11 39  1  1
 12 13  1  0
 12 40  1  0
 12 41  1  0
 13 14  1  1
 13 15  1  0
 13 31  1  0
 14 42  1  0
 14 43  1  0
 14 44  1  0
 15 16  1  6
 15 17  1  0
 16 45  1  0
 16 46  1  0
 16 47  1  0
 17 18  1  0
 17 19  1  0
 17 48  1  1
 18 49  1  0
 19 20  1  0
 19 50  1  1
 20 27  1  0
 20 21  2  0
 21 22  1  0
 21 51  1  0
 22 23  1  0
 22 52  1  0
 22 53  1  0
 23 28  1  0
 23 24  1  6
 23 25  1  0
 24 54  1  0
 24 55  1  0
 24 56  1  0
 25 26  1  0
 25 57  1  1
 26 27  1  0
 26 58  1  6
 27 28  1  0
 27 59  1  6
 28 29  1  0
 28 30  1  0
 29 60  1  0
 29 61  1  0
 29 62  1  0
 30 63  1  0
 30 64  1  0
 30 65  1  0
 31 32  1  1
 32 66  1  0
M  END
>  <i_m_ct_stereo_status>  (337) 
1

>  <s_m_source_file>  (337) 
/var/tmp/pbs.5076255.sched01/tmpl4jv_xt6/1264eazgjw7.sdf

>  <i_m_source_file_index>  (337) 
7

>  <i_lp_mmshare_version>  (337) 
48012

>  <i_f3d_flags>  (337) 
1

>  <s_epik_input>  (337) 
W0NIM11PW0NASF0oTzEpW0NASF0oW0NAQF0oW0NIM10pKFtDSDJdW0NIXTIpQzMoW0NIM10pW0NIM10pW0NASF00W0NAQEhdM0M9MltDQEBIXTVbQ0BIXShbT0hdKVtDQEBdKEM9NltDQF0xNDUpKFtDSDNdKVtDQEBdNyhbQ0gzXSlbQ0BAXTgoW09IXSlbQ0BdKFtDSF02KShbT0hdKU9bQ0BIXThbQ0gyXTc=

>  <s_epik_cmdline>  (337) 
J2VwaWtfcHl0aG9uJywgJy1waHQnLCAnMi4wJywgJy1waCcsICc3LjAnLCAnLXRuJywgJzgnLCAnLW1hJywgJzIwMCcsICctaW1hZScsICc8aW5maWxlLm1hZT4nLCAnLW9tYWUnLCAnPG91dGZpbGUubWFlPic=

>  <r_lp_tautomer_probability>  (337) 
1

>  <r_epik_Ionization_Penalty>  (337) 
5.94769e-06

>  <r_epik_Ionization_Penalty_Charging>  (337) 
0

>  <r_epik_Ionization_Penalty_Neutral>  (337) 
5.94769e-06

>  <r_epik_State_Penalty>  (337) 
-0

>  <r_epik_Charging_Adjusted_Penalty>  (337) 
0

>  <i_epik_Tot_Q>  (337) 
0

>  <i_epik_Tot_abs_Q>  (337) 
0

>  <s_epik_Chemistry_Notes>  (337) 
This compound contains an acetal/aminal-like group ( X-CH(R)-Y where X, Y are N, S, or O) that may be acid/base labile, releasing an aldehyde.

>  <s_lp_Force_Field>  (337) 
OPLS3e

>  <r_lp_Energy>  (337) 
164.678

>  <b_lp_Chiralities_Consistent>  (337) 
1

>  <s_lp_Variant>  (337) 
95:0-1

>  <s_i_glide_gridfile>  (337) 
pfpi4k_grid

>  <i_i_glide_lignum>  (337) 
7

>  <i_i_glide_rotatable_bonds>  (337) 
4

>  <r_i_docking_score>  (337) 
-2.62168

>  <r_i_glide_ligand_efficiency>  (337) 
-0.0819275

>  <r_i_glide_ligand_efficiency_sa>  (337) 
-0.260104

>  <r_i_glide_ligand_efficiency_ln>  (337) 
-0.587066

>  <r_i_glide_gscore>  (337) 
-2.62168

>  <r_i_glide_lipo>  (337) 
-0.391161

>  <r_i_glide_hbond>  (337) 
-0.0563955

>  <r_i_glide_metal>  (337) 
-0

>  <r_i_glide_rewards>  (337) 
-0.391742

>  <r_i_glide_evdw>  (337) 
-22.8574

>  <r_i_glide_ecoul>  (337) 
-4.092

>  <r_i_glide_erotb>  (337) 
0

>  <r_i_glide_esite>  (337) 
-0.0257142

>  <r_i_glide_emodel>  (337) 
-29.0729

>  <r_i_glide_energy>  (337) 
-26.9494

>  <r_i_glide_einternal>  (337) 
4.12177

>  <r_i_glide_intrahb_reward>  (337) 
-0

>  <i_i_glide_confnum>  (337) 
1

>  <i_i_glide_posenum>  (337) 
1

>  <r_i_glide_eff_state_penalty>  (337) 
0

>  <ligand_id>  (337) 
95

>  <original_smiles>  (337) 
COC1OC23C4=CC5(O)OC6CC(C)(C4(C)C(O)C2C2=CCC4(C)C1C3C2C4(C)C)C65O

>  <smiles>  (337) 
[H]OC12OC3([H])C([H])([H])C(C([H])([H])[H])(C13O[H])C1(C([H])([H])[H])C(=C2[H])C23OC([H])(OC([H])([H])[H])C4([H])C2([H])C2([H])C(=C([H])C([H])([H])C4(C([H])([H])[H])C2(C([H])([H])[H])C([H])([H])[H])C3([H])C1([H])O[H]

$$$$
96:0:0
     RDKit          3D

 59 62  0  0  1  0  0  0  0  0999 V2000
    6.9704   -5.4843    0.8566 C   0  0  0  0  0  0  0  0  0  0  0  0
    7.3120   -3.9801    0.7700 C   0  0  0  0  0  0  0  0  0  0  0  0
    8.4571   -3.6243    0.4780 O   0  0  0  0  0  0  0  0  0  0  0  0
    6.3248   -3.0705    1.0475 O   0  0  0  0  0  0  0  0  0  0  0  0
    4.9316   -3.3025    1.3397 C   0  0  1  0  0  0  0  0  0  0  0  0
    4.2929   -4.1326    0.2000 C   0  0  0  0  0  0  0  0  0  0  0  0
    4.6224   -3.9419   -0.9895 O   0  0  0  0  0  0  0  0  0  0  0  0
    3.2293   -5.1750    0.5465 C   0  0  0  0  0  0  0  0  0  0  0  0
    2.1075   -5.0609   -0.3009 O   0  0  0  0  0  0  0  0  0  0  0  0
    4.8525   -3.8900    2.7814 C   0  0  0  0  0  0  0  0  0  0  0  0
    4.8614   -2.6996    3.7443 C   0  0  0  0  0  0  0  0  0  0  0  0
    4.7010   -1.4219    2.9037 C   0  0  2  0  0  0  0  0  0  0  0  0
    3.8653   -0.2883    3.5843 C   0  0  2  0  0  0  0  0  0  0  0  0
    4.4577    0.0477    4.9754 C   0  0  0  0  0  0  0  0  0  0  0  0
    3.4733    0.5767    5.9971 C   0  0  0  0  0  0  0  0  0  0  0  0
    3.9693    0.8687    7.2103 F   0  0  0  0  0  0  0  0  0  0  0  0
    2.1584    0.7743    5.7660 C   0  0  0  0  0  0  0  0  0  0  0  0
    1.2708    1.3731    6.8603 C   0  0  0  0  0  0  0  0  0  0  0  0
   -0.1286    0.7722    6.9045 C   0  0  0  0  0  0  0  0  0  0  0  0
   -0.8009    0.8888    7.9272 O   0  0  0  0  0  0  0  0  0  0  0  0
   -0.6560    0.1082    5.7183 C   0  0  0  0  0  0  0  0  0  0  0  0
    0.0750    0.0045    4.5939 C   0  0  0  0  0  0  0  0  0  0  0  0
    1.5104    0.4980    4.3999 C   0  0  1  0  0  0  0  0  0  0  0  0
    1.4355    1.8636    3.6820 C   0  0  0  0  0  0  0  0  0  0  0  0
    2.3426   -0.5801    3.6199 C   0  0  1  0  0  0  0  0  0  0  0  0
    1.8317   -0.9400    2.1928 C   0  0  1  0  0  0  0  0  0  0  0  0
    1.8264    0.1477    1.2779 O   0  0  0  0  0  0  0  0  0  0  0  0
    2.6400   -2.0939    1.5821 C   0  0  0  0  0  0  0  0  0  0  0  0
    4.1954   -1.9045    1.5165 C   0  0  2  0  0  0  0  0  0  0  0  0
    4.5515   -0.8695    0.4046 C   0  0  0  0  0  0  0  0  0  0  0  0
    6.1583   -5.7500    0.1842 H   0  0  0  0  0  0  0  0  0  0  0  0
    6.7159   -5.7761    1.8864 H   0  0  0  0  0  0  0  0  0  0  0  0
    7.8534   -6.0923    0.5651 H   0  0  0  0  0  0  0  0  0  0  0  0
    3.6818   -6.1479    0.4045 H   0  0  0  0  0  0  0  0  0  0  0  0
    2.8180   -5.0858    1.5538 H   0  0  0  0  0  0  0  0  0  0  0  0
    2.3964   -5.2688   -1.1988 H   0  0  0  0  0  0  0  0  0  0  0  0
    3.9153   -4.4189    2.9720 H   0  0  0  0  0  0  0  0  0  0  0  0
    5.6865   -4.5466    3.0412 H   0  0  0  0  0  0  0  0  0  0  0  0
    4.0674   -2.8286    4.4750 H   0  0  0  0  0  0  0  0  0  0  0  0
    5.8051   -2.6754    4.2935 H   0  0  0  0  0  0  0  0  0  0  0  0
    5.7142   -1.0305    2.7540 H   0  0  0  0  0  0  0  0  0  0  0  0
    3.9937    0.5999    2.9612 H   0  0  0  0  0  0  0  0  0  0  0  0
    4.9478   -0.8106    5.4309 H   0  0  0  0  0  0  0  0  0  0  0  0
    5.2461    0.7932    4.8351 H   0  0  0  0  0  0  0  0  0  0  0  0
    1.7340    1.2434    7.8370 H   0  0  0  0  0  0  0  0  0  0  0  0
    1.1801    2.4486    6.6989 H   0  0  0  0  0  0  0  0  0  0  0  0
   -1.6745   -0.2475    5.7409 H   0  0  0  0  0  0  0  0  0  0  0  0
   -0.3973   -0.4460    3.7353 H   0  0  0  0  0  0  0  0  0  0  0  0
    0.9860    2.6230    4.3307 H   0  0  0  0  0  0  0  0  0  0  0  0
    0.8152    1.8258    2.7912 H   0  0  0  0  0  0  0  0  0  0  0  0
    2.4267    2.2267    3.4037 H   0  0  0  0  0  0  0  0  0  0  0  0
    2.2301   -1.4968    4.1965 H   0  0  0  0  0  0  0  0  0  0  0  0
    0.8062   -1.2955    2.2467 H   0  0  0  0  0  0  0  0  0  0  0  0
    1.4267   -0.1660    0.4610 H   0  0  0  0  0  0  0  0  0  0  0  0
    2.4122   -2.9617    2.1830 H   0  0  0  0  0  0  0  0  0  0  0  0
    2.2411   -2.3102    0.5914 H   0  0  0  0  0  0  0  0  0  0  0  0
    4.3046    0.1566    0.7033 H   0  0  0  0  0  0  0  0  0  0  0  0
    4.0089   -1.0743   -0.5196 H   0  0  0  0  0  0  0  0  0  0  0  0
    5.6118   -0.8488    0.1607 H   0  0  0  0  0  0  0  0  0  0  0  0
  1  2  1  0
  1 31  1  0
  1 32  1  0
  1 33  1  0
  2  3  2  0
  2  4  1  0
  5  4  1  6
  5 29  1  0
  5  6  1  0
  5 10  1  0
  6  7  2  0
  6  8  1  0
  8  9  1  0
  8 34  1  0
  8 35  1  0
  9 36  1  0
 10 11  1  0
 10 37  1  0
 10 38  1  0
 11 12  1  0
 11 39  1  0
 11 40  1  0
 12 29  1  0
 12 13  1  0
 12 41  1  6
 13 25  1  0
 13 14  1  0
 13 42  1  6
 14 15  1  0
 14 43  1  0
 14 44  1  0
 15 16  1  0
 15 17  2  0
 17 23  1  0
 17 18  1  0
 18 19  1  0
 18 45  1  0
 18 46  1  0
 19 20  2  0
 19 21  1  0
 21 22  2  0
 21 47  1  0
 22 23  1  0
 22 48  1  0
 23 24  1  6
 23 25  1  0
 24 49  1  0
 24 50  1  0
 24 51  1  0
 25 26  1  0
 25 52  1  1
 26 27  1  0
 26 28  1  0
 26 53  1  1
 27 54  1  0
 28 29  1  0
 28 55  1  0
 28 56  1  0
 29 30  1  6
 30 57  1  0
 30 58  1  0
 30 59  1  0
M  END
>  <i_m_ct_stereo_status>  (338) 
1

>  <s_m_source_file>  (338) 
/var/tmp/pbs.5076255.sched01/tmpl4jv_xt6/1264eazgjw7.sdf

>  <i_m_source_file_index>  (338) 
8

>  <i_lp_mmshare_version>  (338) 
48012

>  <i_f3d_flags>  (338) 
0

>  <s_epik_input>  (338) 
W0NIM11DKD1PKU9bQ0BdKFtDSDJdW0NIMl0xKShDKD1PKVtDSDJdW09IXSlbQ0BAXShbQ0gzXSkoW0NIMl1bQ0BASF0oW0NAQEhdMjMpW09IXSlbQ0BIXTFbQ0BASF0yW0NIMl1DKEYpPUMoW0NAQF0zNFtDSDNdKVtDSDJdQyg9TylbQ0hdPVtDSF00

>  <s_epik_cmdline>  (338) 
J2VwaWtfcHl0aG9uJywgJy1waHQnLCAnMi4wJywgJy1waCcsICc3LjAnLCAnLXRuJywgJzgnLCAnLW1hJywgJzIwMCcsICctaW1hZScsICc8aW5maWxlLm1hZT4nLCAnLW9tYWUnLCAnPG91dGZpbGUubWFlPic=

>  <r_lp_tautomer_probability>  (338) 
1

>  <r_epik_Ionization_Penalty>  (338) 
1.58493e-05

>  <r_epik_Ionization_Penalty_Charging>  (338) 
0

>  <r_epik_Ionization_Penalty_Neutral>  (338) 
1.58493e-05

>  <r_epik_State_Penalty>  (338) 
-0

>  <r_epik_Charging_Adjusted_Penalty>  (338) 
0

>  <i_epik_Tot_Q>  (338) 
0

>  <i_epik_Tot_abs_Q>  (338) 
0

>  <s_epik_Chemistry_Notes>  (338) 
This compound has an ester and may undergo hydrolysis at high or low pH.

>  <s_lp_Force_Field>  (338) 
OPLS3e

>  <r_lp_Energy>  (338) 
52.3943

>  <b_lp_Chiralities_Consistent>  (338) 
1

>  <s_lp_Variant>  (338) 
96:0-1

>  <s_i_glide_gridfile>  (338) 
pfpi4k_grid

>  <i_i_glide_lignum>  (338) 
8

>  <i_i_glide_rotatable_bonds>  (338) 
6

>  <r_i_docking_score>  (338) 
-3.71995

>  <r_i_glide_ligand_efficiency>  (338) 
-0.123998

>  <r_i_glide_ligand_efficiency_sa>  (338) 
-0.385292

>  <r_i_glide_ligand_efficiency_ln>  (338) 
-0.845214

>  <r_i_glide_gscore>  (338) 
-3.71995

>  <r_i_glide_lipo>  (338) 
-0.352118

>  <r_i_glide_hbond>  (338) 
-0.174912

>  <r_i_glide_metal>  (338) 
-0

>  <r_i_glide_rewards>  (338) 
-0.738938

>  <r_i_glide_evdw>  (338) 
-21.0977

>  <r_i_glide_ecoul>  (338) 
-11.4097

>  <r_i_glide_erotb>  (338) 
0.335857

>  <r_i_glide_esite>  (338) 
-0.0234972

>  <r_i_glide_emodel>  (338) 
-36.342

>  <r_i_glide_energy>  (338) 
-32.5075

>  <r_i_glide_einternal>  (338) 
7.88141

>  <r_i_glide_intrahb_reward>  (338) 
-0

>  <i_i_glide_confnum>  (338) 
2

>  <i_i_glide_posenum>  (338) 
35

>  <r_i_glide_eff_state_penalty>  (338) 
0

>  <ligand_id>  (338) 
96

>  <original_smiles>  (338) 
CC(=O)OC1(C(=O)CO)CCC2C3CC(F)=C4CC(=O)C=CC4(C)C3C(O)CC21C

>  <smiles>  (338) 
[H]OC([H])([H])C(=O)C1(OC(=O)C([H])([H])[H])C([H])([H])C([H])([H])C2([H])C3([H])C([H])([H])C(F)=C4C([H])([H])C(=O)C([H])=C([H])C4(C([H])([H])[H])C3([H])C([H])(O[H])C([H])([H])C12C([H])([H])[H]

$$$$
96:0:1
     RDKit          3D

 59 62  0  0  1  0  0  0  0  0999 V2000
    6.9867   -4.8635    0.4299 C   0  0  0  0  0  0  0  0  0  0  0  0
    7.3217   -3.3647    0.4695 C   0  0  0  0  0  0  0  0  0  0  0  0
    8.4619   -2.9644    0.2054 O   0  0  0  0  0  0  0  0  0  0  0  0
    6.3312   -2.4916    0.8105 O   0  0  0  0  0  0  0  0  0  0  0  0
    4.9469   -2.7875    1.0955 C   0  0  1  0  0  0  0  0  0  0  0  0
    4.3010   -3.5836   -0.0753 C   0  0  0  0  0  0  0  0  0  0  0  0
    3.8968   -4.7397    0.0956 O   0  0  0  0  0  0  0  0  0  0  0  0
    4.2575   -2.9407   -1.4718 C   0  0  0  0  0  0  0  0  0  0  0  0
    4.6028   -3.8454   -2.4915 O   0  0  0  0  0  0  0  0  0  0  0  0
    4.8651   -3.4955    2.4856 C   0  0  0  0  0  0  0  0  0  0  0  0
    4.8442   -2.3810    3.5412 C   0  0  0  0  0  0  0  0  0  0  0  0
    4.6524   -1.0439    2.7956 C   0  0  2  0  0  0  0  0  0  0  0  0
    3.7959    0.0240    3.5489 C   0  0  2  0  0  0  0  0  0  0  0  0
    4.3844    0.3038    4.9503 C   0  0  0  0  0  0  0  0  0  0  0  0
    3.3889    0.7362    6.0067 C   0  0  0  0  0  0  0  0  0  0  0  0
    3.8860    0.9768    7.2309 F   0  0  0  0  0  0  0  0  0  0  0  0
    2.0615    0.9037    5.7976 C   0  0  0  0  0  0  0  0  0  0  0  0
    1.1636    1.4109    6.9292 C   0  0  0  0  0  0  0  0  0  0  0  0
   -0.2222    0.7750    6.9413 C   0  0  0  0  0  0  0  0  0  0  0  0
   -0.8963    0.8169    7.9739 O   0  0  0  0  0  0  0  0  0  0  0  0
   -0.7336    0.1685    5.7159 C   0  0  0  0  0  0  0  0  0  0  0  0
   -0.0041    0.1521    4.5889 C   0  0  0  0  0  0  0  0  0  0  0  0
    1.4162    0.6927    4.4237 C   0  0  1  0  0  0  0  0  0  0  0  0
    1.2972    2.1029    3.7889 C   0  0  0  0  0  0  0  0  0  0  0  0
    2.2789   -0.3134    3.5769 C   0  0  1  0  0  0  0  0  0  0  0  0
    1.7696   -0.6036    2.1395 C   0  0  1  0  0  0  0  0  0  0  0  0
    1.7241    0.5397    1.3437 O   0  0  0  0  0  0  0  0  0  0  0  0
    2.6147   -1.6942    1.4545 C   0  0  0  0  0  0  0  0  0  0  0  0
    4.1610   -1.4431    1.3851 C   0  0  2  0  0  0  0  0  0  0  0  0
    4.4738   -0.3161    0.3560 C   0  0  0  0  0  0  0  0  0  0  0  0
    6.1603   -5.0540   -0.2447 H   0  0  0  0  0  0  0  0  0  0  0  0
    6.7115   -5.2184    1.4252 H   0  0  0  0  0  0  0  0  0  0  0  0
    7.8792   -5.4330    0.1442 H   0  0  0  0  0  0  0  0  0  0  0  0
    3.2396   -2.5703   -1.6555 H   0  0  0  0  0  0  0  0  0  0  0  0
    4.9389   -2.0975   -1.5249 H   0  0  0  0  0  0  0  0  0  0  0  0
    3.9805   -4.5778   -2.4646 H   0  0  0  0  0  0  0  0  0  0  0  0
    3.9386   -4.0715    2.5813 H   0  0  0  0  0  0  0  0  0  0  0  0
    5.6925   -4.1671    2.6913 H   0  0  0  0  0  0  0  0  0  0  0  0
    4.0626   -2.5716    4.2805 H   0  0  0  0  0  0  0  0  0  0  0  0
    5.7929   -2.3673    4.0774 H   0  0  0  0  0  0  0  0  0  0  0  0
    5.6526   -0.6162    2.6754 H   0  0  0  0  0  0  0  0  0  0  0  0
    3.8869    0.9528    2.9792 H   0  0  0  0  0  0  0  0  0  0  0  0
    4.9003   -0.5691    5.3548 H   0  0  0  0  0  0  0  0  0  0  0  0
    5.1484    1.0762    4.8580 H   0  0  0  0  0  0  0  0  0  0  0  0
    1.6349    1.2415    7.8930 H   0  0  0  0  0  0  0  0  0  0  0  0
    1.0435    2.4859    6.8283 H   0  0  0  0  0  0  0  0  0  0  0  0
   -1.7348   -0.2196    5.7204 H   0  0  0  0  0  0  0  0  0  0  0  0
   -0.4758   -0.2631    3.7117 H   0  0  0  0  0  0  0  0  0  0  0  0
    0.8289    2.8079    4.4817 H   0  0  0  0  0  0  0  0  0  0  0  0
    0.6716    2.1050    2.8940 H   0  0  0  0  0  0  0  0  0  0  0  0
    2.2763    2.5111    3.5250 H   0  0  0  0  0  0  0  0  0  0  0  0
    2.1933   -1.2687    4.0989 H   0  0  0  0  0  0  0  0  0  0  0  0
    0.7472   -0.9859    2.1660 H   0  0  0  0  0  0  0  0  0  0  0  0
    1.3361    0.2694    0.4915 H   0  0  0  0  0  0  0  0  0  0  0  0
    2.4094   -2.6106    2.0038 H   0  0  0  0  0  0  0  0  0  0  0  0
    2.2251   -1.8815    0.4614 H   0  0  0  0  0  0  0  0  0  0  0  0
    4.2065    0.6750    0.7287 H   0  0  0  0  0  0  0  0  0  0  0  0
    3.9187   -0.4521   -0.5716 H   0  0  0  0  0  0  0  0  0  0  0  0
    5.5323   -0.2556    0.1003 H   0  0  0  0  0  0  0  0  0  0  0  0
  1  2  1  0
  1 31  1  0
  1 32  1  0
  1 33  1  0
  2  3  2  0
  2  4  1  0
  5  4  1  6
  5 29  1  0
  5  6  1  0
  5 10  1  0
  6  7  2  0
  6  8  1  0
  8  9  1  0
  8 34  1  0
  8 35  1  0
  9 36  1  0
 10 11  1  0
 10 37  1  0
 10 38  1  0
 11 12  1  0
 11 39  1  0
 11 40  1  0
 12 29  1  0
 12 13  1  0
 12 41  1  6
 13 25  1  0
 13 14  1  0
 13 42  1  6
 14 15  1  0
 14 43  1  0
 14 44  1  0
 15 16  1  0
 15 17  2  0
 17 23  1  0
 17 18  1  0
 18 19  1  0
 18 45  1  0
 18 46  1  0
 19 20  2  0
 19 21  1  0
 21 22  2  0
 21 47  1  0
 22 23  1  0
 22 48  1  0
 23 24  1  6
 23 25  1  0
 24 49  1  0
 24 50  1  0
 24 51  1  0
 25 26  1  0
 25 52  1  1
 26 27  1  0
 26 28  1  0
 26 53  1  1
 27 54  1  0
 28 29  1  0
 28 55  1  0
 28 56  1  0
 29 30  1  6
 30 57  1  0
 30 58  1  0
 30 59  1  0
M  END
>  <i_m_ct_stereo_status>  (339) 
1

>  <s_m_source_file>  (339) 
/var/tmp/pbs.5076255.sched01/tmpl4jv_xt6/1264eazgjw7.sdf

>  <i_m_source_file_index>  (339) 
8

>  <i_lp_mmshare_version>  (339) 
48012

>  <i_f3d_flags>  (339) 
0

>  <s_epik_input>  (339) 
W0NIM11DKD1PKU9bQ0BdKFtDSDJdW0NIMl0xKShDKD1PKVtDSDJdW09IXSlbQ0BAXShbQ0gzXSkoW0NIMl1bQ0BASF0oW0NAQEhdMjMpW09IXSlbQ0BIXTFbQ0BASF0yW0NIMl1DKEYpPUMoW0NAQF0zNFtDSDNdKVtDSDJdQyg9TylbQ0hdPVtDSF00

>  <s_epik_cmdline>  (339) 
J2VwaWtfcHl0aG9uJywgJy1waHQnLCAnMi4wJywgJy1waCcsICc3LjAnLCAnLXRuJywgJzgnLCAnLW1hJywgJzIwMCcsICctaW1hZScsICc8aW5maWxlLm1hZT4nLCAnLW9tYWUnLCAnPG91dGZpbGUubWFlPic=

>  <r_lp_tautomer_probability>  (339) 
1

>  <r_epik_Ionization_Penalty>  (339) 
1.58493e-05

>  <r_epik_Ionization_Penalty_Charging>  (339) 
0

>  <r_epik_Ionization_Penalty_Neutral>  (339) 
1.58493e-05

>  <r_epik_State_Penalty>  (339) 
-0

>  <r_epik_Charging_Adjusted_Penalty>  (339) 
0

>  <i_epik_Tot_Q>  (339) 
0

>  <i_epik_Tot_abs_Q>  (339) 
0

>  <s_epik_Chemistry_Notes>  (339) 
This compound has an ester and may undergo hydrolysis at high or low pH.

>  <s_lp_Force_Field>  (339) 
OPLS3e

>  <r_lp_Energy>  (339) 
52.3943

>  <b_lp_Chiralities_Consistent>  (339) 
1

>  <s_lp_Variant>  (339) 
96:0-1

>  <s_i_glide_gridfile>  (339) 
pfpi4k_grid

>  <i_i_glide_lignum>  (339) 
8

>  <i_i_glide_rotatable_bonds>  (339) 
6

>  <r_i_docking_score>  (339) 
-3.70152

>  <r_i_glide_ligand_efficiency>  (339) 
-0.123384

>  <r_i_glide_ligand_efficiency_sa>  (339) 
-0.383383

>  <r_i_glide_ligand_efficiency_ln>  (339) 
-0.841027

>  <r_i_glide_gscore>  (339) 
-3.70152

>  <r_i_glide_lipo>  (339) 
-0.464581

>  <r_i_glide_hbond>  (339) 
-0.197327

>  <r_i_glide_metal>  (339) 
-0

>  <r_i_glide_rewards>  (339) 
-0.777597

>  <r_i_glide_evdw>  (339) 
-23.9439

>  <r_i_glide_ecoul>  (339) 
-9.1537

>  <r_i_glide_erotb>  (339) 
0.335857

>  <r_i_glide_esite>  (339) 
-0.0276252

>  <r_i_glide_emodel>  (339) 
-36.3813

>  <r_i_glide_energy>  (339) 
-33.0976

>  <r_i_glide_einternal>  (339) 
7.82072

>  <r_i_glide_intrahb_reward>  (339) 
-0

>  <i_i_glide_confnum>  (339) 
1

>  <i_i_glide_posenum>  (339) 
32

>  <r_i_glide_eff_state_penalty>  (339) 
0

>  <ligand_id>  (339) 
96

>  <original_smiles>  (339) 
CC(=O)OC1(C(=O)CO)CCC2C3CC(F)=C4CC(=O)C=CC4(C)C3C(O)CC21C

>  <smiles>  (339) 
[H]OC([H])([H])C(=O)C1(OC(=O)C([H])([H])[H])C([H])([H])C([H])([H])C2([H])C3([H])C([H])([H])C(F)=C4C([H])([H])C(=O)C([H])=C([H])C4(C([H])([H])[H])C3([H])C([H])(O[H])C([H])([H])C12C([H])([H])[H]

$$$$
96:0:2
     RDKit          3D

 59 62  0  0  1  0  0  0  0  0999 V2000
    8.6751   -2.7265    0.1016 C   0  0  0  0  0  0  0  0  0  0  0  0
    7.3710   -3.4173    0.4770 C   0  0  0  0  0  0  0  0  0  0  0  0
    7.2820   -4.6451    0.4774 O   0  0  0  0  0  0  0  0  0  0  0  0
    6.3826   -2.5282    0.7844 O   0  0  0  0  0  0  0  0  0  0  0  0
    5.0012   -2.8844    1.0240 C   0  0  1  0  0  0  0  0  0  0  0  0
    4.4367   -3.6964   -0.1782 C   0  0  0  0  0  0  0  0  0  0  0  0
    4.0832   -4.8704   -0.0607 O   0  0  0  0  0  0  0  0  0  0  0  0
    4.3374   -2.9838   -1.5375 C   0  0  0  0  0  0  0  0  0  0  0  0
    4.6092   -3.8560   -2.6135 O   0  0  0  0  0  0  0  0  0  0  0  0
    4.9093   -3.6424    2.3733 C   0  0  0  0  0  0  0  0  0  0  0  0
    4.8748   -2.5726    3.4766 C   0  0  0  0  0  0  0  0  0  0  0  0
    4.6862   -1.2104    2.7790 C   0  0  2  0  0  0  0  0  0  0  0  0
    3.8326   -0.1560    3.5530 C   0  0  2  0  0  0  0  0  0  0  0  0
    4.4033    0.0759    4.9696 C   0  0  0  0  0  0  0  0  0  0  0  0
    3.3990    0.4930    6.0253 C   0  0  0  0  0  0  0  0  0  0  0  0
    3.8736    0.6885    7.2698 F   0  0  0  0  0  0  0  0  0  0  0  0
    2.0882    0.7015    5.8046 C   0  0  0  0  0  0  0  0  0  0  0  0
    1.1833    1.1787    6.9397 C   0  0  0  0  0  0  0  0  0  0  0  0
   -0.1988    0.5418    6.9120 C   0  0  0  0  0  0  0  0  0  0  0  0
   -0.8716    0.5613    7.9378 O   0  0  0  0  0  0  0  0  0  0  0  0
   -0.7147   -0.0230    5.6640 C   0  0  0  0  0  0  0  0  0  0  0  0
    0.0251   -0.0045    4.5451 C   0  0  0  0  0  0  0  0  0  0  0  0
    1.4527    0.5253    4.4162 C   0  0  1  0  0  0  0  0  0  0  0  0
    1.3552    1.9511    3.8267 C   0  0  0  0  0  0  0  0  0  0  0  0
    2.3134   -0.4626    3.5414 C   0  0  1  0  0  0  0  0  0  0  0  0
    1.8286   -0.7131    2.0876 C   0  0  1  0  0  0  0  0  0  0  0  0
    1.8134    0.4403    1.2833 O   0  0  0  0  0  0  0  0  0  0  0  0
    2.6633   -1.8011    1.3887 C   0  0  0  0  0  0  0  0  0  0  0  0
    4.2093   -1.5580    1.3489 C   0  0  2  0  0  0  0  0  0  0  0  0
    4.5479   -0.4055    0.3583 C   0  0  0  0  0  0  0  0  0  0  0  0
    8.9801   -2.0217    0.8766 H   0  0  0  0  0  0  0  0  0  0  0  0
    8.5593   -2.1905   -0.8405 H   0  0  0  0  0  0  0  0  0  0  0  0
    9.4706   -3.4594   -0.0338 H   0  0  0  0  0  0  0  0  0  0  0  0
    3.3307   -2.5839   -1.6473 H   0  0  0  0  0  0  0  0  0  0  0  0
    5.0484   -2.1629   -1.5827 H   0  0  0  0  0  0  0  0  0  0  0  0
    3.9932   -4.5832   -2.5763 H   0  0  0  0  0  0  0  0  0  0  0  0
    3.9859   -4.2209    2.4296 H   0  0  0  0  0  0  0  0  0  0  0  0
    5.7171   -4.3585    2.5369 H   0  0  0  0  0  0  0  0  0  0  0  0
    4.0694   -2.7894    4.1801 H   0  0  0  0  0  0  0  0  0  0  0  0
    5.8070   -2.5796    4.0417 H   0  0  0  0  0  0  0  0  0  0  0  0
    5.6869   -0.7918    2.6785 H   0  0  0  0  0  0  0  0  0  0  0  0
    3.9429    0.7868    3.0185 H   0  0  0  0  0  0  0  0  0  0  0  0
    4.9027   -0.8130    5.3505 H   0  0  0  0  0  0  0  0  0  0  0  0
    5.1705    0.8460    4.9090 H   0  0  0  0  0  0  0  0  0  0  0  0
    1.6379    0.9603    7.9060 H   0  0  0  0  0  0  0  0  0  0  0  0
    1.0682    2.2610    6.8821 H   0  0  0  0  0  0  0  0  0  0  0  0
   -1.7261   -0.3935    5.6614 H   0  0  0  0  0  0  0  0  0  0  0  0
   -0.4299   -0.3822    3.6442 H   0  0  0  0  0  0  0  0  0  0  0  0
    0.8862    2.6402    4.5386 H   0  0  0  0  0  0  0  0  0  0  0  0
    0.7422    1.9814    2.9239 H   0  0  0  0  0  0  0  0  0  0  0  0
    2.3436    2.3562    3.5897 H   0  0  0  0  0  0  0  0  0  0  0  0
    2.2051   -1.4242    4.0393 H   0  0  0  0  0  0  0  0  0  0  0  0
    0.8030   -1.0715    2.0988 H   0  0  0  0  0  0  0  0  0  0  0  0
    1.3931    0.1974    0.4580 H   0  0  0  0  0  0  0  0  0  0  0  0
    2.4479   -2.7335    1.9073 H   0  0  0  0  0  0  0  0  0  0  0  0
    2.2808   -1.9537    0.3856 H   0  0  0  0  0  0  0  0  0  0  0  0
    4.2774    0.5688    0.7657 H   0  0  0  0  0  0  0  0  0  0  0  0
    4.0022   -0.5050   -0.5787 H   0  0  0  0  0  0  0  0  0  0  0  0
    5.6099   -0.3351    0.1189 H   0  0  0  0  0  0  0  0  0  0  0  0
  1  2  1  0
  1 31  1  0
  1 32  1  0
  1 33  1  0
  2  3  2  0
  2  4  1  0
  5  4  1  6
  5 29  1  0
  5  6  1  0
  5 10  1  0
  6  7  2  0
  6  8  1  0
  8  9  1  0
  8 34  1  0
  8 35  1  0
  9 36  1  0
 10 11  1  0
 10 37  1  0
 10 38  1  0
 11 12  1  0
 11 39  1  0
 11 40  1  0
 12 29  1  0
 12 13  1  0
 12 41  1  6
 13 25  1  0
 13 14  1  0
 13 42  1  6
 14 15  1  0
 14 43  1  0
 14 44  1  0
 15 16  1  0
 15 17  2  0
 17 23  1  0
 17 18  1  0
 18 19  1  0
 18 45  1  0
 18 46  1  0
 19 20  2  0
 19 21  1  0
 21 22  2  0
 21 47  1  0
 22 23  1  0
 22 48  1  0
 23 24  1  6
 23 25  1  0
 24 49  1  0
 24 50  1  0
 24 51  1  0
 25 26  1  0
 25 52  1  1
 26 27  1  0
 26 28  1  0
 26 53  1  1
 27 54  1  0
 28 29  1  0
 28 55  1  0
 28 56  1  0
 29 30  1  6
 30 57  1  0
 30 58  1  0
 30 59  1  0
M  END
>  <i_m_ct_stereo_status>  (340) 
1

>  <s_m_source_file>  (340) 
/var/tmp/pbs.5076255.sched01/tmpl4jv_xt6/1264eazgjw7.sdf

>  <i_m_source_file_index>  (340) 
8

>  <i_lp_mmshare_version>  (340) 
48012

>  <i_f3d_flags>  (340) 
0

>  <s_epik_input>  (340) 
W0NIM11DKD1PKU9bQ0BdKFtDSDJdW0NIMl0xKShDKD1PKVtDSDJdW09IXSlbQ0BAXShbQ0gzXSkoW0NIMl1bQ0BASF0oW0NAQEhdMjMpW09IXSlbQ0BIXTFbQ0BASF0yW0NIMl1DKEYpPUMoW0NAQF0zNFtDSDNdKVtDSDJdQyg9TylbQ0hdPVtDSF00

>  <s_epik_cmdline>  (340) 
J2VwaWtfcHl0aG9uJywgJy1waHQnLCAnMi4wJywgJy1waCcsICc3LjAnLCAnLXRuJywgJzgnLCAnLW1hJywgJzIwMCcsICctaW1hZScsICc8aW5maWxlLm1hZT4nLCAnLW9tYWUnLCAnPG91dGZpbGUubWFlPic=

>  <r_lp_tautomer_probability>  (340) 
1

>  <r_epik_Ionization_Penalty>  (340) 
1.58493e-05

>  <r_epik_Ionization_Penalty_Charging>  (340) 
0

>  <r_epik_Ionization_Penalty_Neutral>  (340) 
1.58493e-05

>  <r_epik_State_Penalty>  (340) 
-0

>  <r_epik_Charging_Adjusted_Penalty>  (340) 
0

>  <i_epik_Tot_Q>  (340) 
0

>  <i_epik_Tot_abs_Q>  (340) 
0

>  <s_epik_Chemistry_Notes>  (340) 
This compound has an ester and may undergo hydrolysis at high or low pH.

>  <s_lp_Force_Field>  (340) 
OPLS3e

>  <r_lp_Energy>  (340) 
52.3943

>  <b_lp_Chiralities_Consistent>  (340) 
1

>  <s_lp_Variant>  (340) 
96:0-1

>  <s_i_glide_gridfile>  (340) 
pfpi4k_grid

>  <i_i_glide_lignum>  (340) 
8

>  <i_i_glide_rotatable_bonds>  (340) 
6

>  <r_i_docking_score>  (340) 
-3.5531

>  <r_i_glide_ligand_efficiency>  (340) 
-0.118437

>  <r_i_glide_ligand_efficiency_sa>  (340) 
-0.36801

>  <r_i_glide_ligand_efficiency_ln>  (340) 
-0.807303

>  <r_i_glide_gscore>  (340) 
-3.5531

>  <r_i_glide_lipo>  (340) 
-0.350006

>  <r_i_glide_hbond>  (340) 
-0.217965

>  <r_i_glide_metal>  (340) 
-0

>  <r_i_glide_rewards>  (340) 
-0.780466

>  <r_i_glide_evdw>  (340) 
-23.2749

>  <r_i_glide_ecoul>  (340) 
-8.966

>  <r_i_glide_erotb>  (340) 
0.335857

>  <r_i_glide_esite>  (340) 
-0.0318743

>  <r_i_glide_emodel>  (340) 
-37.7367

>  <r_i_glide_energy>  (340) 
-32.2409

>  <r_i_glide_einternal>  (340) 
3.54991

>  <r_i_glide_intrahb_reward>  (340) 
-0

>  <i_i_glide_confnum>  (340) 
1

>  <i_i_glide_posenum>  (340) 
19

>  <r_i_glide_eff_state_penalty>  (340) 
0

>  <ligand_id>  (340) 
96

>  <original_smiles>  (340) 
CC(=O)OC1(C(=O)CO)CCC2C3CC(F)=C4CC(=O)C=CC4(C)C3C(O)CC21C

>  <smiles>  (340) 
[H]OC([H])([H])C(=O)C1(OC(=O)C([H])([H])[H])C([H])([H])C([H])([H])C2([H])C3([H])C([H])([H])C(F)=C4C([H])([H])C(=O)C([H])=C([H])C4(C([H])([H])[H])C3([H])C([H])(O[H])C([H])([H])C12C([H])([H])[H]

$$$$
97:0:0
     RDKit          3D

 53 57  0  0  1  0  0  0  0  0999 V2000
    6.5156   -6.4210    1.4817 C   0  0  0  0  0  0  0  0  0  0  0  0
    5.6334   -5.2928    2.0470 C   0  0  2  0  0  0  0  0  0  0  0  0
    4.3088   -5.8714    2.5862 C   0  0  0  0  0  0  0  0  0  0  0  0
    3.9185   -5.1890    3.8996 C   0  0  2  0  0  0  0  0  0  0  0  0
    2.7303   -5.8408    4.6286 C   0  0  1  0  0  0  0  0  0  0  0  0
    3.0864   -7.0392    5.5191 C   0  0  0  0  0  0  0  0  0  0  0  0
    2.1602   -4.8096    5.4203 O   0  0  0  0  0  0  0  0  0  0  0  0
    2.8303   -3.5795    5.1679 C   0  0  1  0  0  0  0  0  0  0  0  0
    3.7901   -3.3442    6.3574 C   0  0  0  0  0  0  0  0  0  0  0  0
    3.4554   -3.7484    3.7519 C   0  0  1  0  0  0  0  0  0  0  0  0
    4.5437   -2.7525    3.2024 C   0  0  2  0  0  0  0  0  0  0  0  0
    4.2869   -1.2884    3.6047 C   0  0  0  0  0  0  0  0  0  0  0  0
    3.3783   -0.9350    4.3523 O   0  0  0  0  0  0  0  0  0  0  0  0
    5.2266   -0.2499    3.0630 C   0  0  0  0  0  0  0  0  0  0  0  0
    5.1757   -0.3734    1.6594 O   0  0  0  0  0  0  0  0  0  0  0  0
    5.6479   -1.5927    1.1658 C   0  0  2  0  0  0  0  0  0  0  0  0
    5.8128   -1.5872   -0.2164 O   0  0  0  0  0  0  0  0  0  0  0  0
    4.6647   -2.0250   -0.9247 C   0  0  1  0  0  0  0  0  0  0  0  0
    4.5050   -1.1118   -2.1422 C   0  0  0  0  0  0  0  0  0  0  0  0
    4.9861   -3.4593   -1.3909 C   0  0  0  0  0  0  0  0  0  0  0  0
    4.8747   -4.5194   -0.2894 C   0  0  0  0  0  0  0  0  0  0  0  0
    5.4963   -4.0911    1.0694 C   0  0  1  0  0  0  0  0  0  0  0  0
    4.7651   -2.8174    1.6351 C   0  0  1  0  0  0  0  0  0  0  0  0
    3.4724   -2.7955    1.0312 O   0  0  0  0  0  0  0  0  0  0  0  0
    3.4642   -1.8706   -0.1714 O   0  0  0  0  0  0  0  0  0  0  0  0
    5.9841   -7.0144    0.7380 H   0  0  0  0  0  0  0  0  0  0  0  0
    6.8201   -7.1117    2.2697 H   0  0  0  0  0  0  0  0  0  0  0  0
    7.4276   -6.0329    1.0278 H   0  0  0  0  0  0  0  0  0  0  0  0
    6.2048   -4.9286    2.8995 H   0  0  0  0  0  0  0  0  0  0  0  0
    3.4985   -5.8318    1.8547 H   0  0  0  0  0  0  0  0  0  0  0  0
    4.4559   -6.9291    2.8142 H   0  0  0  0  0  0  0  0  0  0  0  0
    4.7735   -5.2301    4.5756 H   0  0  0  0  0  0  0  0  0  0  0  0
    1.9647   -6.1440    3.9163 H   0  0  0  0  0  0  0  0  0  0  0  0
    3.4944   -7.8695    4.9403 H   0  0  0  0  0  0  0  0  0  0  0  0
    2.2037   -7.4104    6.0417 H   0  0  0  0  0  0  0  0  0  0  0  0
    3.8185   -6.7647    6.2788 H   0  0  0  0  0  0  0  0  0  0  0  0
    2.0548   -2.8125    5.1819 H   0  0  0  0  0  0  0  0  0  0  0  0
    4.3426   -2.4120    6.2669 H   0  0  0  0  0  0  0  0  0  0  0  0
    4.5106   -4.1489    6.4887 H   0  0  0  0  0  0  0  0  0  0  0  0
    3.2210   -3.2828    7.2858 H   0  0  0  0  0  0  0  0  0  0  0  0
    2.6081   -3.7559    3.0607 H   0  0  0  0  0  0  0  0  0  0  0  0
    5.4959   -2.9867    3.6824 H   0  0  0  0  0  0  0  0  0  0  0  0
    4.9337    0.7624    3.3720 H   0  0  0  0  0  0  0  0  0  0  0  0
    6.2414   -0.4116    3.4226 H   0  0  0  0  0  0  0  0  0  0  0  0
    6.6581   -1.6891    1.5583 H   0  0  0  0  0  0  0  0  0  0  0  0
    4.2784   -0.0995   -1.8317 H   0  0  0  0  0  0  0  0  0  0  0  0
    3.6981   -1.4356   -2.7968 H   0  0  0  0  0  0  0  0  0  0  0  0
    5.4203   -1.0703   -2.7208 H   0  0  0  0  0  0  0  0  0  0  0  0
    4.3530   -3.7496   -2.2293 H   0  0  0  0  0  0  0  0  0  0  0  0
    6.0060   -3.4643   -1.7899 H   0  0  0  0  0  0  0  0  0  0  0  0
    3.8287   -4.8106   -0.1838 H   0  0  0  0  0  0  0  0  0  0  0  0
    5.3763   -5.4001   -0.6722 H   0  0  0  0  0  0  0  0  0  0  0  0
    6.5324   -3.8111    0.8614 H   0  0  0  0  0  0  0  0  0  0  0  0
  1  2  1  0
  1 26  1  0
  1 27  1  0
  1 28  1  0
  2 22  1  0
  2  3  1  0
  2 29  1  1
  3  4  1  0
  3 30  1  0
  3 31  1  0
  4 10  1  0
  4  5  1  0
  4 32  1  1
  5  6  1  0
  5  7  1  0
  5 33  1  6
  6 34  1  0
  6 35  1  0
  6 36  1  0
  7  8  1  0
  8  9  1  0
  8 10  1  0
  8 37  1  6
  9 38  1  0
  9 39  1  0
  9 40  1  0
 10 11  1  0
 10 41  1  6
 11 23  1  0
 11 12  1  0
 11 42  1  1
 12 13  2  0
 12 14  1  0
 14 15  1  0
 14 43  1  0
 14 44  1  0
 15 16  1  0
 16 23  1  0
 16 17  1  0
 16 45  1  1
 17 18  1  0
 18 25  1  0
 18 19  1  6
 18 20  1  0
 19 46  1  0
 19 47  1  0
 19 48  1  0
 20 21  1  0
 20 49  1  0
 20 50  1  0
 21 22  1  0
 21 51  1  0
 21 52  1  0
 22 23  1  0
 22 53  1  6
 23 24  1  6
 24 25  1  0
M  END
>  <i_m_ct_stereo_status>  (341) 
1

>  <s_m_source_file>  (341) 
/var/tmp/pbs.5076255.sched01/tmpl4jv_xt6/1264eazgjw7.sdf

>  <i_m_source_file_index>  (341) 
9

>  <i_lp_mmshare_version>  (341) 
48012

>  <i_f3d_flags>  (341) 
0

>  <s_epik_input>  (341) 
W0NIM11bQ0BASF0xT1tDQEhdKFtDSDNdKVtDQEhdKFtDQEBIXTFbQ0BIXTJbQ0BAXTM0NSlbQ0gyXVtDQEBIXShbQ0gzXSlbQ0BIXTRbQ0gyXVtDSDJdW0NAQF0oW0NIM10pKE9PNSlPW0NASF0zT1tDSDJdQzI9Tw==

>  <s_epik_cmdline>  (341) 
J2VwaWtfcHl0aG9uJywgJy1waHQnLCAnMi4wJywgJy1waCcsICc3LjAnLCAnLXRuJywgJzgnLCAnLW1hJywgJzIwMCcsICctaW1hZScsICc8aW5maWxlLm1hZT4nLCAnLW9tYWUnLCAnPG91dGZpbGUubWFlPic=

>  <r_lp_tautomer_probability>  (341) 
1

>  <r_epik_Ionization_Penalty>  (341) 
7.035e-11

>  <r_epik_Ionization_Penalty_Charging>  (341) 
0

>  <r_epik_Ionization_Penalty_Neutral>  (341) 
7.035e-11

>  <r_epik_State_Penalty>  (341) 
-0

>  <r_epik_Charging_Adjusted_Penalty>  (341) 
0

>  <i_epik_Tot_Q>  (341) 
0

>  <i_epik_Tot_abs_Q>  (341) 
0

>  <s_epik_Chemistry_Notes>  (341) 
This compound contains an acetal/aminal-like group ( X-CH(R)-Y where X, Y are N, S, or O) that may be acid/base labile, releasing an aldehyde.

>  <s_lp_Force_Field>  (341) 
OPLS3e

>  <r_lp_Energy>  (341) 
38.0275

>  <b_lp_Chiralities_Consistent>  (341) 
1

>  <s_lp_Variant>  (341) 
97:0-1

>  <s_i_glide_gridfile>  (341) 
pfpi4k_grid

>  <i_i_glide_lignum>  (341) 
9

>  <i_i_glide_rotatable_bonds>  (341) 
0

>  <r_i_docking_score>  (341) 
-2.75471

>  <r_i_glide_ligand_efficiency>  (341) 
-0.110188

>  <r_i_glide_ligand_efficiency_sa>  (341) 
-0.322192

>  <r_i_glide_ligand_efficiency_ln>  (341) 
-0.652948

>  <r_i_glide_gscore>  (341) 
-2.75471

>  <r_i_glide_lipo>  (341) 
-0.435795

>  <r_i_glide_hbond>  (341) 
-0.083728

>  <r_i_glide_metal>  (341) 
-0

>  <r_i_glide_rewards>  (341) 
-1.2033

>  <r_i_glide_evdw>  (341) 
-21.8476

>  <r_i_glide_ecoul>  (341) 
0.575489

>  <r_i_glide_erotb>  (341) 
0

>  <r_i_glide_esite>  (341) 
-0.0258215

>  <r_i_glide_emodel>  (341) 
-24.3702

>  <r_i_glide_energy>  (341) 
-21.2721

>  <r_i_glide_einternal>  (341) 
0

>  <r_i_glide_intrahb_reward>  (341) 
-0

>  <i_i_glide_confnum>  (341) 
1

>  <i_i_glide_posenum>  (341) 
1

>  <r_i_glide_eff_state_penalty>  (341) 
0

>  <ligand_id>  (341) 
97

>  <original_smiles>  (341) 
CC1CC2C(C)OC(C)C2C2C(=O)COC3OC4(C)CCC1C32OO4

>  <smiles>  (341) 
[H]C1([H])OC2([H])OC3(C([H])([H])[H])OOC24C([H])(C1=O)C1([H])C([H])(C([H])([H])[H])OC([H])(C([H])([H])[H])C1([H])C([H])([H])C([H])(C([H])([H])[H])C4([H])C([H])([H])C3([H])[H]

$$$$
97:0:1
     RDKit          3D

 53 57  0  0  1  0  0  0  0  0999 V2000
    3.2876   -0.0053    2.8169 C   0  0  0  0  0  0  0  0  0  0  0  0
    3.7555   -1.3486    2.2183 C   0  0  2  0  0  0  0  0  0  0  0  0
    3.3445   -1.4463    0.7418 C   0  0  0  0  0  0  0  0  0  0  0  0
    4.4448   -2.0725   -0.1065 C   0  0  2  0  0  0  0  0  0  0  0  0
    4.1901   -2.0221   -1.6273 C   0  0  1  0  0  0  0  0  0  0  0  0
    4.6362   -0.7337   -2.3198 C   0  0  0  0  0  0  0  0  0  0  0  0
    4.9682   -3.0778   -2.1584 O   0  0  0  0  0  0  0  0  0  0  0  0
    5.5412   -3.8407   -1.1036 C   0  0  1  0  0  0  0  0  0  0  0  0
    7.0329   -3.4216   -1.0295 C   0  0  0  0  0  0  0  0  0  0  0  0
    4.6587   -3.5548    0.1332 C   0  0  1  0  0  0  0  0  0  0  0  0
    5.1217   -3.9526    1.5810 C   0  0  2  0  0  0  0  0  0  0  0  0
    5.8939   -5.2964    1.6524 C   0  0  0  0  0  0  0  0  0  0  0  0
    6.1945   -5.9626    0.6595 O   0  0  0  0  0  0  0  0  0  0  0  0
    6.2613   -5.8013    3.0326 C   0  0  0  0  0  0  0  0  0  0  0  0
    5.0719   -5.8708    3.7904 O   0  0  0  0  0  0  0  0  0  0  0  0
    4.4629   -4.6374    4.0069 C   0  0  2  0  0  0  0  0  0  0  0  0
    3.4453   -4.7338    4.9413 O   0  0  0  0  0  0  0  0  0  0  0  0
    2.1639   -5.0003    4.4055 C   0  0  1  0  0  0  0  0  0  0  0  0
    1.4805   -6.0081    5.3406 C   0  0  0  0  0  0  0  0  0  0  0  0
    1.4096   -3.6561    4.4217 C   0  0  0  0  0  0  0  0  0  0  0  0
    1.8347   -2.6563    3.3328 C   0  0  0  0  0  0  0  0  0  0  0  0
    3.3653   -2.5707    3.0985 C   0  0  1  0  0  0  0  0  0  0  0  0
    3.9507   -3.9726    2.6664 C   0  0  1  0  0  0  0  0  0  0  0  0
    2.8612   -4.7120    2.1053 O   0  0  0  0  0  0  0  0  0  0  0  0
    2.2283   -5.6309    3.1345 O   0  0  0  0  0  0  0  0  0  0  0  0
    2.2155    0.1527    2.6849 H   0  0  0  0  0  0  0  0  0  0  0  0
    3.7921    0.8244    2.3246 H   0  0  0  0  0  0  0  0  0  0  0  0
    3.5145    0.0564    3.8804 H   0  0  0  0  0  0  0  0  0  0  0  0
    4.8402   -1.2811    2.2585 H   0  0  0  0  0  0  0  0  0  0  0  0
    2.3976   -1.9714    0.6057 H   0  0  0  0  0  0  0  0  0  0  0  0
    3.1772   -0.4414    0.3496 H   0  0  0  0  0  0  0  0  0  0  0  0
    5.3716   -1.5395    0.0977 H   0  0  0  0  0  0  0  0  0  0  0  0
    3.1461   -2.2386   -1.8502 H   0  0  0  0  0  0  0  0  0  0  0  0
    4.1159    0.1430   -1.9583 H   0  0  0  0  0  0  0  0  0  0  0  0
    4.4807   -0.7941   -3.3970 H   0  0  0  0  0  0  0  0  0  0  0  0
    5.6959   -0.5501   -2.1401 H   0  0  0  0  0  0  0  0  0  0  0  0
    5.4325   -4.8849   -1.4114 H   0  0  0  0  0  0  0  0  0  0  0  0
    7.5793   -3.9660   -0.2679 H   0  0  0  0  0  0  0  0  0  0  0  0
    7.1739   -2.3525   -0.8441 H   0  0  0  0  0  0  0  0  0  0  0  0
    7.5243   -3.6221   -1.9800 H   0  0  0  0  0  0  0  0  0  0  0  0
    3.7097   -4.0618   -0.0670 H   0  0  0  0  0  0  0  0  0  0  0  0
    5.8584   -3.2209    1.9220 H   0  0  0  0  0  0  0  0  0  0  0  0
    6.7495   -6.7750    2.9743 H   0  0  0  0  0  0  0  0  0  0  0  0
    6.9812   -5.1288    3.4928 H   0  0  0  0  0  0  0  0  0  0  0  0
    5.2220   -4.0062    4.4742 H   0  0  0  0  0  0  0  0  0  0  0  0
    2.0186   -6.9535    5.3242 H   0  0  0  0  0  0  0  0  0  0  0  0
    0.4554   -6.2068    5.0312 H   0  0  0  0  0  0  0  0  0  0  0  0
    1.4574   -5.6526    6.3734 H   0  0  0  0  0  0  0  0  0  0  0  0
    0.3312   -3.8118    4.3677 H   0  0  0  0  0  0  0  0  0  0  0  0
    1.5799   -3.1913    5.3985 H   0  0  0  0  0  0  0  0  0  0  0  0
    1.3173   -2.9141    2.4127 H   0  0  0  0  0  0  0  0  0  0  0  0
    1.4350   -1.6898    3.6276 H   0  0  0  0  0  0  0  0  0  0  0  0
    3.7981   -2.3232    4.0718 H   0  0  0  0  0  0  0  0  0  0  0  0
  1  2  1  0
  1 26  1  0
  1 27  1  0
  1 28  1  0
  2 22  1  0
  2  3  1  0
  2 29  1  6
  3  4  1  0
  3 30  1  0
  3 31  1  0
  4 10  1  0
  4  5  1  0
  4 32  1  6
  5  6  1  0
  5  7  1  0
  5 33  1  1
  6 34  1  0
  6 35  1  0
  6 36  1  0
  7  8  1  0
  8  9  1  0
  8 10  1  0
  8 37  1  6
  9 38  1  0
  9 39  1  0
  9 40  1  0
 10 11  1  0
 10 41  1  6
 11 23  1  0
 11 12  1  0
 11 42  1  1
 12 13  2  0
 12 14  1  0
 14 15  1  0
 14 43  1  0
 14 44  1  0
 15 16  1  0
 16 23  1  0
 16 17  1  0
 16 45  1  1
 17 18  1  0
 18 25  1  0
 18 19  1  1
 18 20  1  0
 19 46  1  0
 19 47  1  0
 19 48  1  0
 20 21  1  0
 20 49  1  0
 20 50  1  0
 21 22  1  0
 21 51  1  0
 21 52  1  0
 22 23  1  0
 22 53  1  1
 23 24  1  6
 24 25  1  0
M  END
>  <i_m_ct_stereo_status>  (342) 
1

>  <s_m_source_file>  (342) 
/var/tmp/pbs.5076255.sched01/tmpl4jv_xt6/1264eazgjw7.sdf

>  <i_m_source_file_index>  (342) 
9

>  <i_lp_mmshare_version>  (342) 
48012

>  <i_f3d_flags>  (342) 
0

>  <s_epik_input>  (342) 
W0NIM11bQ0BASF0xT1tDQEhdKFtDSDNdKVtDQEhdKFtDQEBIXTFbQ0BIXTJbQ0BAXTM0NSlbQ0gyXVtDQEBIXShbQ0gzXSlbQ0BIXTRbQ0gyXVtDSDJdW0NAQF0oW0NIM10pKE9PNSlPW0NASF0zT1tDSDJdQzI9Tw==

>  <s_epik_cmdline>  (342) 
J2VwaWtfcHl0aG9uJywgJy1waHQnLCAnMi4wJywgJy1waCcsICc3LjAnLCAnLXRuJywgJzgnLCAnLW1hJywgJzIwMCcsICctaW1hZScsICc8aW5maWxlLm1hZT4nLCAnLW9tYWUnLCAnPG91dGZpbGUubWFlPic=

>  <r_lp_tautomer_probability>  (342) 
1

>  <r_epik_Ionization_Penalty>  (342) 
7.035e-11

>  <r_epik_Ionization_Penalty_Charging>  (342) 
0

>  <r_epik_Ionization_Penalty_Neutral>  (342) 
7.035e-11

>  <r_epik_State_Penalty>  (342) 
-0

>  <r_epik_Charging_Adjusted_Penalty>  (342) 
0

>  <i_epik_Tot_Q>  (342) 
0

>  <i_epik_Tot_abs_Q>  (342) 
0

>  <s_epik_Chemistry_Notes>  (342) 
This compound contains an acetal/aminal-like group ( X-CH(R)-Y where X, Y are N, S, or O) that may be acid/base labile, releasing an aldehyde.

>  <s_lp_Force_Field>  (342) 
OPLS3e

>  <r_lp_Energy>  (342) 
38.0275

>  <b_lp_Chiralities_Consistent>  (342) 
1

>  <s_lp_Variant>  (342) 
97:0-1

>  <s_i_glide_gridfile>  (342) 
pfpi4k_grid

>  <i_i_glide_lignum>  (342) 
9

>  <i_i_glide_rotatable_bonds>  (342) 
0

>  <r_i_docking_score>  (342) 
-2.53968

>  <r_i_glide_ligand_efficiency>  (342) 
-0.101587

>  <r_i_glide_ligand_efficiency_sa>  (342) 
-0.297042

>  <r_i_glide_ligand_efficiency_ln>  (342) 
-0.60198

>  <r_i_glide_gscore>  (342) 
-2.53968

>  <r_i_glide_lipo>  (342) 
-0.315398

>  <r_i_glide_hbond>  (342) 
0

>  <r_i_glide_metal>  (342) 
-0

>  <r_i_glide_rewards>  (342) 
-1.08884

>  <r_i_glide_evdw>  (342) 
-20.7857

>  <r_i_glide_ecoul>  (342) 
-0.640992

>  <r_i_glide_erotb>  (342) 
0

>  <r_i_glide_esite>  (342) 
0

>  <r_i_glide_emodel>  (342) 
-24.2653

>  <r_i_glide_energy>  (342) 
-21.4267

>  <r_i_glide_einternal>  (342) 
0

>  <r_i_glide_intrahb_reward>  (342) 
-0

>  <i_i_glide_confnum>  (342) 
2

>  <i_i_glide_posenum>  (342) 
35

>  <r_i_glide_eff_state_penalty>  (342) 
0

>  <ligand_id>  (342) 
97

>  <original_smiles>  (342) 
CC1CC2C(C)OC(C)C2C2C(=O)COC3OC4(C)CCC1C32OO4

>  <smiles>  (342) 
[H]C1([H])OC2([H])OC3(C([H])([H])[H])OOC24C([H])(C1=O)C1([H])C([H])(C([H])([H])[H])OC([H])(C([H])([H])[H])C1([H])C([H])([H])C([H])(C([H])([H])[H])C4([H])C([H])([H])C3([H])[H]

$$$$
97:0:2
     RDKit          3D

 53 57  0  0  1  0  0  0  0  0999 V2000
    2.7472    0.6071    2.8179 C   0  0  0  0  0  0  0  0  0  0  0  0
    3.2363   -0.8320    2.5516 C   0  0  2  0  0  0  0  0  0  0  0  0
    3.0425   -1.1994    1.0709 C   0  0  0  0  0  0  0  0  0  0  0  0
    4.2310   -1.9957    0.5300 C   0  0  2  0  0  0  0  0  0  0  0  0
    4.2098   -2.2234   -0.9913 C   0  0  1  0  0  0  0  0  0  0  0  0
    4.7936   -1.0792   -1.8287 C   0  0  0  0  0  0  0  0  0  0  0  0
    5.0108   -3.3783   -1.2008 O   0  0  0  0  0  0  0  0  0  0  0  0
    5.3926   -3.9507    0.0458 C   0  0  1  0  0  0  0  0  0  0  0  0
    6.8714   -3.5601    0.2723 C   0  0  0  0  0  0  0  0  0  0  0  0
    4.3465   -3.4159    1.0635 C   0  0  1  0  0  0  0  0  0  0  0  0
    4.5677   -3.5381    2.6237 C   0  0  2  0  0  0  0  0  0  0  0  0
    5.2557   -4.8592    3.0470 C   0  0  0  0  0  0  0  0  0  0  0  0
    5.6656   -5.7112    2.2668 O   0  0  0  0  0  0  0  0  0  0  0  0
    5.4117   -5.0746    4.5370 C   0  0  0  0  0  0  0  0  0  0  0  0
    4.1229   -4.9906    5.1047 O   0  0  0  0  0  0  0  0  0  0  0  0
    3.5341   -3.7351    5.0052 C   0  0  2  0  0  0  0  0  0  0  0  0
    2.3820   -3.6554    5.7781 O   0  0  0  0  0  0  0  0  0  0  0  0
    1.1823   -3.9780    5.1080 C   0  0  1  0  0  0  0  0  0  0  0  0
    0.3286   -4.7868    6.0971 C   0  0  0  0  0  0  0  0  0  0  0  0
    0.4987   -2.6405    4.7662 C   0  0  0  0  0  0  0  0  0  0  0  0
    1.1172   -1.8752    3.5861 C   0  0  0  0  0  0  0  0  0  0  0  0
    2.6694   -1.8649    3.5712 C   0  0  1  0  0  0  0  0  0  0  0  0
    3.2557   -3.3324    3.5032 C   0  0  1  0  0  0  0  0  0  0  0  0
    2.2407   -4.1643    2.9225 O   0  0  0  0  0  0  0  0  0  0  0  0
    1.3813   -4.8402    3.9953 O   0  0  0  0  0  0  0  0  0  0  0  0
    1.7145    0.7612    2.4990 H   0  0  0  0  0  0  0  0  0  0  0  0
    3.3557    1.3277    2.2685 H   0  0  0  0  0  0  0  0  0  0  0  0
    2.8200    0.8655    3.8752 H   0  0  0  0  0  0  0  0  0  0  0  0
    4.3074   -0.7734    2.7430 H   0  0  0  0  0  0  0  0  0  0  0  0
    2.1061   -1.7283    0.8995 H   0  0  0  0  0  0  0  0  0  0  0  0
    2.9767   -0.2825    0.4834 H   0  0  0  0  0  0  0  0  0  0  0  0
    5.1393   -1.4441    0.7724 H   0  0  0  0  0  0  0  0  0  0  0  0
    3.1978   -2.4552   -1.3294 H   0  0  0  0  0  0  0  0  0  0  0  0
    4.2174   -0.1665   -1.7231 H   0  0  0  0  0  0  0  0  0  0  0  0
    4.8037   -1.3378   -2.8877 H   0  0  0  0  0  0  0  0  0  0  0  0
    5.8145   -0.8538   -1.5284 H   0  0  0  0  0  0  0  0  0  0  0  0
    5.3176   -5.0331   -0.0706 H   0  0  0  0  0  0  0  0  0  0  0  0
    7.2703   -3.9551    1.2041 H   0  0  0  0  0  0  0  0  0  0  0  0
    7.0279   -2.4834    0.2737 H   0  0  0  0  0  0  0  0  0  0  0  0
    7.4878   -3.9627   -0.5323 H   0  0  0  0  0  0  0  0  0  0  0  0
    3.4159   -3.9293    0.8197 H   0  0  0  0  0  0  0  0  0  0  0  0
    5.2843   -2.7692    2.9172 H   0  0  0  0  0  0  0  0  0  0  0  0
    5.8590   -6.0467    4.7478 H   0  0  0  0  0  0  0  0  0  0  0  0
    6.0700   -4.3229    4.9644 H   0  0  0  0  0  0  0  0  0  0  0  0
    4.2316   -3.0354    5.4642 H   0  0  0  0  0  0  0  0  0  0  0  0
    0.8187   -5.7318    6.3361 H   0  0  0  0  0  0  0  0  0  0  0  0
   -0.6504   -5.0302    5.6784 H   0  0  0  0  0  0  0  0  0  0  0  0
    0.1676   -4.2520    7.0341 H   0  0  0  0  0  0  0  0  0  0  0  0
   -0.5656   -2.7848    4.5750 H   0  0  0  0  0  0  0  0  0  0  0  0
    0.5449   -2.0056    5.6537 H   0  0  0  0  0  0  0  0  0  0  0  0
    0.7261   -2.2844    2.6573 H   0  0  0  0  0  0  0  0  0  0  0  0
    0.7259   -0.8612    3.6382 H   0  0  0  0  0  0  0  0  0  0  0  0
    2.9664   -1.4411    4.5301 H   0  0  0  0  0  0  0  0  0  0  0  0
  1  2  1  0
  1 26  1  0
  1 27  1  0
  1 28  1  0
  2 22  1  0
  2  3  1  0
  2 29  1  1
  3  4  1  0
  3 30  1  0
  3 31  1  0
  4 10  1  0
  4  5  1  0
  4 32  1  6
  5  6  1  0
  5  7  1  0
  5 33  1  6
  6 34  1  0
  6 35  1  0
  6 36  1  0
  7  8  1  0
  8  9  1  0
  8 10  1  0
  8 37  1  6
  9 38  1  0
  9 39  1  0
  9 40  1  0
 10 11  1  0
 10 41  1  6
 11 23  1  0
 11 12  1  0
 11 42  1  1
 12 13  2  0
 12 14  1  0
 14 15  1  0
 14 43  1  0
 14 44  1  0
 15 16  1  0
 16 23  1  0
 16 17  1  0
 16 45  1  1
 17 18  1  0
 18 25  1  0
 18 19  1  1
 18 20  1  0
 19 46  1  0
 19 47  1  0
 19 48  1  0
 20 21  1  0
 20 49  1  0
 20 50  1  0
 21 22  1  0
 21 51  1  0
 21 52  1  0
 22 23  1  0
 22 53  1  1
 23 24  1  6
 24 25  1  0
M  END
>  <i_m_ct_stereo_status>  (343) 
1

>  <s_m_source_file>  (343) 
/var/tmp/pbs.5076255.sched01/tmpl4jv_xt6/1264eazgjw7.sdf

>  <i_m_source_file_index>  (343) 
9

>  <i_lp_mmshare_version>  (343) 
48012

>  <i_f3d_flags>  (343) 
0

>  <s_epik_input>  (343) 
W0NIM11bQ0BASF0xT1tDQEhdKFtDSDNdKVtDQEhdKFtDQEBIXTFbQ0BIXTJbQ0BAXTM0NSlbQ0gyXVtDQEBIXShbQ0gzXSlbQ0BIXTRbQ0gyXVtDSDJdW0NAQF0oW0NIM10pKE9PNSlPW0NASF0zT1tDSDJdQzI9Tw==

>  <s_epik_cmdline>  (343) 
J2VwaWtfcHl0aG9uJywgJy1waHQnLCAnMi4wJywgJy1waCcsICc3LjAnLCAnLXRuJywgJzgnLCAnLW1hJywgJzIwMCcsICctaW1hZScsICc8aW5maWxlLm1hZT4nLCAnLW9tYWUnLCAnPG91dGZpbGUubWFlPic=

>  <r_lp_tautomer_probability>  (343) 
1

>  <r_epik_Ionization_Penalty>  (343) 
7.035e-11

>  <r_epik_Ionization_Penalty_Charging>  (343) 
0

>  <r_epik_Ionization_Penalty_Neutral>  (343) 
7.035e-11

>  <r_epik_State_Penalty>  (343) 
-0

>  <r_epik_Charging_Adjusted_Penalty>  (343) 
0

>  <i_epik_Tot_Q>  (343) 
0

>  <i_epik_Tot_abs_Q>  (343) 
0

>  <s_epik_Chemistry_Notes>  (343) 
This compound contains an acetal/aminal-like group ( X-CH(R)-Y where X, Y are N, S, or O) that may be acid/base labile, releasing an aldehyde.

>  <s_lp_Force_Field>  (343) 
OPLS3e

>  <r_lp_Energy>  (343) 
38.0275

>  <b_lp_Chiralities_Consistent>  (343) 
1

>  <s_lp_Variant>  (343) 
97:0-1

>  <s_i_glide_gridfile>  (343) 
pfpi4k_grid

>  <i_i_glide_lignum>  (343) 
9

>  <i_i_glide_rotatable_bonds>  (343) 
0

>  <r_i_docking_score>  (343) 
-2.35752

>  <r_i_glide_ligand_efficiency>  (343) 
-0.0943009

>  <r_i_glide_ligand_efficiency_sa>  (343) 
-0.275737

>  <r_i_glide_ligand_efficiency_ln>  (343) 
-0.558803

>  <r_i_glide_gscore>  (343) 
-2.35752

>  <r_i_glide_lipo>  (343) 
-0.278278

>  <r_i_glide_hbond>  (343) 
0

>  <r_i_glide_metal>  (343) 
-0

>  <r_i_glide_rewards>  (343) 
-1.02315

>  <r_i_glide_evdw>  (343) 
-21.8824

>  <r_i_glide_ecoul>  (343) 
0.253505

>  <r_i_glide_erotb>  (343) 
0

>  <r_i_glide_esite>  (343) 
0

>  <r_i_glide_emodel>  (343) 
-24.2983

>  <r_i_glide_energy>  (343) 
-21.6289

>  <r_i_glide_einternal>  (343) 
0

>  <r_i_glide_intrahb_reward>  (343) 
-0

>  <i_i_glide_confnum>  (343) 
1

>  <i_i_glide_posenum>  (343) 
2

>  <r_i_glide_eff_state_penalty>  (343) 
0

>  <ligand_id>  (343) 
97

>  <original_smiles>  (343) 
CC1CC2C(C)OC(C)C2C2C(=O)COC3OC4(C)CCC1C32OO4

>  <smiles>  (343) 
[H]C1([H])OC2([H])OC3(C([H])([H])[H])OOC24C([H])(C1=O)C1([H])C([H])(C([H])([H])[H])OC([H])(C([H])([H])[H])C1([H])C([H])([H])C([H])(C([H])([H])[H])C4([H])C([H])([H])C3([H])[H]

$$$$
98:0:0
     RDKit          3D

 54 57  0  0  1  0  0  0  0  0999 V2000
    3.4455    0.0707   -4.8777 C   0  0  0  0  0  0  0  0  0  0  0  0
    3.7973   -1.1811   -4.3035 O   0  0  0  0  0  0  0  0  0  0  0  0
    4.0753   -1.0878   -2.9111 C   0  0  0  0  0  0  0  0  0  0  0  0
    4.0558   -2.5028   -2.2843 C   0  0  2  0  0  0  0  0  0  0  0  0
    2.6290   -3.0620   -2.1093 C   0  0  0  0  0  0  0  0  0  0  0  0
    2.6096   -3.7201   -0.7270 C   0  0  1  0  0  0  0  0  0  0  0  0
    1.8043   -4.8793   -0.7120 O   0  0  0  0  0  0  0  0  0  0  0  0
    4.0954   -4.0286   -0.4143 C   0  0  1  0  0  0  0  0  0  0  0  0
    4.8256   -2.7612   -0.9425 C   0  0  1  0  0  0  0  0  0  0  0  0
    6.3188   -2.9784   -1.2659 C   0  0  0  0  0  0  0  0  0  0  0  0
    4.6983   -1.6473    0.1284 C   0  0  0  0  0  0  0  0  0  0  0  0
    4.4725   -0.4818   -0.1663 O   0  0  0  0  0  0  0  0  0  0  0  0
    4.8740   -2.0219    1.4097 O   0  0  0  0  0  0  0  0  0  0  0  0
    5.2993   -3.3159    1.8110 C   0  0  1  0  0  0  0  0  0  0  0  0
    4.9495   -3.4439    3.3393 C   0  0  0  0  0  0  0  0  0  0  0  0
    4.3965   -4.8356    3.3432 C   0  0  1  0  0  0  0  0  0  0  0  0
    3.3974   -5.6664    4.1543 C   0  0  0  0  0  0  0  0  0  0  0  0
    3.9974   -6.7304    5.0772 C   0  0  0  0  0  0  0  0  0  0  0  0
    2.3305   -4.9205    4.9662 C   0  0  0  0  0  0  0  0  0  0  0  0
    3.0595   -6.2173    2.7200 C   0  0  0  0  0  0  0  0  0  0  0  0
    3.5092   -4.8838    2.1108 C   0  0  1  0  0  0  0  0  0  0  0  0
    2.4548   -3.9384    2.0952 O   0  0  0  0  0  0  0  0  0  0  0  0
    4.5592   -4.4842    1.0343 C   0  0  1  0  0  0  0  0  0  0  0  0
    5.5552   -5.6617    0.7648 C   0  0  0  0  0  0  0  0  0  0  0  0
    3.2494   -0.0595   -5.9424 H   0  0  0  0  0  0  0  0  0  0  0  0
    4.2403    0.8072   -4.7697 H   0  0  0  0  0  0  0  0  0  0  0  0
    2.5431    0.4723   -4.4210 H   0  0  0  0  0  0  0  0  0  0  0  0
    5.0461   -0.6160   -2.7801 H   0  0  0  0  0  0  0  0  0  0  0  0
    3.3395   -0.4471   -2.4207 H   0  0  0  0  0  0  0  0  0  0  0  0
    4.5353   -3.1512   -3.0201 H   0  0  0  0  0  0  0  0  0  0  0  0
    1.8689   -2.2815   -2.1793 H   0  0  0  0  0  0  0  0  0  0  0  0
    2.4075   -3.7684   -2.9135 H   0  0  0  0  0  0  0  0  0  0  0  0
    2.1939   -2.9820   -0.0535 H   0  0  0  0  0  0  0  0  0  0  0  0
    2.1525   -5.4402   -1.4072 H   0  0  0  0  0  0  0  0  0  0  0  0
    4.3529   -4.8301   -1.1103 H   0  0  0  0  0  0  0  0  0  0  0  0
    6.4655   -3.8577   -1.8912 H   0  0  0  0  0  0  0  0  0  0  0  0
    6.9427   -3.1021   -0.3790 H   0  0  0  0  0  0  0  0  0  0  0  0
    6.7239   -2.1304   -1.8159 H   0  0  0  0  0  0  0  0  0  0  0  0
    6.3769   -3.4010    1.6816 H   0  0  0  0  0  0  0  0  0  0  0  0
    5.8124   -3.3181    3.9830 H   0  0  0  0  0  0  0  0  0  0  0  0
    4.1952   -2.7170    3.6539 H   0  0  0  0  0  0  0  0  0  0  0  0
    5.2566   -5.5013    3.3010 H   0  0  0  0  0  0  0  0  0  0  0  0
    3.2352   -7.4224    5.4372 H   0  0  0  0  0  0  0  0  0  0  0  0
    4.4956   -6.2883    5.9414 H   0  0  0  0  0  0  0  0  0  0  0  0
    4.7409   -7.3341    4.5520 H   0  0  0  0  0  0  0  0  0  0  0  0
    1.4845   -5.5641    5.2020 H   0  0  0  0  0  0  0  0  0  0  0  0
    1.9384   -4.0388    4.4611 H   0  0  0  0  0  0  0  0  0  0  0  0
    2.7447   -4.5597    5.9098 H   0  0  0  0  0  0  0  0  0  0  0  0
    3.6699   -7.0637    2.4021 H   0  0  0  0  0  0  0  0  0  0  0  0
    1.9972   -6.4206    2.5784 H   0  0  0  0  0  0  0  0  0  0  0  0
    2.8539   -3.0845    2.0908 H   0  0  0  0  0  0  0  0  0  0  0  0
    6.2139   -5.9172    1.5937 H   0  0  0  0  0  0  0  0  0  0  0  0
    6.2363   -5.4487   -0.0588 H   0  0  0  0  0  0  0  0  0  0  0  0
    5.0110   -6.5690    0.4944 H   0  0  0  0  0  0  0  0  0  0  0  0
  1  2  1  0
  1 25  1  0
  1 26  1  0
  1 27  1  0
  2  3  1  0
  3  4  1  0
  3 28  1  0
  3 29  1  0
  4  9  1  0
  4  5  1  0
  4 30  1  6
  5  6  1  0
  5 31  1  0
  5 32  1  0
  6  7  1  0
  6  8  1  0
  6 33  1  1
  7 34  1  0
  8 23  1  0
  8  9  1  0
  8 35  1  6
  9 10  1  6
  9 11  1  0
 10 36  1  0
 10 37  1  0
 10 38  1  0
 11 12  2  0
 11 13  1  0
 13 14  1  0
 14 23  1  0
 14 15  1  0
 14 39  1  1
 15 16  1  0
 15 40  1  0
 15 41  1  0
 16 21  1  0
 16 17  1  0
 16 42  1  6
 17 18  1  0
 17 19  1  0
 17 20  1  0
 18 43  1  0
 18 44  1  0
 18 45  1  0
 19 46  1  0
 19 47  1  0
 19 48  1  0
 20 21  1  0
 20 49  1  0
 20 50  1  0
 21 22  1  1
 21 23  1  0
 22 51  1  0
 23 24  1  6
 24 52  1  0
 24 53  1  0
 24 54  1  0
M  END
>  <i_m_ct_stereo_status>  (344) 
1

>  <s_m_source_file>  (344) 
/var/tmp/pbs.5076255.sched01/tmpl4jv_xt6/1264eazgjw7.sdf

>  <i_m_source_file_index>  (344) 
10

>  <i_lp_mmshare_version>  (344) 
48012

>  <i_f3d_flags>  (344) 
0

>  <s_epik_input>  (344) 
W0NIM11PW0NIMl1bQ0BASF0xW0NIMl1bQ0BASF0oW09IXSlbQ0BASF0oW0NAQF0xMltDSDNdKVtDQEBdMyhbQ0gzXSlbQ0BASF0oT0MyPU8pW0NIMl1bQ0BASF00W0NAXTMoW09IXSlbQ0gyXUM0KFtDSDNdKVtDSDNd

>  <s_epik_cmdline>  (344) 
J2VwaWtfcHl0aG9uJywgJy1waHQnLCAnMi4wJywgJy1waCcsICc3LjAnLCAnLXRuJywgJzgnLCAnLW1hJywgJzIwMCcsICctaW1hZScsICc8aW5maWxlLm1hZT4nLCAnLW9tYWUnLCAnPG91dGZpbGUubWFlPic=

>  <r_lp_tautomer_probability>  (344) 
1

>  <r_epik_Ionization_Penalty>  (344) 
4.83134e-07

>  <r_epik_Ionization_Penalty_Charging>  (344) 
0

>  <r_epik_Ionization_Penalty_Neutral>  (344) 
4.83134e-07

>  <r_epik_State_Penalty>  (344) 
-0

>  <r_epik_Charging_Adjusted_Penalty>  (344) 
0

>  <i_epik_Tot_Q>  (344) 
0

>  <i_epik_Tot_abs_Q>  (344) 
0

>  <s_epik_Chemistry_Notes>  (344) 
This compound has an ester and may undergo hydrolysis at high or low pH.

>  <s_lp_Force_Field>  (344) 
OPLS3e

>  <r_lp_Energy>  (344) 
88.2778

>  <b_lp_Chiralities_Consistent>  (344) 
1

>  <s_lp_Variant>  (344) 
98:0-1

>  <s_i_glide_gridfile>  (344) 
pfpi4k_grid

>  <i_i_glide_lignum>  (344) 
10

>  <i_i_glide_rotatable_bonds>  (344) 
4

>  <r_i_docking_score>  (344) 
-3.5743

>  <r_i_glide_ligand_efficiency>  (344) 
-0.148929

>  <r_i_glide_ligand_efficiency_sa>  (344) 
-0.429586

>  <r_i_glide_ligand_efficiency_ln>  (344) 
-0.855493

>  <r_i_glide_gscore>  (344) 
-3.5743

>  <r_i_glide_lipo>  (344) 
-0.463888

>  <r_i_glide_hbond>  (344) 
-0.147742

>  <r_i_glide_metal>  (344) 
-0

>  <r_i_glide_rewards>  (344) 
-1.10156

>  <r_i_glide_evdw>  (344) 
-19.6753

>  <r_i_glide_ecoul>  (344) 
-6.90122

>  <r_i_glide_erotb>  (344) 
0.165112

>  <r_i_glide_esite>  (344) 
-0.00727528

>  <r_i_glide_emodel>  (344) 
-31.9661

>  <r_i_glide_energy>  (344) 
-26.5765

>  <r_i_glide_einternal>  (344) 
1.35048

>  <r_i_glide_intrahb_reward>  (344) 
-0

>  <i_i_glide_confnum>  (344) 
2

>  <i_i_glide_posenum>  (344) 
25

>  <r_i_glide_eff_state_penalty>  (344) 
0

>  <ligand_id>  (344) 
98

>  <original_smiles>  (344) 
COCC1CC(O)C2C1(C)C(=O)OC1CC3C(C)(C)CC3(O)C12C

>  <smiles>  (344) 
[H]OC1([H])C([H])([H])C([H])(C([H])([H])OC([H])([H])[H])C2(C([H])([H])[H])C(=O)OC3([H])C([H])([H])C4([H])C(O[H])(C([H])([H])C4(C([H])([H])[H])C([H])([H])[H])C3(C([H])([H])[H])C12[H]

$$$$
98:0:1
     RDKit          3D

 54 57  0  0  1  0  0  0  0  0999 V2000
    2.9964    0.5679   -5.1112 C   0  0  0  0  0  0  0  0  0  0  0  0
    3.0862   -0.4005   -4.0866 O   0  0  0  0  0  0  0  0  0  0  0  0
    3.9019   -1.4942   -4.4443 C   0  0  0  0  0  0  0  0  0  0  0  0
    3.8280   -2.6979   -3.4650 C   0  0  2  0  0  0  0  0  0  0  0  0
    2.4017   -3.0551   -3.0479 C   0  0  0  0  0  0  0  0  0  0  0  0
    2.4681   -3.2612   -1.5366 C   0  0  1  0  0  0  0  0  0  0  0  0
    1.5630   -4.2776   -1.1300 O   0  0  0  0  0  0  0  0  0  0  0  0
    3.9295   -3.6478   -1.2485 C   0  0  1  0  0  0  0  0  0  0  0  0
    4.7141   -2.7075   -2.1662 C   0  0  1  0  0  0  0  0  0  0  0  0
    6.1168   -3.2236   -2.5364 C   0  0  0  0  0  0  0  0  0  0  0  0
    4.8605   -1.3495   -1.4795 C   0  0  0  0  0  0  0  0  0  0  0  0
    4.8333   -0.3006   -2.1467 O   0  0  0  0  0  0  0  0  0  0  0  0
    5.1547   -1.3532   -0.1728 O   0  0  0  0  0  0  0  0  0  0  0  0
    5.4430   -2.5400    0.5555 C   0  0  1  0  0  0  0  0  0  0  0  0
    5.2585   -2.1723    2.0744 C   0  0  0  0  0  0  0  0  0  0  0  0
    4.5283   -3.4063    2.5398 C   0  0  1  0  0  0  0  0  0  0  0  0
    3.5274   -3.8093    3.6233 C   0  0  0  0  0  0  0  0  0  0  0  0
    4.0922   -4.6375    4.7749 C   0  0  0  0  0  0  0  0  0  0  0  0
    2.6730   -2.7204    4.2628 C   0  0  0  0  0  0  0  0  0  0  0  0
    2.9683   -4.6893    2.4398 C   0  0  0  0  0  0  0  0  0  0  0  0
    3.5120   -3.6473    1.4470 C   0  0  1  0  0  0  0  0  0  0  0  0
    2.6341   -2.5795    1.2597 O   0  0  0  0  0  0  0  0  0  0  0  0
    4.4772   -3.7439    0.2233 C   0  0  1  0  0  0  0  0  0  0  0  0
    5.2612   -5.0872    0.2401 C   0  0  0  0  0  0  0  0  0  0  0  0
    2.3868    1.3912   -4.7595 H   0  0  0  0  0  0  0  0  0  0  0  0
    2.4851    0.1494   -5.9736 H   0  0  0  0  0  0  0  0  0  0  0  0
    3.9798    0.9371   -5.4105 H   0  0  0  0  0  0  0  0  0  0  0  0
    3.4614   -1.7603   -5.3846 H   0  0  0  0  0  0  0  0  0  0  0  0
    4.9358   -1.2024   -4.6298 H   0  0  0  0  0  0  0  0  0  0  0  0
    4.1610   -3.5694   -4.0356 H   0  0  0  0  0  0  0  0  0  0  0  0
    1.7285   -2.2452   -3.2499 H   0  0  0  0  0  0  0  0  0  0  0  0
    2.0093   -3.9033   -3.6176 H   0  0  0  0  0  0  0  0  0  0  0  0
    2.2254   -2.2994   -1.0987 H   0  0  0  0  0  0  0  0  0  0  0  0
    1.7558   -5.0074   -1.7096 H   0  0  0  0  0  0  0  0  0  0  0  0
    4.0730   -4.6442   -1.6706 H   0  0  0  0  0  0  0  0  0  0  0  0
    6.0384   -4.2412   -2.9114 H   0  0  0  0  0  0  0  0  0  0  0  0
    6.8275   -3.2143   -1.6962 H   0  0  0  0  0  0  0  0  0  0  0  0
    6.5540   -2.6726   -3.3239 H   0  0  0  0  0  0  0  0  0  0  0  0
    6.4761   -2.8533    0.3988 H   0  0  0  0  0  0  0  0  0  0  0  0
    6.2043   -2.0050    2.5849 H   0  0  0  0  0  0  0  0  0  0  0  0
    4.6443   -1.2860    2.2078 H   0  0  0  0  0  0  0  0  0  0  0  0
    5.2423   -4.2038    2.6178 H   0  0  0  0  0  0  0  0  0  0  0  0
    3.2964   -5.0687    5.3801 H   0  0  0  0  0  0  0  0  0  0  0  0
    4.7415   -4.0472    5.4218 H   0  0  0  0  0  0  0  0  0  0  0  0
    4.6826   -5.4701    4.3997 H   0  0  0  0  0  0  0  0  0  0  0  0
    1.7817   -3.1283    4.7376 H   0  0  0  0  0  0  0  0  0  0  0  0
    2.3463   -1.9668    3.5508 H   0  0  0  0  0  0  0  0  0  0  0  0
    3.2402   -2.1751    5.0185 H   0  0  0  0  0  0  0  0  0  0  0  0
    3.4366   -5.6679    2.3461 H   0  0  0  0  0  0  0  0  0  0  0  0
    1.8809   -4.7314    2.4419 H   0  0  0  0  0  0  0  0  0  0  0  0
    2.4392   -2.5244    0.3272 H   0  0  0  0  0  0  0  0  0  0  0  0
    5.9814   -5.2013    1.0477 H   0  0  0  0  0  0  0  0  0  0  0  0
    5.8428   -5.2178   -0.6735 H   0  0  0  0  0  0  0  0  0  0  0  0
    4.5739   -5.9372    0.2817 H   0  0  0  0  0  0  0  0  0  0  0  0
  1  2  1  0
  1 25  1  0
  1 26  1  0
  1 27  1  0
  2  3  1  0
  3  4  1  0
  3 28  1  0
  3 29  1  0
  4  9  1  0
  4  5  1  0
  4 30  1  6
  5  6  1  0
  5 31  1  0
  5 32  1  0
  6  7  1  0
  6  8  1  0
  6 33  1  1
  7 34  1  0
  8 23  1  0
  8  9  1  0
  8 35  1  6
  9 10  1  6
  9 11  1  0
 10 36  1  0
 10 37  1  0
 10 38  1  0
 11 12  2  0
 11 13  1  0
 13 14  1  0
 14 23  1  0
 14 15  1  0
 14 39  1  1
 15 16  1  0
 15 40  1  0
 15 41  1  0
 16 21  1  0
 16 17  1  0
 16 42  1  6
 17 18  1  0
 17 19  1  0
 17 20  1  0
 18 43  1  0
 18 44  1  0
 18 45  1  0
 19 46  1  0
 19 47  1  0
 19 48  1  0
 20 21  1  0
 20 49  1  0
 20 50  1  0
 21 22  1  6
 21 23  1  0
 22 51  1  0
 23 24  1  6
 24 52  1  0
 24 53  1  0
 24 54  1  0
M  END
>  <i_m_ct_stereo_status>  (345) 
1

>  <s_m_source_file>  (345) 
/var/tmp/pbs.5076255.sched01/tmpl4jv_xt6/1264eazgjw7.sdf

>  <i_m_source_file_index>  (345) 
10

>  <i_lp_mmshare_version>  (345) 
48012

>  <i_f3d_flags>  (345) 
0

>  <s_epik_input>  (345) 
W0NIM11PW0NIMl1bQ0BASF0xW0NIMl1bQ0BASF0oW09IXSlbQ0BASF0oW0NAQF0xMltDSDNdKVtDQEBdMyhbQ0gzXSlbQ0BASF0oT0MyPU8pW0NIMl1bQ0BASF00W0NAXTMoW09IXSlbQ0gyXUM0KFtDSDNdKVtDSDNd

>  <s_epik_cmdline>  (345) 
J2VwaWtfcHl0aG9uJywgJy1waHQnLCAnMi4wJywgJy1waCcsICc3LjAnLCAnLXRuJywgJzgnLCAnLW1hJywgJzIwMCcsICctaW1hZScsICc8aW5maWxlLm1hZT4nLCAnLW9tYWUnLCAnPG91dGZpbGUubWFlPic=

>  <r_lp_tautomer_probability>  (345) 
1

>  <r_epik_Ionization_Penalty>  (345) 
4.83134e-07

>  <r_epik_Ionization_Penalty_Charging>  (345) 
0

>  <r_epik_Ionization_Penalty_Neutral>  (345) 
4.83134e-07

>  <r_epik_State_Penalty>  (345) 
-0

>  <r_epik_Charging_Adjusted_Penalty>  (345) 
0

>  <i_epik_Tot_Q>  (345) 
0

>  <i_epik_Tot_abs_Q>  (345) 
0

>  <s_epik_Chemistry_Notes>  (345) 
This compound has an ester and may undergo hydrolysis at high or low pH.

>  <s_lp_Force_Field>  (345) 
OPLS3e

>  <r_lp_Energy>  (345) 
88.2778

>  <b_lp_Chiralities_Consistent>  (345) 
1

>  <s_lp_Variant>  (345) 
98:0-1

>  <s_i_glide_gridfile>  (345) 
pfpi4k_grid

>  <i_i_glide_lignum>  (345) 
10

>  <i_i_glide_rotatable_bonds>  (345) 
4

>  <r_i_docking_score>  (345) 
-3.33932

>  <r_i_glide_ligand_efficiency>  (345) 
-0.139138

>  <r_i_glide_ligand_efficiency_sa>  (345) 
-0.401344

>  <r_i_glide_ligand_efficiency_ln>  (345) 
-0.799253

>  <r_i_glide_gscore>  (345) 
-3.33932

>  <r_i_glide_lipo>  (345) 
-1.08438

>  <r_i_glide_hbond>  (345) 
0

>  <r_i_glide_metal>  (345) 
-0

>  <r_i_glide_rewards>  (345) 
-1.10156

>  <r_i_glide_evdw>  (345) 
-18.321

>  <r_i_glide_ecoul>  (345) 
-2.37438

>  <r_i_glide_erotb>  (345) 
0.165112

>  <r_i_glide_esite>  (345) 
-0.0462941

>  <r_i_glide_emodel>  (345) 
-23.5938

>  <r_i_glide_energy>  (345) 
-20.6954

>  <r_i_glide_einternal>  (345) 
3.58161

>  <r_i_glide_intrahb_reward>  (345) 
-0

>  <i_i_glide_confnum>  (345) 
1

>  <i_i_glide_posenum>  (345) 
20

>  <r_i_glide_eff_state_penalty>  (345) 
0

>  <ligand_id>  (345) 
98

>  <original_smiles>  (345) 
COCC1CC(O)C2C1(C)C(=O)OC1CC3C(C)(C)CC3(O)C12C

>  <smiles>  (345) 
[H]OC1([H])C([H])([H])C([H])(C([H])([H])OC([H])([H])[H])C2(C([H])([H])[H])C(=O)OC3([H])C([H])([H])C4([H])C(O[H])(C([H])([H])C4(C([H])([H])[H])C([H])([H])[H])C3(C([H])([H])[H])C12[H]

$$$$
98:0:2
     RDKit          3D

 54 57  0  0  1  0  0  0  0  0999 V2000
    2.6980    0.1960   -4.7857 C   0  0  0  0  0  0  0  0  0  0  0  0
    2.9546   -0.7684   -3.7940 O   0  0  0  0  0  0  0  0  0  0  0  0
    3.8056   -1.8176   -4.1930 C   0  0  0  0  0  0  0  0  0  0  0  0
    3.8239   -2.9416   -3.1413 C   0  0  2  0  0  0  0  0  0  0  0  0
    2.4160   -3.3654   -2.6797 C   0  0  0  0  0  0  0  0  0  0  0  0
    2.5426   -3.5885   -1.1675 C   0  0  1  0  0  0  0  0  0  0  0  0
    1.7970   -4.6964   -0.7185 O   0  0  0  0  0  0  0  0  0  0  0  0
    4.0501   -3.8193   -0.9158 C   0  0  1  0  0  0  0  0  0  0  0  0
    4.7418   -2.8264   -1.8752 C   0  0  1  0  0  0  0  0  0  0  0  0
    6.1795   -3.2230   -2.2672 C   0  0  0  0  0  0  0  0  0  0  0  0
    4.7859   -1.4351   -1.2273 C   0  0  0  0  0  0  0  0  0  0  0  0
    4.7030   -0.4295   -1.8975 O   0  0  0  0  0  0  0  0  0  0  0  0
    5.0418   -1.3994    0.0942 O   0  0  0  0  0  0  0  0  0  0  0  0
    5.4890   -2.5195    0.8393 C   0  0  1  0  0  0  0  0  0  0  0  0
    5.2867   -2.1257    2.3461 C   0  0  0  0  0  0  0  0  0  0  0  0
    4.7122   -3.4177    2.8446 C   0  0  1  0  0  0  0  0  0  0  0  0
    3.7879   -3.8952    3.9667 C   0  0  0  0  0  0  0  0  0  0  0  0
    4.4626   -4.6400    5.1201 C   0  0  0  0  0  0  0  0  0  0  0  0
    2.8334   -2.8786    4.5933 C   0  0  0  0  0  0  0  0  0  0  0  0
    3.2991   -4.8562    2.8215 C   0  0  0  0  0  0  0  0  0  0  0  0
    3.7022   -3.8065    1.7797 C   0  0  1  0  0  0  0  0  0  0  0  0
    2.6723   -2.8744    1.5635 O   0  0  0  0  0  0  0  0  0  0  0  0
    4.6502   -3.8231    0.5475 C   0  0  1  0  0  0  0  0  0  0  0  0
    5.5845   -5.0767    0.5754 C   0  0  0  0  0  0  0  0  0  0  0  0
    2.0544    0.9506   -4.3440 H   0  0  0  0  0  0  0  0  0  0  0  0
    2.1477   -0.2404   -5.6132 H   0  0  0  0  0  0  0  0  0  0  0  0
    3.6116    0.6670   -5.1567 H   0  0  0  0  0  0  0  0  0  0  0  0
    3.3969   -2.2387   -5.0945 H   0  0  0  0  0  0  0  0  0  0  0  0
    4.8061   -1.4511   -4.4126 H   0  0  0  0  0  0  0  0  0  0  0  0
    4.2106   -3.8046   -3.6885 H   0  0  0  0  0  0  0  0  0  0  0  0
    1.6613   -2.6105   -2.8793 H   0  0  0  0  0  0  0  0  0  0  0  0
    2.1037   -4.2541   -3.2408 H   0  0  0  0  0  0  0  0  0  0  0  0
    2.2044   -2.6575   -0.7221 H   0  0  0  0  0  0  0  0  0  0  0  0
    2.0201   -5.3982   -1.3141 H   0  0  0  0  0  0  0  0  0  0  0  0
    4.2358   -4.8086   -1.3403 H   0  0  0  0  0  0  0  0  0  0  0  0
    6.1902   -4.2526   -2.5866 H   0  0  0  0  0  0  0  0  0  0  0  0
    6.8966   -3.1081   -1.4647 H   0  0  0  0  0  0  0  0  0  0  0  0
    6.5431   -2.6557   -3.1159 H   0  0  0  0  0  0  0  0  0  0  0  0
    6.5462   -2.7010    0.6443 H   0  0  0  0  0  0  0  0  0  0  0  0
    6.2138   -1.8413    2.8322 H   0  0  0  0  0  0  0  0  0  0  0  0
    4.5871   -1.3092    2.4734 H   0  0  0  0  0  0  0  0  0  0  0  0
    5.5332   -4.1101    2.9357 H   0  0  0  0  0  0  0  0  0  0  0  0
    3.7291   -5.1439    5.7534 H   0  0  0  0  0  0  0  0  0  0  0  0
    5.0580   -3.9764    5.7488 H   0  0  0  0  0  0  0  0  0  0  0  0
    5.1319   -5.4157    4.7509 H   0  0  0  0  0  0  0  0  0  0  0  0
    1.9998   -3.3690    5.1002 H   0  0  0  0  0  0  0  0  0  0  0  0
    2.4136   -2.1863    3.8712 H   0  0  0  0  0  0  0  0  0  0  0  0
    3.3516   -2.2588    5.3280 H   0  0  0  0  0  0  0  0  0  0  0  0
    3.8592   -5.7880    2.7351 H   0  0  0  0  0  0  0  0  0  0  0  0
    2.2257   -5.0221    2.8497 H   0  0  0  0  0  0  0  0  0  0  0  0
    3.0587   -2.1227    1.1330 H   0  0  0  0  0  0  0  0  0  0  0  0
    6.3192   -5.0905    1.3787 H   0  0  0  0  0  0  0  0  0  0  0  0
    6.1857   -5.1726   -0.3301 H   0  0  0  0  0  0  0  0  0  0  0  0
    4.9940   -5.9945    0.6558 H   0  0  0  0  0  0  0  0  0  0  0  0
  1  2  1  0
  1 25  1  0
  1 26  1  0
  1 27  1  0
  2  3  1  0
  3  4  1  0
  3 28  1  0
  3 29  1  0
  4  9  1  0
  4  5  1  0
  4 30  1  6
  5  6  1  0
  5 31  1  0
  5 32  1  0
  6  7  1  0
  6  8  1  0
  6 33  1  1
  7 34  1  0
  8 23  1  0
  8  9  1  0
  8 35  1  6
  9 10  1  6
  9 11  1  0
 10 36  1  0
 10 37  1  0
 10 38  1  0
 11 12  2  0
 11 13  1  0
 13 14  1  0
 14 23  1  0
 14 15  1  0
 14 39  1  1
 15 16  1  0
 15 40  1  0
 15 41  1  0
 16 21  1  0
 16 17  1  0
 16 42  1  6
 17 18  1  0
 17 19  1  0
 17 20  1  0
 18 43  1  0
 18 44  1  0
 18 45  1  0
 19 46  1  0
 19 47  1  0
 19 48  1  0
 20 21  1  0
 20 49  1  0
 20 50  1  0
 21 22  1  6
 21 23  1  0
 22 51  1  0
 23 24  1  1
 24 52  1  0
 24 53  1  0
 24 54  1  0
M  END
>  <i_m_ct_stereo_status>  (346) 
1

>  <s_m_source_file>  (346) 
/var/tmp/pbs.5076255.sched01/tmpl4jv_xt6/1264eazgjw7.sdf

>  <i_m_source_file_index>  (346) 
10

>  <i_lp_mmshare_version>  (346) 
48012

>  <i_f3d_flags>  (346) 
0

>  <s_epik_input>  (346) 
W0NIM11PW0NIMl1bQ0BASF0xW0NIMl1bQ0BASF0oW09IXSlbQ0BASF0oW0NAQF0xMltDSDNdKVtDQEBdMyhbQ0gzXSlbQ0BASF0oT0MyPU8pW0NIMl1bQ0BASF00W0NAXTMoW09IXSlbQ0gyXUM0KFtDSDNdKVtDSDNd

>  <s_epik_cmdline>  (346) 
J2VwaWtfcHl0aG9uJywgJy1waHQnLCAnMi4wJywgJy1waCcsICc3LjAnLCAnLXRuJywgJzgnLCAnLW1hJywgJzIwMCcsICctaW1hZScsICc8aW5maWxlLm1hZT4nLCAnLW9tYWUnLCAnPG91dGZpbGUubWFlPic=

>  <r_lp_tautomer_probability>  (346) 
1

>  <r_epik_Ionization_Penalty>  (346) 
4.83134e-07

>  <r_epik_Ionization_Penalty_Charging>  (346) 
0

>  <r_epik_Ionization_Penalty_Neutral>  (346) 
4.83134e-07

>  <r_epik_State_Penalty>  (346) 
-0

>  <r_epik_Charging_Adjusted_Penalty>  (346) 
0

>  <i_epik_Tot_Q>  (346) 
0

>  <i_epik_Tot_abs_Q>  (346) 
0

>  <s_epik_Chemistry_Notes>  (346) 
This compound has an ester and may undergo hydrolysis at high or low pH.

>  <s_lp_Force_Field>  (346) 
OPLS3e

>  <r_lp_Energy>  (346) 
88.2778

>  <b_lp_Chiralities_Consistent>  (346) 
1

>  <s_lp_Variant>  (346) 
98:0-1

>  <s_i_glide_gridfile>  (346) 
pfpi4k_grid

>  <i_i_glide_lignum>  (346) 
10

>  <i_i_glide_rotatable_bonds>  (346) 
4

>  <r_i_docking_score>  (346) 
-3.1364

>  <r_i_glide_ligand_efficiency>  (346) 
-0.130683

>  <r_i_glide_ligand_efficiency_sa>  (346) 
-0.376956

>  <r_i_glide_ligand_efficiency_ln>  (346) 
-0.750685

>  <r_i_glide_gscore>  (346) 
-3.1364

>  <r_i_glide_lipo>  (346) 
-0.773605

>  <r_i_glide_hbond>  (346) 
0

>  <r_i_glide_metal>  (346) 
-0

>  <r_i_glide_rewards>  (346) 
-1.10156

>  <r_i_glide_evdw>  (346) 
-19.4049

>  <r_i_glide_ecoul>  (346) 
-2.76283

>  <r_i_glide_erotb>  (346) 
0.165112

>  <r_i_glide_esite>  (346) 
-0.0416828

>  <r_i_glide_emodel>  (346) 
-25.6422

>  <r_i_glide_energy>  (346) 
-22.1677

>  <r_i_glide_einternal>  (346) 
3.06013

>  <r_i_glide_intrahb_reward>  (346) 
-0

>  <i_i_glide_confnum>  (346) 
2

>  <i_i_glide_posenum>  (346) 
22

>  <r_i_glide_eff_state_penalty>  (346) 
0

>  <ligand_id>  (346) 
98

>  <original_smiles>  (346) 
COCC1CC(O)C2C1(C)C(=O)OC1CC3C(C)(C)CC3(O)C12C

>  <smiles>  (346) 
[H]OC1([H])C([H])([H])C([H])(C([H])([H])OC([H])([H])[H])C2(C([H])([H])[H])C(=O)OC3([H])C([H])([H])C4([H])C(O[H])(C([H])([H])C4(C([H])([H])[H])C([H])([H])[H])C3(C([H])([H])[H])C12[H]

$$$$
99:0:0
     RDKit          3D

 61 64  0  0  1  0  0  0  0  0999 V2000
   -1.4804   -9.3538    2.2017 C   0  0  0  0  0  0  0  0  0  0  0  0
   -0.9063   -8.3635    3.0937 N   0  0  0  0  0  0  0  0  0  0  0  0
   -1.7465   -7.4724    3.6787 N   0  0  0  0  0  0  0  0  0  0  0  0
   -1.0289   -6.6942    4.4233 N   0  0  0  0  0  0  0  0  0  0  0  0
    0.3027   -7.0803    4.3313 C   0  0  0  0  0  0  0  0  0  0  0  0
    0.4075   -8.1488    3.4801 C   0  0  0  0  0  0  0  0  0  0  0  0
    1.6002   -8.9721    3.0727 C   0  0  0  0  0  0  0  0  0  0  0  0
    2.5781   -8.2512    2.1624 C   0  0  0  0  0  0  0  0  0  0  0  0
    3.6435   -7.5255    2.5578 C   0  0  0  0  0  0  0  0  0  0  0  0
    4.0122   -7.1802    3.9899 C   0  0  0  0  0  0  0  0  0  0  0  0
    4.6872   -5.7951    3.9112 C   0  0  0  0  0  0  0  0  0  0  0  0
    4.6566   -5.4337    2.4144 C   0  0  2  0  0  0  0  0  0  0  0  0
    4.6261   -6.7799    1.6671 C   0  0  1  0  0  0  0  0  0  0  0  0
    5.9437   -7.6032    1.6976 C   0  0  0  0  0  0  0  0  0  0  0  0
    4.1787   -6.5102    0.2171 C   0  0  0  0  0  0  0  0  0  0  0  0
    5.0049   -5.3764   -0.4471 C   0  0  0  0  0  0  0  0  0  0  0  0
    5.1467   -4.0355    0.3404 C   0  0  1  0  0  0  0  0  0  0  0  0
    4.0039   -2.9758    0.0465 C   0  0  0  0  0  0  0  0  0  0  0  0
    4.2415   -2.3828   -1.3666 C   0  0  0  0  0  0  0  0  0  0  0  0
    2.5837   -3.5906    0.0622 C   0  0  0  0  0  0  0  0  0  0  0  0
    4.0855   -1.7821    1.0418 C   0  0  1  0  0  0  0  0  0  0  0  0
    3.0158   -0.8574    0.9192 O   0  0  0  0  0  0  0  0  0  0  0  0
    4.1672   -2.2338    2.4997 C   0  0  0  0  0  0  0  0  0  0  0  0
    5.4549   -3.0250    2.7006 C   0  0  0  0  0  0  0  0  0  0  0  0
    5.5673   -4.3068    1.8353 C   0  0  1  0  0  0  0  0  0  0  0  0
    7.0718   -4.6902    1.8749 C   0  0  0  0  0  0  0  0  0  0  0  0
   -0.7582  -10.1328    1.9559 H   0  0  0  0  0  0  0  0  0  0  0  0
   -1.7946   -8.8546    1.2837 H   0  0  0  0  0  0  0  0  0  0  0  0
   -2.3461   -9.8210    2.6768 H   0  0  0  0  0  0  0  0  0  0  0  0
    1.0572   -6.5699    4.9031 H   0  0  0  0  0  0  0  0  0  0  0  0
    2.1089   -9.3237    3.9705 H   0  0  0  0  0  0  0  0  0  0  0  0
    1.3004   -9.8733    2.5458 H   0  0  0  0  0  0  0  0  0  0  0  0
    2.3794   -8.3678    1.1076 H   0  0  0  0  0  0  0  0  0  0  0  0
    3.1538   -7.1987    4.6541 H   0  0  0  0  0  0  0  0  0  0  0  0
    4.7241   -7.9174    4.3547 H   0  0  0  0  0  0  0  0  0  0  0  0
    4.1389   -5.0536    4.4938 H   0  0  0  0  0  0  0  0  0  0  0  0
    5.7055   -5.8403    4.2968 H   0  0  0  0  0  0  0  0  0  0  0  0
    3.6511   -5.0432    2.2916 H   0  0  0  0  0  0  0  0  0  0  0  0
    6.6268   -7.3665    0.8870 H   0  0  0  0  0  0  0  0  0  0  0  0
    5.7413   -8.6724    1.6091 H   0  0  0  0  0  0  0  0  0  0  0  0
    6.4964   -7.4577    2.6245 H   0  0  0  0  0  0  0  0  0  0  0  0
    4.2800   -7.4202   -0.3735 H   0  0  0  0  0  0  0  0  0  0  0  0
    3.1225   -6.2613    0.1895 H   0  0  0  0  0  0  0  0  0  0  0  0
    6.0053   -5.7633   -0.5904 H   0  0  0  0  0  0  0  0  0  0  0  0
    4.6317   -5.1878   -1.4508 H   0  0  0  0  0  0  0  0  0  0  0  0
    6.0275   -3.5577   -0.0900 H   0  0  0  0  0  0  0  0  0  0  0  0
    3.4999   -1.6192   -1.6117 H   0  0  0  0  0  0  0  0  0  0  0  0
    4.1917   -3.1405   -2.1496 H   0  0  0  0  0  0  0  0  0  0  0  0
    5.2213   -1.9054   -1.4355 H   0  0  0  0  0  0  0  0  0  0  0  0
    1.8294   -2.8497   -0.1942 H   0  0  0  0  0  0  0  0  0  0  0  0
    2.3084   -3.9904    1.0360 H   0  0  0  0  0  0  0  0  0  0  0  0
    2.4744   -4.3764   -0.6848 H   0  0  0  0  0  0  0  0  0  0  0  0
    4.9924   -1.2147    0.8301 H   0  0  0  0  0  0  0  0  0  0  0  0
    2.4354   -1.1067    0.2092 H   0  0  0  0  0  0  0  0  0  0  0  0
    4.1916   -1.3622    3.1548 H   0  0  0  0  0  0  0  0  0  0  0  0
    3.2951   -2.8115    2.8014 H   0  0  0  0  0  0  0  0  0  0  0  0
    6.2691   -2.3417    2.4595 H   0  0  0  0  0  0  0  0  0  0  0  0
    5.5836   -3.2614    3.7568 H   0  0  0  0  0  0  0  0  0  0  0  0
    7.7056   -3.8282    1.6642 H   0  0  0  0  0  0  0  0  0  0  0  0
    7.3550   -5.4216    1.1255 H   0  0  0  0  0  0  0  0  0  0  0  0
    7.3659   -5.0811    2.8491 H   0  0  0  0  0  0  0  0  0  0  0  0
  1  2  1  0
  1 27  1  0
  1 28  1  0
  1 29  1  0
  2  6  1  0
  2  3  1  0
  3  4  2  0
  4  5  1  0
  5  6  2  0
  5 30  1  0
  6  7  1  0
  7  8  1  0
  7 31  1  0
  7 32  1  0
  8  9  2  3
  8 33  1  0
  9 13  1  0
  9 10  1  0
 10 11  1  0
 10 34  1  0
 10 35  1  0
 11 12  1  0
 11 36  1  0
 11 37  1  0
 12 25  1  0
 12 13  1  0
 12 38  1  1
 13 14  1  6
 13 15  1  0
 14 39  1  0
 14 40  1  0
 14 41  1  0
 15 16  1  0
 15 42  1  0
 15 43  1  0
 16 17  1  0
 16 44  1  0
 16 45  1  0
 17 25  1  0
 17 18  1  0
 17 46  1  6
 18 19  1  0
 18 20  1  0
 18 21  1  0
 19 47  1  0
 19 48  1  0
 19 49  1  0
 20 50  1  0
 20 51  1  0
 20 52  1  0
 21 22  1  0
 21 23  1  0
 21 53  1  6
 22 54  1  0
 23 24  1  0
 23 55  1  0
 23 56  1  0
 24 25  1  0
 24 57  1  0
 24 58  1  0
 25 26  1  6
 26 59  1  0
 26 60  1  0
 26 61  1  0
M  END
>  <i_m_ct_stereo_status>  (347) 
1

>  <s_m_source_file>  (347) 
/var/tmp/pbs.5076255.sched01/tmpl4jv_xt6/1264eazgjw7.sdf

>  <i_m_source_file_index>  (347) 
11

>  <i_lp_mmshare_version>  (347) 
48012

>  <i_f3d_flags>  (347) 
0

>  <s_epik_input>  (347) 
W0NIM11uMW5uW2NIXWMxW0NIMl0vW0NIXT1DMlxbQ0gyXVtDSDJdW0NASF0oW0NAQF0yM1tDSDNdKVtDQEBdNChbQ0gzXSlbQ0BASF0oW0NIMl1bQ0gyXTMpQyhbQ0gzXSkoW0NIM10pW0NAQEhdKFtPSF0pW0NIMl1bQ0gyXTQ=

>  <s_epik_cmdline>  (347) 
J2VwaWtfcHl0aG9uJywgJy1waHQnLCAnMi4wJywgJy1waCcsICc3LjAnLCAnLXRuJywgJzgnLCAnLW1hJywgJzIwMCcsICctaW1hZScsICc8aW5maWxlLm1hZT4nLCAnLW9tYWUnLCAnPG91dGZpbGUubWFlPic=

>  <r_lp_tautomer_probability>  (347) 
1

>  <r_epik_Ionization_Penalty>  (347) 
2.72228e-05

>  <r_epik_Ionization_Penalty_Charging>  (347) 
0

>  <r_epik_Ionization_Penalty_Neutral>  (347) 
2.72228e-05

>  <r_epik_State_Penalty>  (347) 
-0

>  <r_epik_Charging_Adjusted_Penalty>  (347) 
0

>  <i_epik_Tot_Q>  (347) 
0

>  <i_epik_Tot_abs_Q>  (347) 
0

>  <s_lp_Force_Field>  (347) 
OPLS3e

>  <r_lp_Energy>  (347) 
54.1106

>  <b_lp_Chiralities_Consistent>  (347) 
1

>  <s_lp_Variant>  (347) 
99:0-1

>  <s_i_glide_gridfile>  (347) 
pfpi4k_grid

>  <i_i_glide_lignum>  (347) 
11

>  <i_i_glide_rotatable_bonds>  (347) 
3

>  <r_i_docking_score>  (347) 
-3.38053

>  <r_i_glide_ligand_efficiency>  (347) 
-0.130021

>  <r_i_glide_ligand_efficiency_sa>  (347) 
-0.385185

>  <r_i_glide_ligand_efficiency_ln>  (347) 
-0.793907

>  <r_i_glide_gscore>  (347) 
-3.38053

>  <r_i_glide_lipo>  (347) 
-0.697003

>  <r_i_glide_hbond>  (347) 
-0.16

>  <r_i_glide_metal>  (347) 
-0

>  <r_i_glide_rewards>  (347) 
-0.971367

>  <r_i_glide_evdw>  (347) 
-22.8911

>  <r_i_glide_ecoul>  (347) 
-3.55021

>  <r_i_glide_erotb>  (347) 
0.299542

>  <r_i_glide_esite>  (347) 
-0.17462

>  <r_i_glide_emodel>  (347) 
-30.6342

>  <r_i_glide_energy>  (347) 
-26.4413

>  <r_i_glide_einternal>  (347) 
3.36335

>  <r_i_glide_intrahb_reward>  (347) 
-0

>  <i_i_glide_confnum>  (347) 
6

>  <i_i_glide_posenum>  (347) 
22

>  <r_i_glide_eff_state_penalty>  (347) 
0

>  <ligand_id>  (347) 
99

>  <original_smiles>  (347) 
Cn1nncc1CC=C1CCC2C1(C)CCC1C(C)(C)C(O)CCC21C

>  <smiles>  (347) 
[H]OC1([H])C([H])([H])C([H])([H])C2(C([H])([H])[H])C3([H])C([H])([H])C([H])([H])C(=C([H])C([H])([H])c4c([H])nnn4C([H])([H])[H])C3(C([H])([H])[H])C([H])([H])C([H])([H])C2([H])C1(C([H])([H])[H])C([H])([H])[H]

$$$$
99:0:1
     RDKit          3D

 61 64  0  0  1  0  0  0  0  0999 V2000
   -0.0598   -8.6037    5.6507 C   0  0  0  0  0  0  0  0  0  0  0  0
   -0.4101   -8.2430    4.2872 N   0  0  0  0  0  0  0  0  0  0  0  0
   -1.6178   -7.6681    4.0692 N   0  0  0  0  0  0  0  0  0  0  0  0
   -1.7220   -7.4608    2.7989 N   0  0  0  0  0  0  0  0  0  0  0  0
   -0.5706   -7.9146    2.1618 C   0  0  0  0  0  0  0  0  0  0  0  0
    0.2954   -8.4080    3.1025 C   0  0  0  0  0  0  0  0  0  0  0  0
    1.6520   -9.0460    2.9894 C   0  0  0  0  0  0  0  0  0  0  0  0
    2.6256   -8.3069    2.0929 C   0  0  0  0  0  0  0  0  0  0  0  0
    3.6754   -7.5687    2.5159 C   0  0  0  0  0  0  0  0  0  0  0  0
    4.0135   -7.2187    3.9571 C   0  0  0  0  0  0  0  0  0  0  0  0
    4.6879   -5.8287    3.8952 C   0  0  0  0  0  0  0  0  0  0  0  0
    4.6710   -5.4643    2.4008 C   0  0  2  0  0  0  0  0  0  0  0  0
    4.6602   -6.8077    1.6467 C   0  0  1  0  0  0  0  0  0  0  0  0
    5.9887   -7.6115    1.6893 C   0  0  0  0  0  0  0  0  0  0  0  0
    4.2192   -6.5365    0.1954 C   0  0  0  0  0  0  0  0  0  0  0  0
    5.0355   -5.3897   -0.4532 C   0  0  0  0  0  0  0  0  0  0  0  0
    5.1531   -4.0512    0.3361 C   0  0  1  0  0  0  0  0  0  0  0  0
    4.0027   -3.0057    0.0332 C   0  0  0  0  0  0  0  0  0  0  0  0
    4.2426   -2.4091   -1.3763 C   0  0  0  0  0  0  0  0  0  0  0  0
    2.5923   -3.6401    0.0306 C   0  0  0  0  0  0  0  0  0  0  0  0
    4.0709   -1.8138    1.0308 C   0  0  1  0  0  0  0  0  0  0  0  0
    3.0072   -0.8897    0.8992 O   0  0  0  0  0  0  0  0  0  0  0  0
    4.1327   -2.2702    2.4877 C   0  0  0  0  0  0  0  0  0  0  0  0
    5.4279   -3.0422    2.7007 C   0  0  0  0  0  0  0  0  0  0  0  0
    5.5667   -4.3211    1.8340 C   0  0  1  0  0  0  0  0  0  0  0  0
    7.0745   -4.6841    1.8836 C   0  0  0  0  0  0  0  0  0  0  0  0
    0.9827   -8.9062    5.7281 H   0  0  0  0  0  0  0  0  0  0  0  0
   -0.6920   -9.4331    5.9860 H   0  0  0  0  0  0  0  0  0  0  0  0
   -0.1927   -7.7340    6.2972 H   0  0  0  0  0  0  0  0  0  0  0  0
   -0.4823   -7.8615    1.0885 H   0  0  0  0  0  0  0  0  0  0  0  0
    2.1094   -9.1752    3.9678 H   0  0  0  0  0  0  0  0  0  0  0  0
    1.5317  -10.0550    2.5999 H   0  0  0  0  0  0  0  0  0  0  0  0
    2.4520   -8.4297    1.0367 H   0  0  0  0  0  0  0  0  0  0  0  0
    3.1396   -7.2366    4.6046 H   0  0  0  0  0  0  0  0  0  0  0  0
    4.7288   -7.9474    4.3365 H   0  0  0  0  0  0  0  0  0  0  0  0
    4.1290   -5.0925    4.4744 H   0  0  0  0  0  0  0  0  0  0  0  0
    5.7024   -5.8684    4.2939 H   0  0  0  0  0  0  0  0  0  0  0  0
    3.6627   -5.0880    2.2711 H   0  0  0  0  0  0  0  0  0  0  0  0
    6.6796   -7.3609    0.8832 H   0  0  0  0  0  0  0  0  0  0  0  0
    5.8035   -8.6816    1.5932 H   0  0  0  0  0  0  0  0  0  0  0  0
    6.5276   -7.4603    2.6210 H   0  0  0  0  0  0  0  0  0  0  0  0
    4.3433   -7.4426   -0.3977 H   0  0  0  0  0  0  0  0  0  0  0  0
    3.1597   -6.3030    0.1593 H   0  0  0  0  0  0  0  0  0  0  0  0
    6.0443   -5.7594   -0.5729 H   0  0  0  0  0  0  0  0  0  0  0  0
    4.6752   -5.2046   -1.4604 H   0  0  0  0  0  0  0  0  0  0  0  0
    6.0302   -3.5614   -0.0894 H   0  0  0  0  0  0  0  0  0  0  0  0
    3.4922   -1.6561   -1.6245 H   0  0  0  0  0  0  0  0  0  0  0  0
    4.2109   -3.1663   -2.1607 H   0  0  0  0  0  0  0  0  0  0  0  0
    5.2153   -1.9172   -1.4344 H   0  0  0  0  0  0  0  0  0  0  0  0
    1.8298   -2.9105   -0.2341 H   0  0  0  0  0  0  0  0  0  0  0  0
    2.3143   -4.0476    0.9999 H   0  0  0  0  0  0  0  0  0  0  0  0
    2.5037   -4.4252   -0.7200 H   0  0  0  0  0  0  0  0  0  0  0  0
    4.9793   -1.2436    0.8291 H   0  0  0  0  0  0  0  0  0  0  0  0
    2.4336   -1.1337    0.1774 H   0  0  0  0  0  0  0  0  0  0  0  0
    4.1371   -1.4005    3.1443 H   0  0  0  0  0  0  0  0  0  0  0  0
    3.2650   -2.8604    2.7762 H   0  0  0  0  0  0  0  0  0  0  0  0
    6.2357   -2.3470    2.4711 H   0  0  0  0  0  0  0  0  0  0  0  0
    5.5450   -3.2816    3.7566 H   0  0  0  0  0  0  0  0  0  0  0  0
    7.6957   -3.8142    1.6716 H   0  0  0  0  0  0  0  0  0  0  0  0
    7.3725   -5.4119    1.1382 H   0  0  0  0  0  0  0  0  0  0  0  0
    7.3640   -5.0693    2.8597 H   0  0  0  0  0  0  0  0  0  0  0  0
  1  2  1  0
  1 27  1  0
  1 28  1  0
  1 29  1  0
  2  6  1  0
  2  3  1  0
  3  4  2  0
  4  5  1  0
  5  6  2  0
  5 30  1  0
  6  7  1  0
  7  8  1  0
  7 31  1  0
  7 32  1  0
  8  9  2  3
  8 33  1  0
  9 13  1  0
  9 10  1  0
 10 11  1  0
 10 34  1  0
 10 35  1  0
 11 12  1  0
 11 36  1  0
 11 37  1  0
 12 25  1  0
 12 13  1  0
 12 38  1  1
 13 14  1  6
 13 15  1  0
 14 39  1  0
 14 40  1  0
 14 41  1  0
 15 16  1  0
 15 42  1  0
 15 43  1  0
 16 17  1  0
 16 44  1  0
 16 45  1  0
 17 25  1  0
 17 18  1  0
 17 46  1  6
 18 19  1  0
 18 20  1  0
 18 21  1  0
 19 47  1  0
 19 48  1  0
 19 49  1  0
 20 50  1  0
 20 51  1  0
 20 52  1  0
 21 22  1  0
 21 23  1  0
 21 53  1  6
 22 54  1  0
 23 24  1  0
 23 55  1  0
 23 56  1  0
 24 25  1  0
 24 57  1  0
 24 58  1  0
 25 26  1  6
 26 59  1  0
 26 60  1  0
 26 61  1  0
M  END
>  <i_m_ct_stereo_status>  (348) 
1

>  <s_m_source_file>  (348) 
/var/tmp/pbs.5076255.sched01/tmpl4jv_xt6/1264eazgjw7.sdf

>  <i_m_source_file_index>  (348) 
11

>  <i_lp_mmshare_version>  (348) 
48012

>  <i_f3d_flags>  (348) 
0

>  <s_epik_input>  (348) 
W0NIM11uMW5uW2NIXWMxW0NIMl0vW0NIXT1DMlxbQ0gyXVtDSDJdW0NASF0oW0NAQF0yM1tDSDNdKVtDQEBdNChbQ0gzXSlbQ0BASF0oW0NIMl1bQ0gyXTMpQyhbQ0gzXSkoW0NIM10pW0NAQEhdKFtPSF0pW0NIMl1bQ0gyXTQ=

>  <s_epik_cmdline>  (348) 
J2VwaWtfcHl0aG9uJywgJy1waHQnLCAnMi4wJywgJy1waCcsICc3LjAnLCAnLXRuJywgJzgnLCAnLW1hJywgJzIwMCcsICctaW1hZScsICc8aW5maWxlLm1hZT4nLCAnLW9tYWUnLCAnPG91dGZpbGUubWFlPic=

>  <r_lp_tautomer_probability>  (348) 
1

>  <r_epik_Ionization_Penalty>  (348) 
2.72228e-05

>  <r_epik_Ionization_Penalty_Charging>  (348) 
0

>  <r_epik_Ionization_Penalty_Neutral>  (348) 
2.72228e-05

>  <r_epik_State_Penalty>  (348) 
-0

>  <r_epik_Charging_Adjusted_Penalty>  (348) 
0

>  <i_epik_Tot_Q>  (348) 
0

>  <i_epik_Tot_abs_Q>  (348) 
0

>  <s_lp_Force_Field>  (348) 
OPLS3e

>  <r_lp_Energy>  (348) 
54.1106

>  <b_lp_Chiralities_Consistent>  (348) 
1

>  <s_lp_Variant>  (348) 
99:0-1

>  <s_i_glide_gridfile>  (348) 
pfpi4k_grid

>  <i_i_glide_lignum>  (348) 
11

>  <i_i_glide_rotatable_bonds>  (348) 
3

>  <r_i_docking_score>  (348) 
-3.2242

>  <r_i_glide_ligand_efficiency>  (348) 
-0.124008

>  <r_i_glide_ligand_efficiency_sa>  (348) 
-0.367373

>  <r_i_glide_ligand_efficiency_ln>  (348) 
-0.757194

>  <r_i_glide_gscore>  (348) 
-3.2242

>  <r_i_glide_lipo>  (348) 
-0.438404

>  <r_i_glide_hbond>  (348) 
-0.16

>  <r_i_glide_metal>  (348) 
-0

>  <r_i_glide_rewards>  (348) 
-0.971367

>  <r_i_glide_evdw>  (348) 
-22.4285

>  <r_i_glide_ecoul>  (348) 
-4.19005

>  <r_i_glide_erotb>  (348) 
0.299542

>  <r_i_glide_esite>  (348) 
-0.204041

>  <r_i_glide_emodel>  (348) 
-30.8897

>  <r_i_glide_energy>  (348) 
-26.6186

>  <r_i_glide_einternal>  (348) 
2.49385

>  <r_i_glide_intrahb_reward>  (348) 
-0

>  <i_i_glide_confnum>  (348) 
4

>  <i_i_glide_posenum>  (348) 
5

>  <r_i_glide_eff_state_penalty>  (348) 
0

>  <ligand_id>  (348) 
99

>  <original_smiles>  (348) 
Cn1nncc1CC=C1CCC2C1(C)CCC1C(C)(C)C(O)CCC21C

>  <smiles>  (348) 
[H]OC1([H])C([H])([H])C([H])([H])C2(C([H])([H])[H])C3([H])C([H])([H])C([H])([H])C(=C([H])C([H])([H])c4c([H])nnn4C([H])([H])[H])C3(C([H])([H])[H])C([H])([H])C([H])([H])C2([H])C1(C([H])([H])[H])C([H])([H])[H]

$$$$
99:0:2
     RDKit          3D

 61 64  0  0  1  0  0  0  0  0999 V2000
    4.3246   -1.2784   -0.5445 C   0  0  0  0  0  0  0  0  0  0  0  0
    4.2510   -2.0478   -1.7689 N   0  0  0  0  0  0  0  0  0  0  0  0
    3.8388   -1.4179   -2.8970 N   0  0  0  0  0  0  0  0  0  0  0  0
    3.8734   -2.2905   -3.8555 N   0  0  0  0  0  0  0  0  0  0  0  0
    4.2874   -3.5134   -3.3409 C   0  0  0  0  0  0  0  0  0  0  0  0
    4.5379   -3.3848   -1.9989 C   0  0  0  0  0  0  0  0  0  0  0  0
    5.0276   -4.3873   -0.9817 C   0  0  0  0  0  0  0  0  0  0  0  0
    4.2351   -4.4252    0.3170 C   0  0  0  0  0  0  0  0  0  0  0  0
    4.5008   -5.1977    1.3938 C   0  0  0  0  0  0  0  0  0  0  0  0
    5.5760   -6.2628    1.4902 C   0  0  0  0  0  0  0  0  0  0  0  0
    4.9967   -7.3392    2.4386 C   0  0  0  0  0  0  0  0  0  0  0  0
    3.6016   -6.8108    2.8167 C   0  0  2  0  0  0  0  0  0  0  0  0
    3.6900   -5.2766    2.6806 C   0  0  1  0  0  0  0  0  0  0  0  0
    4.5186   -4.5512    3.7758 C   0  0  0  0  0  0  0  0  0  0  0  0
    2.2524   -4.7167    2.6316 C   0  0  0  0  0  0  0  0  0  0  0  0
    1.3703   -5.2464    3.7990 C   0  0  0  0  0  0  0  0  0  0  0  0
    1.3538   -6.7980    4.0179 C   0  0  1  0  0  0  0  0  0  0  0  0
    0.2383   -7.5805    3.1995 C   0  0  0  0  0  0  0  0  0  0  0  0
   -1.1396   -7.3019    3.8481 C   0  0  0  0  0  0  0  0  0  0  0  0
    0.1443   -7.1547    1.7127 C   0  0  0  0  0  0  0  0  0  0  0  0
    0.4492   -9.1187    3.3149 C   0  0  1  0  0  0  0  0  0  0  0  0
   -0.4504   -9.8204    2.4876 O   0  0  0  0  0  0  0  0  0  0  0  0
    1.8727   -9.5499    2.9666 C   0  0  0  0  0  0  0  0  0  0  0  0
    2.8165   -8.9408    4.0013 C   0  0  0  0  0  0  0  0  0  0  0  0
    2.8179   -7.3892    4.0371 C   0  0  1  0  0  0  0  0  0  0  0  0
    3.4892   -7.0340    5.3895 C   0  0  0  0  0  0  0  0  0  0  0  0
    4.8662   -1.8371    0.2178 H   0  0  0  0  0  0  0  0  0  0  0  0
    3.3111   -1.0670   -0.1931 H   0  0  0  0  0  0  0  0  0  0  0  0
    4.8576   -0.3421   -0.7234 H   0  0  0  0  0  0  0  0  0  0  0  0
    4.3700   -4.3825   -3.9665 H   0  0  0  0  0  0  0  0  0  0  0  0
    5.0103   -5.3821   -1.4291 H   0  0  0  0  0  0  0  0  0  0  0  0
    6.0697   -4.1706   -0.7479 H   0  0  0  0  0  0  0  0  0  0  0  0
    3.3961   -3.7560    0.3674 H   0  0  0  0  0  0  0  0  0  0  0  0
    5.8536   -6.6484    0.5110 H   0  0  0  0  0  0  0  0  0  0  0  0
    6.4648   -5.8255    1.9443 H   0  0  0  0  0  0  0  0  0  0  0  0
    4.9200   -8.3066    1.9399 H   0  0  0  0  0  0  0  0  0  0  0  0
    5.6303   -7.4659    3.3170 H   0  0  0  0  0  0  0  0  0  0  0  0
    3.0080   -7.1154    1.9623 H   0  0  0  0  0  0  0  0  0  0  0  0
    3.9283   -4.2579    4.6422 H   0  0  0  0  0  0  0  0  0  0  0  0
    4.9488   -3.6282    3.3840 H   0  0  0  0  0  0  0  0  0  0  0  0
    5.3496   -5.1646    4.1238 H   0  0  0  0  0  0  0  0  0  0  0  0
    2.2762   -3.6264    2.6645 H   0  0  0  0  0  0  0  0  0  0  0  0
    1.8025   -4.9643    1.6743 H   0  0  0  0  0  0  0  0  0  0  0  0
    1.7147   -4.7850    4.7236 H   0  0  0  0  0  0  0  0  0  0  0  0
    0.3597   -4.8693    3.6790 H   0  0  0  0  0  0  0  0  0  0  0  0
    1.0089   -6.9279    5.0430 H   0  0  0  0  0  0  0  0  0  0  0  0
   -1.9497   -7.8330    3.3409 H   0  0  0  0  0  0  0  0  0  0  0  0
   -1.3933   -6.2505    3.8392 H   0  0  0  0  0  0  0  0  0  0  0  0
   -1.1571   -7.6207    4.8904 H   0  0  0  0  0  0  0  0  0  0  0  0
   -0.6663   -7.6733    1.1931 H   0  0  0  0  0  0  0  0  0  0  0  0
    1.0501   -7.3721    1.1511 H   0  0  0  0  0  0  0  0  0  0  0  0
   -0.0738   -6.0969    1.6142 H   0  0  0  0  0  0  0  0  0  0  0  0
    0.2450   -9.4386    4.3411 H   0  0  0  0  0  0  0  0  0  0  0  0
   -0.3269  -10.7436    2.6429 H   0  0  0  0  0  0  0  0  0  0  0  0
    1.9587  -10.6373    3.0135 H   0  0  0  0  0  0  0  0  0  0  0  0
    2.1523   -9.2729    1.9502 H   0  0  0  0  0  0  0  0  0  0  0  0
    2.5136   -9.3388    4.9712 H   0  0  0  0  0  0  0  0  0  0  0  0
    3.8226   -9.3200    3.8396 H   0  0  0  0  0  0  0  0  0  0  0  0
    3.0518   -7.6047    6.2088 H   0  0  0  0  0  0  0  0  0  0  0  0
    3.3503   -5.9979    5.6770 H   0  0  0  0  0  0  0  0  0  0  0  0
    4.5578   -7.2461    5.3836 H   0  0  0  0  0  0  0  0  0  0  0  0
  1  2  1  0
  1 27  1  0
  1 28  1  0
  1 29  1  0
  2  6  1  0
  2  3  1  0
  3  4  2  0
  4  5  1  0
  5  6  2  0
  5 30  1  0
  6  7  1  0
  7  8  1  0
  7 31  1  0
  7 32  1  0
  8  9  2  3
  8 33  1  0
  9 13  1  0
  9 10  1  0
 10 11  1  0
 10 34  1  0
 10 35  1  0
 11 12  1  0
 11 36  1  0
 11 37  1  0
 12 25  1  0
 12 13  1  0
 12 38  1  6
 13 14  1  1
 13 15  1  0
 14 39  1  0
 14 40  1  0
 14 41  1  0
 15 16  1  0
 15 42  1  0
 15 43  1  0
 16 17  1  0
 16 44  1  0
 16 45  1  0
 17 25  1  0
 17 18  1  0
 17 46  1  1
 18 19  1  0
 18 20  1  0
 18 21  1  0
 19 47  1  0
 19 48  1  0
 19 49  1  0
 20 50  1  0
 20 51  1  0
 20 52  1  0
 21 22  1  0
 21 23  1  0
 21 53  1  1
 22 54  1  0
 23 24  1  0
 23 55  1  0
 23 56  1  0
 24 25  1  0
 24 57  1  0
 24 58  1  0
 25 26  1  1
 26 59  1  0
 26 60  1  0
 26 61  1  0
M  END
>  <i_m_ct_stereo_status>  (349) 
1

>  <s_m_source_file>  (349) 
/var/tmp/pbs.5076255.sched01/tmpl4jv_xt6/1264eazgjw7.sdf

>  <i_m_source_file_index>  (349) 
11

>  <i_lp_mmshare_version>  (349) 
48012

>  <i_f3d_flags>  (349) 
0

>  <s_epik_input>  (349) 
W0NIM11uMW5uW2NIXWMxW0NIMl0vW0NIXT1DMlxbQ0gyXVtDSDJdW0NASF0oW0NAQF0yM1tDSDNdKVtDQEBdNChbQ0gzXSlbQ0BASF0oW0NIMl1bQ0gyXTMpQyhbQ0gzXSkoW0NIM10pW0NAQEhdKFtPSF0pW0NIMl1bQ0gyXTQ=

>  <s_epik_cmdline>  (349) 
J2VwaWtfcHl0aG9uJywgJy1waHQnLCAnMi4wJywgJy1waCcsICc3LjAnLCAnLXRuJywgJzgnLCAnLW1hJywgJzIwMCcsICctaW1hZScsICc8aW5maWxlLm1hZT4nLCAnLW9tYWUnLCAnPG91dGZpbGUubWFlPic=

>  <r_lp_tautomer_probability>  (349) 
1

>  <r_epik_Ionization_Penalty>  (349) 
2.72228e-05

>  <r_epik_Ionization_Penalty_Charging>  (349) 
0

>  <r_epik_Ionization_Penalty_Neutral>  (349) 
2.72228e-05

>  <r_epik_State_Penalty>  (349) 
-0

>  <r_epik_Charging_Adjusted_Penalty>  (349) 
0

>  <i_epik_Tot_Q>  (349) 
0

>  <i_epik_Tot_abs_Q>  (349) 
0

>  <s_lp_Force_Field>  (349) 
OPLS3e

>  <r_lp_Energy>  (349) 
54.1106

>  <b_lp_Chiralities_Consistent>  (349) 
1

>  <s_lp_Variant>  (349) 
99:0-1

>  <s_i_glide_gridfile>  (349) 
pfpi4k_grid

>  <i_i_glide_lignum>  (349) 
11

>  <i_i_glide_rotatable_bonds>  (349) 
3

>  <r_i_docking_score>  (349) 
-2.44034

>  <r_i_glide_ligand_efficiency>  (349) 
-0.0938594

>  <r_i_glide_ligand_efficiency_sa>  (349) 
-0.278058

>  <r_i_glide_ligand_efficiency_ln>  (349) 
-0.573107

>  <r_i_glide_gscore>  (349) 
-2.44034

>  <r_i_glide_lipo>  (349) 
-0.250843

>  <r_i_glide_hbond>  (349) 
0

>  <r_i_glide_metal>  (349) 
-0

>  <r_i_glide_rewards>  (349) 
-0.971367

>  <r_i_glide_evdw>  (349) 
-27.6608

>  <r_i_glide_ecoul>  (349) 
-0.640462

>  <r_i_glide_erotb>  (349) 
0.299542

>  <r_i_glide_esite>  (349) 
-0.0385643

>  <r_i_glide_emodel>  (349) 
-31.9563

>  <r_i_glide_energy>  (349) 
-28.3013

>  <r_i_glide_einternal>  (349) 
0.934114

>  <r_i_glide_intrahb_reward>  (349) 
-0

>  <i_i_glide_confnum>  (349) 
6

>  <i_i_glide_posenum>  (349) 
3

>  <r_i_glide_eff_state_penalty>  (349) 
0

>  <ligand_id>  (349) 
99

>  <original_smiles>  (349) 
Cn1nncc1CC=C1CCC2C1(C)CCC1C(C)(C)C(O)CCC21C

>  <smiles>  (349) 
[H]OC1([H])C([H])([H])C([H])([H])C2(C([H])([H])[H])C3([H])C([H])([H])C([H])([H])C(=C([H])C([H])([H])c4c([H])nnn4C([H])([H])[H])C3(C([H])([H])[H])C([H])([H])C([H])([H])C2([H])C1(C([H])([H])[H])C([H])([H])[H]

$$$$
99:1:0
     RDKit          3D

 61 64  0  0  1  0  0  0  0  0999 V2000
    3.1903   -2.8521   -2.2892 C   0  0  0  0  0  0  0  0  0  0  0  0
    4.5212   -2.9024   -1.7088 N   0  0  0  0  0  0  0  0  0  0  0  0
    5.4700   -2.0992   -2.2304 N   0  0  0  0  0  0  0  0  0  0  0  0
    6.5496   -2.2854   -1.5425 N   0  0  0  0  0  0  0  0  0  0  0  0
    6.3008   -3.2316   -0.5532 C   0  0  0  0  0  0  0  0  0  0  0  0
    4.9967   -3.6300   -0.6322 C   0  0  0  0  0  0  0  0  0  0  0  0
    4.1813   -4.5621    0.2095 C   0  0  0  0  0  0  0  0  0  0  0  0
    4.8461   -5.9065    0.4280 C   0  0  0  0  0  0  0  0  0  0  0  0
    4.7370   -6.7716    1.4594 C   0  0  0  0  0  0  0  0  0  0  0  0
    5.4268   -8.1226    1.4674 C   0  0  0  0  0  0  0  0  0  0  0  0
    4.5025   -9.0692    2.2457 C   0  0  0  0  0  0  0  0  0  0  0  0
    3.3402   -8.1712    2.7055 C   0  0  2  0  0  0  0  0  0  0  0  0
    3.8902   -6.7256    2.7335 C   0  0  1  0  0  0  0  0  0  0  0  0
    4.8785   -6.4193    3.8889 C   0  0  0  0  0  0  0  0  0  0  0  0
    2.6832   -5.7689    2.7866 C   0  0  0  0  0  0  0  0  0  0  0  0
    1.6672   -6.1534    3.9052 C   0  0  0  0  0  0  0  0  0  0  0  0
    1.1855   -7.6426    3.9430 C   0  0  1  0  0  0  0  0  0  0  0  0
   -0.0927   -7.9521    3.0607 C   0  0  0  0  0  0  0  0  0  0  0  0
   -1.3357   -7.3490    3.7677 C   0  0  0  0  0  0  0  0  0  0  0  0
   -0.0376   -7.3396    1.6379 C   0  0  0  0  0  0  0  0  0  0  0  0
   -0.3444   -9.4824    2.9836 C   0  0  1  0  0  0  0  0  0  0  0  0
   -1.3738   -9.7886    2.0802 O   0  0  0  0  0  0  0  0  0  0  0  0
    0.8928  -10.2795    2.5859 C   0  0  0  0  0  0  0  0  0  0  0  0
    1.9473  -10.1023    3.6682 C   0  0  0  0  0  0  0  0  0  0  0  0
    2.4067   -8.6320    3.8684 C   0  0  1  0  0  0  0  0  0  0  0  0
    3.1402   -8.6474    5.2347 C   0  0  0  0  0  0  0  0  0  0  0  0
    2.7530   -3.8528   -2.3077 H   0  0  0  0  0  0  0  0  0  0  0  0
    3.2364   -2.4718   -3.3146 H   0  0  0  0  0  0  0  0  0  0  0  0
    2.5732   -2.1811   -1.6867 H   0  0  0  0  0  0  0  0  0  0  0  0
    7.0826   -3.5181    0.1385 H   0  0  0  0  0  0  0  0  0  0  0  0
    3.9690   -4.0775    1.1549 H   0  0  0  0  0  0  0  0  0  0  0  0
    3.2330   -4.7650   -0.2778 H   0  0  0  0  0  0  0  0  0  0  0  0
    5.4483   -6.2280   -0.4068 H   0  0  0  0  0  0  0  0  0  0  0  0
    5.6474   -8.4988    0.4753 H   0  0  0  0  0  0  0  0  0  0  0  0
    6.3754   -8.0193    1.9956 H   0  0  0  0  0  0  0  0  0  0  0  0
    4.1350   -9.8714    1.6037 H   0  0  0  0  0  0  0  0  0  0  0  0
    5.0322   -9.5235    3.0827 H   0  0  0  0  0  0  0  0  0  0  0  0
    2.6959   -8.1839    1.8310 H   0  0  0  0  0  0  0  0  0  0  0  0
    4.3878   -6.0335    4.7816 H   0  0  0  0  0  0  0  0  0  0  0  0
    5.6016   -5.6581    3.5872 H   0  0  0  0  0  0  0  0  0  0  0  0
    5.4509   -7.3052    4.1713 H   0  0  0  0  0  0  0  0  0  0  0  0
    3.0209   -4.7528    2.9806 H   0  0  0  0  0  0  0  0  0  0  0  0
    2.1884   -5.7348    1.8209 H   0  0  0  0  0  0  0  0  0  0  0  0
    2.1154   -5.9271    4.8737 H   0  0  0  0  0  0  0  0  0  0  0  0
    0.8115   -5.4840    3.8514 H   0  0  0  0  0  0  0  0  0  0  0  0
    0.8003   -7.7858    4.9533 H   0  0  0  0  0  0  0  0  0  0  0  0
   -2.2575   -7.5619    3.2207 H   0  0  0  0  0  0  0  0  0  0  0  0
   -1.2651   -6.2697    3.8956 H   0  0  0  0  0  0  0  0  0  0  0  0
   -1.4645   -7.7806    4.7625 H   0  0  0  0  0  0  0  0  0  0  0  0
   -0.9587   -7.5294    1.0844 H   0  0  0  0  0  0  0  0  0  0  0  0
    0.7687   -7.7539    1.0365 H   0  0  0  0  0  0  0  0  0  0  0  0
    0.0722   -6.2585    1.6684 H   0  0  0  0  0  0  0  0  0  0  0  0
   -0.6475   -9.8469    3.9639 H   0  0  0  0  0  0  0  0  0  0  0  0
   -1.0016   -9.8145    1.1968 H   0  0  0  0  0  0  0  0  0  0  0  0
    0.6417  -11.3399    2.5004 H   0  0  0  0  0  0  0  0  0  0  0  0
    1.2987   -9.9771    1.6254 H   0  0  0  0  0  0  0  0  0  0  0  0
    1.5214  -10.4986    4.5933 H   0  0  0  0  0  0  0  0  0  0  0  0
    2.7992  -10.7463    3.4469 H   0  0  0  0  0  0  0  0  0  0  0  0
    2.5383   -9.1460    5.9961 H   0  0  0  0  0  0  0  0  0  0  0  0
    3.3215   -7.6553    5.6328 H   0  0  0  0  0  0  0  0  0  0  0  0
    4.0925   -9.1752    5.1819 H   0  0  0  0  0  0  0  0  0  0  0  0
  1  2  1  0
  1 27  1  0
  1 28  1  0
  1 29  1  0
  2  6  1  0
  2  3  1  0
  3  4  2  0
  4  5  1  0
  5  6  2  0
  5 30  1  0
  6  7  1  0
  7  8  1  0
  7 31  1  0
  7 32  1  0
  8  9  2  3
  8 33  1  0
  9 13  1  0
  9 10  1  0
 10 11  1  0
 10 34  1  0
 10 35  1  0
 11 12  1  0
 11 36  1  0
 11 37  1  0
 12 25  1  0
 12 13  1  0
 12 38  1  6
 13 14  1  1
 13 15  1  0
 14 39  1  0
 14 40  1  0
 14 41  1  0
 15 16  1  0
 15 42  1  0
 15 43  1  0
 16 17  1  0
 16 44  1  0
 16 45  1  0
 17 25  1  0
 17 18  1  0
 17 46  1  1
 18 19  1  0
 18 20  1  0
 18 21  1  0
 19 47  1  0
 19 48  1  0
 19 49  1  0
 20 50  1  0
 20 51  1  0
 20 52  1  0
 21 22  1  0
 21 23  1  0
 21 53  1  1
 22 54  1  0
 23 24  1  0
 23 55  1  0
 23 56  1  0
 24 25  1  0
 24 57  1  0
 24 58  1  0
 25 26  1  1
 26 59  1  0
 26 60  1  0
 26 61  1  0
M  END
>  <i_m_ct_stereo_status>  (350) 
1

>  <s_m_source_file>  (350) 
/var/tmp/pbs.5076255.sched01/tmpl4jv_xt6/1264eazgjw7.sdf

>  <i_m_source_file_index>  (350) 
12

>  <i_lp_mmshare_version>  (350) 
48012

>  <i_f3d_flags>  (350) 
0

>  <s_epik_input>  (350) 
W0NIM11uMW5uW2NIXWMxW0NIMl0vW0NIXT1DMlxbQ0gyXVtDSDJdW0NASF0oW0NAQF0yM1tDSDNdKVtDQEBdNChbQ0gzXSlbQ0BASF0oW0NIMl1bQ0gyXTMpQyhbQ0gzXSkoW0NIM10pW0NAQEhdKFtPSF0pW0NIMl1bQ0gyXTQ=

>  <s_epik_cmdline>  (350) 
J2VwaWtfcHl0aG9uJywgJy1waHQnLCAnMi4wJywgJy1waCcsICc3LjAnLCAnLXRuJywgJzgnLCAnLW1hJywgJzIwMCcsICctaW1hZScsICc8aW5maWxlLm1hZT4nLCAnLW9tYWUnLCAnPG91dGZpbGUubWFlPic=

>  <r_lp_tautomer_probability>  (350) 
1

>  <r_epik_Ionization_Penalty>  (350) 
2.72228e-05

>  <r_epik_Ionization_Penalty_Charging>  (350) 
0

>  <r_epik_Ionization_Penalty_Neutral>  (350) 
2.72228e-05

>  <r_epik_State_Penalty>  (350) 
-0

>  <r_epik_Charging_Adjusted_Penalty>  (350) 
0

>  <i_epik_Tot_Q>  (350) 
0

>  <i_epik_Tot_abs_Q>  (350) 
0

>  <s_lp_Force_Field>  (350) 
OPLS3e

>  <r_lp_Energy>  (350) 
55.4805

>  <b_lp_Chiralities_Consistent>  (350) 
1

>  <s_lp_Variant>  (350) 
99:0-2

>  <s_i_glide_gridfile>  (350) 
pfpi4k_grid

>  <i_i_glide_lignum>  (350) 
12

>  <i_i_glide_rotatable_bonds>  (350) 
3

>  <r_i_docking_score>  (350) 
-3.92639

>  <r_i_glide_ligand_efficiency>  (350) 
-0.151015

>  <r_i_glide_ligand_efficiency_sa>  (350) 
-0.447382

>  <r_i_glide_ligand_efficiency_ln>  (350) 
-0.922101

>  <r_i_glide_gscore>  (350) 
-3.92639

>  <r_i_glide_lipo>  (350) 
-0.610131

>  <r_i_glide_hbond>  (350) 
-0.32

>  <r_i_glide_metal>  (350) 
-0

>  <r_i_glide_rewards>  (350) 
-0.971367

>  <r_i_glide_evdw>  (350) 
-25.2695

>  <r_i_glide_ecoul>  (350) 
-6.52848

>  <r_i_glide_erotb>  (350) 
0.299542

>  <r_i_glide_esite>  (350) 
-0.0816891

>  <r_i_glide_emodel>  (350) 
-39.418

>  <r_i_glide_energy>  (350) 
-31.798

>  <r_i_glide_einternal>  (350) 
0.499269

>  <r_i_glide_intrahb_reward>  (350) 
-0

>  <i_i_glide_confnum>  (350) 
4

>  <i_i_glide_posenum>  (350) 
35

>  <r_i_glide_eff_state_penalty>  (350) 
0

>  <ligand_id>  (350) 
99

>  <original_smiles>  (350) 
Cn1nncc1CC=C1CCC2C1(C)CCC1C(C)(C)C(O)CCC21C

>  <smiles>  (350) 
[H]OC1([H])C([H])([H])C([H])([H])C2(C([H])([H])[H])C3([H])C([H])([H])C([H])([H])C(=C([H])C([H])([H])c4c([H])nnn4C([H])([H])[H])C3(C([H])([H])[H])C([H])([H])C([H])([H])C2([H])C1(C([H])([H])[H])C([H])([H])[H]

$$$$
99:1:1
     RDKit          3D

 61 64  0  0  1  0  0  0  0  0999 V2000
    4.4229   -0.8019    0.4098 C   0  0  0  0  0  0  0  0  0  0  0  0
    4.5239   -1.6483   -0.7648 N   0  0  0  0  0  0  0  0  0  0  0  0
    4.9752   -1.0995   -1.9169 N   0  0  0  0  0  0  0  0  0  0  0  0
    4.9837   -2.0475   -2.8004 N   0  0  0  0  0  0  0  0  0  0  0  0
    4.5270   -3.2236   -2.2246 C   0  0  0  0  0  0  0  0  0  0  0  0
    4.2283   -2.9913   -0.9040 C   0  0  0  0  0  0  0  0  0  0  0  0
    3.6810   -3.8792    0.1762 C   0  0  0  0  0  0  0  0  0  0  0  0
    4.5201   -5.1147    0.4247 C   0  0  0  0  0  0  0  0  0  0  0  0
    4.5179   -5.9548    1.4823 C   0  0  0  0  0  0  0  0  0  0  0  0
    5.3936   -7.1918    1.5305 C   0  0  0  0  0  0  0  0  0  0  0  0
    4.5964   -8.2431    2.3207 C   0  0  0  0  0  0  0  0  0  0  0  0
    3.3107   -7.5106    2.7417 C   0  0  2  0  0  0  0  0  0  0  0  0
    3.6542   -6.0006    2.7455 C   0  0  1  0  0  0  0  0  0  0  0  0
    4.5652   -5.5372    3.9134 C   0  0  0  0  0  0  0  0  0  0  0  0
    2.3235   -5.2190    2.7615 C   0  0  0  0  0  0  0  0  0  0  0  0
    1.3495   -5.7219    3.8723 C   0  0  0  0  0  0  0  0  0  0  0  0
    1.0774   -7.2651    3.9365 C   0  0  1  0  0  0  0  0  0  0  0  0
   -0.1290   -7.7731    3.0402 C   0  0  0  0  0  0  0  0  0  0  0  0
   -1.4545   -7.3335    3.7153 C   0  0  0  0  0  0  0  0  0  0  0  0
   -0.1164   -7.1887    1.6083 C   0  0  0  0  0  0  0  0  0  0  0  0
   -0.1754   -9.3283    2.9853 C   0  0  1  0  0  0  0  0  0  0  0  0
   -1.1572   -9.7928    2.0833 O   0  0  0  0  0  0  0  0  0  0  0  0
    1.1740   -9.9480    2.6238 C   0  0  0  0  0  0  0  0  0  0  0  0
    2.1775   -9.5977    3.7179 C   0  0  0  0  0  0  0  0  0  0  0  0
    2.4277   -8.0746    3.9011 C   0  0  1  0  0  0  0  0  0  0  0  0
    3.1282   -7.9616    5.2811 C   0  0  0  0  0  0  0  0  0  0  0  0
    3.5126   -1.0507    0.9630 H   0  0  0  0  0  0  0  0  0  0  0  0
    4.3695    0.2501    0.1143 H   0  0  0  0  0  0  0  0  0  0  0  0
    5.3040   -0.9573    1.0418 H   0  0  0  0  0  0  0  0  0  0  0  0
    4.4432   -4.1223   -2.8155 H   0  0  0  0  0  0  0  0  0  0  0  0
    3.5838   -3.3432    1.1140 H   0  0  0  0  0  0  0  0  0  0  0  0
    2.6840   -4.1854   -0.1288 H   0  0  0  0  0  0  0  0  0  0  0  0
    5.1986   -5.3567   -0.3780 H   0  0  0  0  0  0  0  0  0  0  0  0
    5.6725   -7.5299    0.5353 H   0  0  0  0  0  0  0  0  0  0  0  0
    6.3055   -6.9491    2.0754 H   0  0  0  0  0  0  0  0  0  0  0  0
    4.3548   -9.1071    1.6980 H   0  0  0  0  0  0  0  0  0  0  0  0
    5.1659   -8.6014    3.1785 H   0  0  0  0  0  0  0  0  0  0  0  0
    2.6889   -7.6306    1.8614 H   0  0  0  0  0  0  0  0  0  0  0  0
    4.0087   -5.2075    4.7906 H   0  0  0  0  0  0  0  0  0  0  0  0
    5.1816   -4.6881    3.6098 H   0  0  0  0  0  0  0  0  0  0  0  0
    5.2493   -6.3290    4.2261 H   0  0  0  0  0  0  0  0  0  0  0  0
    2.5166   -4.1584    2.9217 H   0  0  0  0  0  0  0  0  0  0  0  0
    1.8441   -5.2800    1.7907 H   0  0  0  0  0  0  0  0  0  0  0  0
    1.7433   -5.4172    4.8424 H   0  0  0  0  0  0  0  0  0  0  0  0
    0.4108   -5.1792    3.7939 H   0  0  0  0  0  0  0  0  0  0  0  0
    0.6992   -7.4403    4.9446 H   0  0  0  0  0  0  0  0  0  0  0  0
   -2.3279   -7.6790    3.1568 H   0  0  0  0  0  0  0  0  0  0  0  0
   -1.5326   -6.2610    3.8212 H   0  0  0  0  0  0  0  0  0  0  0  0
   -1.5425   -7.7586    4.7173 H   0  0  0  0  0  0  0  0  0  0  0  0
   -0.9820   -7.5222    1.0332 H   0  0  0  0  0  0  0  0  0  0  0  0
    0.7493   -7.4916    1.0304 H   0  0  0  0  0  0  0  0  0  0  0  0
   -0.1699   -6.1071    1.6217 H   0  0  0  0  0  0  0  0  0  0  0  0
   -0.4530   -9.7141    3.9690 H   0  0  0  0  0  0  0  0  0  0  0  0
   -0.7884   -9.7836    1.1938 H   0  0  0  0  0  0  0  0  0  0  0  0
    1.0850  -11.0342    2.5658 H   0  0  0  0  0  0  0  0  0  0  0  0
    1.5324   -9.6228    1.6486 H   0  0  0  0  0  0  0  0  0  0  0  0
    1.7946  -10.0294    4.6455 H   0  0  0  0  0  0  0  0  0  0  0  0
    3.1156  -10.1199    3.5324 H   0  0  0  0  0  0  0  0  0  0  0  0
    2.5877   -8.5232    6.0444 H   0  0  0  0  0  0  0  0  0  0  0  0
    3.1637   -6.9458    5.6608 H   0  0  0  0  0  0  0  0  0  0  0  0
    4.1465   -8.3514    5.2558 H   0  0  0  0  0  0  0  0  0  0  0  0
  1  2  1  0
  1 27  1  0
  1 28  1  0
  1 29  1  0
  2  6  1  0
  2  3  1  0
  3  4  2  0
  4  5  1  0
  5  6  2  0
  5 30  1  0
  6  7  1  0
  7  8  1  0
  7 31  1  0
  7 32  1  0
  8  9  2  3
  8 33  1  0
  9 13  1  0
  9 10  1  0
 10 11  1  0
 10 34  1  0
 10 35  1  0
 11 12  1  0
 11 36  1  0
 11 37  1  0
 12 25  1  0
 12 13  1  0
 12 38  1  6
 13 14  1  1
 13 15  1  0
 14 39  1  0
 14 40  1  0
 14 41  1  0
 15 16  1  0
 15 42  1  0
 15 43  1  0
 16 17  1  0
 16 44  1  0
 16 45  1  0
 17 25  1  0
 17 18  1  0
 17 46  1  1
 18 19  1  0
 18 20  1  0
 18 21  1  0
 19 47  1  0
 19 48  1  0
 19 49  1  0
 20 50  1  0
 20 51  1  0
 20 52  1  0
 21 22  1  0
 21 23  1  0
 21 53  1  1
 22 54  1  0
 23 24  1  0
 23 55  1  0
 23 56  1  0
 24 25  1  0
 24 57  1  0
 24 58  1  0
 25 26  1  1
 26 59  1  0
 26 60  1  0
 26 61  1  0
M  END
>  <i_m_ct_stereo_status>  (351) 
1

>  <s_m_source_file>  (351) 
/var/tmp/pbs.5076255.sched01/tmpl4jv_xt6/1264eazgjw7.sdf

>  <i_m_source_file_index>  (351) 
12

>  <i_lp_mmshare_version>  (351) 
48012

>  <i_f3d_flags>  (351) 
0

>  <s_epik_input>  (351) 
W0NIM11uMW5uW2NIXWMxW0NIMl0vW0NIXT1DMlxbQ0gyXVtDSDJdW0NASF0oW0NAQF0yM1tDSDNdKVtDQEBdNChbQ0gzXSlbQ0BASF0oW0NIMl1bQ0gyXTMpQyhbQ0gzXSkoW0NIM10pW0NAQEhdKFtPSF0pW0NIMl1bQ0gyXTQ=

>  <s_epik_cmdline>  (351) 
J2VwaWtfcHl0aG9uJywgJy1waHQnLCAnMi4wJywgJy1waCcsICc3LjAnLCAnLXRuJywgJzgnLCAnLW1hJywgJzIwMCcsICctaW1hZScsICc8aW5maWxlLm1hZT4nLCAnLW9tYWUnLCAnPG91dGZpbGUubWFlPic=

>  <r_lp_tautomer_probability>  (351) 
1

>  <r_epik_Ionization_Penalty>  (351) 
2.72228e-05

>  <r_epik_Ionization_Penalty_Charging>  (351) 
0

>  <r_epik_Ionization_Penalty_Neutral>  (351) 
2.72228e-05

>  <r_epik_State_Penalty>  (351) 
-0

>  <r_epik_Charging_Adjusted_Penalty>  (351) 
0

>  <i_epik_Tot_Q>  (351) 
0

>  <i_epik_Tot_abs_Q>  (351) 
0

>  <s_lp_Force_Field>  (351) 
OPLS3e

>  <r_lp_Energy>  (351) 
55.4805

>  <b_lp_Chiralities_Consistent>  (351) 
1

>  <s_lp_Variant>  (351) 
99:0-2

>  <s_i_glide_gridfile>  (351) 
pfpi4k_grid

>  <i_i_glide_lignum>  (351) 
12

>  <i_i_glide_rotatable_bonds>  (351) 
3

>  <r_i_docking_score>  (351) 
-3.65431

>  <r_i_glide_ligand_efficiency>  (351) 
-0.14055

>  <r_i_glide_ligand_efficiency_sa>  (351) 
-0.416379

>  <r_i_glide_ligand_efficiency_ln>  (351) 
-0.858202

>  <r_i_glide_gscore>  (351) 
-3.65431

>  <r_i_glide_lipo>  (351) 
-0.405901

>  <r_i_glide_hbond>  (351) 
-0.32

>  <r_i_glide_metal>  (351) 
-0

>  <r_i_glide_rewards>  (351) 
-0.971367

>  <r_i_glide_evdw>  (351) 
-24.8455

>  <r_i_glide_ecoul>  (351) 
-6.21741

>  <r_i_glide_erotb>  (351) 
0.299542

>  <r_i_glide_esite>  (351) 
-0.0816937

>  <r_i_glide_emodel>  (351) 
-37.9698

>  <r_i_glide_energy>  (351) 
-31.0629

>  <r_i_glide_einternal>  (351) 
0.771021

>  <r_i_glide_intrahb_reward>  (351) 
-0

>  <i_i_glide_confnum>  (351) 
4

>  <i_i_glide_posenum>  (351) 
24

>  <r_i_glide_eff_state_penalty>  (351) 
0

>  <ligand_id>  (351) 
99

>  <original_smiles>  (351) 
Cn1nncc1CC=C1CCC2C1(C)CCC1C(C)(C)C(O)CCC21C

>  <smiles>  (351) 
[H]OC1([H])C([H])([H])C([H])([H])C2(C([H])([H])[H])C3([H])C([H])([H])C([H])([H])C(=C([H])C([H])([H])c4c([H])nnn4C([H])([H])[H])C3(C([H])([H])[H])C([H])([H])C([H])([H])C2([H])C1(C([H])([H])[H])C([H])([H])[H]

$$$$
99:1:2
     RDKit          3D

 61 64  0  0  1  0  0  0  0  0999 V2000
    7.1106   -4.6715    0.9622 C   0  0  0  0  0  0  0  0  0  0  0  0
    6.5135   -3.8648   -0.0646 N   0  0  0  0  0  0  0  0  0  0  0  0
    7.2617   -2.9231   -0.7051 N   0  0  0  0  0  0  0  0  0  0  0  0
    6.4615   -2.3002   -1.5050 N   0  0  0  0  0  0  0  0  0  0  0  0
    5.1791   -2.8614   -1.4108 C   0  0  0  0  0  0  0  0  0  0  0  0
    5.1996   -3.8646   -0.4898 C   0  0  0  0  0  0  0  0  0  0  0  0
    4.0970   -4.7374    0.0758 C   0  0  0  0  0  0  0  0  0  0  0  0
    4.4414   -6.2153    0.1594 C   0  0  0  0  0  0  0  0  0  0  0  0
    4.5482   -7.0565    1.2248 C   0  0  0  0  0  0  0  0  0  0  0  0
    4.8728   -8.5272    1.0512 C   0  0  0  0  0  0  0  0  0  0  0  0
    4.1180   -9.2616    2.1736 C   0  0  0  0  0  0  0  0  0  0  0  0
    3.4332   -8.1372    2.9685 C   0  0  2  0  0  0  0  0  0  0  0  0
    4.2849   -6.8661    2.7183 C   0  0  1  0  0  0  0  0  0  0  0  0
    5.6640   -6.8852    3.4432 C   0  0  0  0  0  0  0  0  0  0  0  0
    3.4261   -5.6623    3.1640 C   0  0  0  0  0  0  0  0  0  0  0  0
    2.8313   -5.8211    4.5894 C   0  0  0  0  0  0  0  0  0  0  0  0
    2.0739   -7.1586    4.8858 C   0  0  1  0  0  0  0  0  0  0  0  0
    0.5223   -7.1478    4.5516 C   0  0  0  0  0  0  0  0  0  0  0  0
   -0.1942   -6.2830    5.6212 C   0  0  0  0  0  0  0  0  0  0  0  0
    0.1887   -6.5281    3.1731 C   0  0  0  0  0  0  0  0  0  0  0  0
   -0.0837   -8.5841    4.6613 C   0  0  1  0  0  0  0  0  0  0  0  0
   -1.4358   -8.6550    4.2419 O   0  0  0  0  0  0  0  0  0  0  0  0
    0.7147   -9.6231    3.8793 C   0  0  0  0  0  0  0  0  0  0  0  0
    2.1083   -9.7165    4.4877 C   0  0  0  0  0  0  0  0  0  0  0  0
    2.9262   -8.3994    4.4216 C   0  0  1  0  0  0  0  0  0  0  0  0
    4.0897   -8.6205    5.4271 C   0  0  0  0  0  0  0  0  0  0  0  0
    6.3905   -4.7123    1.7789 H   0  0  0  0  0  0  0  0  0  0  0  0
    8.0401   -4.2320    1.3295 H   0  0  0  0  0  0  0  0  0  0  0  0
    7.3022   -5.6783    0.5750 H   0  0  0  0  0  0  0  0  0  0  0  0
    4.3559   -2.4754   -1.9796 H   0  0  0  0  0  0  0  0  0  0  0  0
    3.7802   -4.3182    1.0207 H   0  0  0  0  0  0  0  0  0  0  0  0
    3.2245   -4.6490   -0.5702 H   0  0  0  0  0  0  0  0  0  0  0  0
    4.6338   -6.6433   -0.8066 H   0  0  0  0  0  0  0  0  0  0  0  0
    4.6058   -8.9071    0.0674 H   0  0  0  0  0  0  0  0  0  0  0  0
    5.9467   -8.6627    1.1872 H   0  0  0  0  0  0  0  0  0  0  0  0
    3.3774   -9.9508    1.7584 H   0  0  0  0  0  0  0  0  0  0  0  0
    4.8072   -9.8477    2.7851 H   0  0  0  0  0  0  0  0  0  0  0  0
    2.5275   -7.9748    2.3937 H   0  0  0  0  0  0  0  0  0  0  0  0
    5.6309   -6.3895    4.4109 H   0  0  0  0  0  0  0  0  0  0  0  0
    6.4495   -6.3977    2.8835 H   0  0  0  0  0  0  0  0  0  0  0  0
    6.0103   -7.9093    3.6109 H   0  0  0  0  0  0  0  0  0  0  0  0
    4.0264   -4.7536    3.1433 H   0  0  0  0  0  0  0  0  0  0  0  0
    2.6138   -5.5028    2.4616 H   0  0  0  0  0  0  0  0  0  0  0  0
    3.6449   -5.7238    5.3077 H   0  0  0  0  0  0  0  0  0  0  0  0
    2.1917   -4.9672    4.8009 H   0  0  0  0  0  0  0  0  0  0  0  0
    2.0754   -7.2358    5.9725 H   0  0  0  0  0  0  0  0  0  0  0  0
   -1.2748   -6.2550    5.4623 H   0  0  0  0  0  0  0  0  0  0  0  0
    0.1550   -5.2496    5.6308 H   0  0  0  0  0  0  0  0  0  0  0  0
   -0.0326   -6.6878    6.6224 H   0  0  0  0  0  0  0  0  0  0  0  0
   -0.8898   -6.5067    3.0151 H   0  0  0  0  0  0  0  0  0  0  0  0
    0.6058   -7.0917    2.3429 H   0  0  0  0  0  0  0  0  0  0  0  0
    0.5309   -5.4963    3.0987 H   0  0  0  0  0  0  0  0  0  0  0  0
   -0.0787   -8.8869    5.7104 H   0  0  0  0  0  0  0  0  0  0  0  0
   -1.7665   -9.5349    4.4830 H   0  0  0  0  0  0  0  0  0  0  0  0
    0.2325  -10.5968    3.9616 H   0  0  0  0  0  0  0  0  0  0  0  0
    0.7537   -9.3943    2.8147 H   0  0  0  0  0  0  0  0  0  0  0  0
    1.9810  -10.0254    5.5278 H   0  0  0  0  0  0  0  0  0  0  0  0
    2.6564  -10.5303    4.0173 H   0  0  0  0  0  0  0  0  0  0  0  0
    3.7240   -8.9850    6.3866 H   0  0  0  0  0  0  0  0  0  0  0  0
    4.6207   -7.7102    5.6780 H   0  0  0  0  0  0  0  0  0  0  0  0
    4.8153   -9.3464    5.0609 H   0  0  0  0  0  0  0  0  0  0  0  0
  1  2  1  0
  1 27  1  0
  1 28  1  0
  1 29  1  0
  2  6  1  0
  2  3  1  0
  3  4  2  0
  4  5  1  0
  5  6  2  0
  5 30  1  0
  6  7  1  0
  7  8  1  0
  7 31  1  0
  7 32  1  0
  8  9  2  3
  8 33  1  0
  9 13  1  0
  9 10  1  0
 10 11  1  0
 10 34  1  0
 10 35  1  0
 11 12  1  0
 11 36  1  0
 11 37  1  0
 12 25  1  0
 12 13  1  0
 12 38  1  6
 13 14  1  1
 13 15  1  0
 14 39  1  0
 14 40  1  0
 14 41  1  0
 15 16  1  0
 15 42  1  0
 15 43  1  0
 16 17  1  0
 16 44  1  0
 16 45  1  0
 17 25  1  0
 17 18  1  0
 17 46  1  1
 18 19  1  0
 18 20  1  0
 18 21  1  0
 19 47  1  0
 19 48  1  0
 19 49  1  0
 20 50  1  0
 20 51  1  0
 20 52  1  0
 21 22  1  0
 21 23  1  0
 21 53  1  1
 22 54  1  0
 23 24  1  0
 23 55  1  0
 23 56  1  0
 24 25  1  0
 24 57  1  0
 24 58  1  0
 25 26  1  1
 26 59  1  0
 26 60  1  0
 26 61  1  0
M  END
>  <i_m_ct_stereo_status>  (352) 
1

>  <s_m_source_file>  (352) 
/var/tmp/pbs.5076255.sched01/tmpl4jv_xt6/1264eazgjw7.sdf

>  <i_m_source_file_index>  (352) 
12

>  <i_lp_mmshare_version>  (352) 
48012

>  <i_f3d_flags>  (352) 
0

>  <s_epik_input>  (352) 
W0NIM11uMW5uW2NIXWMxW0NIMl0vW0NIXT1DMlxbQ0gyXVtDSDJdW0NASF0oW0NAQF0yM1tDSDNdKVtDQEBdNChbQ0gzXSlbQ0BASF0oW0NIMl1bQ0gyXTMpQyhbQ0gzXSkoW0NIM10pW0NAQEhdKFtPSF0pW0NIMl1bQ0gyXTQ=

>  <s_epik_cmdline>  (352) 
J2VwaWtfcHl0aG9uJywgJy1waHQnLCAnMi4wJywgJy1waCcsICc3LjAnLCAnLXRuJywgJzgnLCAnLW1hJywgJzIwMCcsICctaW1hZScsICc8aW5maWxlLm1hZT4nLCAnLW9tYWUnLCAnPG91dGZpbGUubWFlPic=

>  <r_lp_tautomer_probability>  (352) 
1

>  <r_epik_Ionization_Penalty>  (352) 
2.72228e-05

>  <r_epik_Ionization_Penalty_Charging>  (352) 
0

>  <r_epik_Ionization_Penalty_Neutral>  (352) 
2.72228e-05

>  <r_epik_State_Penalty>  (352) 
-0

>  <r_epik_Charging_Adjusted_Penalty>  (352) 
0

>  <i_epik_Tot_Q>  (352) 
0

>  <i_epik_Tot_abs_Q>  (352) 
0

>  <s_lp_Force_Field>  (352) 
OPLS3e

>  <r_lp_Energy>  (352) 
55.4805

>  <b_lp_Chiralities_Consistent>  (352) 
1

>  <s_lp_Variant>  (352) 
99:0-2

>  <s_i_glide_gridfile>  (352) 
pfpi4k_grid

>  <i_i_glide_lignum>  (352) 
12

>  <i_i_glide_rotatable_bonds>  (352) 
3

>  <r_i_docking_score>  (352) 
-3.46143

>  <r_i_glide_ligand_efficiency>  (352) 
-0.133132

>  <r_i_glide_ligand_efficiency_sa>  (352) 
-0.394402

>  <r_i_glide_ligand_efficiency_ln>  (352) 
-0.812904

>  <r_i_glide_gscore>  (352) 
-3.46143

>  <r_i_glide_lipo>  (352) 
-0.364688

>  <r_i_glide_hbond>  (352) 
-0.16

>  <r_i_glide_metal>  (352) 
-0

>  <r_i_glide_rewards>  (352) 
-1.09004

>  <r_i_glide_evdw>  (352) 
-22.6166

>  <r_i_glide_ecoul>  (352) 
-6.36799

>  <r_i_glide_erotb>  (352) 
0.299542

>  <r_i_glide_esite>  (352) 
-0.0602163

>  <r_i_glide_emodel>  (352) 
-34.9841

>  <r_i_glide_energy>  (352) 
-28.9846

>  <r_i_glide_einternal>  (352) 
1.05835

>  <r_i_glide_intrahb_reward>  (352) 
-0

>  <i_i_glide_confnum>  (352) 
4

>  <i_i_glide_posenum>  (352) 
9

>  <r_i_glide_eff_state_penalty>  (352) 
0

>  <ligand_id>  (352) 
99

>  <original_smiles>  (352) 
Cn1nncc1CC=C1CCC2C1(C)CCC1C(C)(C)C(O)CCC21C

>  <smiles>  (352) 
[H]OC1([H])C([H])([H])C([H])([H])C2(C([H])([H])[H])C3([H])C([H])([H])C([H])([H])C(=C([H])C([H])([H])c4c([H])nnn4C([H])([H])[H])C3(C([H])([H])[H])C([H])([H])C([H])([H])C2([H])C1(C([H])([H])[H])C([H])([H])[H]

$$$$
101:0:0
     RDKit          3D

 47 50  0  0  1  0  0  0  0  0999 V2000
    0.6235  -11.6881    4.3384 C   0  0  0  0  0  0  0  0  0  0  0  0
    1.6937  -10.6731    4.4401 N   0  0  1  0  0  0  0  0  0  0  0  0
    2.3083  -10.4048    3.1126 C   0  0  0  0  0  0  0  0  0  0  0  0
    3.5210   -9.4852    3.2643 C   0  0  0  0  0  0  0  0  0  0  0  0
    3.1772   -8.1682    3.9975 C   0  0  2  0  0  0  0  0  0  0  0  0
    2.3269   -8.3666    5.2730 C   0  0  2  0  0  0  0  0  0  0  0  0
    1.2051   -9.4185    5.0717 C   0  0  0  0  0  0  0  0  0  0  0  0
    1.7407   -6.9883    5.3737 C   0  0  0  0  0  0  0  0  0  0  0  0
    1.1617   -6.4947    6.4874 N   0  0  0  0  0  0  0  0  0  0  0  0
    0.7026   -5.2263    6.3970 C   0  0  0  0  0  0  0  0  0  0  0  0
    0.7806   -4.4471    5.2198 C   0  0  0  0  0  0  0  0  0  0  0  0
    1.3964   -4.9913    4.0741 C   0  0  0  0  0  0  0  0  0  0  0  0
    1.8819   -6.3163    4.1569 C   0  0  0  0  0  0  0  0  0  0  0  0
    2.5192   -7.1276    3.1873 N   0  0  0  0  0  0  0  0  0  0  0  0
    3.2223   -6.5758    2.0247 C   0  0  0  0  0  0  0  0  0  0  0  0
    2.3852   -5.7214    1.0550 C   0  0  0  0  0  0  0  0  0  0  0  0
    1.1644   -5.8833    0.9853 O   0  0  0  0  0  0  0  0  0  0  0  0
    3.0304   -4.8220    0.2870 N   0  0  0  0  0  0  0  0  0  0  0  0
    2.3526   -3.9081   -0.6327 C   0  0  0  0  0  0  0  0  0  0  0  0
    3.4583   -3.2697   -1.4721 C   0  0  0  0  0  0  0  0  0  0  0  0
    4.6985   -3.3656   -0.5987 C   0  0  0  0  0  0  0  0  0  0  0  0
    4.4792   -4.6273    0.2259 C   0  0  0  0  0  0  0  0  0  0  0  0
   -0.1825  -11.3258    3.6994 H   0  0  0  0  0  0  0  0  0  0  0  0
    0.2156  -11.9163    5.3225 H   0  0  0  0  0  0  0  0  0  0  0  0
    1.0070  -12.6177    3.9191 H   0  0  0  0  0  0  0  0  0  0  0  0
    2.6362  -11.3407    2.6547 H   0  0  0  0  0  0  0  0  0  0  0  0
    1.5816   -9.9544    2.4334 H   0  0  0  0  0  0  0  0  0  0  0  0
    4.2775  -10.0184    3.8459 H   0  0  0  0  0  0  0  0  0  0  0  0
    3.9774   -9.3142    2.2894 H   0  0  0  0  0  0  0  0  0  0  0  0
    4.1324   -7.7260    4.3061 H   0  0  0  0  0  0  0  0  0  0  0  0
    2.9504   -8.6082    6.1373 H   0  0  0  0  0  0  0  0  0  0  0  0
    0.4155   -9.0077    4.4416 H   0  0  0  0  0  0  0  0  0  0  0  0
    0.7531   -9.6490    6.0378 H   0  0  0  0  0  0  0  0  0  0  0  0
    0.2430   -4.8142    7.2819 H   0  0  0  0  0  0  0  0  0  0  0  0
    0.3724   -3.4487    5.1989 H   0  0  0  0  0  0  0  0  0  0  0  0
    1.4670   -4.3921    3.1798 H   0  0  0  0  0  0  0  0  0  0  0  0
    4.1212   -6.0764    2.3849 H   0  0  0  0  0  0  0  0  0  0  0  0
    3.5559   -7.3936    1.3866 H   0  0  0  0  0  0  0  0  0  0  0  0
    1.6162   -4.4131   -1.2619 H   0  0  0  0  0  0  0  0  0  0  0  0
    1.8403   -3.1415   -0.0494 H   0  0  0  0  0  0  0  0  0  0  0  0
    3.6106   -3.8544   -2.3811 H   0  0  0  0  0  0  0  0  0  0  0  0
    3.2238   -2.2453   -1.7625 H   0  0  0  0  0  0  0  0  0  0  0  0
    5.6259   -3.3988   -1.1704 H   0  0  0  0  0  0  0  0  0  0  0  0
    4.7421   -2.5049    0.0709 H   0  0  0  0  0  0  0  0  0  0  0  0
    4.9426   -4.4907    1.2028 H   0  0  0  0  0  0  0  0  0  0  0  0
    4.9305   -5.4949   -0.2601 H   0  0  0  0  0  0  0  0  0  0  0  0
    2.4052  -11.0707    5.0445 H   0  0  0  0  0  0  0  0  0  0  0  0
  1  2  1  0
  1 23  1  0
  1 24  1  0
  1 25  1  0
  2  7  1  0
  2  3  1  0
  2 47  1  1
  3  4  1  0
  3 26  1  0
  3 27  1  0
  4  5  1  0
  4 28  1  0
  4 29  1  0
  5 14  1  0
  5  6  1  0
  5 30  1  1
  6  7  1  0
  6  8  1  0
  6 31  1  1
  7 32  1  0
  7 33  1  0
  8 13  2  0
  8  9  1  0
  9 10  2  0
 10 11  1  0
 10 34  1  0
 11 12  2  0
 11 35  1  0
 12 13  1  0
 12 36  1  0
 13 14  1  0
 14 15  1  0
 15 16  1  0
 15 37  1  0
 15 38  1  0
 16 17  2  0
 16 18  1  0
 18 22  1  0
 18 19  1  0
 19 20  1  0
 19 39  1  0
 19 40  1  0
 20 21  1  0
 20 41  1  0
 20 42  1  0
 21 22  1  0
 21 43  1  0
 21 44  1  0
 22 45  1  0
 22 46  1  0
M  CHG  1   2   1
M  END
>  <i_m_ct_stereo_status>  (353) 
1

>  <s_m_source_file>  (353) 
/var/tmp/pbs.5076255.sched01/tmpl4jv_xt6/1264eazgjw7.sdf

>  <i_m_source_file_index>  (353) 
14

>  <i_lp_mmshare_version>  (353) 
48012

>  <i_f3d_flags>  (353) 
0

>  <s_epik_input>  (353) 
W0NIMl0xW0NIMl1OKFtDSDNdKVtDSDJdW0NAQEhdKFtDQEBIXTEyKWMzYyhbY0hdW2NIXVtjSF1uMylOMltDSDJdQyg9TylONFtDSDJdW0NIMl1bQ0gyXVtDSDJdNA==

>  <s_epik_cmdline>  (353) 
J2VwaWtfcHl0aG9uJywgJy1waHQnLCAnMi4wJywgJy1waCcsICc3LjAnLCAnLXRuJywgJzgnLCAnLW1hJywgJzIwMCcsICctaW1hZScsICc8aW5maWxlLm1hZT4nLCAnLW9tYWUnLCAnPG91dGZpbGUubWFlPic=

>  <r_lp_tautomer_probability>  (353) 
1

>  <r_epik_Ionization_Penalty>  (353) 
0.00774213

>  <r_epik_Ionization_Penalty_Charging>  (353) 
0.00403289

>  <r_epik_Ionization_Penalty_Neutral>  (353) 
0.00370924

>  <r_epik_State_Penalty>  (353) 
0.0126164

>  <r_epik_Charging_Adjusted_Penalty>  (353) 
0.0166493

>  <i_epik_Tot_Q>  (353) 
1

>  <i_epik_Tot_abs_Q>  (353) 
1

>  <s_lp_Force_Field>  (353) 
OPLS3e

>  <r_lp_Energy>  (353) 
47.6397

>  <b_lp_Chiralities_Consistent>  (353) 
1

>  <s_lp_Variant>  (353) 
101:0-1

>  <s_i_glide_gridfile>  (353) 
pfpi4k_grid

>  <i_i_glide_lignum>  (353) 
14

>  <i_i_glide_rotatable_bonds>  (353) 
3

>  <r_i_docking_score>  (353) 
-3.17814

>  <r_i_glide_ligand_efficiency>  (353) 
-0.144461

>  <r_i_glide_ligand_efficiency_sa>  (353) 
-0.404785

>  <r_i_glide_ligand_efficiency_ln>  (353) 
-0.776854

>  <r_i_glide_gscore>  (353) 
-3.17814

>  <r_i_glide_lipo>  (353) 
-0.164621

>  <r_i_glide_hbond>  (353) 
-0.16

>  <r_i_glide_metal>  (353) 
-0

>  <r_i_glide_rewards>  (353) 
-1.35405

>  <r_i_glide_evdw>  (353) 
-17.4254

>  <r_i_glide_ecoul>  (353) 
-7.6924

>  <r_i_glide_erotb>  (353) 
0.607505

>  <r_i_glide_esite>  (353) 
-0.0818506

>  <r_i_glide_emodel>  (353) 
-31.6278

>  <r_i_glide_energy>  (353) 
-25.1178

>  <r_i_glide_einternal>  (353) 
1.23001

>  <r_i_glide_intrahb_reward>  (353) 
-0

>  <i_i_glide_confnum>  (353) 
2

>  <i_i_glide_posenum>  (353) 
2

>  <r_i_glide_eff_state_penalty>  (353) 
0

>  <ligand_id>  (353) 
101

>  <original_smiles>  (353) 
CN1CCC2C(C1)c1ncccc1N2CC(=O)N1CCCC1

>  <smiles>  (353) 
[H]c1nc2c(c([H])c1[H])N(C([H])([H])C(=O)N1C([H])([H])C([H])([H])C([H])([H])C1([H])[H])C1([H])C([H])([H])C([H])([H])[N+]([H])(C([H])([H])[H])C([H])([H])C21[H]

$$$$
101:0:1
     RDKit          3D

 47 50  0  0  1  0  0  0  0  0999 V2000
   -1.6671   -9.6140    2.4376 C   0  0  0  0  0  0  0  0  0  0  0  0
   -0.5069   -9.1598    3.2343 N   0  0  1  0  0  0  0  0  0  0  0  0
    0.6664   -8.9100    2.3562 C   0  0  0  0  0  0  0  0  0  0  0  0
    1.9030   -8.6058    3.1922 C   0  0  0  0  0  0  0  0  0  0  0  0
    1.6838   -7.4434    4.1798 C   0  0  2  0  0  0  0  0  0  0  0  0
    0.3513   -7.5207    4.9582 C   0  0  2  0  0  0  0  0  0  0  0  0
   -0.8312   -7.9673    4.0623 C   0  0  0  0  0  0  0  0  0  0  0  0
    0.2173   -6.0688    5.3102 C   0  0  0  0  0  0  0  0  0  0  0  0
   -0.5881   -5.6053    6.2847 N   0  0  0  0  0  0  0  0  0  0  0  0
   -0.5720   -4.2689    6.4765 C   0  0  0  0  0  0  0  0  0  0  0  0
    0.2138   -3.3796    5.7072 C   0  0  0  0  0  0  0  0  0  0  0  0
    1.0566   -3.8954    4.6947 C   0  0  0  0  0  0  0  0  0  0  0  0
    1.0409   -5.2929    4.4940 C   0  0  0  0  0  0  0  0  0  0  0  0
    1.7787   -6.0978    3.5996 N   0  0  0  0  0  0  0  0  0  0  0  0
    3.0316   -5.6378    2.9966 C   0  0  0  0  0  0  0  0  0  0  0  0
    2.8539   -5.1507    1.5447 C   0  0  0  0  0  0  0  0  0  0  0  0
    1.8294   -5.4521    0.9226 O   0  0  0  0  0  0  0  0  0  0  0  0
    3.8614   -4.4397    0.9914 N   0  0  0  0  0  0  0  0  0  0  0  0
    3.8403   -3.8885   -0.3659 C   0  0  0  0  0  0  0  0  0  0  0  0
    5.2621   -3.3842   -0.6408 C   0  0  0  0  0  0  0  0  0  0  0  0
    5.8327   -3.1048    0.7390 C   0  0  0  0  0  0  0  0  0  0  0  0
    5.1318   -4.1153    1.6432 C   0  0  0  0  0  0  0  0  0  0  0  0
   -1.9903   -8.8514    1.7259 H   0  0  0  0  0  0  0  0  0  0  0  0
   -2.5002   -9.8528    3.0968 H   0  0  0  0  0  0  0  0  0  0  0  0
   -1.4021  -10.5040    1.8647 H   0  0  0  0  0  0  0  0  0  0  0  0
    0.8789   -9.7922    1.7521 H   0  0  0  0  0  0  0  0  0  0  0  0
    0.4653   -8.0861    1.6692 H   0  0  0  0  0  0  0  0  0  0  0  0
    2.1559   -9.5035    3.7636 H   0  0  0  0  0  0  0  0  0  0  0  0
    2.7476   -8.4201    2.5242 H   0  0  0  0  0  0  0  0  0  0  0  0
    2.4962   -7.4857    4.9085 H   0  0  0  0  0  0  0  0  0  0  0  0
    0.4417   -8.1524    5.8475 H   0  0  0  0  0  0  0  0  0  0  0  0
   -1.1134   -7.1583    3.3877 H   0  0  0  0  0  0  0  0  0  0  0  0
   -1.6972   -8.1818    4.6889 H   0  0  0  0  0  0  0  0  0  0  0  0
   -1.2301   -3.8906    7.2420 H   0  0  0  0  0  0  0  0  0  0  0  0
    0.1599   -2.3190    5.8993 H   0  0  0  0  0  0  0  0  0  0  0  0
    1.6831   -3.2349    4.1135 H   0  0  0  0  0  0  0  0  0  0  0  0
    3.4956   -4.8925    3.6402 H   0  0  0  0  0  0  0  0  0  0  0  0
    3.7517   -6.4555    2.9315 H   0  0  0  0  0  0  0  0  0  0  0  0
    3.5396   -4.6206   -1.1164 H   0  0  0  0  0  0  0  0  0  0  0  0
    3.1313   -3.0581   -0.3976 H   0  0  0  0  0  0  0  0  0  0  0  0
    5.8432   -4.1724   -1.1213 H   0  0  0  0  0  0  0  0  0  0  0  0
    5.2844   -2.5071   -1.2888 H   0  0  0  0  0  0  0  0  0  0  0  0
    6.9194   -3.1864    0.7819 H   0  0  0  0  0  0  0  0  0  0  0  0
    5.5606   -2.0952    1.0515 H   0  0  0  0  0  0  0  0  0  0  0  0
    5.0074   -3.6768    2.6326 H   0  0  0  0  0  0  0  0  0  0  0  0
    5.7285   -5.0249    1.7375 H   0  0  0  0  0  0  0  0  0  0  0  0
   -0.2828   -9.9188    3.8697 H   0  0  0  0  0  0  0  0  0  0  0  0
  1  2  1  0
  1 23  1  0
  1 24  1  0
  1 25  1  0
  2  7  1  0
  2  3  1  0
  2 47  1  1
  3  4  1  0
  3 26  1  0
  3 27  1  0
  4  5  1  0
  4 28  1  0
  4 29  1  0
  5 14  1  0
  5  6  1  0
  5 30  1  1
  6  7  1  0
  6  8  1  0
  6 31  1  1
  7 32  1  0
  7 33  1  0
  8 13  2  0
  8  9  1  0
  9 10  2  0
 10 11  1  0
 10 34  1  0
 11 12  2  0
 11 35  1  0
 12 13  1  0
 12 36  1  0
 13 14  1  0
 14 15  1  0
 15 16  1  0
 15 37  1  0
 15 38  1  0
 16 17  2  0
 16 18  1  0
 18 22  1  0
 18 19  1  0
 19 20  1  0
 19 39  1  0
 19 40  1  0
 20 21  1  0
 20 41  1  0
 20 42  1  0
 21 22  1  0
 21 43  1  0
 21 44  1  0
 22 45  1  0
 22 46  1  0
M  CHG  1   2   1
M  END
>  <i_m_ct_stereo_status>  (354) 
1

>  <s_m_source_file>  (354) 
/var/tmp/pbs.5076255.sched01/tmpl4jv_xt6/1264eazgjw7.sdf

>  <i_m_source_file_index>  (354) 
14

>  <i_lp_mmshare_version>  (354) 
48012

>  <i_f3d_flags>  (354) 
0

>  <s_epik_input>  (354) 
W0NIMl0xW0NIMl1OKFtDSDNdKVtDSDJdW0NAQEhdKFtDQEBIXTEyKWMzYyhbY0hdW2NIXVtjSF1uMylOMltDSDJdQyg9TylONFtDSDJdW0NIMl1bQ0gyXVtDSDJdNA==

>  <s_epik_cmdline>  (354) 
J2VwaWtfcHl0aG9uJywgJy1waHQnLCAnMi4wJywgJy1waCcsICc3LjAnLCAnLXRuJywgJzgnLCAnLW1hJywgJzIwMCcsICctaW1hZScsICc8aW5maWxlLm1hZT4nLCAnLW9tYWUnLCAnPG91dGZpbGUubWFlPic=

>  <r_lp_tautomer_probability>  (354) 
1

>  <r_epik_Ionization_Penalty>  (354) 
0.00774213

>  <r_epik_Ionization_Penalty_Charging>  (354) 
0.00403289

>  <r_epik_Ionization_Penalty_Neutral>  (354) 
0.00370924

>  <r_epik_State_Penalty>  (354) 
0.0126164

>  <r_epik_Charging_Adjusted_Penalty>  (354) 
0.0166493

>  <i_epik_Tot_Q>  (354) 
1

>  <i_epik_Tot_abs_Q>  (354) 
1

>  <s_lp_Force_Field>  (354) 
OPLS3e

>  <r_lp_Energy>  (354) 
47.6397

>  <b_lp_Chiralities_Consistent>  (354) 
1

>  <s_lp_Variant>  (354) 
101:0-1

>  <s_i_glide_gridfile>  (354) 
pfpi4k_grid

>  <i_i_glide_lignum>  (354) 
14

>  <i_i_glide_rotatable_bonds>  (354) 
3

>  <r_i_docking_score>  (354) 
-2.99064

>  <r_i_glide_ligand_efficiency>  (354) 
-0.135938

>  <r_i_glide_ligand_efficiency_sa>  (354) 
-0.380905

>  <r_i_glide_ligand_efficiency_ln>  (354) 
-0.731023

>  <r_i_glide_gscore>  (354) 
-2.99064

>  <r_i_glide_lipo>  (354) 
-0.388862

>  <r_i_glide_hbond>  (354) 
-0.0957274

>  <r_i_glide_metal>  (354) 
-0

>  <r_i_glide_rewards>  (354) 
-1.37096

>  <r_i_glide_evdw>  (354) 
-18.5214

>  <r_i_glide_ecoul>  (354) 
-5.01569

>  <r_i_glide_erotb>  (354) 
0.607505

>  <r_i_glide_esite>  (354) 
-0.0641749

>  <r_i_glide_emodel>  (354) 
-30.4098

>  <r_i_glide_energy>  (354) 
-23.5371

>  <r_i_glide_einternal>  (354) 
0.180033

>  <r_i_glide_intrahb_reward>  (354) 
-0

>  <i_i_glide_confnum>  (354) 
2

>  <i_i_glide_posenum>  (354) 
20

>  <r_i_glide_eff_state_penalty>  (354) 
0

>  <ligand_id>  (354) 
101

>  <original_smiles>  (354) 
CN1CCC2C(C1)c1ncccc1N2CC(=O)N1CCCC1

>  <smiles>  (354) 
[H]c1nc2c(c([H])c1[H])N(C([H])([H])C(=O)N1C([H])([H])C([H])([H])C([H])([H])C1([H])[H])C1([H])C([H])([H])C([H])([H])[N+]([H])(C([H])([H])[H])C([H])([H])C21[H]

$$$$
101:0:2
     RDKit          3D

 47 50  0  0  1  0  0  0  0  0999 V2000
   -1.7914   -9.3027    2.6313 C   0  0  0  0  0  0  0  0  0  0  0  0
   -0.5468   -8.8280    3.2829 N   0  0  1  0  0  0  0  0  0  0  0  0
    0.5420   -8.6684    2.2822 C   0  0  0  0  0  0  0  0  0  0  0  0
    1.8625   -8.3548    2.9767 C   0  0  0  0  0  0  0  0  0  0  0  0
    1.7693   -7.1185    3.8821 C   0  0  2  0  0  0  0  0  0  0  0  0
    0.5233   -7.0980    4.7951 C   0  0  2  0  0  0  0  0  0  0  0  0
   -0.7557   -7.5622    4.0429 C   0  0  0  0  0  0  0  0  0  0  0  0
    0.4453   -5.6207    5.0423 C   0  0  0  0  0  0  0  0  0  0  0  0
   -0.2543   -5.0632    6.0429 N   0  0  0  0  0  0  0  0  0  0  0  0
   -0.1760   -3.7152    6.1316 C   0  0  0  0  0  0  0  0  0  0  0  0
    0.5697   -2.9200    5.2322 C   0  0  0  0  0  0  0  0  0  0  0  0
    1.2922   -3.5290    4.1923 C   0  0  0  0  0  0  0  0  0  0  0  0
    1.2163   -4.9377    4.0994 C   0  0  0  0  0  0  0  0  0  0  0  0
    1.8394   -5.8190    3.1982 N   0  0  0  0  0  0  0  0  0  0  0  0
    3.0607   -5.4337    2.4811 C   0  0  0  0  0  0  0  0  0  0  0  0
    2.7599   -4.9546    1.0434 C   0  0  0  0  0  0  0  0  0  0  0  0
    1.8090   -5.4542    0.4384 O   0  0  0  0  0  0  0  0  0  0  0  0
    3.5832   -4.0440    0.4854 N   0  0  0  0  0  0  0  0  0  0  0  0
    4.7417   -3.4450    1.1437 C   0  0  0  0  0  0  0  0  0  0  0  0
    5.4757   -2.6392    0.0817 C   0  0  0  0  0  0  0  0  0  0  0  0
    4.3997   -2.3107   -0.9417 C   0  0  0  0  0  0  0  0  0  0  0  0
    3.4333   -3.4929   -0.8667 C   0  0  0  0  0  0  0  0  0  0  0  0
   -2.1623   -8.5839    1.8974 H   0  0  0  0  0  0  0  0  0  0  0  0
   -2.5722   -9.4571    3.3828 H   0  0  0  0  0  0  0  0  0  0  0  0
   -1.6165  -10.2544    2.1169 H   0  0  0  0  0  0  0  0  0  0  0  0
    0.6754   -9.6062    1.7351 H   0  0  0  0  0  0  0  0  0  0  0  0
    0.3063   -7.8904    1.5510 H   0  0  0  0  0  0  0  0  0  0  0  0
    2.1293   -9.2193    3.5894 H   0  0  0  0  0  0  0  0  0  0  0  0
    2.6346   -8.2539    2.2174 H   0  0  0  0  0  0  0  0  0  0  0  0
    2.6507   -7.1263    4.5279 H   0  0  0  0  0  0  0  0  0  0  0  0
    0.6727   -7.6623    5.7213 H   0  0  0  0  0  0  0  0  0  0  0  0
   -1.0698   -6.7887    3.3389 H   0  0  0  0  0  0  0  0  0  0  0  0
   -1.5731   -7.6922    4.7633 H   0  0  0  0  0  0  0  0  0  0  0  0
   -0.7398   -3.2587    6.9303 H   0  0  0  0  0  0  0  0  0  0  0  0
    0.5656   -1.8497    5.3544 H   0  0  0  0  0  0  0  0  0  0  0  0
    1.8932   -2.9403    3.5098 H   0  0  0  0  0  0  0  0  0  0  0  0
    3.6390   -4.7285    3.0796 H   0  0  0  0  0  0  0  0  0  0  0  0
    3.7303   -6.2871    2.3155 H   0  0  0  0  0  0  0  0  0  0  0  0
    4.3772   -2.7875    1.9340 H   0  0  0  0  0  0  0  0  0  0  0  0
    5.4037   -4.1951    1.5806 H   0  0  0  0  0  0  0  0  0  0  0  0
    5.9561   -1.7541    0.4981 H   0  0  0  0  0  0  0  0  0  0  0  0
    6.2453   -3.2633   -0.3744 H   0  0  0  0  0  0  0  0  0  0  0  0
    3.8786   -1.3994   -0.6457 H   0  0  0  0  0  0  0  0  0  0  0  0
    4.8077   -2.1584   -1.9404 H   0  0  0  0  0  0  0  0  0  0  0  0
    3.7244   -4.2576   -1.5922 H   0  0  0  0  0  0  0  0  0  0  0  0
    2.4082   -3.1875   -1.0829 H   0  0  0  0  0  0  0  0  0  0  0  0
   -0.2839   -9.5453    3.9378 H   0  0  0  0  0  0  0  0  0  0  0  0
  1  2  1  0
  1 23  1  0
  1 24  1  0
  1 25  1  0
  2  7  1  0
  2  3  1  0
  2 47  1  1
  3  4  1  0
  3 26  1  0
  3 27  1  0
  4  5  1  0
  4 28  1  0
  4 29  1  0
  5 14  1  0
  5  6  1  0
  5 30  1  1
  6  7  1  0
  6  8  1  0
  6 31  1  1
  7 32  1  0
  7 33  1  0
  8 13  2  0
  8  9  1  0
  9 10  2  0
 10 11  1  0
 10 34  1  0
 11 12  2  0
 11 35  1  0
 12 13  1  0
 12 36  1  0
 13 14  1  0
 14 15  1  0
 15 16  1  0
 15 37  1  0
 15 38  1  0
 16 17  2  0
 16 18  1  0
 18 22  1  0
 18 19  1  0
 19 20  1  0
 19 39  1  0
 19 40  1  0
 20 21  1  0
 20 41  1  0
 20 42  1  0
 21 22  1  0
 21 43  1  0
 21 44  1  0
 22 45  1  0
 22 46  1  0
M  CHG  1   2   1
M  END
>  <i_m_ct_stereo_status>  (355) 
1

>  <s_m_source_file>  (355) 
/var/tmp/pbs.5076255.sched01/tmpl4jv_xt6/1264eazgjw7.sdf

>  <i_m_source_file_index>  (355) 
14

>  <i_lp_mmshare_version>  (355) 
48012

>  <i_f3d_flags>  (355) 
0

>  <s_epik_input>  (355) 
W0NIMl0xW0NIMl1OKFtDSDNdKVtDSDJdW0NAQEhdKFtDQEBIXTEyKWMzYyhbY0hdW2NIXVtjSF1uMylOMltDSDJdQyg9TylONFtDSDJdW0NIMl1bQ0gyXVtDSDJdNA==

>  <s_epik_cmdline>  (355) 
J2VwaWtfcHl0aG9uJywgJy1waHQnLCAnMi4wJywgJy1waCcsICc3LjAnLCAnLXRuJywgJzgnLCAnLW1hJywgJzIwMCcsICctaW1hZScsICc8aW5maWxlLm1hZT4nLCAnLW9tYWUnLCAnPG91dGZpbGUubWFlPic=

>  <r_lp_tautomer_probability>  (355) 
1

>  <r_epik_Ionization_Penalty>  (355) 
0.00774213

>  <r_epik_Ionization_Penalty_Charging>  (355) 
0.00403289

>  <r_epik_Ionization_Penalty_Neutral>  (355) 
0.00370924

>  <r_epik_State_Penalty>  (355) 
0.0126164

>  <r_epik_Charging_Adjusted_Penalty>  (355) 
0.0166493

>  <i_epik_Tot_Q>  (355) 
1

>  <i_epik_Tot_abs_Q>  (355) 
1

>  <s_lp_Force_Field>  (355) 
OPLS3e

>  <r_lp_Energy>  (355) 
47.6397

>  <b_lp_Chiralities_Consistent>  (355) 
1

>  <s_lp_Variant>  (355) 
101:0-1

>  <s_i_glide_gridfile>  (355) 
pfpi4k_grid

>  <i_i_glide_lignum>  (355) 
14

>  <i_i_glide_rotatable_bonds>  (355) 
3

>  <r_i_docking_score>  (355) 
-2.90164

>  <r_i_glide_ligand_efficiency>  (355) 
-0.131893

>  <r_i_glide_ligand_efficiency_sa>  (355) 
-0.369568

>  <r_i_glide_ligand_efficiency_ln>  (355) 
-0.709266

>  <r_i_glide_gscore>  (355) 
-2.90164

>  <r_i_glide_lipo>  (355) 
-0.259338

>  <r_i_glide_hbond>  (355) 
-0.100354

>  <r_i_glide_metal>  (355) 
-0

>  <r_i_glide_rewards>  (355) 
-1.35405

>  <r_i_glide_evdw>  (355) 
-19.9711

>  <r_i_glide_ecoul>  (355) 
-4.74498

>  <r_i_glide_erotb>  (355) 
0.607505

>  <r_i_glide_esite>  (355) 
-0.0851041

>  <r_i_glide_emodel>  (355) 
-31.1731

>  <r_i_glide_energy>  (355) 
-24.716

>  <r_i_glide_einternal>  (355) 
0.452187

>  <r_i_glide_intrahb_reward>  (355) 
-0

>  <i_i_glide_confnum>  (355) 
1

>  <i_i_glide_posenum>  (355) 
33

>  <r_i_glide_eff_state_penalty>  (355) 
0

>  <ligand_id>  (355) 
101

>  <original_smiles>  (355) 
CN1CCC2C(C1)c1ncccc1N2CC(=O)N1CCCC1

>  <smiles>  (355) 
[H]c1nc2c(c([H])c1[H])N(C([H])([H])C(=O)N1C([H])([H])C([H])([H])C([H])([H])C1([H])[H])C1([H])C([H])([H])C([H])([H])[N+]([H])(C([H])([H])[H])C([H])([H])C21[H]

$$$$
101:1:0
     RDKit          3D

 48 51  0  0  1  0  0  0  0  0999 V2000
   -0.5477   -8.8578    5.4502 C   0  0  0  0  0  0  0  0  0  0  0  0
    0.2584   -9.7091    4.5540 N   0  0  1  0  0  0  0  0  0  0  0  0
    0.8277   -8.9314    3.4276 C   0  0  0  0  0  0  0  0  0  0  0  0
    1.4730   -9.8851    2.4171 C   0  0  0  0  0  0  0  0  0  0  0  0
    2.5696  -10.7617    3.0648 C   0  0  2  0  0  0  0  0  0  0  0  0
    2.1295  -11.4152    4.3927 C   0  0  2  0  0  0  0  0  0  0  0  0
    1.3136  -10.4483    5.2908 C   0  0  0  0  0  0  0  0  0  0  0  0
    3.4928  -11.6597    4.9785 C   0  0  0  0  0  0  0  0  0  0  0  0
    3.8085  -12.4811    6.0008 N   0  0  0  0  0  0  0  0  0  0  0  0
    5.0736  -12.6216    6.4393 C   0  0  0  0  0  0  0  0  0  0  0  0
    6.1041  -11.8863    5.8133 C   0  0  0  0  0  0  0  0  0  0  0  0
    5.8103  -11.0166    4.7324 C   0  0  0  0  0  0  0  0  0  0  0  0
    4.4578  -10.8956    4.3183 C   0  0  0  0  0  0  0  0  0  0  0  0
    3.8765  -10.1208    3.2914 N   0  0  0  0  0  0  0  0  0  0  0  0
    4.6595   -9.6224    2.1506 C   0  0  0  0  0  0  0  0  0  0  0  0
    4.5296   -8.0887    1.9748 C   0  0  0  0  0  0  0  0  0  0  0  0
    3.4167   -7.5565    1.9820 O   0  0  0  0  0  0  0  0  0  0  0  0
    5.6191   -7.3360    1.7754 N   0  0  0  0  0  0  0  0  0  0  0  0
    5.5674   -5.8904    1.5503 C   0  0  0  0  0  0  0  0  0  0  0  0
    6.9917   -5.4963    1.1724 C   0  0  0  0  0  0  0  0  0  0  0  0
    7.8547   -6.5701    1.8135 C   0  0  0  0  0  0  0  0  0  0  0  0
    6.9898   -7.8217    1.7973 C   0  0  0  0  0  0  0  0  0  0  0  0
    0.0637   -8.0739    5.9087 H   0  0  0  0  0  0  0  0  0  0  0  0
   -0.9823   -9.4597    6.2503 H   0  0  0  0  0  0  0  0  0  0  0  0
   -1.3618   -8.3823    4.8978 H   0  0  0  0  0  0  0  0  0  0  0  0
    0.0431   -8.3674    2.9258 H   0  0  0  0  0  0  0  0  0  0  0  0
    1.5535   -8.2044    3.8036 H   0  0  0  0  0  0  0  0  0  0  0  0
    0.6780  -10.5260    2.0228 H   0  0  0  0  0  0  0  0  0  0  0  0
    1.8550   -9.3525    1.5405 H   0  0  0  0  0  0  0  0  0  0  0  0
    2.7856  -11.5663    2.3637 H   0  0  0  0  0  0  0  0  0  0  0  0
    1.5752  -12.3362    4.2063 H   0  0  0  0  0  0  0  0  0  0  0  0
    1.9847   -9.7194    5.7546 H   0  0  0  0  0  0  0  0  0  0  0  0
    0.8445  -11.0149    6.0765 H   0  0  0  0  0  0  0  0  0  0  0  0
    5.2045  -13.2891    7.2781 H   0  0  0  0  0  0  0  0  0  0  0  0
    7.1110  -11.9881    6.1851 H   0  0  0  0  0  0  0  0  0  0  0  0
    6.6040  -10.4651    4.2478 H   0  0  0  0  0  0  0  0  0  0  0  0
    5.6794   -9.9957    2.2010 H   0  0  0  0  0  0  0  0  0  0  0  0
    4.2792  -10.0599    1.2286 H   0  0  0  0  0  0  0  0  0  0  0  0
    4.8524   -5.6139    0.7687 H   0  0  0  0  0  0  0  0  0  0  0  0
    5.2547   -5.3964    2.4738 H   0  0  0  0  0  0  0  0  0  0  0  0
    7.0986   -5.5439    0.0885 H   0  0  0  0  0  0  0  0  0  0  0  0
    7.2533   -4.4938    1.5069 H   0  0  0  0  0  0  0  0  0  0  0  0
    8.7949   -6.7257    1.2914 H   0  0  0  0  0  0  0  0  0  0  0  0
    8.0694   -6.3062    2.8501 H   0  0  0  0  0  0  0  0  0  0  0  0
    7.1925   -8.4242    2.6852 H   0  0  0  0  0  0  0  0  0  0  0  0
    7.1571   -8.4206    0.8986 H   0  0  0  0  0  0  0  0  0  0  0  0
   -0.4009  -10.3939    4.1890 H   0  0  0  0  0  0  0  0  0  0  0  0
    3.0581  -13.0183    6.4628 H   0  0  0  0  0  0  0  0  0  0  0  0
  1  2  1  0
  1 23  1  0
  1 24  1  0
  1 25  1  0
  2  7  1  0
  2  3  1  0
  2 47  1  6
  3  4  1  0
  3 26  1  0
  3 27  1  0
  4  5  1  0
  4 28  1  0
  4 29  1  0
  5 14  1  0
  5  6  1  0
  5 30  1  6
  6  7  1  0
  6  8  1  0
  6 31  1  6
  7 32  1  0
  7 33  1  0
  8 13  2  0
  8  9  1  0
  9 10  2  0
  9 48  1  0
 10 11  1  0
 10 34  1  0
 11 12  2  0
 11 35  1  0
 12 13  1  0
 12 36  1  0
 13 14  1  0
 14 15  1  0
 15 16  1  0
 15 37  1  0
 15 38  1  0
 16 17  2  0
 16 18  1  0
 18 22  1  0
 18 19  1  0
 19 20  1  0
 19 39  1  0
 19 40  1  0
 20 21  1  0
 20 41  1  0
 20 42  1  0
 21 22  1  0
 21 43  1  0
 21 44  1  0
 22 45  1  0
 22 46  1  0
M  CHG  2   2   1   9   1
M  END
>  <i_m_ct_stereo_status>  (356) 
1

>  <s_m_source_file>  (356) 
/var/tmp/pbs.5076255.sched01/tmpl4jv_xt6/1264eazgjw7.sdf

>  <i_m_source_file_index>  (356) 
15

>  <i_lp_mmshare_version>  (356) 
48012

>  <i_f3d_flags>  (356) 
0

>  <s_epik_input>  (356) 
W0NIMl0xW0NIMl1OKFtDSDNdKVtDSDJdW0NAQEhdKFtDQEBIXTEyKWMzYyhbY0hdW2NIXVtjSF1uMylOMltDSDJdQyg9TylONFtDSDJdW0NIMl1bQ0gyXVtDSDJdNA==

>  <s_epik_cmdline>  (356) 
J2VwaWtfcHl0aG9uJywgJy1waHQnLCAnMi4wJywgJy1waCcsICc3LjAnLCAnLXRuJywgJzgnLCAnLW1hJywgJzIwMCcsICctaW1hZScsICc8aW5maWxlLm1hZT4nLCAnLW9tYWUnLCAnPG91dGZpbGUubWFlPic=

>  <r_lp_tautomer_probability>  (356) 
0.999846

>  <r_epik_Ionization_Penalty>  (356) 
3.03235

>  <r_epik_Ionization_Penalty_Charging>  (356) 
3.03235

>  <r_epik_Ionization_Penalty_Neutral>  (356) 
4.59689e-09

>  <r_epik_State_Penalty>  (356) 
2.3974

>  <r_epik_Charging_Adjusted_Penalty>  (356) 
5.42975

>  <i_epik_Tot_Q>  (356) 
2

>  <i_epik_Tot_abs_Q>  (356) 
2

>  <s_lp_Force_Field>  (356) 
OPLS3e

>  <r_lp_Energy>  (356) 
59.2627

>  <b_lp_Chiralities_Consistent>  (356) 
1

>  <s_lp_Variant>  (356) 
101:0-2

>  <s_i_glide_gridfile>  (356) 
pfpi4k_grid

>  <i_i_glide_lignum>  (356) 
15

>  <i_i_glide_rotatable_bonds>  (356) 
3

>  <r_i_docking_score>  (356) 
-4.65212

>  <r_i_glide_ligand_efficiency>  (356) 
-0.21146

>  <r_i_glide_ligand_efficiency_sa>  (356) 
-0.592519

>  <r_i_glide_ligand_efficiency_ln>  (356) 
-1.13715

>  <r_i_glide_gscore>  (356) 
-4.65212

>  <r_i_glide_lipo>  (356) 
-0.384086

>  <r_i_glide_hbond>  (356) 
-0.369624

>  <r_i_glide_metal>  (356) 
-0

>  <r_i_glide_rewards>  (356) 
-1.97346

>  <r_i_glide_evdw>  (356) 
-17.1441

>  <r_i_glide_ecoul>  (356) 
-8.65051

>  <r_i_glide_erotb>  (356) 
0.422775

>  <r_i_glide_esite>  (356) 
-0.192945

>  <r_i_glide_emodel>  (356) 
-39.8221

>  <r_i_glide_energy>  (356) 
-25.7946

>  <r_i_glide_einternal>  (356) 
0.997783

>  <r_i_glide_intrahb_reward>  (356) 
-0

>  <i_i_glide_confnum>  (356) 
3

>  <i_i_glide_posenum>  (356) 
2

>  <r_i_glide_eff_state_penalty>  (356) 
0

>  <ligand_id>  (356) 
101

>  <original_smiles>  (356) 
CN1CCC2C(C1)c1ncccc1N2CC(=O)N1CCCC1

>  <smiles>  (356) 
[H]c1c([H])c([H])[n+]([H])c2c1N(C([H])([H])C(=O)N1C([H])([H])C([H])([H])C([H])([H])C1([H])[H])C1([H])C([H])([H])C([H])([H])[N+]([H])(C([H])([H])[H])C([H])([H])C21[H]

$$$$
101:1:1
     RDKit          3D

 48 51  0  0  1  0  0  0  0  0999 V2000
    0.8766  -11.6225    4.8307 C   0  0  0  0  0  0  0  0  0  0  0  0
    0.9901  -10.7111    3.6706 N   0  0  1  0  0  0  0  0  0  0  0  0
    0.4419   -9.3684    3.9787 C   0  0  0  0  0  0  0  0  0  0  0  0
    0.3923   -8.5053    2.7231 C   0  0  0  0  0  0  0  0  0  0  0  0
    1.7502   -8.4174    2.0062 C   0  0  2  0  0  0  0  0  0  0  0  0
    2.5145   -9.7444    1.9009 C   0  0  2  0  0  0  0  0  0  0  0  0
    2.3815  -10.6306    3.1611 C   0  0  0  0  0  0  0  0  0  0  0  0
    3.9076   -9.2007    1.7852 C   0  0  0  0  0  0  0  0  0  0  0  0
    4.9819   -9.8547    1.3306 N   0  0  0  0  0  0  0  0  0  0  0  0
    6.2038   -9.2834    1.2798 C   0  0  0  0  0  0  0  0  0  0  0  0
    6.3574   -7.9402    1.6909 C   0  0  0  0  0  0  0  0  0  0  0  0
    5.2295   -7.2055    2.1367 C   0  0  0  0  0  0  0  0  0  0  0  0
    3.9752   -7.8723    2.1704 C   0  0  0  0  0  0  0  0  0  0  0  0
    2.6946   -7.4121    2.5138 N   0  0  0  0  0  0  0  0  0  0  0  0
    2.3902   -5.9911    2.6116 C   0  0  0  0  0  0  0  0  0  0  0  0
    2.2773   -5.3053    1.2375 C   0  0  0  0  0  0  0  0  0  0  0  0
    1.4833   -5.7603    0.4057 O   0  0  0  0  0  0  0  0  0  0  0  0
    3.0035   -4.1967    1.0129 N   0  0  0  0  0  0  0  0  0  0  0  0
    3.0465   -3.4844   -0.2599 C   0  0  0  0  0  0  0  0  0  0  0  0
    4.2033   -2.4937   -0.1227 C   0  0  0  0  0  0  0  0  0  0  0  0
    4.3171   -2.2411    1.3725 C   0  0  0  0  0  0  0  0  0  0  0  0
    3.8642   -3.5462    1.9973 C   0  0  0  0  0  0  0  0  0  0  0  0
    1.4549  -11.2450    5.6743 H   0  0  0  0  0  0  0  0  0  0  0  0
    1.2360  -12.6180    4.5907 H   0  0  0  0  0  0  0  0  0  0  0  0
   -0.1499  -11.7282    5.1646 H   0  0  0  0  0  0  0  0  0  0  0  0
   -0.5638   -9.4626    4.3834 H   0  0  0  0  0  0  0  0  0  0  0  0
    1.0463   -8.8852    4.7451 H   0  0  0  0  0  0  0  0  0  0  0  0
   -0.3198   -8.9589    2.0325 H   0  0  0  0  0  0  0  0  0  0  0  0
   -0.0083   -7.5192    2.9535 H   0  0  0  0  0  0  0  0  0  0  0  0
    1.5431   -8.1256    0.9833 H   0  0  0  0  0  0  0  0  0  0  0  0
    2.2284  -10.2417    0.9806 H   0  0  0  0  0  0  0  0  0  0  0  0
    3.0059  -10.2390    3.9674 H   0  0  0  0  0  0  0  0  0  0  0  0
    2.7493  -11.6279    2.9350 H   0  0  0  0  0  0  0  0  0  0  0  0
    7.0003   -9.9176    0.9254 H   0  0  0  0  0  0  0  0  0  0  0  0
    7.3407   -7.4818    1.6579 H   0  0  0  0  0  0  0  0  0  0  0  0
    5.3480   -6.1819    2.4403 H   0  0  0  0  0  0  0  0  0  0  0  0
    1.4295   -5.8639    3.0922 H   0  0  0  0  0  0  0  0  0  0  0  0
    3.0999   -5.5574    3.3191 H   0  0  0  0  0  0  0  0  0  0  0  0
    3.1936   -4.1631   -1.1032 H   0  0  0  0  0  0  0  0  0  0  0  0
    2.1028   -2.9586   -0.4065 H   0  0  0  0  0  0  0  0  0  0  0  0
    5.1229   -2.9570   -0.4825 H   0  0  0  0  0  0  0  0  0  0  0  0
    4.0370   -1.5749   -0.6819 H   0  0  0  0  0  0  0  0  0  0  0  0
    5.3226   -1.9645    1.6915 H   0  0  0  0  0  0  0  0  0  0  0  0
    3.6308   -1.4502    1.6744 H   0  0  0  0  0  0  0  0  0  0  0  0
    3.3570   -3.3553    2.9433 H   0  0  0  0  0  0  0  0  0  0  0  0
    4.7298   -4.1751    2.1822 H   0  0  0  0  0  0  0  0  0  0  0  0
    0.4091  -11.1084    2.9362 H   0  0  0  0  0  0  0  0  0  0  0  0
    4.8372  -10.8281    1.0043 H   0  0  0  0  0  0  0  0  0  0  0  0
  1  2  1  0
  1 23  1  0
  1 24  1  0
  1 25  1  0
  2  7  1  0
  2  3  1  0
  2 47  1  6
  3  4  1  0
  3 26  1  0
  3 27  1  0
  4  5  1  0
  4 28  1  0
  4 29  1  0
  5 14  1  0
  5  6  1  0
  5 30  1  6
  6  7  1  0
  6  8  1  0
  6 31  1  6
  7 32  1  0
  7 33  1  0
  8 13  2  0
  8  9  1  0
  9 10  2  0
  9 48  1  0
 10 11  1  0
 10 34  1  0
 11 12  2  0
 11 35  1  0
 12 13  1  0
 12 36  1  0
 13 14  1  0
 14 15  1  0
 15 16  1  0
 15 37  1  0
 15 38  1  0
 16 17  2  0
 16 18  1  0
 18 22  1  0
 18 19  1  0
 19 20  1  0
 19 39  1  0
 19 40  1  0
 20 21  1  0
 20 41  1  0
 20 42  1  0
 21 22  1  0
 21 43  1  0
 21 44  1  0
 22 45  1  0
 22 46  1  0
M  CHG  2   2   1   9   1
M  END
>  <i_m_ct_stereo_status>  (357) 
1

>  <s_m_source_file>  (357) 
/var/tmp/pbs.5076255.sched01/tmpl4jv_xt6/1264eazgjw7.sdf

>  <i_m_source_file_index>  (357) 
15

>  <i_lp_mmshare_version>  (357) 
48012

>  <i_f3d_flags>  (357) 
0

>  <s_epik_input>  (357) 
W0NIMl0xW0NIMl1OKFtDSDNdKVtDSDJdW0NAQEhdKFtDQEBIXTEyKWMzYyhbY0hdW2NIXVtjSF1uMylOMltDSDJdQyg9TylONFtDSDJdW0NIMl1bQ0gyXVtDSDJdNA==

>  <s_epik_cmdline>  (357) 
J2VwaWtfcHl0aG9uJywgJy1waHQnLCAnMi4wJywgJy1waCcsICc3LjAnLCAnLXRuJywgJzgnLCAnLW1hJywgJzIwMCcsICctaW1hZScsICc8aW5maWxlLm1hZT4nLCAnLW9tYWUnLCAnPG91dGZpbGUubWFlPic=

>  <r_lp_tautomer_probability>  (357) 
0.999846

>  <r_epik_Ionization_Penalty>  (357) 
3.03235

>  <r_epik_Ionization_Penalty_Charging>  (357) 
3.03235

>  <r_epik_Ionization_Penalty_Neutral>  (357) 
4.59689e-09

>  <r_epik_State_Penalty>  (357) 
2.3974

>  <r_epik_Charging_Adjusted_Penalty>  (357) 
5.42975

>  <i_epik_Tot_Q>  (357) 
2

>  <i_epik_Tot_abs_Q>  (357) 
2

>  <s_lp_Force_Field>  (357) 
OPLS3e

>  <r_lp_Energy>  (357) 
59.2627

>  <b_lp_Chiralities_Consistent>  (357) 
1

>  <s_lp_Variant>  (357) 
101:0-2

>  <s_i_glide_gridfile>  (357) 
pfpi4k_grid

>  <i_i_glide_lignum>  (357) 
15

>  <i_i_glide_rotatable_bonds>  (357) 
3

>  <r_i_docking_score>  (357) 
-4.14794

>  <r_i_glide_ligand_efficiency>  (357) 
-0.188543

>  <r_i_glide_ligand_efficiency_sa>  (357) 
-0.528304

>  <r_i_glide_ligand_efficiency_ln>  (357) 
-1.01391

>  <r_i_glide_gscore>  (357) 
-4.14794

>  <r_i_glide_lipo>  (357) 
-0.248694

>  <r_i_glide_hbond>  (357) 
-0.344087

>  <r_i_glide_metal>  (357) 
-0

>  <r_i_glide_rewards>  (357) 
-1.34717

>  <r_i_glide_evdw>  (357) 
-19.5456

>  <r_i_glide_ecoul>  (357) 
-11.2229

>  <r_i_glide_erotb>  (357) 
0.603964

>  <r_i_glide_esite>  (357) 
-0.15123

>  <r_i_glide_emodel>  (357) 
-42.9486

>  <r_i_glide_energy>  (357) 
-30.7685

>  <r_i_glide_einternal>  (357) 
1.36666

>  <r_i_glide_intrahb_reward>  (357) 
-0

>  <i_i_glide_confnum>  (357) 
5

>  <i_i_glide_posenum>  (357) 
18

>  <r_i_glide_eff_state_penalty>  (357) 
0

>  <ligand_id>  (357) 
101

>  <original_smiles>  (357) 
CN1CCC2C(C1)c1ncccc1N2CC(=O)N1CCCC1

>  <smiles>  (357) 
[H]c1c([H])c([H])[n+]([H])c2c1N(C([H])([H])C(=O)N1C([H])([H])C([H])([H])C([H])([H])C1([H])[H])C1([H])C([H])([H])C([H])([H])[N+]([H])(C([H])([H])[H])C([H])([H])C21[H]

$$$$
101:1:2
     RDKit          3D

 48 51  0  0  1  0  0  0  0  0999 V2000
   -0.5221   -8.5883    2.9489 C   0  0  0  0  0  0  0  0  0  0  0  0
    0.6960   -9.3805    2.6433 N   0  0  1  0  0  0  0  0  0  0  0  0
    1.6457   -8.5989    1.8093 C   0  0  0  0  0  0  0  0  0  0  0  0
    2.7928   -9.5001    1.3457 C   0  0  0  0  0  0  0  0  0  0  0  0
    3.5254  -10.1766    2.5239 C   0  0  2  0  0  0  0  0  0  0  0  0
    2.5779  -10.7906    3.5813 C   0  0  2  0  0  0  0  0  0  0  0  0
    1.3562   -9.8860    3.8811 C   0  0  0  0  0  0  0  0  0  0  0  0
    3.5186  -10.7770    4.7511 C   0  0  0  0  0  0  0  0  0  0  0  0
    3.3906  -11.4553    5.9098 N   0  0  0  0  0  0  0  0  0  0  0  0
    4.3158  -11.3637    6.8832 C   0  0  0  0  0  0  0  0  0  0  0  0
    5.4460  -10.5353    6.6996 C   0  0  0  0  0  0  0  0  0  0  0  0
    5.6133   -9.8093    5.4946 C   0  0  0  0  0  0  0  0  0  0  0  0
    4.6079   -9.9396    4.5039 C   0  0  0  0  0  0  0  0  0  0  0  0
    4.5212   -9.3485    3.2241 N   0  0  0  0  0  0  0  0  0  0  0  0
    5.6902   -8.8215    2.5075 C   0  0  0  0  0  0  0  0  0  0  0  0
    5.4749   -7.3776    1.9788 C   0  0  0  0  0  0  0  0  0  0  0  0
    4.3407   -6.9125    1.8813 O   0  0  0  0  0  0  0  0  0  0  0  0
    6.5369   -6.6492    1.5995 N   0  0  0  0  0  0  0  0  0  0  0  0
    7.9224   -7.0661    1.7272 C   0  0  0  0  0  0  0  0  0  0  0  0
    8.7287   -5.9935    1.0108 C   0  0  0  0  0  0  0  0  0  0  0  0
    7.8511   -4.7560    1.0580 C   0  0  0  0  0  0  0  0  0  0  0  0
    6.4284   -5.3009    1.0398 C   0  0  0  0  0  0  0  0  0  0  0  0
   -0.2724   -7.6922    3.5204 H   0  0  0  0  0  0  0  0  0  0  0  0
   -1.2330   -9.1780    3.5302 H   0  0  0  0  0  0  0  0  0  0  0  0
   -1.0154   -8.2734    2.0265 H   0  0  0  0  0  0  0  0  0  0  0  0
    1.1369   -8.2091    0.9281 H   0  0  0  0  0  0  0  0  0  0  0  0
    2.0115   -7.7482    2.3758 H   0  0  0  0  0  0  0  0  0  0  0  0
    2.3651  -10.2484    0.6951 H   0  0  0  0  0  0  0  0  0  0  0  0
    3.4927   -8.9707    0.6980 H   0  0  0  0  0  0  0  0  0  0  0  0
    4.1166  -10.9892    2.1032 H   0  0  0  0  0  0  0  0  0  0  0  0
    2.2740  -11.8072    3.3084 H   0  0  0  0  0  0  0  0  0  0  0  0
    1.6635   -9.0223    4.4745 H   0  0  0  0  0  0  0  0  0  0  0  0
    0.6336  -10.4438    4.4778 H   0  0  0  0  0  0  0  0  0  0  0  0
    4.0994  -11.9249    7.7808 H   0  0  0  0  0  0  0  0  0  0  0  0
    6.1641  -10.4514    7.4995 H   0  0  0  0  0  0  0  0  0  0  0  0
    6.4869   -9.1903    5.3489 H   0  0  0  0  0  0  0  0  0  0  0  0
    6.5812   -8.8735    3.1327 H   0  0  0  0  0  0  0  0  0  0  0  0
    5.9050   -9.4441    1.6306 H   0  0  0  0  0  0  0  0  0  0  0  0
    8.1695   -7.0913    2.7907 H   0  0  0  0  0  0  0  0  0  0  0  0
    8.1000   -8.0521    1.2936 H   0  0  0  0  0  0  0  0  0  0  0  0
    9.6908   -5.8439    1.4955 H   0  0  0  0  0  0  0  0  0  0  0  0
    8.8926   -6.2978   -0.0225 H   0  0  0  0  0  0  0  0  0  0  0  0
    8.0236   -4.2575    2.0080 H   0  0  0  0  0  0  0  0  0  0  0  0
    8.0515   -4.0546    0.2489 H   0  0  0  0  0  0  0  0  0  0  0  0
    6.0472   -5.3643    0.0183 H   0  0  0  0  0  0  0  0  0  0  0  0
    5.7462   -4.6663    1.6117 H   0  0  0  0  0  0  0  0  0  0  0  0
    0.3963  -10.1729    2.0916 H   0  0  0  0  0  0  0  0  0  0  0  0
    2.5761  -12.0565    6.1035 H   0  0  0  0  0  0  0  0  0  0  0  0
  1  2  1  0
  1 23  1  0
  1 24  1  0
  1 25  1  0
  2  7  1  0
  2  3  1  0
  2 47  1  6
  3  4  1  0
  3 26  1  0
  3 27  1  0
  4  5  1  0
  4 28  1  0
  4 29  1  0
  5 14  1  0
  5  6  1  0
  5 30  1  6
  6  7  1  0
  6  8  1  0
  6 31  1  6
  7 32  1  0
  7 33  1  0
  8 13  2  0
  8  9  1  0
  9 10  2  0
  9 48  1  0
 10 11  1  0
 10 34  1  0
 11 12  2  0
 11 35  1  0
 12 13  1  0
 12 36  1  0
 13 14  1  0
 14 15  1  0
 15 16  1  0
 15 37  1  0
 15 38  1  0
 16 17  2  0
 16 18  1  0
 18 22  1  0
 18 19  1  0
 19 20  1  0
 19 39  1  0
 19 40  1  0
 20 21  1  0
 20 41  1  0
 20 42  1  0
 21 22  1  0
 21 43  1  0
 21 44  1  0
 22 45  1  0
 22 46  1  0
M  CHG  2   2   1   9   1
M  END
>  <i_m_ct_stereo_status>  (358) 
1

>  <s_m_source_file>  (358) 
/var/tmp/pbs.5076255.sched01/tmpl4jv_xt6/1264eazgjw7.sdf

>  <i_m_source_file_index>  (358) 
15

>  <i_lp_mmshare_version>  (358) 
48012

>  <i_f3d_flags>  (358) 
0

>  <s_epik_input>  (358) 
W0NIMl0xW0NIMl1OKFtDSDNdKVtDSDJdW0NAQEhdKFtDQEBIXTEyKWMzYyhbY0hdW2NIXVtjSF1uMylOMltDSDJdQyg9TylONFtDSDJdW0NIMl1bQ0gyXVtDSDJdNA==

>  <s_epik_cmdline>  (358) 
J2VwaWtfcHl0aG9uJywgJy1waHQnLCAnMi4wJywgJy1waCcsICc3LjAnLCAnLXRuJywgJzgnLCAnLW1hJywgJzIwMCcsICctaW1hZScsICc8aW5maWxlLm1hZT4nLCAnLW9tYWUnLCAnPG91dGZpbGUubWFlPic=

>  <r_lp_tautomer_probability>  (358) 
0.999846

>  <r_epik_Ionization_Penalty>  (358) 
3.03235

>  <r_epik_Ionization_Penalty_Charging>  (358) 
3.03235

>  <r_epik_Ionization_Penalty_Neutral>  (358) 
4.59689e-09

>  <r_epik_State_Penalty>  (358) 
2.3974

>  <r_epik_Charging_Adjusted_Penalty>  (358) 
5.42975

>  <i_epik_Tot_Q>  (358) 
2

>  <i_epik_Tot_abs_Q>  (358) 
2

>  <s_lp_Force_Field>  (358) 
OPLS3e

>  <r_lp_Energy>  (358) 
59.2627

>  <b_lp_Chiralities_Consistent>  (358) 
1

>  <s_lp_Variant>  (358) 
101:0-2

>  <s_i_glide_gridfile>  (358) 
pfpi4k_grid

>  <i_i_glide_lignum>  (358) 
15

>  <i_i_glide_rotatable_bonds>  (358) 
3

>  <r_i_docking_score>  (358) 
-4.02522

>  <r_i_glide_ligand_efficiency>  (358) 
-0.182965

>  <r_i_glide_ligand_efficiency_sa>  (358) 
-0.512674

>  <r_i_glide_ligand_efficiency_ln>  (358) 
-0.983912

>  <r_i_glide_gscore>  (358) 
-4.02522

>  <r_i_glide_lipo>  (358) 
-0.233463

>  <r_i_glide_hbond>  (358) 
-0.148425

>  <r_i_glide_metal>  (358) 
-0

>  <r_i_glide_rewards>  (358) 
-2.05074

>  <r_i_glide_evdw>  (358) 
-17.9593

>  <r_i_glide_ecoul>  (358) 
-6.72737

>  <r_i_glide_erotb>  (358) 
0.422775

>  <r_i_glide_esite>  (358) 
-0.108301

>  <r_i_glide_emodel>  (358) 
-37.0241

>  <r_i_glide_energy>  (358) 
-24.6866

>  <r_i_glide_einternal>  (358) 
0.48436

>  <r_i_glide_intrahb_reward>  (358) 
-0

>  <i_i_glide_confnum>  (358) 
1

>  <i_i_glide_posenum>  (358) 
37

>  <r_i_glide_eff_state_penalty>  (358) 
0

>  <ligand_id>  (358) 
101

>  <original_smiles>  (358) 
CN1CCC2C(C1)c1ncccc1N2CC(=O)N1CCCC1

>  <smiles>  (358) 
[H]c1c([H])c([H])[n+]([H])c2c1N(C([H])([H])C(=O)N1C([H])([H])C([H])([H])C([H])([H])C1([H])[H])C1([H])C([H])([H])C([H])([H])[N+]([H])(C([H])([H])[H])C([H])([H])C21[H]

$$$$
102:0:0
     RDKit          3D

 48 51  0  0  1  0  0  0  0  0999 V2000
    5.1379   -8.8515    2.9510 C   0  0  0  0  0  0  0  0  0  0  0  0
    5.0496   -7.3093    2.9015 C   0  0  1  0  0  0  0  0  0  0  0  0
    6.2751   -6.7790    2.1379 C   0  0  0  0  0  0  0  0  0  0  0  0
    6.1676   -5.3125    1.7045 C   0  0  1  0  0  0  0  0  0  0  0  0
    7.4199   -5.0122    1.1257 O   0  0  0  0  0  0  0  0  0  0  0  0
    4.9587   -5.1290    0.7408 C   0  0  1  0  0  0  0  0  0  0  0  0
    3.6812   -5.4592    1.5615 C   0  0  1  0  0  0  0  0  0  0  0  0
    2.4083   -5.3716    0.6946 C   0  0  0  0  0  0  0  0  0  0  0  0
    2.4152   -4.2557   -0.3195 C   0  0  0  0  0  0  0  0  0  0  0  0
    3.4776   -3.5032   -0.6354 C   0  0  0  0  0  0  0  0  0  0  0  0
    3.3092   -2.3628   -1.6389 C   0  0  0  0  0  0  0  0  0  0  0  0
    4.3986   -2.3680   -2.7006 C   0  0  0  0  0  0  0  0  0  0  0  0
    4.1704   -2.1711   -3.8925 O   0  0  0  0  0  0  0  0  0  0  0  0
    5.8099   -2.5508   -2.1768 C   0  0  0  0  0  0  0  0  0  0  0  0
    5.8819   -3.7440   -1.2182 C   0  0  0  0  0  0  0  0  0  0  0  0
    4.8744   -3.7393   -0.0308 C   0  0  2  0  0  0  0  0  0  0  0  0
    5.1718   -2.5578    0.9164 C   0  0  0  0  0  0  0  0  0  0  0  0
    3.7017   -6.8553    2.2806 C   0  0  2  0  0  0  0  0  0  0  0  0
    2.7236   -6.8667    3.4843 C   0  0  0  0  0  0  0  0  0  0  0  0
    3.5294   -6.4532    4.7211 C   0  0  0  0  0  0  0  0  0  0  0  0
    4.9552   -6.8023    4.3450 C   0  0  0  0  0  0  0  0  0  0  0  0
    5.9081   -6.7182    5.1171 O   0  0  0  0  0  0  0  0  0  0  0  0
    5.0521   -9.2816    1.9529 H   0  0  0  0  0  0  0  0  0  0  0  0
    4.3472   -9.2905    3.5601 H   0  0  0  0  0  0  0  0  0  0  0  0
    6.0891   -9.1879    3.3670 H   0  0  0  0  0  0  0  0  0  0  0  0
    7.1656   -6.9045    2.7531 H   0  0  0  0  0  0  0  0  0  0  0  0
    6.4481   -7.3951    1.2552 H   0  0  0  0  0  0  0  0  0  0  0  0
    6.0482   -4.6787    2.5856 H   0  0  0  0  0  0  0  0  0  0  0  0
    8.0850   -5.1022    1.7964 H   0  0  0  0  0  0  0  0  0  0  0  0
    5.0403   -5.9028   -0.0225 H   0  0  0  0  0  0  0  0  0  0  0  0
    3.6129   -4.6861    2.3302 H   0  0  0  0  0  0  0  0  0  0  0  0
    2.2488   -6.2897    0.1329 H   0  0  0  0  0  0  0  0  0  0  0  0
    1.5439   -5.2353    1.3440 H   0  0  0  0  0  0  0  0  0  0  0  0
    1.4741   -4.0602   -0.8028 H   0  0  0  0  0  0  0  0  0  0  0  0
    2.3340   -2.4183   -2.1217 H   0  0  0  0  0  0  0  0  0  0  0  0
    3.3430   -1.4133   -1.1108 H   0  0  0  0  0  0  0  0  0  0  0  0
    6.4903   -2.6940   -3.0164 H   0  0  0  0  0  0  0  0  0  0  0  0
    6.1072   -1.6337   -1.6725 H   0  0  0  0  0  0  0  0  0  0  0  0
    5.7021   -4.6391   -1.8141 H   0  0  0  0  0  0  0  0  0  0  0  0
    6.9117   -3.8017   -0.8766 H   0  0  0  0  0  0  0  0  0  0  0  0
    6.1895   -2.5941    1.2994 H   0  0  0  0  0  0  0  0  0  0  0  0
    4.4817   -2.5633    1.7588 H   0  0  0  0  0  0  0  0  0  0  0  0
    5.0536   -1.6007    0.4098 H   0  0  0  0  0  0  0  0  0  0  0  0
    3.3957   -7.6135    1.5563 H   0  0  0  0  0  0  0  0  0  0  0  0
    1.8557   -6.2255    3.3472 H   0  0  0  0  0  0  0  0  0  0  0  0
    2.3444   -7.8784    3.6353 H   0  0  0  0  0  0  0  0  0  0  0  0
    3.4661   -5.3820    4.9076 H   0  0  0  0  0  0  0  0  0  0  0  0
    3.2117   -6.9764    5.6226 H   0  0  0  0  0  0  0  0  0  0  0  0
  2  1  1  1
  1 23  1  0
  1 24  1  0
  1 25  1  0
  2 18  1  0
  2 21  1  0
  2  3  1  0
  3  4  1  0
  3 26  1  0
  3 27  1  0
  4  5  1  0
  4  6  1  0
  4 28  1  1
  5 29  1  0
  6 16  1  0
  6  7  1  0
  6 30  1  6
  7  8  1  0
  7 18  1  0
  7 31  1  1
  8  9  1  0
  8 32  1  0
  8 33  1  0
  9 10  2  0
  9 34  1  0
 10 16  1  0
 10 11  1  0
 11 12  1  0
 11 35  1  0
 11 36  1  0
 12 13  2  0
 12 14  1  0
 14 15  1  0
 14 37  1  0
 14 38  1  0
 15 16  1  0
 15 39  1  0
 15 40  1  0
 16 17  1  1
 17 41  1  0
 17 42  1  0
 17 43  1  0
 18 19  1  0
 18 44  1  6
 19 20  1  0
 19 45  1  0
 19 46  1  0
 20 21  1  0
 20 47  1  0
 20 48  1  0
 21 22  2  0
M  END
>  <i_m_ct_stereo_status>  (359) 
1

>  <s_m_source_file>  (359) 
/var/tmp/pbs.5076255.sched01/tmpl4jv_xt6/1264eazgjw7.sdf

>  <i_m_source_file_index>  (359) 
16

>  <i_lp_mmshare_version>  (359) 
48012

>  <i_f3d_flags>  (359) 
0

>  <s_epik_input>  (359) 
Tz1DMVtDSDJdW0NIMl1bQ0BIXShbQ0BdMTJbQ0gzXSlbQ0BIXTNbQ0BIXShbQ0BASF0oW0NIMl0yKVtPSF0pW0NAXTQoW0NIM10pQyg9W0NIXVtDSDJdMylbQ0gyXUMoPU8pW0NIMl1bQ0gyXTQ=

>  <s_epik_cmdline>  (359) 
J2VwaWtfcHl0aG9uJywgJy1waHQnLCAnMi4wJywgJy1waCcsICc3LjAnLCAnLXRuJywgJzgnLCAnLW1hJywgJzIwMCcsICctaW1hZScsICc8aW5maWxlLm1hZT4nLCAnLW9tYWUnLCAnPG91dGZpbGUubWFlPic=

>  <r_lp_tautomer_probability>  (359) 
1

>  <r_epik_Ionization_Penalty>  (359) 
4.3485e-07

>  <r_epik_Ionization_Penalty_Charging>  (359) 
0

>  <r_epik_Ionization_Penalty_Neutral>  (359) 
4.3485e-07

>  <r_epik_State_Penalty>  (359) 
-0

>  <r_epik_Charging_Adjusted_Penalty>  (359) 
0

>  <i_epik_Tot_Q>  (359) 
0

>  <i_epik_Tot_abs_Q>  (359) 
0

>  <s_lp_Force_Field>  (359) 
OPLS3e

>  <r_lp_Energy>  (359) 
30.3944

>  <b_lp_Chiralities_Consistent>  (359) 
1

>  <s_lp_Variant>  (359) 
102:0-1

>  <s_i_glide_gridfile>  (359) 
pfpi4k_grid

>  <i_i_glide_lignum>  (359) 
16

>  <i_i_glide_rotatable_bonds>  (359) 
1

>  <r_i_docking_score>  (359) 
-3.49763

>  <r_i_glide_ligand_efficiency>  (359) 
-0.158983

>  <r_i_glide_ligand_efficiency_sa>  (359) 
-0.445478

>  <r_i_glide_ligand_efficiency_ln>  (359) 
-0.854949

>  <r_i_glide_gscore>  (359) 
-3.49763

>  <r_i_glide_lipo>  (359) 
-0.382666

>  <r_i_glide_hbond>  (359) 
-0.138553

>  <r_i_glide_metal>  (359) 
-0

>  <r_i_glide_rewards>  (359) 
-1.52776

>  <r_i_glide_evdw>  (359) 
-22.2023

>  <r_i_glide_ecoul>  (359) 
-2.2569

>  <r_i_glide_erotb>  (359) 
0

>  <r_i_glide_esite>  (359) 
0

>  <r_i_glide_emodel>  (359) 
-29.6526

>  <r_i_glide_energy>  (359) 
-24.4592

>  <r_i_glide_einternal>  (359) 
0.347021

>  <r_i_glide_intrahb_reward>  (359) 
-0

>  <i_i_glide_confnum>  (359) 
1

>  <i_i_glide_posenum>  (359) 
24

>  <r_i_glide_eff_state_penalty>  (359) 
0

>  <ligand_id>  (359) 
102

>  <original_smiles>  (359) 
CC12CC(O)C3C(CC=C4CC(=O)CCC43C)C1CCC2=O

>  <smiles>  (359) 
[H]OC1([H])C([H])([H])C2(C([H])([H])[H])C(=O)C([H])([H])C([H])([H])C2([H])C2([H])C([H])([H])C([H])=C3C([H])([H])C(=O)C([H])([H])C([H])([H])C3(C([H])([H])[H])C12[H]

$$$$
102:0:1
     RDKit          3D

 48 51  0  0  1  0  0  0  0  0999 V2000
    7.4107   -8.3748    2.4980 C   0  0  0  0  0  0  0  0  0  0  0  0
    6.9388   -6.9067    2.5043 C   0  0  1  0  0  0  0  0  0  0  0  0
    7.7778   -6.1258    1.4753 C   0  0  0  0  0  0  0  0  0  0  0  0
    7.2020   -4.7543    1.1144 C   0  0  1  0  0  0  0  0  0  0  0  0
    8.1612   -4.1605    0.2664 O   0  0  0  0  0  0  0  0  0  0  0  0
    5.7945   -4.9091    0.4737 C   0  0  1  0  0  0  0  0  0  0  0  0
    4.8704   -5.5070    1.5739 C   0  0  1  0  0  0  0  0  0  0  0  0
    3.4472   -5.7732    1.0383 C   0  0  0  0  0  0  0  0  0  0  0  0
    2.9389   -4.7244    0.0839 C   0  0  0  0  0  0  0  0  0  0  0  0
    3.6845   -3.7580   -0.4716 C   0  0  0  0  0  0  0  0  0  0  0  0
    3.0101   -2.7271   -1.3728 C   0  0  0  0  0  0  0  0  0  0  0  0
    3.7768   -2.5035   -2.6645 C   0  0  0  0  0  0  0  0  0  0  0  0
    3.2305   -2.4234   -3.7637 O   0  0  0  0  0  0  0  0  0  0  0  0
    5.2644   -2.3026   -2.5024 C   0  0  0  0  0  0  0  0  0  0  0  0
    5.8685   -3.4100   -1.6318 C   0  0  0  0  0  0  0  0  0  0  0  0
    5.1971   -3.6157   -0.2326 C   0  0  2  0  0  0  0  0  0  0  0  0
    5.4069   -2.3597    0.6454 C   0  0  0  0  0  0  0  0  0  0  0  0
    5.4121   -6.8237    2.2340 C   0  0  2  0  0  0  0  0  0  0  0  0
    4.7823   -7.0316    3.6354 C   0  0  0  0  0  0  0  0  0  0  0  0
    5.7308   -6.3842    4.6523 C   0  0  0  0  0  0  0  0  0  0  0  0
    7.0675   -6.3870    3.9385 C   0  0  0  0  0  0  0  0  0  0  0  0
    8.1259   -6.0587    4.4694 O   0  0  0  0  0  0  0  0  0  0  0  0
    7.1993   -8.8521    1.5407 H   0  0  0  0  0  0  0  0  0  0  0  0
    6.9201   -8.9708    3.2693 H   0  0  0  0  0  0  0  0  0  0  0  0
    8.4861   -8.4473    2.6676 H   0  0  0  0  0  0  0  0  0  0  0  0
    8.7930   -6.0003    1.8536 H   0  0  0  0  0  0  0  0  0  0  0  0
    7.8842   -6.7132    0.5636 H   0  0  0  0  0  0  0  0  0  0  0  0
    7.1370   -4.1391    2.0123 H   0  0  0  0  0  0  0  0  0  0  0  0
    7.8669   -3.2828    0.0707 H   0  0  0  0  0  0  0  0  0  0  0  0
    5.8742   -5.6711   -0.3015 H   0  0  0  0  0  0  0  0  0  0  0  0
    4.7968   -4.7443    2.3528 H   0  0  0  0  0  0  0  0  0  0  0  0
    3.3967   -6.7301    0.5149 H   0  0  0  0  0  0  0  0  0  0  0  0
    2.7450   -5.8282    1.8720 H   0  0  0  0  0  0  0  0  0  0  0  0
    1.8879   -4.7835   -0.1435 H   0  0  0  0  0  0  0  0  0  0  0  0
    1.9944   -3.0359   -1.6138 H   0  0  0  0  0  0  0  0  0  0  0  0
    2.9431   -1.7780   -0.8498 H   0  0  0  0  0  0  0  0  0  0  0  0
    5.7219   -2.3160   -3.4902 H   0  0  0  0  0  0  0  0  0  0  0  0
    5.4378   -1.3188   -2.0690 H   0  0  0  0  0  0  0  0  0  0  0  0
    5.7890   -4.3296   -2.2081 H   0  0  0  0  0  0  0  0  0  0  0  0
    6.9305   -3.1973   -1.5606 H   0  0  0  0  0  0  0  0  0  0  0  0
    6.4584   -2.1167    0.7807 H   0  0  0  0  0  0  0  0  0  0  0  0
    4.9590   -2.4995    1.6295 H   0  0  0  0  0  0  0  0  0  0  0  0
    4.9351   -1.4807    0.2052 H   0  0  0  0  0  0  0  0  0  0  0  0
    5.1379   -7.6611    1.5879 H   0  0  0  0  0  0  0  0  0  0  0  0
    3.7744   -6.6300    3.7247 H   0  0  0  0  0  0  0  0  0  0  0  0
    4.7123   -8.0988    3.8488 H   0  0  0  0  0  0  0  0  0  0  0  0
    5.4490   -5.3564    4.8703 H   0  0  0  0  0  0  0  0  0  0  0  0
    5.7758   -6.9355    5.5905 H   0  0  0  0  0  0  0  0  0  0  0  0
  2  1  1  1
  1 23  1  0
  1 24  1  0
  1 25  1  0
  2 18  1  0
  2 21  1  0
  2  3  1  0
  3  4  1  0
  3 26  1  0
  3 27  1  0
  4  5  1  0
  4  6  1  0
  4 28  1  1
  5 29  1  0
  6 16  1  0
  6  7  1  0
  6 30  1  6
  7  8  1  0
  7 18  1  0
  7 31  1  1
  8  9  1  0
  8 32  1  0
  8 33  1  0
  9 10  2  0
  9 34  1  0
 10 16  1  0
 10 11  1  0
 11 12  1  0
 11 35  1  0
 11 36  1  0
 12 13  2  0
 12 14  1  0
 14 15  1  0
 14 37  1  0
 14 38  1  0
 15 16  1  0
 15 39  1  0
 15 40  1  0
 16 17  1  1
 17 41  1  0
 17 42  1  0
 17 43  1  0
 18 19  1  0
 18 44  1  6
 19 20  1  0
 19 45  1  0
 19 46  1  0
 20 21  1  0
 20 47  1  0
 20 48  1  0
 21 22  2  0
M  END
>  <i_m_ct_stereo_status>  (360) 
1

>  <s_m_source_file>  (360) 
/var/tmp/pbs.5076255.sched01/tmpl4jv_xt6/1264eazgjw7.sdf

>  <i_m_source_file_index>  (360) 
16

>  <i_lp_mmshare_version>  (360) 
48012

>  <i_f3d_flags>  (360) 
0

>  <s_epik_input>  (360) 
Tz1DMVtDSDJdW0NIMl1bQ0BIXShbQ0BdMTJbQ0gzXSlbQ0BIXTNbQ0BIXShbQ0BASF0oW0NIMl0yKVtPSF0pW0NAXTQoW0NIM10pQyg9W0NIXVtDSDJdMylbQ0gyXUMoPU8pW0NIMl1bQ0gyXTQ=

>  <s_epik_cmdline>  (360) 
J2VwaWtfcHl0aG9uJywgJy1waHQnLCAnMi4wJywgJy1waCcsICc3LjAnLCAnLXRuJywgJzgnLCAnLW1hJywgJzIwMCcsICctaW1hZScsICc8aW5maWxlLm1hZT4nLCAnLW9tYWUnLCAnPG91dGZpbGUubWFlPic=

>  <r_lp_tautomer_probability>  (360) 
1

>  <r_epik_Ionization_Penalty>  (360) 
4.3485e-07

>  <r_epik_Ionization_Penalty_Charging>  (360) 
0

>  <r_epik_Ionization_Penalty_Neutral>  (360) 
4.3485e-07

>  <r_epik_State_Penalty>  (360) 
-0

>  <r_epik_Charging_Adjusted_Penalty>  (360) 
0

>  <i_epik_Tot_Q>  (360) 
0

>  <i_epik_Tot_abs_Q>  (360) 
0

>  <s_lp_Force_Field>  (360) 
OPLS3e

>  <r_lp_Energy>  (360) 
30.3944

>  <b_lp_Chiralities_Consistent>  (360) 
1

>  <s_lp_Variant>  (360) 
102:0-1

>  <s_i_glide_gridfile>  (360) 
pfpi4k_grid

>  <i_i_glide_lignum>  (360) 
16

>  <i_i_glide_rotatable_bonds>  (360) 
1

>  <r_i_docking_score>  (360) 
-3.44388

>  <r_i_glide_ligand_efficiency>  (360) 
-0.15654

>  <r_i_glide_ligand_efficiency_sa>  (360) 
-0.438631

>  <r_i_glide_ligand_efficiency_ln>  (360) 
-0.841809

>  <r_i_glide_gscore>  (360) 
-3.44388

>  <r_i_glide_lipo>  (360) 
-0.668872

>  <r_i_glide_hbond>  (360) 
0

>  <r_i_glide_metal>  (360) 
-0

>  <r_i_glide_rewards>  (360) 
-1.37214

>  <r_i_glide_evdw>  (360) 
-26.0377

>  <r_i_glide_ecoul>  (360) 
-0.673238

>  <r_i_glide_erotb>  (360) 
0

>  <r_i_glide_esite>  (360) 
0

>  <r_i_glide_emodel>  (360) 
-31.8224

>  <r_i_glide_energy>  (360) 
-26.7109

>  <r_i_glide_einternal>  (360) 
0.322488

>  <r_i_glide_intrahb_reward>  (360) 
-0

>  <i_i_glide_confnum>  (360) 
2

>  <i_i_glide_posenum>  (360) 
8

>  <r_i_glide_eff_state_penalty>  (360) 
0

>  <ligand_id>  (360) 
102

>  <original_smiles>  (360) 
CC12CC(O)C3C(CC=C4CC(=O)CCC43C)C1CCC2=O

>  <smiles>  (360) 
[H]OC1([H])C([H])([H])C2(C([H])([H])[H])C(=O)C([H])([H])C([H])([H])C2([H])C2([H])C([H])([H])C([H])=C3C([H])([H])C(=O)C([H])([H])C([H])([H])C3(C([H])([H])[H])C12[H]

$$$$
102:0:2
     RDKit          3D

 48 51  0  0  1  0  0  0  0  0999 V2000
    7.4440   -8.2682    2.5537 C   0  0  0  0  0  0  0  0  0  0  0  0
    6.9632   -6.8030    2.5413 C   0  0  1  0  0  0  0  0  0  0  0  0
    7.7993   -6.0305    1.5023 C   0  0  0  0  0  0  0  0  0  0  0  0
    7.2198   -4.6644    1.1197 C   0  0  1  0  0  0  0  0  0  0  0  0
    8.1851   -4.0515    0.2880 O   0  0  0  0  0  0  0  0  0  0  0  0
    5.8111   -4.8394    0.4837 C   0  0  1  0  0  0  0  0  0  0  0  0
    4.8893   -5.4305    1.5926 C   0  0  1  0  0  0  0  0  0  0  0  0
    3.4669   -5.7154    1.0636 C   0  0  0  0  0  0  0  0  0  0  0  0
    2.9496   -4.6825    0.0958 C   0  0  0  0  0  0  0  0  0  0  0  0
    3.6877   -3.7148   -0.4691 C   0  0  0  0  0  0  0  0  0  0  0  0
    3.0082   -2.7004   -1.3835 C   0  0  0  0  0  0  0  0  0  0  0  0
    3.7730   -2.4838   -2.6757 C   0  0  0  0  0  0  0  0  0  0  0  0
    3.2267   -2.4220   -3.7764 O   0  0  0  0  0  0  0  0  0  0  0  0
    5.2594   -2.2707   -2.5157 C   0  0  0  0  0  0  0  0  0  0  0  0
    5.8728   -3.3626   -1.6331 C   0  0  0  0  0  0  0  0  0  0  0  0
    5.2003   -3.5592   -0.2338 C   0  0  2  0  0  0  0  0  0  0  0  0
    5.3986   -2.2932    0.6313 C   0  0  0  0  0  0  0  0  0  0  0  0
    5.4371   -6.7351    2.2723 C   0  0  2  0  0  0  0  0  0  0  0  0
    4.8078   -6.9290    3.6769 C   0  0  0  0  0  0  0  0  0  0  0  0
    5.7512   -6.2633    4.6851 C   0  0  0  0  0  0  0  0  0  0  0  0
    7.0886   -6.2662    3.9713 C   0  0  0  0  0  0  0  0  0  0  0  0
    8.1449   -5.9270    4.5015 O   0  0  0  0  0  0  0  0  0  0  0  0
    7.2381   -8.7564    1.6015 H   0  0  0  0  0  0  0  0  0  0  0  0
    6.9609   -8.8598    3.3320 H   0  0  0  0  0  0  0  0  0  0  0  0
    8.5206   -8.3304    2.7213 H   0  0  0  0  0  0  0  0  0  0  0  0
    8.8105   -5.8962    1.8839 H   0  0  0  0  0  0  0  0  0  0  0  0
    7.9106   -6.6355    0.6029 H   0  0  0  0  0  0  0  0  0  0  0  0
    7.1407   -4.0486    2.0129 H   0  0  0  0  0  0  0  0  0  0  0  0
    8.1883   -4.4960   -0.5442 H   0  0  0  0  0  0  0  0  0  0  0  0
    5.8888   -5.6117   -0.2819 H   0  0  0  0  0  0  0  0  0  0  0  0
    4.8089   -4.6590    2.3628 H   0  0  0  0  0  0  0  0  0  0  0  0
    3.4217   -6.6792    0.5526 H   0  0  0  0  0  0  0  0  0  0  0  0
    2.7649   -5.7602    1.8975 H   0  0  0  0  0  0  0  0  0  0  0  0
    1.9000   -4.7530   -0.1345 H   0  0  0  0  0  0  0  0  0  0  0  0
    1.9941   -3.0172   -1.6192 H   0  0  0  0  0  0  0  0  0  0  0  0
    2.9352   -1.7471   -0.8686 H   0  0  0  0  0  0  0  0  0  0  0  0
    5.7168   -2.2925   -3.5029 H   0  0  0  0  0  0  0  0  0  0  0  0
    5.4234   -1.2823   -2.0890 H   0  0  0  0  0  0  0  0  0  0  0  0
    5.8028   -4.2893   -2.1991 H   0  0  0  0  0  0  0  0  0  0  0  0
    6.9317   -3.1386   -1.5529 H   0  0  0  0  0  0  0  0  0  0  0  0
    6.4505   -2.0484    0.7613 H   0  0  0  0  0  0  0  0  0  0  0  0
    4.9525   -2.4240    1.6167 H   0  0  0  0  0  0  0  0  0  0  0  0
    4.9244   -1.4204    0.1823 H   0  0  0  0  0  0  0  0  0  0  0  0
    5.1687   -7.5827    1.6379 H   0  0  0  0  0  0  0  0  0  0  0  0
    3.7980   -6.5327    3.7614 H   0  0  0  0  0  0  0  0  0  0  0  0
    4.7450   -7.9940    3.9049 H   0  0  0  0  0  0  0  0  0  0  0  0
    5.4643   -5.2336    4.8917 H   0  0  0  0  0  0  0  0  0  0  0  0
    5.8001   -6.8019    5.6308 H   0  0  0  0  0  0  0  0  0  0  0  0
  2  1  1  1
  1 23  1  0
  1 24  1  0
  1 25  1  0
  2 18  1  0
  2 21  1  0
  2  3  1  0
  3  4  1  0
  3 26  1  0
  3 27  1  0
  4  5  1  0
  4  6  1  0
  4 28  1  1
  5 29  1  0
  6 16  1  0
  6  7  1  0
  6 30  1  6
  7  8  1  0
  7 18  1  0
  7 31  1  1
  8  9  1  0
  8 32  1  0
  8 33  1  0
  9 10  2  0
  9 34  1  0
 10 16  1  0
 10 11  1  0
 11 12  1  0
 11 35  1  0
 11 36  1  0
 12 13  2  0
 12 14  1  0
 14 15  1  0
 14 37  1  0
 14 38  1  0
 15 16  1  0
 15 39  1  0
 15 40  1  0
 16 17  1  1
 17 41  1  0
 17 42  1  0
 17 43  1  0
 18 19  1  0
 18 44  1  6
 19 20  1  0
 19 45  1  0
 19 46  1  0
 20 21  1  0
 20 47  1  0
 20 48  1  0
 21 22  2  0
M  END
>  <i_m_ct_stereo_status>  (361) 
1

>  <s_m_source_file>  (361) 
/var/tmp/pbs.5076255.sched01/tmpl4jv_xt6/1264eazgjw7.sdf

>  <i_m_source_file_index>  (361) 
16

>  <i_lp_mmshare_version>  (361) 
48012

>  <i_f3d_flags>  (361) 
0

>  <s_epik_input>  (361) 
Tz1DMVtDSDJdW0NIMl1bQ0BIXShbQ0BdMTJbQ0gzXSlbQ0BIXTNbQ0BIXShbQ0BASF0oW0NIMl0yKVtPSF0pW0NAXTQoW0NIM10pQyg9W0NIXVtDSDJdMylbQ0gyXUMoPU8pW0NIMl1bQ0gyXTQ=

>  <s_epik_cmdline>  (361) 
J2VwaWtfcHl0aG9uJywgJy1waHQnLCAnMi4wJywgJy1waCcsICc3LjAnLCAnLXRuJywgJzgnLCAnLW1hJywgJzIwMCcsICctaW1hZScsICc8aW5maWxlLm1hZT4nLCAnLW9tYWUnLCAnPG91dGZpbGUubWFlPic=

>  <r_lp_tautomer_probability>  (361) 
1

>  <r_epik_Ionization_Penalty>  (361) 
4.3485e-07

>  <r_epik_Ionization_Penalty_Charging>  (361) 
0

>  <r_epik_Ionization_Penalty_Neutral>  (361) 
4.3485e-07

>  <r_epik_State_Penalty>  (361) 
-0

>  <r_epik_Charging_Adjusted_Penalty>  (361) 
0

>  <i_epik_Tot_Q>  (361) 
0

>  <i_epik_Tot_abs_Q>  (361) 
0

>  <s_lp_Force_Field>  (361) 
OPLS3e

>  <r_lp_Energy>  (361) 
30.3944

>  <b_lp_Chiralities_Consistent>  (361) 
1

>  <s_lp_Variant>  (361) 
102:0-1

>  <s_i_glide_gridfile>  (361) 
pfpi4k_grid

>  <i_i_glide_lignum>  (361) 
16

>  <i_i_glide_rotatable_bonds>  (361) 
1

>  <r_i_docking_score>  (361) 
-3.35145

>  <r_i_glide_ligand_efficiency>  (361) 
-0.152339

>  <r_i_glide_ligand_efficiency_sa>  (361) 
-0.426859

>  <r_i_glide_ligand_efficiency_ln>  (361) 
-0.819218

>  <r_i_glide_gscore>  (361) 
-3.35145

>  <r_i_glide_lipo>  (361) 
-0.656739

>  <r_i_glide_hbond>  (361) 
0

>  <r_i_glide_metal>  (361) 
-0

>  <r_i_glide_rewards>  (361) 
-1.37849

>  <r_i_glide_evdw>  (361) 
-26.1343

>  <r_i_glide_ecoul>  (361) 
-0.0633867

>  <r_i_glide_erotb>  (361) 
0

>  <r_i_glide_esite>  (361) 
0

>  <r_i_glide_emodel>  (361) 
-31.2324

>  <r_i_glide_energy>  (361) 
-26.1977

>  <r_i_glide_einternal>  (361) 
0.0793332

>  <r_i_glide_intrahb_reward>  (361) 
-0

>  <i_i_glide_confnum>  (361) 
1

>  <i_i_glide_posenum>  (361) 
1

>  <r_i_glide_eff_state_penalty>  (361) 
0

>  <ligand_id>  (361) 
102

>  <original_smiles>  (361) 
CC12CC(O)C3C(CC=C4CC(=O)CCC43C)C1CCC2=O

>  <smiles>  (361) 
[H]OC1([H])C([H])([H])C2(C([H])([H])[H])C(=O)C([H])([H])C([H])([H])C2([H])C2([H])C([H])([H])C([H])=C3C([H])([H])C(=O)C([H])([H])C([H])([H])C3(C([H])([H])[H])C12[H]

$$$$
103:0:0
     RDKit          3D

 34 36  0  0  1  0  0  0  0  0999 V2000
   -0.4726   -7.8820    1.8250 C   0  0  0  0  0  0  0  0  0  0  0  0
    0.9377   -7.4012    1.5510 C   0  0  0  0  0  0  0  0  0  0  0  0
    1.9171   -8.1741    2.0450 N   0  0  0  0  0  0  0  0  0  0  0  0
    3.1588   -7.7056    1.7736 C   0  0  0  0  0  0  0  0  0  0  0  0
    4.6313   -8.5436    2.2574 S   0  0  0  0  0  0  0  0  0  0  0  0
    5.6092   -7.3120    1.5368 C   0  0  0  0  0  0  0  0  0  0  0  0
    4.8999   -6.3324    0.8914 C   0  0  0  0  0  0  0  0  0  0  0  0
    3.4698   -6.5037    1.0513 C   0  0  0  0  0  0  0  0  0  0  0  0
    2.3183   -5.7828    0.6274 C   0  0  0  0  0  0  0  0  0  0  0  0
    2.4051   -4.5939   -0.1045 N   0  0  0  0  0  0  0  0  0  0  0  0
    3.2233   -3.4944    0.3946 C   0  0  2  0  0  0  0  0  0  0  0  0
    2.5781   -2.7949    1.6084 C   0  0  0  0  0  0  0  0  0  0  0  0
    3.4218   -1.5950    2.0611 C   0  0  0  0  0  0  0  0  0  0  0  0
    3.6908   -0.6482    0.8815 C   0  0  0  0  0  0  0  0  0  0  0  0
    4.3617   -1.3716   -0.2189 N   0  0  0  0  0  0  0  0  0  0  0  0
    3.5442   -2.4935   -0.7377 C   0  0  0  0  0  0  0  0  0  0  0  0
    1.0773   -6.2528    0.8681 N   0  0  0  0  0  0  0  0  0  0  0  0
   -0.4688   -8.7838    2.4375 H   0  0  0  0  0  0  0  0  0  0  0  0
   -0.9825   -8.1262    0.8942 H   0  0  0  0  0  0  0  0  0  0  0  0
   -1.0479   -7.1250    2.3555 H   0  0  0  0  0  0  0  0  0  0  0  0
    6.6828   -7.3943    1.5917 H   0  0  0  0  0  0  0  0  0  0  0  0
    5.3640   -5.5412    0.3299 H   0  0  0  0  0  0  0  0  0  0  0  0
    4.1848   -3.8574    0.7579 H   0  0  0  0  0  0  0  0  0  0  0  0
    1.5707   -2.4501    1.3728 H   0  0  0  0  0  0  0  0  0  0  0  0
    2.4901   -3.5038    2.4319 H   0  0  0  0  0  0  0  0  0  0  0  0
    2.9020   -1.0675    2.8624 H   0  0  0  0  0  0  0  0  0  0  0  0
    4.3699   -1.9363    2.4862 H   0  0  0  0  0  0  0  0  0  0  0  0
    2.7488   -0.2374    0.5133 H   0  0  0  0  0  0  0  0  0  0  0  0
    4.3047    0.1913    1.1917 H   0  0  0  0  0  0  0  0  0  0  0  0
    4.5466   -0.7297   -0.9802 H   0  0  0  0  0  0  0  0  0  0  0  0
    4.0804   -3.0010   -1.5417 H   0  0  0  0  0  0  0  0  0  0  0  0
    2.6363   -2.0935   -1.1825 H   0  0  0  0  0  0  0  0  0  0  0  0
    1.6941   -4.4112   -0.8016 H   0  0  0  0  0  0  0  0  0  0  0  0
    5.2371   -1.7486    0.1299 H   0  0  0  0  0  0  0  0  0  0  0  0
  1  2  1  0
  1 18  1  0
  1 19  1  0
  1 20  1  0
  2 17  2  0
  2  3  1  0
  3  4  2  0
  4  8  1  0
  4  5  1  0
  5  6  1  0
  6  7  2  0
  6 21  1  0
  7  8  1  0
  7 22  1  0
  8  9  2  0
  9 10  1  0
  9 17  1  0
 10 11  1  0
 10 33  1  0
 11 16  1  0
 11 12  1  0
 11 23  1  1
 12 13  1  0
 12 24  1  0
 12 25  1  0
 13 14  1  0
 13 26  1  0
 13 27  1  0
 14 15  1  0
 14 28  1  0
 14 29  1  0
 15 16  1  0
 15 30  1  0
 15 34  1  0
 16 31  1  0
 16 32  1  0
M  CHG  1  15   1
M  END
>  <i_m_ct_stereo_status>  (362) 
1

>  <s_m_source_file>  (362) 
/var/tmp/pbs.5076255.sched01/tmpl4jv_xt6/1264eazgjw7.sdf

>  <i_m_source_file_index>  (362) 
17

>  <i_lp_mmshare_version>  (362) 
48012

>  <i_f3d_flags>  (362) 
0

>  <s_epik_input>  (362) 
czFbY0hdW2NIXWMoYzEyKS9jKFtuSF1jKG4yKVtDSDNdKT1OXFtDQEBIXTNbQ0gyXVtDSDJdW0NIMl1bTkhdW0NIMl0z

>  <s_epik_cmdline>  (362) 
J2VwaWtfcHl0aG9uJywgJy1waHQnLCAnMi4wJywgJy1waCcsICc3LjAnLCAnLXRuJywgJzgnLCAnLW1hJywgJzIwMCcsICctaW1hZScsICc8aW5maWxlLm1hZT4nLCAnLW9tYWUnLCAnPG91dGZpbGUubWFlPic=

>  <r_lp_tautomer_probability>  (362) 
1

>  <r_epik_Ionization_Penalty>  (362) 
0.00035929

>  <r_epik_Ionization_Penalty_Charging>  (362) 
0.000278072

>  <r_epik_Ionization_Penalty_Neutral>  (362) 
8.1218e-05

>  <r_epik_State_Penalty>  (362) 
-0

>  <r_epik_Charging_Adjusted_Penalty>  (362) 
0.000278072

>  <i_epik_Tot_Q>  (362) 
1

>  <i_epik_Tot_abs_Q>  (362) 
1

>  <s_lp_Force_Field>  (362) 
OPLS3e

>  <r_lp_Energy>  (362) 
31.1954

>  <b_lp_Chiralities_Consistent>  (362) 
1

>  <s_lp_Variant>  (362) 
103:0-1

>  <s_i_glide_gridfile>  (362) 
pfpi4k_grid

>  <i_i_glide_lignum>  (362) 
17

>  <i_i_glide_rotatable_bonds>  (362) 
2

>  <r_i_docking_score>  (362) 
-3.53104

>  <r_i_glide_ligand_efficiency>  (362) 
-0.207708

>  <r_i_glide_ligand_efficiency_sa>  (362) 
-0.534076

>  <r_i_glide_ligand_efficiency_ln>  (362) 
-0.921169

>  <r_i_glide_gscore>  (362) 
-3.53104

>  <r_i_glide_lipo>  (362) 
-0.266495

>  <r_i_glide_hbond>  (362) 
-0.16

>  <r_i_glide_metal>  (362) 
-0

>  <r_i_glide_rewards>  (362) 
-1.70894

>  <r_i_glide_evdw>  (362) 
-18.3464

>  <r_i_glide_ecoul>  (362) 
-5.95723

>  <r_i_glide_erotb>  (362) 
0.562481

>  <r_i_glide_esite>  (362) 
-0.147183

>  <r_i_glide_emodel>  (362) 
-27.9702

>  <r_i_glide_energy>  (362) 
-24.3036

>  <r_i_glide_einternal>  (362) 
5.20255

>  <r_i_glide_intrahb_reward>  (362) 
-0

>  <i_i_glide_confnum>  (362) 
3

>  <i_i_glide_posenum>  (362) 
3

>  <r_i_glide_eff_state_penalty>  (362) 
0

>  <ligand_id>  (362) 
103

>  <original_smiles>  (362) 
Cc1nc2sccc2c(=NC2CCCNC2)[nH]1

>  <smiles>  (362) 
[H]c1sc2nc(C([H])([H])[H])nc(N([H])C3([H])C([H])([H])C([H])([H])C([H])([H])[N+]([H])([H])C3([H])[H])c2c1[H]

$$$$
103:0:1
     RDKit          3D

 34 36  0  0  1  0  0  0  0  0999 V2000
    1.8680    5.0728    5.5378 C   0  0  0  0  0  0  0  0  0  0  0  0
    0.6271    4.3927    6.0782 C   0  0  0  0  0  0  0  0  0  0  0  0
    0.0761    4.9182    7.1843 N   0  0  0  0  0  0  0  0  0  0  0  0
   -1.0458    4.2419    7.5790 C   0  0  0  0  0  0  0  0  0  0  0  0
   -1.9796    4.6505    9.0222 S   0  0  0  0  0  0  0  0  0  0  0  0
   -3.0972    3.3608    8.6831 C   0  0  0  0  0  0  0  0  0  0  0  0
   -2.8179    2.6394    7.5509 C   0  0  0  0  0  0  0  0  0  0  0  0
   -1.6260    3.1303    6.8962 C   0  0  0  0  0  0  0  0  0  0  0  0
   -0.9453    2.7106    5.7267 C   0  0  0  0  0  0  0  0  0  0  0  0
   -1.4529    1.6688    4.9387 N   0  0  0  0  0  0  0  0  0  0  0  0
   -0.7642    1.1655    3.7575 C   0  0  2  0  0  0  0  0  0  0  0  0
    0.5705    0.4640    4.1147 C   0  0  0  0  0  0  0  0  0  0  0  0
    1.3300    0.0316    2.8543 C   0  0  0  0  0  0  0  0  0  0  0  0
    1.4535    1.2017    1.8629 C   0  0  0  0  0  0  0  0  0  0  0  0
    0.1158    1.7086    1.4949 N   0  0  0  0  0  0  0  0  0  0  0  0
   -0.6117    2.2473    2.6561 C   0  0  0  0  0  0  0  0  0  0  0  0
    0.1865    3.3586    5.3747 N   0  0  0  0  0  0  0  0  0  0  0  0
    2.2314    5.8478    6.2100 H   0  0  0  0  0  0  0  0  0  0  0  0
    1.6624    5.5340    4.5741 H   0  0  0  0  0  0  0  0  0  0  0  0
    2.6646    4.3473    5.3943 H   0  0  0  0  0  0  0  0  0  0  0  0
   -3.9160    3.2011    9.3708 H   0  0  0  0  0  0  0  0  0  0  0  0
   -3.3777    1.8039    7.1737 H   0  0  0  0  0  0  0  0  0  0  0  0
   -1.4159    0.3932    3.3460 H   0  0  0  0  0  0  0  0  0  0  0  0
    1.2242    1.1231    4.6842 H   0  0  0  0  0  0  0  0  0  0  0  0
    0.3866   -0.3979    4.7601 H   0  0  0  0  0  0  0  0  0  0  0  0
    2.3192   -0.3363    3.1353 H   0  0  0  0  0  0  0  0  0  0  0  0
    0.8120   -0.7952    2.3714 H   0  0  0  0  0  0  0  0  0  0  0  0
    2.0483    2.0075    2.3054 H   0  0  0  0  0  0  0  0  0  0  0  0
    1.9783    0.8857    0.9626 H   0  0  0  0  0  0  0  0  0  0  0  0
    0.2201    2.5064    0.8700 H   0  0  0  0  0  0  0  0  0  0  0  0
   -1.5882    2.6423    2.3608 H   0  0  0  0  0  0  0  0  0  0  0  0
   -0.0099    3.1022    2.9498 H   0  0  0  0  0  0  0  0  0  0  0  0
   -2.3956    1.3480    5.1090 H   0  0  0  0  0  0  0  0  0  0  0  0
   -0.4119    0.9938    1.0101 H   0  0  0  0  0  0  0  0  0  0  0  0
  1  2  1  0
  1 18  1  0
  1 19  1  0
  1 20  1  0
  2 17  2  0
  2  3  1  0
  3  4  2  0
  4  8  1  0
  4  5  1  0
  5  6  1  0
  6  7  2  0
  6 21  1  0
  7  8  1  0
  7 22  1  0
  8  9  2  0
  9 10  1  0
  9 17  1  0
 10 11  1  0
 10 33  1  0
 11 16  1  0
 11 12  1  0
 11 23  1  6
 12 13  1  0
 12 24  1  0
 12 25  1  0
 13 14  1  0
 13 26  1  0
 13 27  1  0
 14 15  1  0
 14 28  1  0
 14 29  1  0
 15 16  1  0
 15 30  1  0
 15 34  1  0
 16 31  1  0
 16 32  1  0
M  CHG  1  15   1
M  END
>  <i_m_ct_stereo_status>  (363) 
1

>  <s_m_source_file>  (363) 
/var/tmp/pbs.5076255.sched01/tmpl4jv_xt6/1264eazgjw7.sdf

>  <i_m_source_file_index>  (363) 
17

>  <i_lp_mmshare_version>  (363) 
48012

>  <i_f3d_flags>  (363) 
0

>  <s_epik_input>  (363) 
czFbY0hdW2NIXWMoYzEyKS9jKFtuSF1jKG4yKVtDSDNdKT1OXFtDQEBIXTNbQ0gyXVtDSDJdW0NIMl1bTkhdW0NIMl0z

>  <s_epik_cmdline>  (363) 
J2VwaWtfcHl0aG9uJywgJy1waHQnLCAnMi4wJywgJy1waCcsICc3LjAnLCAnLXRuJywgJzgnLCAnLW1hJywgJzIwMCcsICctaW1hZScsICc8aW5maWxlLm1hZT4nLCAnLW9tYWUnLCAnPG91dGZpbGUubWFlPic=

>  <r_lp_tautomer_probability>  (363) 
1

>  <r_epik_Ionization_Penalty>  (363) 
0.00035929

>  <r_epik_Ionization_Penalty_Charging>  (363) 
0.000278072

>  <r_epik_Ionization_Penalty_Neutral>  (363) 
8.1218e-05

>  <r_epik_State_Penalty>  (363) 
-0

>  <r_epik_Charging_Adjusted_Penalty>  (363) 
0.000278072

>  <i_epik_Tot_Q>  (363) 
1

>  <i_epik_Tot_abs_Q>  (363) 
1

>  <s_lp_Force_Field>  (363) 
OPLS3e

>  <r_lp_Energy>  (363) 
31.1954

>  <b_lp_Chiralities_Consistent>  (363) 
1

>  <s_lp_Variant>  (363) 
103:0-1

>  <s_i_glide_gridfile>  (363) 
pfpi4k_grid

>  <i_i_glide_lignum>  (363) 
17

>  <i_i_glide_rotatable_bonds>  (363) 
2

>  <r_i_docking_score>  (363) 
-3.45211

>  <r_i_glide_ligand_efficiency>  (363) 
-0.203065

>  <r_i_glide_ligand_efficiency_sa>  (363) 
-0.522138

>  <r_i_glide_ligand_efficiency_ln>  (363) 
-0.900579

>  <r_i_glide_gscore>  (363) 
-3.45211

>  <r_i_glide_lipo>  (363) 
-0.259897

>  <r_i_glide_hbond>  (363) 
-0.360378

>  <r_i_glide_metal>  (363) 
-0

>  <r_i_glide_rewards>  (363) 
-1.70894

>  <r_i_glide_evdw>  (363) 
-16.6549

>  <r_i_glide_ecoul>  (363) 
-4.98093

>  <r_i_glide_erotb>  (363) 
0.562481

>  <r_i_glide_esite>  (363) 
-0.105501

>  <r_i_glide_emodel>  (363) 
-26.6552

>  <r_i_glide_energy>  (363) 
-21.6358

>  <r_i_glide_einternal>  (363) 
4.94885

>  <r_i_glide_intrahb_reward>  (363) 
-0

>  <i_i_glide_confnum>  (363) 
4

>  <i_i_glide_posenum>  (363) 
25

>  <r_i_glide_eff_state_penalty>  (363) 
0

>  <ligand_id>  (363) 
103

>  <original_smiles>  (363) 
Cc1nc2sccc2c(=NC2CCCNC2)[nH]1

>  <smiles>  (363) 
[H]c1sc2nc(C([H])([H])[H])nc(N([H])C3([H])C([H])([H])C([H])([H])C([H])([H])[N+]([H])([H])C3([H])[H])c2c1[H]

$$$$
103:0:2
     RDKit          3D

 34 36  0  0  1  0  0  0  0  0999 V2000
    1.7067   -0.3574    7.2859 C   0  0  0  0  0  0  0  0  0  0  0  0
    0.5508    0.6239    7.2893 C   0  0  0  0  0  0  0  0  0  0  0  0
    0.0567    0.9749    8.4812 N   0  0  0  0  0  0  0  0  0  0  0  0
   -0.9761    1.8662    8.3709 C   0  0  0  0  0  0  0  0  0  0  0  0
   -1.8177    2.5669    9.7563 S   0  0  0  0  0  0  0  0  0  0  0  0
   -2.8612    3.4602    8.6886 C   0  0  0  0  0  0  0  0  0  0  0  0
   -2.6131    3.2750    7.3475 C   0  0  0  0  0  0  0  0  0  0  0  0
   -1.5276    2.3517    7.1420 C   0  0  0  0  0  0  0  0  0  0  0  0
   -0.9207    1.8580    5.9668 C   0  0  0  0  0  0  0  0  0  0  0  0
   -1.3893    2.2357    4.7041 N   0  0  0  0  0  0  0  0  0  0  0  0
   -0.5453    2.1876    3.5119 C   0  0  2  0  0  0  0  0  0  0  0  0
   -0.2670    0.7370    3.0302 C   0  0  0  0  0  0  0  0  0  0  0  0
    0.7005    0.7107    1.8477 C   0  0  0  0  0  0  0  0  0  0  0  0
    1.9544    1.5478    2.1462 C   0  0  0  0  0  0  0  0  0  0  0  0
    1.5846    2.9441    2.4722 N   0  0  0  0  0  0  0  0  0  0  0  0
    0.7431    3.0313    3.6844 C   0  0  0  0  0  0  0  0  0  0  0  0
    0.1281    1.0075    6.0893 N   0  0  0  0  0  0  0  0  0  0  0  0
    1.9529   -0.6898    8.2908 H   0  0  0  0  0  0  0  0  0  0  0  0
    2.5948    0.1000    6.8532 H   0  0  0  0  0  0  0  0  0  0  0  0
    1.4599   -1.2363    6.6912 H   0  0  0  0  0  0  0  0  0  0  0  0
   -3.6168    4.0903    9.1317 H   0  0  0  0  0  0  0  0  0  0  0  0
   -3.1339    3.7392    6.5262 H   0  0  0  0  0  0  0  0  0  0  0  0
   -1.1159    2.6719    2.7178 H   0  0  0  0  0  0  0  0  0  0  0  0
    0.2097    0.1131    3.7858 H   0  0  0  0  0  0  0  0  0  0  0  0
   -1.2136    0.2449    2.7922 H   0  0  0  0  0  0  0  0  0  0  0  0
    0.9797   -0.3255    1.6590 H   0  0  0  0  0  0  0  0  0  0  0  0
    0.2172    1.0882    0.9499 H   0  0  0  0  0  0  0  0  0  0  0  0
    2.5141    1.1262    2.9858 H   0  0  0  0  0  0  0  0  0  0  0  0
    2.6238    1.5233    1.2879 H   0  0  0  0  0  0  0  0  0  0  0  0
    2.4206    3.5012    2.6038 H   0  0  0  0  0  0  0  0  0  0  0  0
    0.5111    4.0808    3.8871 H   0  0  0  0  0  0  0  0  0  0  0  0
    1.3557    2.6786    4.5110 H   0  0  0  0  0  0  0  0  0  0  0  0
   -2.2014    2.8411    4.6612 H   0  0  0  0  0  0  0  0  0  0  0  0
    1.0578    3.3758    1.7081 H   0  0  0  0  0  0  0  0  0  0  0  0
  1  2  1  0
  1 18  1  0
  1 19  1  0
  1 20  1  0
  2 17  2  0
  2  3  1  0
  3  4  2  0
  4  8  1  0
  4  5  1  0
  5  6  1  0
  6  7  2  0
  6 21  1  0
  7  8  1  0
  7 22  1  0
  8  9  2  0
  9 10  1  0
  9 17  1  0
 10 11  1  0
 10 33  1  0
 11 16  1  0
 11 12  1  0
 11 23  1  6
 12 13  1  0
 12 24  1  0
 12 25  1  0
 13 14  1  0
 13 26  1  0
 13 27  1  0
 14 15  1  0
 14 28  1  0
 14 29  1  0
 15 16  1  0
 15 30  1  0
 15 34  1  0
 16 31  1  0
 16 32  1  0
M  CHG  1  15   1
M  END
>  <i_m_ct_stereo_status>  (364) 
1

>  <s_m_source_file>  (364) 
/var/tmp/pbs.5076255.sched01/tmpl4jv_xt6/1264eazgjw7.sdf

>  <i_m_source_file_index>  (364) 
17

>  <i_lp_mmshare_version>  (364) 
48012

>  <i_f3d_flags>  (364) 
0

>  <s_epik_input>  (364) 
czFbY0hdW2NIXWMoYzEyKS9jKFtuSF1jKG4yKVtDSDNdKT1OXFtDQEBIXTNbQ0gyXVtDSDJdW0NIMl1bTkhdW0NIMl0z

>  <s_epik_cmdline>  (364) 
J2VwaWtfcHl0aG9uJywgJy1waHQnLCAnMi4wJywgJy1waCcsICc3LjAnLCAnLXRuJywgJzgnLCAnLW1hJywgJzIwMCcsICctaW1hZScsICc8aW5maWxlLm1hZT4nLCAnLW9tYWUnLCAnPG91dGZpbGUubWFlPic=

>  <r_lp_tautomer_probability>  (364) 
1

>  <r_epik_Ionization_Penalty>  (364) 
0.00035929

>  <r_epik_Ionization_Penalty_Charging>  (364) 
0.000278072

>  <r_epik_Ionization_Penalty_Neutral>  (364) 
8.1218e-05

>  <r_epik_State_Penalty>  (364) 
-0

>  <r_epik_Charging_Adjusted_Penalty>  (364) 
0.000278072

>  <i_epik_Tot_Q>  (364) 
1

>  <i_epik_Tot_abs_Q>  (364) 
1

>  <s_lp_Force_Field>  (364) 
OPLS3e

>  <r_lp_Energy>  (364) 
31.1954

>  <b_lp_Chiralities_Consistent>  (364) 
1

>  <s_lp_Variant>  (364) 
103:0-1

>  <s_i_glide_gridfile>  (364) 
pfpi4k_grid

>  <i_i_glide_lignum>  (364) 
17

>  <i_i_glide_rotatable_bonds>  (364) 
2

>  <r_i_docking_score>  (364) 
-3.3074

>  <r_i_glide_ligand_efficiency>  (364) 
-0.194553

>  <r_i_glide_ligand_efficiency_sa>  (364) 
-0.50025

>  <r_i_glide_ligand_efficiency_ln>  (364) 
-0.862826

>  <r_i_glide_gscore>  (364) 
-3.3074

>  <r_i_glide_lipo>  (364) 
-0.196926

>  <r_i_glide_hbond>  (364) 
-0.2

>  <r_i_glide_metal>  (364) 
-0

>  <r_i_glide_rewards>  (364) 
-1.70894

>  <r_i_glide_evdw>  (364) 
-16.6406

>  <r_i_glide_ecoul>  (364) 
-5.38804

>  <r_i_glide_erotb>  (364) 
0.562481

>  <r_i_glide_esite>  (364) 
-0.123778

>  <r_i_glide_emodel>  (364) 
-26.9192

>  <r_i_glide_energy>  (364) 
-22.0287

>  <r_i_glide_einternal>  (364) 
4.85742

>  <r_i_glide_intrahb_reward>  (364) 
-0

>  <i_i_glide_confnum>  (364) 
4

>  <i_i_glide_posenum>  (364) 
31

>  <r_i_glide_eff_state_penalty>  (364) 
0

>  <ligand_id>  (364) 
103

>  <original_smiles>  (364) 
Cc1nc2sccc2c(=NC2CCCNC2)[nH]1

>  <smiles>  (364) 
[H]c1sc2nc(C([H])([H])[H])nc(N([H])C3([H])C([H])([H])C([H])([H])C([H])([H])[N+]([H])([H])C3([H])[H])c2c1[H]

$$$$
104:0:0
     RDKit          3D

 49 54  0  0  1  0  0  0  0  0999 V2000
    4.2939   -6.2413    0.4902 C   0  0  0  0  0  0  0  0  0  0  0  0
    4.7881   -4.9451   -0.1926 C   0  0  2  0  0  0  0  0  0  0  0  0
    6.1008   -4.3151    0.3896 C   0  0  0  0  0  0  0  0  0  0  0  0
    5.8401   -2.7598    0.3376 C   0  0  1  0  0  0  0  0  0  0  0  0
    4.8308   -2.7078   -0.8895 C   0  0  0  0  0  0  0  0  0  0  0  0
    4.0573   -1.4206   -1.2723 C   0  0  0  0  0  0  0  0  0  0  0  0
    5.4836   -3.1063   -2.2508 C   0  0  0  0  0  0  0  0  0  0  0  0
    3.8496   -3.6990   -0.1938 C   0  0  2  0  0  0  0  0  0  0  0  0
    3.8416   -3.2616    1.2902 C   0  0  2  0  0  0  0  0  0  0  0  0
    3.1516   -2.4940    2.3871 C   0  0  2  0  0  0  0  0  0  0  0  0
    2.2350   -3.2088    3.3788 C   0  0  0  0  0  0  0  0  0  0  0  0
    1.1217   -2.2259    3.7663 C   0  0  0  0  0  0  0  0  0  0  0  0
    1.6319   -0.8168    3.4079 C   0  0  0  0  0  0  0  0  0  0  0  0
    0.4737    0.1475    3.0880 C   0  0  0  0  0  0  0  0  0  0  0  0
    2.4396   -0.2559    4.5981 C   0  0  0  0  0  0  0  0  0  0  0  0
    2.4895   -1.1185    2.1584 C   0  0  1  0  0  0  0  0  0  0  0  0
    3.5158   -0.0780    1.7778 C   0  0  1  0  0  0  0  0  0  0  0  0
    4.6682    0.0941    2.6167 O   0  0  0  0  0  0  0  0  0  0  0  0
    4.8478   -0.6606    1.3878 C   0  0  1  0  0  0  0  0  0  0  0  0
    4.9381   -2.2053    1.4852 C   0  0  2  0  0  0  0  0  0  0  0  0
    4.5679   -2.3930    2.8853 O   0  0  0  0  0  0  0  0  0  0  0  0
    4.2810   -6.2062    1.5793 H   0  0  0  0  0  0  0  0  0  0  0  0
    4.9351   -7.0789    0.2153 H   0  0  0  0  0  0  0  0  0  0  0  0
    3.2852   -6.4879    0.1530 H   0  0  0  0  0  0  0  0  0  0  0  0
    4.9393   -5.2738   -1.2187 H   0  0  0  0  0  0  0  0  0  0  0  0
    6.3034   -4.6398    1.4104 H   0  0  0  0  0  0  0  0  0  0  0  0
    6.9628   -4.6101   -0.2092 H   0  0  0  0  0  0  0  0  0  0  0  0
    6.7547   -2.1869    0.1946 H   0  0  0  0  0  0  0  0  0  0  0  0
    3.5294   -1.5496   -2.2200 H   0  0  0  0  0  0  0  0  0  0  0  0
    4.7159   -0.5621   -1.4027 H   0  0  0  0  0  0  0  0  0  0  0  0
    3.2661   -1.1644   -0.5739 H   0  0  0  0  0  0  0  0  0  0  0  0
    4.7324   -3.4770   -2.9511 H   0  0  0  0  0  0  0  0  0  0  0  0
    6.2701   -3.8538   -2.1870 H   0  0  0  0  0  0  0  0  0  0  0  0
    5.9666   -2.2514   -2.7180 H   0  0  0  0  0  0  0  0  0  0  0  0
    2.8717   -3.8420   -0.6585 H   0  0  0  0  0  0  0  0  0  0  0  0
    4.0504   -4.1650    1.8667 H   0  0  0  0  0  0  0  0  0  0  0  0
    1.8033   -4.1108    2.9427 H   0  0  0  0  0  0  0  0  0  0  0  0
    2.7960   -3.5082    4.2634 H   0  0  0  0  0  0  0  0  0  0  0  0
    0.2437   -2.4546    3.1619 H   0  0  0  0  0  0  0  0  0  0  0  0
    0.8230   -2.3241    4.8116 H   0  0  0  0  0  0  0  0  0  0  0  0
    0.8457    1.1326    2.8074 H   0  0  0  0  0  0  0  0  0  0  0  0
   -0.1833    0.2737    3.9495 H   0  0  0  0  0  0  0  0  0  0  0  0
   -0.1349   -0.2154    2.2604 H   0  0  0  0  0  0  0  0  0  0  0  0
    2.8204    0.7435    4.3869 H   0  0  0  0  0  0  0  0  0  0  0  0
    3.2923   -0.8896    4.8472 H   0  0  0  0  0  0  0  0  0  0  0  0
    1.8198   -0.1778    5.4915 H   0  0  0  0  0  0  0  0  0  0  0  0
    1.8102   -1.2223    1.3069 H   0  0  0  0  0  0  0  0  0  0  0  0
    3.1686    0.8241    1.2830 H   0  0  0  0  0  0  0  0  0  0  0  0
    5.4520   -0.1454    0.6512 H   0  0  0  0  0  0  0  0  0  0  0  0
  1  2  1  0
  1 22  1  0
  1 23  1  0
  1 24  1  0
  2  8  1  0
  2  3  1  0
  2 25  1  6
  3  4  1  0
  3 26  1  0
  3 27  1  0
  4 20  1  0
  4  5  1  0
  4 28  1  6
  5  6  1  0
  5  7  1  0
  5  8  1  0
  6 29  1  0
  6 30  1  0
  6 31  1  0
  7 32  1  0
  7 33  1  0
  7 34  1  0
  8  9  1  0
  8 35  1  6
  9 20  1  0
  9 10  1  0
  9 36  1  1
 10 16  1  0
 10 21  1  1
 10 11  1  0
 11 12  1  0
 11 37  1  0
 11 38  1  0
 12 13  1  0
 12 39  1  0
 12 40  1  0
 13 14  1  0
 13 15  1  0
 13 16  1  0
 14 41  1  0
 14 42  1  0
 14 43  1  0
 15 44  1  0
 15 45  1  0
 15 46  1  0
 16 17  1  0
 16 47  1  6
 17 19  1  0
 17 18  1  0
 17 48  1  6
 18 19  1  0
 19 20  1  0
 19 49  1  6
 20 21  1  1
M  END
>  <i_m_ct_stereo_status>  (365) 
1

>  <s_m_source_file>  (365) 
/var/tmp/pbs.5076255.sched01/tmpl4jv_xt6/1264eazgjw7.sdf

>  <i_m_source_file_index>  (365) 
18

>  <i_lp_mmshare_version>  (365) 
48012

>  <i_f3d_flags>  (365) 
0

>  <s_epik_input>  (365) 
W0NIM11DMShbQ0gzXSlbQ0BIXTJbQ0BIXShbQ0gzXSlbQ0gyXVtDQEBIXTFbQ0BdKE8zKShbQ0BIXTJbQ0BdMzQ1KVtDQEhdNltDQEhdKE82KVtDQEBIXTVDKFtDSDNdKShbQ0gzXSlbQ0gyXVtDSDJdNA==

>  <s_epik_cmdline>  (365) 
J2VwaWtfcHl0aG9uJywgJy1waHQnLCAnMi4wJywgJy1waCcsICc3LjAnLCAnLXRuJywgJzgnLCAnLW1hJywgJzIwMCcsICctaW1hZScsICc8aW5maWxlLm1hZT4nLCAnLW9tYWUnLCAnPG91dGZpbGUubWFlPic=

>  <r_lp_tautomer_probability>  (365) 
1

>  <r_epik_Ionization_Penalty>  (365) 
5.84634e-11

>  <r_epik_Ionization_Penalty_Charging>  (365) 
0

>  <r_epik_Ionization_Penalty_Neutral>  (365) 
5.84634e-11

>  <r_epik_State_Penalty>  (365) 
-0

>  <r_epik_Charging_Adjusted_Penalty>  (365) 
0

>  <i_epik_Tot_Q>  (365) 
0

>  <i_epik_Tot_abs_Q>  (365) 
0

>  <s_lp_Force_Field>  (365) 
OPLS3e

>  <r_lp_Energy>  (365) 
153.625

>  <b_lp_Chiralities_Consistent>  (365) 
1

>  <s_lp_Variant>  (365) 
104:0-1

>  <s_i_glide_gridfile>  (365) 
pfpi4k_grid

>  <i_i_glide_lignum>  (365) 
18

>  <i_i_glide_rotatable_bonds>  (365) 
0

>  <r_i_docking_score>  (365) 
-3.62292

>  <r_i_glide_ligand_efficiency>  (365) 
-0.17252

>  <r_i_glide_ligand_efficiency_sa>  (365) 
-0.47597

>  <r_i_glide_ligand_efficiency_ln>  (365) 
-0.895761

>  <r_i_glide_gscore>  (365) 
-3.62292

>  <r_i_glide_lipo>  (365) 
-0.676285

>  <r_i_glide_hbond>  (365) 
-0.0508966

>  <r_i_glide_metal>  (365) 
-0

>  <r_i_glide_rewards>  (365) 
-1.44256

>  <r_i_glide_evdw>  (365) 
-23.9224

>  <r_i_glide_ecoul>  (365) 
-1.71375

>  <r_i_glide_erotb>  (365) 
0

>  <r_i_glide_esite>  (365) 
0

>  <r_i_glide_emodel>  (365) 
-31.2183

>  <r_i_glide_energy>  (365) 
-25.6361

>  <r_i_glide_einternal>  (365) 
0

>  <r_i_glide_intrahb_reward>  (365) 
-0

>  <i_i_glide_confnum>  (365) 
2

>  <i_i_glide_posenum>  (365) 
23

>  <r_i_glide_eff_state_penalty>  (365) 
0

>  <ligand_id>  (365) 
104

>  <original_smiles>  (365) 
CC1CC2C(C)(C)C1C1C34CCC(C)(C)C3C3OC3C21O4

>  <smiles>  (365) 
[H]C([H])([H])C1([H])C([H])([H])C2([H])C34OC5(C([H])([H])C([H])([H])C(C([H])([H])[H])(C([H])([H])[H])C5([H])C5([H])OC53[H])C4([H])C1([H])C2(C([H])([H])[H])C([H])([H])[H]

$$$$
104:0:1
     RDKit          3D

 49 54  0  0  1  0  0  0  0  0999 V2000
    1.8411   -3.4550   -1.8462 C   0  0  0  0  0  0  0  0  0  0  0  0
    3.1374   -2.8397   -1.2707 C   0  0  2  0  0  0  0  0  0  0  0  0
    4.4891   -3.4063   -1.8293 C   0  0  0  0  0  0  0  0  0  0  0  0
    5.4398   -3.4646   -0.5721 C   0  0  1  0  0  0  0  0  0  0  0  0
    4.8059   -2.2800    0.2740 C   0  0  0  0  0  0  0  0  0  0  0  0
    5.2191   -1.9915    1.7414 C   0  0  0  0  0  0  0  0  0  0  0  0
    4.9939   -0.8811   -0.3914 C   0  0  0  0  0  0  0  0  0  0  0  0
    3.3967   -2.9422    0.2603 C   0  0  2  0  0  0  0  0  0  0  0  0
    3.6777   -4.4458    0.4753 C   0  0  2  0  0  0  0  0  0  0  0  0
    3.7371   -5.6032    1.4368 C   0  0  2  0  0  0  0  0  0  0  0  0
    2.5726   -6.5821    1.5521 C   0  0  0  0  0  0  0  0  0  0  0  0
    2.5116   -7.0540    3.0119 C   0  0  0  0  0  0  0  0  0  0  0  0
    3.8948   -6.7682    3.6254 C   0  0  0  0  0  0  0  0  0  0  0  0
    3.8048   -6.5366    5.1461 C   0  0  0  0  0  0  0  0  0  0  0  0
    4.8303   -7.9643    3.3482 C   0  0  0  0  0  0  0  0  0  0  0  0
    4.2892   -5.4794    2.8708 C   0  0  1  0  0  0  0  0  0  0  0  0
    5.7561   -5.1303    2.8518 C   0  0  1  0  0  0  0  0  0  0  0  0
    6.6452   -5.9342    2.0782 O   0  0  0  0  0  0  0  0  0  0  0  0
    6.2524   -4.6661    1.5191 C   0  0  1  0  0  0  0  0  0  0  0  0
    5.1930   -4.6659    0.3871 C   0  0  2  0  0  0  0  0  0  0  0  0
    4.7757   -6.0654    0.4484 O   0  0  0  0  0  0  0  0  0  0  0  0
    1.7982   -4.5333   -1.8394 H   0  0  0  0  0  0  0  0  0  0  0  0
    1.6807   -3.1266   -2.8756 H   0  0  0  0  0  0  0  0  0  0  0  0
    0.9771   -3.1171   -1.2769 H   0  0  0  0  0  0  0  0  0  0  0  0
    3.0161   -1.7916   -1.5323 H   0  0  0  0  0  0  0  0  0  0  0  0
    4.3839   -4.3946   -2.2648 H   0  0  0  0  0  0  0  0  0  0  0  0
    4.8730   -2.7619   -2.6196 H   0  0  0  0  0  0  0  0  0  0  0  0
    6.4892   -3.3266   -0.8339 H   0  0  0  0  0  0  0  0  0  0  0  0
    4.7845   -1.0522    2.0901 H   0  0  0  0  0  0  0  0  0  0  0  0
    6.2979   -1.8899    1.8544 H   0  0  0  0  0  0  0  0  0  0  0  0
    4.8478   -2.7283    2.4478 H   0  0  0  0  0  0  0  0  0  0  0  0
    4.2263   -0.1831   -0.0464 H   0  0  0  0  0  0  0  0  0  0  0  0
    4.9723   -0.8669   -1.4800 H   0  0  0  0  0  0  0  0  0  0  0  0
    5.9589   -0.4514   -0.1177 H   0  0  0  0  0  0  0  0  0  0  0  0
    2.6292   -2.5023    0.9002 H   0  0  0  0  0  0  0  0  0  0  0  0
    3.1607   -4.9701   -0.3307 H   0  0  0  0  0  0  0  0  0  0  0  0
    1.6290   -6.1125    1.2745 H   0  0  0  0  0  0  0  0  0  0  0  0
    2.7226   -7.4360    0.8923 H   0  0  0  0  0  0  0  0  0  0  0  0
    1.7586   -6.4575    3.5313 H   0  0  0  0  0  0  0  0  0  0  0  0
    2.2105   -8.1000    3.1002 H   0  0  0  0  0  0  0  0  0  0  0  0
    4.7824   -6.3025    5.5658 H   0  0  0  0  0  0  0  0  0  0  0  0
    3.4311   -7.4258    5.6550 H   0  0  0  0  0  0  0  0  0  0  0  0
    3.1337   -5.7129    5.3905 H   0  0  0  0  0  0  0  0  0  0  0  0
    5.8225   -7.8004    3.7671 H   0  0  0  0  0  0  0  0  0  0  0  0
    4.9474   -8.1514    2.2796 H   0  0  0  0  0  0  0  0  0  0  0  0
    4.4413   -8.8787    3.7978 H   0  0  0  0  0  0  0  0  0  0  0  0
    3.7673   -4.6476    3.3469 H   0  0  0  0  0  0  0  0  0  0  0  0
    6.1823   -4.6931    3.7524 H   0  0  0  0  0  0  0  0  0  0  0  0
    7.0583   -3.9403    1.4747 H   0  0  0  0  0  0  0  0  0  0  0  0
  1  2  1  0
  1 22  1  0
  1 23  1  0
  1 24  1  0
  2  8  1  0
  2  3  1  0
  2 25  1  6
  3  4  1  0
  3 26  1  0
  3 27  1  0
  4 20  1  0
  4  5  1  0
  4 28  1  6
  5  6  1  0
  5  7  1  0
  5  8  1  0
  6 29  1  0
  6 30  1  0
  6 31  1  0
  7 32  1  0
  7 33  1  0
  7 34  1  0
  8  9  1  0
  8 35  1  1
  9 20  1  0
  9 10  1  0
  9 36  1  6
 10 16  1  0
 10 21  1  6
 10 11  1  0
 11 12  1  0
 11 37  1  0
 11 38  1  0
 12 13  1  0
 12 39  1  0
 12 40  1  0
 13 14  1  0
 13 15  1  0
 13 16  1  0
 14 41  1  0
 14 42  1  0
 14 43  1  0
 15 44  1  0
 15 45  1  0
 15 46  1  0
 16 17  1  0
 16 47  1  1
 17 19  1  0
 17 18  1  0
 17 48  1  1
 18 19  1  0
 19 20  1  0
 19 49  1  1
 20 21  1  6
M  END
>  <i_m_ct_stereo_status>  (366) 
1

>  <s_m_source_file>  (366) 
/var/tmp/pbs.5076255.sched01/tmpl4jv_xt6/1264eazgjw7.sdf

>  <i_m_source_file_index>  (366) 
18

>  <i_lp_mmshare_version>  (366) 
48012

>  <i_f3d_flags>  (366) 
0

>  <s_epik_input>  (366) 
W0NIM11DMShbQ0gzXSlbQ0BIXTJbQ0BIXShbQ0gzXSlbQ0gyXVtDQEBIXTFbQ0BdKE8zKShbQ0BIXTJbQ0BdMzQ1KVtDQEhdNltDQEhdKE82KVtDQEBIXTVDKFtDSDNdKShbQ0gzXSlbQ0gyXVtDSDJdNA==

>  <s_epik_cmdline>  (366) 
J2VwaWtfcHl0aG9uJywgJy1waHQnLCAnMi4wJywgJy1waCcsICc3LjAnLCAnLXRuJywgJzgnLCAnLW1hJywgJzIwMCcsICctaW1hZScsICc8aW5maWxlLm1hZT4nLCAnLW9tYWUnLCAnPG91dGZpbGUubWFlPic=

>  <r_lp_tautomer_probability>  (366) 
1

>  <r_epik_Ionization_Penalty>  (366) 
5.84634e-11

>  <r_epik_Ionization_Penalty_Charging>  (366) 
0

>  <r_epik_Ionization_Penalty_Neutral>  (366) 
5.84634e-11

>  <r_epik_State_Penalty>  (366) 
-0

>  <r_epik_Charging_Adjusted_Penalty>  (366) 
0

>  <i_epik_Tot_Q>  (366) 
0

>  <i_epik_Tot_abs_Q>  (366) 
0

>  <s_lp_Force_Field>  (366) 
OPLS3e

>  <r_lp_Energy>  (366) 
153.625

>  <b_lp_Chiralities_Consistent>  (366) 
1

>  <s_lp_Variant>  (366) 
104:0-1

>  <s_i_glide_gridfile>  (366) 
pfpi4k_grid

>  <i_i_glide_lignum>  (366) 
18

>  <i_i_glide_rotatable_bonds>  (366) 
0

>  <r_i_docking_score>  (366) 
-2.76321

>  <r_i_glide_ligand_efficiency>  (366) 
-0.131581

>  <r_i_glide_ligand_efficiency_sa>  (366) 
-0.363023

>  <r_i_glide_ligand_efficiency_ln>  (366) 
-0.683198

>  <r_i_glide_gscore>  (366) 
-2.76321

>  <r_i_glide_lipo>  (366) 
-0.371788

>  <r_i_glide_hbond>  (366) 
0

>  <r_i_glide_metal>  (366) 
-0

>  <r_i_glide_rewards>  (366) 
-1.44256

>  <r_i_glide_evdw>  (366) 
-18.7946

>  <r_i_glide_ecoul>  (366) 
-0.0608955

>  <r_i_glide_erotb>  (366) 
0

>  <r_i_glide_esite>  (366) 
0

>  <r_i_glide_emodel>  (366) 
-23.0712

>  <r_i_glide_energy>  (366) 
-18.8554

>  <r_i_glide_einternal>  (366) 
0

>  <r_i_glide_intrahb_reward>  (366) 
-0

>  <i_i_glide_confnum>  (366) 
1

>  <i_i_glide_posenum>  (366) 
8

>  <r_i_glide_eff_state_penalty>  (366) 
0

>  <ligand_id>  (366) 
104

>  <original_smiles>  (366) 
CC1CC2C(C)(C)C1C1C34CCC(C)(C)C3C3OC3C21O4

>  <smiles>  (366) 
[H]C([H])([H])C1([H])C([H])([H])C2([H])C34OC5(C([H])([H])C([H])([H])C(C([H])([H])[H])(C([H])([H])[H])C5([H])C5([H])OC53[H])C4([H])C1([H])C2(C([H])([H])[H])C([H])([H])[H]

$$$$
104:0:2
     RDKit          3D

 49 54  0  0  1  0  0  0  0  0999 V2000
    8.5065   -5.4260    1.4615 C   0  0  0  0  0  0  0  0  0  0  0  0
    7.1506   -5.3362    2.2021 C   0  0  2  0  0  0  0  0  0  0  0  0
    6.1534   -6.5205    1.9892 C   0  0  0  0  0  0  0  0  0  0  0  0
    4.7419   -5.8172    1.9237 C   0  0  1  0  0  0  0  0  0  0  0  0
    5.0303   -4.5374    2.8189 C   0  0  0  0  0  0  0  0  0  0  0  0
    4.0378   -3.3508    2.9297 C   0  0  0  0  0  0  0  0  0  0  0  0
    5.2955   -4.8771    4.3224 C   0  0  0  0  0  0  0  0  0  0  0  0
    6.2179   -4.1095    1.9187 C   0  0  2  0  0  0  0  0  0  0  0  0
    5.7419   -4.3744    0.4827 C   0  0  2  0  0  0  0  0  0  0  0  0
    5.1512   -3.8222   -0.7796 C   0  0  2  0  0  0  0  0  0  0  0  0
    6.0429   -3.4478   -1.9565 C   0  0  0  0  0  0  0  0  0  0  0  0
    5.3858   -2.2819   -2.6651 C   0  0  0  0  0  0  0  0  0  0  0  0
    3.9242   -2.2720   -2.2666 C   0  0  0  0  0  0  0  0  0  0  0  0
    3.4178   -0.8518   -2.3692 C   0  0  0  0  0  0  0  0  0  0  0  0
    3.1051   -3.1492   -3.2251 C   0  0  0  0  0  0  0  0  0  0  0  0
    4.0231   -2.7756   -0.8089 C   0  0  1  0  0  0  0  0  0  0  0  0
    2.7622   -3.3170   -0.1805 C   0  0  1  0  0  0  0  0  0  0  0  0
    2.2232   -4.5497   -0.6467 O   0  0  0  0  0  0  0  0  0  0  0  0
    2.9637   -4.5892    0.5831 C   0  0  1  0  0  0  0  0  0  0  0  0
    4.4145   -5.1413    0.5683 C   0  0  2  0  0  0  0  0  0  0  0  0
    4.6434   -5.2332   -0.8645 O   0  0  0  0  0  0  0  0  0  0  0  0
    8.4394   -5.7010    0.4077 H   0  0  0  0  0  0  0  0  0  0  0  0
    9.1406   -6.1763    1.9361 H   0  0  0  0  0  0  0  0  0  0  0  0
    9.0420   -4.4734    1.5267 H   0  0  0  0  0  0  0  0  0  0  0  0
    7.4699   -5.3201    3.2421 H   0  0  0  0  0  0  0  0  0  0  0  0
    6.3552   -7.0793    1.0751 H   0  0  0  0  0  0  0  0  0  0  0  0
    6.2277   -7.2235    2.8186 H   0  0  0  0  0  0  0  0  0  0  0  0
    3.9375   -6.4511    2.2921 H   0  0  0  0  0  0  0  0  0  0  0  0
    4.3553   -2.6416    3.6984 H   0  0  0  0  0  0  0  0  0  0  0  0
    3.0349   -3.6742    3.2067 H   0  0  0  0  0  0  0  0  0  0  0  0
    3.9848   -2.7442    2.0294 H   0  0  0  0  0  0  0  0  0  0  0  0
    5.8852   -4.0893    4.8016 H   0  0  0  0  0  0  0  0  0  0  0  0
    5.8041   -5.8230    4.5069 H   0  0  0  0  0  0  0  0  0  0  0  0
    4.3521   -4.9500    4.8697 H   0  0  0  0  0  0  0  0  0  0  0  0
    6.6430   -3.1203    2.0889 H   0  0  0  0  0  0  0  0  0  0  0  0
    6.5287   -4.9707    0.0209 H   0  0  0  0  0  0  0  0  0  0  0  0
    7.0594   -3.1919   -1.6515 H   0  0  0  0  0  0  0  0  0  0  0  0
    6.1034   -4.2527   -2.6787 H   0  0  0  0  0  0  0  0  0  0  0  0
    5.8623   -1.3643   -2.3180 H   0  0  0  0  0  0  0  0  0  0  0  0
    5.4678   -2.3202   -3.7461 H   0  0  0  0  0  0  0  0  0  0  0  0
    2.3953   -0.7873   -2.0436 H   0  0  0  0  0  0  0  0  0  0  0  0
    3.4624   -0.4499   -3.3825 H   0  0  0  0  0  0  0  0  0  0  0  0
    4.0341   -0.2437   -1.7105 H   0  0  0  0  0  0  0  0  0  0  0  0
    2.0526   -3.1769   -2.9425 H   0  0  0  0  0  0  0  0  0  0  0  0
    3.4915   -4.1684   -3.2386 H   0  0  0  0  0  0  0  0  0  0  0  0
    3.1526   -2.7788   -4.2491 H   0  0  0  0  0  0  0  0  0  0  0  0
    4.3432   -1.9333   -0.1845 H   0  0  0  0  0  0  0  0  0  0  0  0
    2.0373   -2.6027    0.1941 H   0  0  0  0  0  0  0  0  0  0  0  0
    2.3434   -4.8009    1.4473 H   0  0  0  0  0  0  0  0  0  0  0  0
  1  2  1  0
  1 22  1  0
  1 23  1  0
  1 24  1  0
  2  8  1  0
  2  3  1  0
  2 25  1  1
  3  4  1  0
  3 26  1  0
  3 27  1  0
  4 20  1  0
  4  5  1  0
  4 28  1  1
  5  6  1  0
  5  7  1  0
  5  8  1  0
  6 29  1  0
  6 30  1  0
  6 31  1  0
  7 32  1  0
  7 33  1  0
  7 34  1  0
  8  9  1  0
  8 35  1  6
  9 20  1  0
  9 10  1  0
  9 36  1  6
 10 16  1  0
 10 21  1  6
 10 11  1  0
 11 12  1  0
 11 37  1  0
 11 38  1  0
 12 13  1  0
 12 39  1  0
 12 40  1  0
 13 14  1  0
 13 15  1  0
 13 16  1  0
 14 41  1  0
 14 42  1  0
 14 43  1  0
 15 44  1  0
 15 45  1  0
 15 46  1  0
 16 17  1  0
 16 47  1  1
 17 19  1  0
 17 18  1  0
 17 48  1  1
 18 19  1  0
 19 20  1  0
 19 49  1  1
 20 21  1  6
M  END
>  <i_m_ct_stereo_status>  (367) 
1

>  <s_m_source_file>  (367) 
/var/tmp/pbs.5076255.sched01/tmpl4jv_xt6/1264eazgjw7.sdf

>  <i_m_source_file_index>  (367) 
18

>  <i_lp_mmshare_version>  (367) 
48012

>  <i_f3d_flags>  (367) 
0

>  <s_epik_input>  (367) 
W0NIM11DMShbQ0gzXSlbQ0BIXTJbQ0BIXShbQ0gzXSlbQ0gyXVtDQEBIXTFbQ0BdKE8zKShbQ0BIXTJbQ0BdMzQ1KVtDQEhdNltDQEhdKE82KVtDQEBIXTVDKFtDSDNdKShbQ0gzXSlbQ0gyXVtDSDJdNA==

>  <s_epik_cmdline>  (367) 
J2VwaWtfcHl0aG9uJywgJy1waHQnLCAnMi4wJywgJy1waCcsICc3LjAnLCAnLXRuJywgJzgnLCAnLW1hJywgJzIwMCcsICctaW1hZScsICc8aW5maWxlLm1hZT4nLCAnLW9tYWUnLCAnPG91dGZpbGUubWFlPic=

>  <r_lp_tautomer_probability>  (367) 
1

>  <r_epik_Ionization_Penalty>  (367) 
5.84634e-11

>  <r_epik_Ionization_Penalty_Charging>  (367) 
0

>  <r_epik_Ionization_Penalty_Neutral>  (367) 
5.84634e-11

>  <r_epik_State_Penalty>  (367) 
-0

>  <r_epik_Charging_Adjusted_Penalty>  (367) 
0

>  <i_epik_Tot_Q>  (367) 
0

>  <i_epik_Tot_abs_Q>  (367) 
0

>  <s_lp_Force_Field>  (367) 
OPLS3e

>  <r_lp_Energy>  (367) 
153.625

>  <b_lp_Chiralities_Consistent>  (367) 
1

>  <s_lp_Variant>  (367) 
104:0-1

>  <s_i_glide_gridfile>  (367) 
pfpi4k_grid

>  <i_i_glide_lignum>  (367) 
18

>  <i_i_glide_rotatable_bonds>  (367) 
0

>  <r_i_docking_score>  (367) 
-2.53851

>  <r_i_glide_ligand_efficiency>  (367) 
-0.120881

>  <r_i_glide_ligand_efficiency_sa>  (367) 
-0.333503

>  <r_i_glide_ligand_efficiency_ln>  (367) 
-0.627641

>  <r_i_glide_gscore>  (367) 
-2.53851

>  <r_i_glide_lipo>  (367) 
-0.748483

>  <r_i_glide_hbond>  (367) 
0

>  <r_i_glide_metal>  (367) 
-0

>  <r_i_glide_rewards>  (367) 
-1.44256

>  <r_i_glide_evdw>  (367) 
-14.1598

>  <r_i_glide_ecoul>  (367) 
2.4035

>  <r_i_glide_erotb>  (367) 
0

>  <r_i_glide_esite>  (367) 
0

>  <r_i_glide_emodel>  (367) 
-15.176

>  <r_i_glide_energy>  (367) 
-11.7563

>  <r_i_glide_einternal>  (367) 
0

>  <r_i_glide_intrahb_reward>  (367) 
-0

>  <i_i_glide_confnum>  (367) 
2

>  <i_i_glide_posenum>  (367) 
27

>  <r_i_glide_eff_state_penalty>  (367) 
0

>  <ligand_id>  (367) 
104

>  <original_smiles>  (367) 
CC1CC2C(C)(C)C1C1C34CCC(C)(C)C3C3OC3C21O4

>  <smiles>  (367) 
[H]C([H])([H])C1([H])C([H])([H])C2([H])C34OC5(C([H])([H])C([H])([H])C(C([H])([H])[H])(C([H])([H])[H])C5([H])C5([H])OC53[H])C4([H])C1([H])C2(C([H])([H])[H])C([H])([H])[H]

$$$$
105:0:0
     RDKit          3D

 69 74  0  0  1  0  0  0  0  0999 V2000
    6.5208   -3.2385   -2.3182 C   0  0  0  0  0  0  0  0  0  0  0  0
    5.3773   -3.1513   -1.3253 C   0  0  0  0  0  0  0  0  0  0  0  0
    5.5154   -3.2210    0.0235 C   0  0  0  0  0  0  0  0  0  0  0  0
    6.8557   -3.3918    0.7318 C   0  0  0  0  0  0  0  0  0  0  0  0
    6.8765   -4.6249    1.5388 N   0  0  0  0  0  0  0  0  0  0  0  0
    7.8837   -5.5132    1.3882 C   0  0  0  0  0  0  0  0  0  0  0  0
    8.7367   -5.4220    0.5047 O   0  0  0  0  0  0  0  0  0  0  0  0
    7.9961   -6.6658    2.3740 C   0  0  0  0  0  0  0  0  0  0  0  0
    7.3246   -6.3409    3.7165 C   0  0  0  0  0  0  0  0  0  0  0  0
    5.8377   -5.9123    3.5709 C   0  0  2  0  0  0  0  0  0  0  0  0
    5.4314   -5.3651    4.9649 C   0  0  0  0  0  0  0  0  0  0  0  0
    4.9684   -7.1906    3.1713 C   0  0  1  0  0  0  0  0  0  0  0  0
    4.4682   -8.0701    4.3583 C   0  0  0  0  0  0  0  0  0  0  0  0
    3.4321   -9.1255    3.9274 C   0  0  0  0  0  0  0  0  0  0  0  0
    2.1161   -8.5044    3.3774 C   0  0  1  0  0  0  0  0  0  0  0  0
    1.4674   -9.5543    2.4494 C   0  0  0  0  0  0  0  0  0  0  0  0
    1.0605   -8.0992    4.4586 C   0  0  1  0  0  0  0  0  0  0  0  0
    1.5756   -8.0103    5.7722 O   0  0  0  0  0  0  0  0  0  0  0  0
    0.5674   -6.7058    4.0616 C   0  0  0  0  0  0  0  0  0  0  0  0
    1.7857   -6.0605    3.4113 C   0  0  0  0  0  0  0  0  0  0  0  0
    2.3954   -7.1934    2.5827 C   0  0  1  0  0  0  0  0  0  0  0  0
    3.8637   -7.0206    2.0859 C   0  0  1  0  0  0  0  0  0  0  0  0
    4.1427   -5.8746    1.0941 C   0  0  1  0  0  0  0  0  0  0  0  0
    3.1285   -5.8519    0.1051 O   0  0  0  0  0  0  0  0  0  0  0  0
    4.3945   -4.5393    1.8516 C   0  0  1  0  0  0  0  0  0  0  0  0
    5.7806   -4.7100    2.5453 C   0  0  2  0  0  0  0  0  0  0  0  0
    4.3419   -3.2069    1.0106 C   0  0  1  0  0  0  0  0  0  0  0  0
    4.4234   -1.9505    1.9210 C   0  0  0  0  0  0  0  0  0  0  0  0
    3.0176   -3.0495    0.2775 C   0  0  0  0  0  0  0  0  0  0  0  0
    2.8777   -2.9519   -1.0595 C   0  0  0  0  0  0  0  0  0  0  0  0
    4.0414   -2.9731   -1.9451 C   0  0  0  0  0  0  0  0  0  0  0  0
    3.8988   -2.8424   -3.1648 O   0  0  0  0  0  0  0  0  0  0  0  0
    6.8550   -2.2555   -2.6121 H   0  0  0  0  0  0  0  0  0  0  0  0
    6.2142   -3.7719   -3.2159 H   0  0  0  0  0  0  0  0  0  0  0  0
    7.3841   -3.7835   -1.9456 H   0  0  0  0  0  0  0  0  0  0  0  0
    7.6949   -3.3104    0.0424 H   0  0  0  0  0  0  0  0  0  0  0  0
    7.0102   -2.5320    1.3824 H   0  0  0  0  0  0  0  0  0  0  0  0
    7.5798   -7.5491    1.9001 H   0  0  0  0  0  0  0  0  0  0  0  0
    9.0462   -6.8860    2.5373 H   0  0  0  0  0  0  0  0  0  0  0  0
    7.4209   -7.1925    4.3947 H   0  0  0  0  0  0  0  0  0  0  0  0
    7.8880   -5.5255    4.1834 H   0  0  0  0  0  0  0  0  0  0  0  0
    4.3849   -5.0677    5.0102 H   0  0  0  0  0  0  0  0  0  0  0  0
    6.0196   -4.4915    5.2467 H   0  0  0  0  0  0  0  0  0  0  0  0
    5.6121   -6.0881    5.7605 H   0  0  0  0  0  0  0  0  0  0  0  0
    5.6575   -7.8658    2.6740 H   0  0  0  0  0  0  0  0  0  0  0  0
    5.3197   -8.5810    4.8099 H   0  0  0  0  0  0  0  0  0  0  0  0
    4.0252   -7.4812    5.1532 H   0  0  0  0  0  0  0  0  0  0  0  0
    3.8880   -9.7712    3.1792 H   0  0  0  0  0  0  0  0  0  0  0  0
    3.2114   -9.7880    4.7626 H   0  0  0  0  0  0  0  0  0  0  0  0
    0.5207   -9.1895    2.0472 H   0  0  0  0  0  0  0  0  0  0  0  0
    1.2593  -10.4896    2.9719 H   0  0  0  0  0  0  0  0  0  0  0  0
    2.1141   -9.7853    1.6011 H   0  0  0  0  0  0  0  0  0  0  0  0
    0.2225   -8.7977    4.4962 H   0  0  0  0  0  0  0  0  0  0  0  0
    1.8020   -8.8855    6.0556 H   0  0  0  0  0  0  0  0  0  0  0  0
   -0.2286   -6.7989    3.3233 H   0  0  0  0  0  0  0  0  0  0  0  0
    0.1780   -6.1273    4.8982 H   0  0  0  0  0  0  0  0  0  0  0  0
    1.5173   -5.1952    2.8056 H   0  0  0  0  0  0  0  0  0  0  0  0
    2.4732   -5.7399    4.1919 H   0  0  0  0  0  0  0  0  0  0  0  0
    1.7721   -7.2444    1.6903 H   0  0  0  0  0  0  0  0  0  0  0  0
    3.9752   -7.9072    1.4622 H   0  0  0  0  0  0  0  0  0  0  0  0
    5.0483   -6.1381    0.5501 H   0  0  0  0  0  0  0  0  0  0  0  0
    3.5075   -5.6342   -0.7403 H   0  0  0  0  0  0  0  0  0  0  0  0
    3.6470   -4.4222    2.6270 H   0  0  0  0  0  0  0  0  0  0  0  0
    5.9387   -3.8186    3.1444 H   0  0  0  0  0  0  0  0  0  0  0  0
    4.3923   -1.0336    1.3262 H   0  0  0  0  0  0  0  0  0  0  0  0
    5.3218   -1.8813    2.5312 H   0  0  0  0  0  0  0  0  0  0  0  0
    3.5813   -1.9170    2.6131 H   0  0  0  0  0  0  0  0  0  0  0  0
    2.1420   -2.9939    0.9054 H   0  0  0  0  0  0  0  0  0  0  0  0
    1.9097   -2.8143   -1.5155 H   0  0  0  0  0  0  0  0  0  0  0  0
  1  2  1  0
  1 33  1  0
  1 34  1  0
  1 35  1  0
  2 31  1  0
  2  3  2  0
  3 27  1  0
  3  4  1  0
  4  5  1  0
  4 36  1  0
  4 37  1  0
  5 26  1  0
  5  6  1  0
  6  7  2  0
  6  8  1  0
  8  9  1  0
  8 38  1  0
  8 39  1  0
  9 10  1  0
  9 40  1  0
  9 41  1  0
 10 26  1  0
 10 11  1  1
 10 12  1  0
 11 42  1  0
 11 43  1  0
 11 44  1  0
 12 22  1  0
 12 13  1  0
 12 45  1  6
 13 14  1  0
 13 46  1  0
 13 47  1  0
 14 15  1  0
 14 48  1  0
 14 49  1  0
 15 21  1  0
 15 16  1  6
 15 17  1  0
 16 50  1  0
 16 51  1  0
 16 52  1  0
 17 18  1  0
 17 19  1  0
 17 53  1  1
 18 54  1  0
 19 20  1  0
 19 55  1  0
 19 56  1  0
 20 21  1  0
 20 57  1  0
 20 58  1  0
 21 22  1  0
 21 59  1  6
 22 23  1  0
 22 60  1  6
 23 24  1  0
 23 25  1  0
 23 61  1  6
 24 62  1  0
 25 26  1  0
 25 27  1  0
 25 63  1  1
 26 64  1  1
 27 28  1  1
 27 29  1  0
 28 65  1  0
 28 66  1  0
 28 67  1  0
 29 30  2  0
 29 68  1  0
 30 31  1  0
 30 69  1  0
 31 32  2  0
M  END
>  <i_m_ct_stereo_status>  (368) 
1

>  <s_m_source_file>  (368) 
/var/tmp/pbs.5076255.sched01/tmpl4jv_xt6/1264eazgjw7.sdf

>  <i_m_source_file_index>  (368) 
19

>  <i_lp_mmshare_version>  (368) 
48012

>  <i_f3d_flags>  (368) 
0

>  <s_epik_input>  (368) 
W0NIM11DPTFDKD1PKVtDSF09W0NIXVtDQF0yKFtDSDNdKUMxW0NIMl1OKEMoPU8pW0NIMl1bQ0gyXTMpW0NASF00W0NAQEhdMltDQEhdKFtPSF0pW0NAQEhdKFtDQEhdNVtDQEBdMzRbQ0gzXSlbQ0BIXTZbQ0BAXShbQ0gzXSkoW0NIMl1bQ0gyXTUpW0NAQEhdKFtPSF0pW0NIMl1bQ0gyXTY=

>  <s_epik_cmdline>  (368) 
J2VwaWtfcHl0aG9uJywgJy1waHQnLCAnMi4wJywgJy1waCcsICc3LjAnLCAnLXRuJywgJzgnLCAnLW1hJywgJzIwMCcsICctaW1hZScsICc8aW5maWxlLm1hZT4nLCAnLW9tYWUnLCAnPG91dGZpbGUubWFlPic=

>  <r_lp_tautomer_probability>  (368) 
1

>  <r_epik_Ionization_Penalty>  (368) 
2.78398e-06

>  <r_epik_Ionization_Penalty_Charging>  (368) 
0

>  <r_epik_Ionization_Penalty_Neutral>  (368) 
2.78398e-06

>  <r_epik_State_Penalty>  (368) 
-0

>  <r_epik_Charging_Adjusted_Penalty>  (368) 
0

>  <i_epik_Tot_Q>  (368) 
0

>  <i_epik_Tot_abs_Q>  (368) 
0

>  <s_lp_Force_Field>  (368) 
OPLS3e

>  <r_lp_Energy>  (368) 
84.3133

>  <b_lp_Chiralities_Consistent>  (368) 
1

>  <s_lp_Variant>  (368) 
105:0-1

>  <s_i_glide_gridfile>  (368) 
pfpi4k_grid

>  <i_i_glide_lignum>  (368) 
19

>  <i_i_glide_rotatable_bonds>  (368) 
2

>  <r_i_docking_score>  (368) 
-3.74755

>  <r_i_glide_ligand_efficiency>  (368) 
-0.117111

>  <r_i_glide_ligand_efficiency_sa>  (368) 
-0.371804

>  <r_i_glide_ligand_efficiency_ln>  (368) 
-0.839179

>  <r_i_glide_gscore>  (368) 
-3.74755

>  <r_i_glide_lipo>  (368) 
-0.553754

>  <r_i_glide_hbond>  (368) 
-0.197711

>  <r_i_glide_metal>  (368) 
-0

>  <r_i_glide_rewards>  (368) 
-0.650532

>  <r_i_glide_evdw>  (368) 
-30.091

>  <r_i_glide_ecoul>  (368) 
-5.48209

>  <r_i_glide_erotb>  (368) 
0

>  <r_i_glide_esite>  (368) 
-0.0186933

>  <r_i_glide_emodel>  (368) 
-43.3467

>  <r_i_glide_energy>  (368) 
-35.5731

>  <r_i_glide_einternal>  (368) 
1.25856

>  <r_i_glide_intrahb_reward>  (368) 
-0

>  <i_i_glide_confnum>  (368) 
2

>  <i_i_glide_posenum>  (368) 
11

>  <r_i_glide_eff_state_penalty>  (368) 
0

>  <ligand_id>  (368) 
105

>  <original_smiles>  (368) 
CC1=C2CN3C(=O)CCC4(C)C5CCC6(C)C(O)CCC6C5C(O)C(C34)C2(C)C=CC1=O

>  <smiles>  (368) 
[H]OC1([H])C2([H])C3(C([H])([H])[H])C([H])=C([H])C(=O)C(C([H])([H])[H])=C3C([H])([H])N3C(=O)C([H])([H])C([H])([H])C(C([H])([H])[H])(C32[H])C2([H])C([H])([H])C([H])([H])C3(C([H])([H])[H])C([H])(O[H])C([H])([H])C([H])([H])C3([H])C12[H]

$$$$
105:0:1
     RDKit          3D

 69 74  0  0  1  0  0  0  0  0999 V2000
    7.1850   -4.2122    0.2380 C   0  0  0  0  0  0  0  0  0  0  0  0
    6.1653   -4.0821    1.3705 C   0  0  0  0  0  0  0  0  0  0  0  0
    6.0590   -4.9300    2.4254 C   0  0  0  0  0  0  0  0  0  0  0  0
    6.9771   -6.1297    2.6492 C   0  0  0  0  0  0  0  0  0  0  0  0
    6.1987   -7.3803    2.6989 N   0  0  0  0  0  0  0  0  0  0  0  0
    6.5484   -8.4224    1.9154 C   0  0  0  0  0  0  0  0  0  0  0  0
    7.4195   -8.3456    1.0556 O   0  0  0  0  0  0  0  0  0  0  0  0
    5.8652   -9.7644    2.1063 C   0  0  0  0  0  0  0  0  0  0  0  0
    5.3217   -9.9165    3.5340 C   0  0  0  0  0  0  0  0  0  0  0  0
    4.3632   -8.7693    3.9492 C   0  0  2  0  0  0  0  0  0  0  0  0
    4.1573   -8.9394    5.4772 C   0  0  0  0  0  0  0  0  0  0  0  0
    2.9905   -8.9300    3.1517 C   0  0  1  0  0  0  0  0  0  0  0  0
    1.9350   -9.8738    3.7994 C   0  0  0  0  0  0  0  0  0  0  0  0
    0.5542   -9.7818    3.1261 C   0  0  0  0  0  0  0  0  0  0  0  0
   -0.1028   -8.3791    3.2641 C   0  0  1  0  0  0  0  0  0  0  0  0
   -1.1037   -8.2112    2.1033 C   0  0  0  0  0  0  0  0  0  0  0  0
   -0.8754   -8.1325    4.5946 C   0  0  1  0  0  0  0  0  0  0  0  0
   -0.5867   -9.0549    5.6210 O   0  0  0  0  0  0  0  0  0  0  0  0
   -0.4474   -6.7480    5.0827 C   0  0  0  0  0  0  0  0  0  0  0  0
    0.9912   -6.6228    4.6123 C   0  0  0  0  0  0  0  0  0  0  0  0
    0.9613   -7.2417    3.2130 C   0  0  1  0  0  0  0  0  0  0  0  0
    2.3212   -7.6509    2.5708 C   0  0  1  0  0  0  0  0  0  0  0  0
    3.3206   -6.5170    2.2744 C   0  0  1  0  0  0  0  0  0  0  0  0
    2.6265   -5.4473    1.6734 O   0  0  0  0  0  0  0  0  0  0  0  0
    4.1754   -6.1745    3.5290 C   0  0  1  0  0  0  0  0  0  0  0  0
    5.1237   -7.3974    3.7262 C   0  0  2  0  0  0  0  0  0  0  0  0
    4.9801   -4.8193    3.5141 C   0  0  1  0  0  0  0  0  0  0  0  0
    5.6310   -4.5380    4.8966 C   0  0  0  0  0  0  0  0  0  0  0  0
    4.0846   -3.6056    3.2770 C   0  0  0  0  0  0  0  0  0  0  0  0
    4.2077   -2.7356    2.2617 C   0  0  0  0  0  0  0  0  0  0  0  0
    5.2569   -2.9083    1.2426 C   0  0  0  0  0  0  0  0  0  0  0  0
    5.3609   -2.0996    0.3261 O   0  0  0  0  0  0  0  0  0  0  0  0
    8.0490   -3.5761    0.4245 H   0  0  0  0  0  0  0  0  0  0  0  0
    6.7533   -3.9143   -0.7190 H   0  0  0  0  0  0  0  0  0  0  0  0
    7.5289   -5.2333    0.0837 H   0  0  0  0  0  0  0  0  0  0  0  0
    7.7985   -6.1543    1.9322 H   0  0  0  0  0  0  0  0  0  0  0  0
    7.5104   -5.9997    3.5919 H   0  0  0  0  0  0  0  0  0  0  0  0
    5.0916   -9.8646    1.3481 H   0  0  0  0  0  0  0  0  0  0  0  0
    6.5826  -10.5573    1.8968 H   0  0  0  0  0  0  0  0  0  0  0  0
    4.8389  -10.8895    3.6425 H   0  0  0  0  0  0  0  0  0  0  0  0
    6.1808   -9.9296    4.2104 H   0  0  0  0  0  0  0  0  0  0  0  0
    3.4644   -8.2118    5.8925 H   0  0  0  0  0  0  0  0  0  0  0  0
    5.0918   -8.8346    6.0283 H   0  0  0  0  0  0  0  0  0  0  0  0
    3.7982   -9.9360    5.7335 H   0  0  0  0  0  0  0  0  0  0  0  0
    3.2424   -9.4685    2.2426 H   0  0  0  0  0  0  0  0  0  0  0  0
    2.2877  -10.9016    3.7300 H   0  0  0  0  0  0  0  0  0  0  0  0
    1.7995   -9.6838    4.8596 H   0  0  0  0  0  0  0  0  0  0  0  0
    0.6613  -10.0492    2.0750 H   0  0  0  0  0  0  0  0  0  0  0  0
   -0.1070  -10.5424    3.5374 H   0  0  0  0  0  0  0  0  0  0  0  0
   -1.6249   -7.2544    2.1558 H   0  0  0  0  0  0  0  0  0  0  0  0
   -1.8600   -8.9999    2.1013 H   0  0  0  0  0  0  0  0  0  0  0  0
   -0.5877   -8.2438    1.1459 H   0  0  0  0  0  0  0  0  0  0  0  0
   -1.9556   -8.1653    4.4615 H   0  0  0  0  0  0  0  0  0  0  0  0
   -1.0783   -9.8623    5.4425 H   0  0  0  0  0  0  0  0  0  0  0  0
   -1.0448   -5.9820    4.5928 H   0  0  0  0  0  0  0  0  0  0  0  0
   -0.5526   -6.6065    6.1589 H   0  0  0  0  0  0  0  0  0  0  0  0
    1.3317   -5.5866    4.6074 H   0  0  0  0  0  0  0  0  0  0  0  0
    1.6298   -7.1995    5.2768 H   0  0  0  0  0  0  0  0  0  0  0  0
    0.5390   -6.4605    2.5821 H   0  0  0  0  0  0  0  0  0  0  0  0
    1.9985   -7.9504    1.5732 H   0  0  0  0  0  0  0  0  0  0  0  0
    3.9884   -6.8692    1.4880 H   0  0  0  0  0  0  0  0  0  0  0  0
    3.2777   -4.8282    1.3680 H   0  0  0  0  0  0  0  0  0  0  0  0
    3.5246   -6.1130    4.3926 H   0  0  0  0  0  0  0  0  0  0  0  0
    5.6880   -7.2304    4.6396 H   0  0  0  0  0  0  0  0  0  0  0  0
    6.1920   -3.6005    4.8831 H   0  0  0  0  0  0  0  0  0  0  0  0
    6.3295   -5.2979    5.2410 H   0  0  0  0  0  0  0  0  0  0  0  0
    4.8711   -4.4467    5.6729 H   0  0  0  0  0  0  0  0  0  0  0  0
    3.3012   -3.4575    4.0084 H   0  0  0  0  0  0  0  0  0  0  0  0
    3.5425   -1.8907    2.1597 H   0  0  0  0  0  0  0  0  0  0  0  0
  1  2  1  0
  1 33  1  0
  1 34  1  0
  1 35  1  0
  2 31  1  0
  2  3  2  0
  3 27  1  0
  3  4  1  0
  4  5  1  0
  4 36  1  0
  4 37  1  0
  5 26  1  0
  5  6  1  0
  6  7  2  0
  6  8  1  0
  8  9  1  0
  8 38  1  0
  8 39  1  0
  9 10  1  0
  9 40  1  0
  9 41  1  0
 10 26  1  0
 10 11  1  1
 10 12  1  0
 11 42  1  0
 11 43  1  0
 11 44  1  0
 12 22  1  0
 12 13  1  0
 12 45  1  6
 13 14  1  0
 13 46  1  0
 13 47  1  0
 14 15  1  0
 14 48  1  0
 14 49  1  0
 15 21  1  0
 15 16  1  6
 15 17  1  0
 16 50  1  0
 16 51  1  0
 16 52  1  0
 17 18  1  0
 17 19  1  0
 17 53  1  6
 18 54  1  0
 19 20  1  0
 19 55  1  0
 19 56  1  0
 20 21  1  0
 20 57  1  0
 20 58  1  0
 21 22  1  0
 21 59  1  6
 22 23  1  0
 22 60  1  6
 23 24  1  0
 23 25  1  0
 23 61  1  6
 24 62  1  0
 25 26  1  0
 25 27  1  0
 25 63  1  1
 26 64  1  1
 27 28  1  1
 27 29  1  0
 28 65  1  0
 28 66  1  0
 28 67  1  0
 29 30  2  0
 29 68  1  0
 30 31  1  0
 30 69  1  0
 31 32  2  0
M  END
>  <i_m_ct_stereo_status>  (369) 
1

>  <s_m_source_file>  (369) 
/var/tmp/pbs.5076255.sched01/tmpl4jv_xt6/1264eazgjw7.sdf

>  <i_m_source_file_index>  (369) 
19

>  <i_lp_mmshare_version>  (369) 
48012

>  <i_f3d_flags>  (369) 
0

>  <s_epik_input>  (369) 
W0NIM11DPTFDKD1PKVtDSF09W0NIXVtDQF0yKFtDSDNdKUMxW0NIMl1OKEMoPU8pW0NIMl1bQ0gyXTMpW0NASF00W0NAQEhdMltDQEhdKFtPSF0pW0NAQEhdKFtDQEhdNVtDQEBdMzRbQ0gzXSlbQ0BIXTZbQ0BAXShbQ0gzXSkoW0NIMl1bQ0gyXTUpW0NAQEhdKFtPSF0pW0NIMl1bQ0gyXTY=

>  <s_epik_cmdline>  (369) 
J2VwaWtfcHl0aG9uJywgJy1waHQnLCAnMi4wJywgJy1waCcsICc3LjAnLCAnLXRuJywgJzgnLCAnLW1hJywgJzIwMCcsICctaW1hZScsICc8aW5maWxlLm1hZT4nLCAnLW9tYWUnLCAnPG91dGZpbGUubWFlPic=

>  <r_lp_tautomer_probability>  (369) 
1

>  <r_epik_Ionization_Penalty>  (369) 
2.78398e-06

>  <r_epik_Ionization_Penalty_Charging>  (369) 
0

>  <r_epik_Ionization_Penalty_Neutral>  (369) 
2.78398e-06

>  <r_epik_State_Penalty>  (369) 
-0

>  <r_epik_Charging_Adjusted_Penalty>  (369) 
0

>  <i_epik_Tot_Q>  (369) 
0

>  <i_epik_Tot_abs_Q>  (369) 
0

>  <s_lp_Force_Field>  (369) 
OPLS3e

>  <r_lp_Energy>  (369) 
84.3133

>  <b_lp_Chiralities_Consistent>  (369) 
1

>  <s_lp_Variant>  (369) 
105:0-1

>  <s_i_glide_gridfile>  (369) 
pfpi4k_grid

>  <i_i_glide_lignum>  (369) 
19

>  <i_i_glide_rotatable_bonds>  (369) 
2

>  <r_i_docking_score>  (369) 
-3.21056

>  <r_i_glide_ligand_efficiency>  (369) 
-0.10033

>  <r_i_glide_ligand_efficiency_sa>  (369) 
-0.318528

>  <r_i_glide_ligand_efficiency_ln>  (369) 
-0.718932

>  <r_i_glide_gscore>  (369) 
-3.21056

>  <r_i_glide_lipo>  (369) 
-0.279673

>  <r_i_glide_hbond>  (369) 
-0.16

>  <r_i_glide_metal>  (369) 
-0

>  <r_i_glide_rewards>  (369) 
-0.634774

>  <r_i_glide_evdw>  (369) 
-27.8614

>  <r_i_glide_ecoul>  (369) 
-4.95361

>  <r_i_glide_erotb>  (369) 
0

>  <r_i_glide_esite>  (369) 
0

>  <r_i_glide_emodel>  (369) 
-39.6488

>  <r_i_glide_energy>  (369) 
-32.815

>  <r_i_glide_einternal>  (369) 
0.827593

>  <r_i_glide_intrahb_reward>  (369) 
-0

>  <i_i_glide_confnum>  (369) 
1

>  <i_i_glide_posenum>  (369) 
26

>  <r_i_glide_eff_state_penalty>  (369) 
0

>  <ligand_id>  (369) 
105

>  <original_smiles>  (369) 
CC1=C2CN3C(=O)CCC4(C)C5CCC6(C)C(O)CCC6C5C(O)C(C34)C2(C)C=CC1=O

>  <smiles>  (369) 
[H]OC1([H])C2([H])C3(C([H])([H])[H])C([H])=C([H])C(=O)C(C([H])([H])[H])=C3C([H])([H])N3C(=O)C([H])([H])C([H])([H])C(C([H])([H])[H])(C32[H])C2([H])C([H])([H])C([H])([H])C3(C([H])([H])[H])C([H])(O[H])C([H])([H])C([H])([H])C3([H])C12[H]

$$$$
105:0:2
     RDKit          3D

 69 74  0  0  1  0  0  0  0  0999 V2000
   -0.9375   -7.2444    4.5109 C   0  0  0  0  0  0  0  0  0  0  0  0
    0.4600   -7.2822    3.8988 C   0  0  0  0  0  0  0  0  0  0  0  0
    1.4972   -6.4876    4.2721 C   0  0  0  0  0  0  0  0  0  0  0  0
    1.4133   -5.4431    5.3868 C   0  0  0  0  0  0  0  0  0  0  0  0
    1.7060   -4.0930    4.8679 N   0  0  0  0  0  0  0  0  0  0  0  0
    0.8403   -3.0787    5.1023 C   0  0  0  0  0  0  0  0  0  0  0  0
   -0.2604   -3.2326    5.6278 O   0  0  0  0  0  0  0  0  0  0  0  0
    1.2511   -1.6608    4.7280 C   0  0  0  0  0  0  0  0  0  0  0  0
    2.7769   -1.5033    4.6934 C   0  0  0  0  0  0  0  0  0  0  0  0
    3.4754   -2.5177    3.7502 C   0  0  2  0  0  0  0  0  0  0  0  0
    4.9903   -2.3873    4.0611 C   0  0  0  0  0  0  0  0  0  0  0  0
    3.1605   -2.1246    2.2379 C   0  0  1  0  0  0  0  0  0  0  0  0
    4.1067   -1.0634    1.6014 C   0  0  0  0  0  0  0  0  0  0  0  0
    3.9191   -0.9301    0.0797 C   0  0  0  0  0  0  0  0  0  0  0  0
    4.2479   -2.2206   -0.7186 C   0  0  1  0  0  0  0  0  0  0  0  0
    3.4546   -2.1867   -2.0480 C   0  0  0  0  0  0  0  0  0  0  0  0
    5.7598   -2.4039   -1.0628 C   0  0  1  0  0  0  0  0  0  0  0  0
    6.6234   -1.5650   -0.3187 O   0  0  0  0  0  0  0  0  0  0  0  0
    6.0864   -3.8523   -0.7099 C   0  0  0  0  0  0  0  0  0  0  0  0
    5.1814   -4.1714    0.4689 C   0  0  0  0  0  0  0  0  0  0  0  0
    3.8627   -3.4956    0.0916 C   0  0  1  0  0  0  0  0  0  0  0  0
    2.8236   -3.2645    1.2307 C   0  0  1  0  0  0  0  0  0  0  0  0
    2.2367   -4.5262    1.8999 C   0  0  1  0  0  0  0  0  0  0  0  0
    1.8550   -5.4541    0.9005 O   0  0  0  0  0  0  0  0  0  0  0  0
    3.1516   -5.0377    3.0475 C   0  0  1  0  0  0  0  0  0  0  0  0
    3.0265   -3.9723    4.1846 C   0  0  2  0  0  0  0  0  0  0  0  0
    2.8745   -6.4913    3.5879 C   0  0  1  0  0  0  0  0  0  0  0  0
    3.9746   -6.9314    4.5888 C   0  0  0  0  0  0  0  0  0  0  0  0
    2.9380   -7.5455    2.4844 C   0  0  0  0  0  0  0  0  0  0  0  0
    1.9319   -8.3748    2.1474 C   0  0  0  0  0  0  0  0  0  0  0  0
    0.6340   -8.2995    2.8281 C   0  0  0  0  0  0  0  0  0  0  0  0
   -0.2793   -9.0602    2.5025 O   0  0  0  0  0  0  0  0  0  0  0  0
   -1.0237   -8.0158    5.2752 H   0  0  0  0  0  0  0  0  0  0  0  0
   -1.7116   -7.4283    3.7665 H   0  0  0  0  0  0  0  0  0  0  0  0
   -1.1908   -6.2847    4.9562 H   0  0  0  0  0  0  0  0  0  0  0  0
    0.4743   -5.5038    5.9310 H   0  0  0  0  0  0  0  0  0  0  0  0
    2.1421   -5.6871    6.1580 H   0  0  0  0  0  0  0  0  0  0  0  0
    0.7794   -1.4175    3.7815 H   0  0  0  0  0  0  0  0  0  0  0  0
    0.8277   -0.9741    5.4581 H   0  0  0  0  0  0  0  0  0  0  0  0
    3.0351   -0.4759    4.4260 H   0  0  0  0  0  0  0  0  0  0  0  0
    3.1483   -1.6461    5.7136 H   0  0  0  0  0  0  0  0  0  0  0  0
    5.6027   -3.0242    3.4273 H   0  0  0  0  0  0  0  0  0  0  0  0
    5.2197   -2.6561    5.0922 H   0  0  0  0  0  0  0  0  0  0  0  0
    5.3460   -1.3613    3.9587 H   0  0  0  0  0  0  0  0  0  0  0  0
    2.2167   -1.5847    2.2670 H   0  0  0  0  0  0  0  0  0  0  0  0
    3.9217   -0.0931    2.0636 H   0  0  0  0  0  0  0  0  0  0  0  0
    5.1536   -1.2796    1.7857 H   0  0  0  0  0  0  0  0  0  0  0  0
    2.8836   -0.6521   -0.0960 H   0  0  0  0  0  0  0  0  0  0  0  0
    4.5055   -0.0938   -0.2960 H   0  0  0  0  0  0  0  0  0  0  0  0
    3.6688   -3.0604   -2.6663 H   0  0  0  0  0  0  0  0  0  0  0  0
    3.6928   -1.2977   -2.6349 H   0  0  0  0  0  0  0  0  0  0  0  0
    2.3782   -2.1870   -1.8736 H   0  0  0  0  0  0  0  0  0  0  0  0
    5.9678   -2.2214   -2.1182 H   0  0  0  0  0  0  0  0  0  0  0  0
    6.4669   -1.7332    0.5987 H   0  0  0  0  0  0  0  0  0  0  0  0
    5.8015   -4.4892   -1.5474 H   0  0  0  0  0  0  0  0  0  0  0  0
    7.1423   -4.0269   -0.4980 H   0  0  0  0  0  0  0  0  0  0  0  0
    5.0727   -5.2459    0.6151 H   0  0  0  0  0  0  0  0  0  0  0  0
    5.6025   -3.7357    1.3728 H   0  0  0  0  0  0  0  0  0  0  0  0
    3.3991   -4.1730   -0.6261 H   0  0  0  0  0  0  0  0  0  0  0  0
    1.9827   -2.8645    0.6633 H   0  0  0  0  0  0  0  0  0  0  0  0
    1.2940   -4.2370    2.3595 H   0  0  0  0  0  0  0  0  0  0  0  0
    2.6268   -5.7037    0.4094 H   0  0  0  0  0  0  0  0  0  0  0  0
    4.1795   -5.0410    2.7007 H   0  0  0  0  0  0  0  0  0  0  0  0
    3.7159   -4.2590    4.9719 H   0  0  0  0  0  0  0  0  0  0  0  0
    3.7751   -7.9353    4.9689 H   0  0  0  0  0  0  0  0  0  0  0  0
    4.0808   -6.2934    5.4632 H   0  0  0  0  0  0  0  0  0  0  0  0
    4.9522   -6.9532    4.1068 H   0  0  0  0  0  0  0  0  0  0  0  0
    3.8758   -7.6206    1.9544 H   0  0  0  0  0  0  0  0  0  0  0  0
    2.0470   -9.1072    1.3612 H   0  0  0  0  0  0  0  0  0  0  0  0
  1  2  1  0
  1 33  1  0
  1 34  1  0
  1 35  1  0
  2 31  1  0
  2  3  2  0
  3 27  1  0
  3  4  1  0
  4  5  1  0
  4 36  1  0
  4 37  1  0
  5 26  1  0
  5  6  1  0
  6  7  2  0
  6  8  1  0
  8  9  1  0
  8 38  1  0
  8 39  1  0
  9 10  1  0
  9 40  1  0
  9 41  1  0
 10 26  1  0
 10 11  1  6
 10 12  1  0
 11 42  1  0
 11 43  1  0
 11 44  1  0
 12 22  1  0
 12 13  1  0
 12 45  1  1
 13 14  1  0
 13 46  1  0
 13 47  1  0
 14 15  1  0
 14 48  1  0
 14 49  1  0
 15 21  1  0
 15 16  1  6
 15 17  1  0
 16 50  1  0
 16 51  1  0
 16 52  1  0
 17 18  1  0
 17 19  1  0
 17 53  1  6
 18 54  1  0
 19 20  1  0
 19 55  1  0
 19 56  1  0
 20 21  1  0
 20 57  1  0
 20 58  1  0
 21 22  1  0
 21 59  1  6
 22 23  1  0
 22 60  1  6
 23 24  1  0
 23 25  1  0
 23 61  1  1
 24 62  1  0
 25 26  1  0
 25 27  1  0
 25 63  1  6
 26 64  1  1
 27 28  1  1
 27 29  1  0
 28 65  1  0
 28 66  1  0
 28 67  1  0
 29 30  2  0
 29 68  1  0
 30 31  1  0
 30 69  1  0
 31 32  2  0
M  END
>  <i_m_ct_stereo_status>  (370) 
1

>  <s_m_source_file>  (370) 
/var/tmp/pbs.5076255.sched01/tmpl4jv_xt6/1264eazgjw7.sdf

>  <i_m_source_file_index>  (370) 
19

>  <i_lp_mmshare_version>  (370) 
48012

>  <i_f3d_flags>  (370) 
0

>  <s_epik_input>  (370) 
W0NIM11DPTFDKD1PKVtDSF09W0NIXVtDQF0yKFtDSDNdKUMxW0NIMl1OKEMoPU8pW0NIMl1bQ0gyXTMpW0NASF00W0NAQEhdMltDQEhdKFtPSF0pW0NAQEhdKFtDQEhdNVtDQEBdMzRbQ0gzXSlbQ0BIXTZbQ0BAXShbQ0gzXSkoW0NIMl1bQ0gyXTUpW0NAQEhdKFtPSF0pW0NIMl1bQ0gyXTY=

>  <s_epik_cmdline>  (370) 
J2VwaWtfcHl0aG9uJywgJy1waHQnLCAnMi4wJywgJy1waCcsICc3LjAnLCAnLXRuJywgJzgnLCAnLW1hJywgJzIwMCcsICctaW1hZScsICc8aW5maWxlLm1hZT4nLCAnLW9tYWUnLCAnPG91dGZpbGUubWFlPic=

>  <r_lp_tautomer_probability>  (370) 
1

>  <r_epik_Ionization_Penalty>  (370) 
2.78398e-06

>  <r_epik_Ionization_Penalty_Charging>  (370) 
0

>  <r_epik_Ionization_Penalty_Neutral>  (370) 
2.78398e-06

>  <r_epik_State_Penalty>  (370) 
-0

>  <r_epik_Charging_Adjusted_Penalty>  (370) 
0

>  <i_epik_Tot_Q>  (370) 
0

>  <i_epik_Tot_abs_Q>  (370) 
0

>  <s_lp_Force_Field>  (370) 
OPLS3e

>  <r_lp_Energy>  (370) 
84.3133

>  <b_lp_Chiralities_Consistent>  (370) 
1

>  <s_lp_Variant>  (370) 
105:0-1

>  <s_i_glide_gridfile>  (370) 
pfpi4k_grid

>  <i_i_glide_lignum>  (370) 
19

>  <i_i_glide_rotatable_bonds>  (370) 
2

>  <r_i_docking_score>  (370) 
-3.12217

>  <r_i_glide_ligand_efficiency>  (370) 
-0.0975679

>  <r_i_glide_ligand_efficiency_sa>  (370) 
-0.309759

>  <r_i_glide_ligand_efficiency_ln>  (370) 
-0.69914

>  <r_i_glide_gscore>  (370) 
-3.12217

>  <r_i_glide_lipo>  (370) 
-0.175639

>  <r_i_glide_hbond>  (370) 
-0.212597

>  <r_i_glide_metal>  (370) 
-0

>  <r_i_glide_rewards>  (370) 
-0.41731

>  <r_i_glide_evdw>  (370) 
-29.5546

>  <r_i_glide_ecoul>  (370) 
-5.3953

>  <r_i_glide_erotb>  (370) 
0

>  <r_i_glide_esite>  (370) 
-0.0296028

>  <r_i_glide_emodel>  (370) 
-42.0405

>  <r_i_glide_energy>  (370) 
-34.9499

>  <r_i_glide_einternal>  (370) 
0.0250218

>  <r_i_glide_intrahb_reward>  (370) 
-0

>  <i_i_glide_confnum>  (370) 
2

>  <i_i_glide_posenum>  (370) 
23

>  <r_i_glide_eff_state_penalty>  (370) 
0

>  <ligand_id>  (370) 
105

>  <original_smiles>  (370) 
CC1=C2CN3C(=O)CCC4(C)C5CCC6(C)C(O)CCC6C5C(O)C(C34)C2(C)C=CC1=O

>  <smiles>  (370) 
[H]OC1([H])C2([H])C3(C([H])([H])[H])C([H])=C([H])C(=O)C(C([H])([H])[H])=C3C([H])([H])N3C(=O)C([H])([H])C([H])([H])C(C([H])([H])[H])(C32[H])C2([H])C([H])([H])C([H])([H])C3(C([H])([H])[H])C([H])(O[H])C([H])([H])C([H])([H])C3([H])C12[H]

$$$$
106:0:0
     RDKit          3D

 38 40  0  0  1  0  0  0  0  0999 V2000
   -3.2564    3.7765    8.7800 C   0  0  0  0  0  0  0  0  0  0  0  0
   -2.1892    2.6772    8.8020 C   0  0  0  0  0  0  0  0  0  0  0  0
   -2.0835    1.7764    7.2248 S   0  0  0  0  0  0  0  0  0  0  0  0
   -1.2057    3.0254    6.2349 C   0  0  0  0  0  0  0  0  0  0  0  0
   -0.6708    2.4879    4.8977 C   0  0  2  0  0  0  0  0  0  0  0  0
    0.3643    1.5312    5.1428 O   0  0  0  0  0  0  0  0  0  0  0  0
    1.4349    1.7206    4.2651 C   0  0  1  0  0  0  0  0  0  0  0  0
    1.7782    0.4126    3.6332 N   0  0  0  0  0  0  0  0  0  0  0  0
    0.9232   -0.5316    3.1121 C   0  0  0  0  0  0  0  0  0  0  0  0
    1.4970   -1.5581    2.5380 N   0  0  0  0  0  0  0  0  0  0  0  0
    2.8517   -1.2969    2.6890 C   0  0  0  0  0  0  0  0  0  0  0  0
    4.0322   -1.9837    2.3260 C   0  0  0  0  0  0  0  0  0  0  0  0
    4.0014   -3.1651    1.7014 N   0  0  0  0  0  0  0  0  0  0  0  0
    5.2324   -1.4502    2.6456 N   0  0  0  0  0  0  0  0  0  0  0  0
    5.2763   -0.2785    3.2860 C   0  0  0  0  0  0  0  0  0  0  0  0
    4.2527    0.4845    3.6873 N   0  0  0  0  0  0  0  0  0  0  0  0
    3.0440   -0.0729    3.3735 C   0  0  0  0  0  0  0  0  0  0  0  0
    0.9756    2.7419    3.2101 C   0  0  1  0  0  0  0  0  0  0  0  0
    0.3554    2.1396    2.0750 O   0  0  0  0  0  0  0  0  0  0  0  0
    0.0106    3.5686    4.0496 C   0  0  1  0  0  0  0  0  0  0  0  0
   -0.8911    4.3463    3.2806 O   0  0  0  0  0  0  0  0  0  0  0  0
    4.8568   -3.6412    1.4654 H   0  0  0  0  0  0  0  0  0  0  0  0
   -3.2922    4.2872    9.7409 H   0  0  0  0  0  0  0  0  0  0  0  0
   -4.2489    3.3653    8.5913 H   0  0  0  0  0  0  0  0  0  0  0  0
   -3.0438    4.5329    8.0258 H   0  0  0  0  0  0  0  0  0  0  0  0
   -1.2128    3.1002    9.0405 H   0  0  0  0  0  0  0  0  0  0  0  0
   -2.4189    1.9691    9.5961 H   0  0  0  0  0  0  0  0  0  0  0  0
   -1.8927    3.8460    6.0416 H   0  0  0  0  0  0  0  0  0  0  0  0
   -0.3767    3.4274    6.8196 H   0  0  0  0  0  0  0  0  0  0  0  0
   -1.4648    2.0098    4.3150 H   0  0  0  0  0  0  0  0  0  0  0  0
    2.3069    2.0373    4.8454 H   0  0  0  0  0  0  0  0  0  0  0  0
   -0.1444   -0.3853    3.1189 H   0  0  0  0  0  0  0  0  0  0  0  0
    3.0957   -3.5383    1.4607 H   0  0  0  0  0  0  0  0  0  0  0  0
    6.2669    0.1031    3.5190 H   0  0  0  0  0  0  0  0  0  0  0  0
    1.8362    3.3284    2.8837 H   0  0  0  0  0  0  0  0  0  0  0  0
    0.2135    2.8402    1.4206 H   0  0  0  0  0  0  0  0  0  0  0  0
    0.5838    4.2320    4.7038 H   0  0  0  0  0  0  0  0  0  0  0  0
   -0.5626    4.3671    2.3771 H   0  0  0  0  0  0  0  0  0  0  0  0
  1  2  1  0
  1 23  1  0
  1 24  1  0
  1 25  1  0
  2  3  1  0
  2 26  1  0
  2 27  1  0
  3  4  1  0
  4  5  1  0
  4 28  1  0
  4 29  1  0
  5 20  1  0
  5  6  1  0
  5 30  1  6
  6  7  1  0
  7 18  1  0
  7 31  1  1
  7  8  1  0
  8  9  1  0
  8 17  1  0
  9 10  2  0
  9 32  1  0
 10 11  1  0
 11 12  1  0
 11 17  2  0
 12 14  2  0
 12 13  1  0
 13 33  1  0
 13 22  1  0
 14 15  1  0
 15 34  1  0
 15 16  2  0
 16 17  1  0
 18 19  1  0
 18 20  1  0
 18 35  1  6
 19 36  1  0
 20 21  1  0
 20 37  1  1
 21 38  1  0
M  END
>  <i_m_ct_stereo_status>  (371) 
1

>  <s_m_source_file>  (371) 
/var/tmp/pbs.5076255.sched01/tmpl4jv_xt6/1264eazgjw7.sdf

>  <i_m_source_file_index>  (371) 
20

>  <i_lp_mmshare_version>  (371) 
48012

>  <i_f3d_flags>  (371) 
0

>  <s_epik_input>  (371) 
W0NIM11bQ0gyXVNbQ0gyXVtDQEBIXTFPW0NASF0oW0NAQEhdKFtPSF0pW0NASF0xW09IXSluKFtjSF1uMiljKGMyMyluW2NIXVtuSF1jXDM9TlxbSF0=

>  <s_epik_cmdline>  (371) 
J2VwaWtfcHl0aG9uJywgJy1waHQnLCAnMi4wJywgJy1waCcsICc3LjAnLCAnLXRuJywgJzgnLCAnLW1hJywgJzIwMCcsICctaW1hZScsICc8aW5maWxlLm1hZT4nLCAnLW9tYWUnLCAnPG91dGZpbGUubWFlPic=

>  <r_lp_tautomer_probability>  (371) 
1

>  <r_epik_Ionization_Penalty>  (371) 
0.000419501

>  <r_epik_Ionization_Penalty_Charging>  (371) 
0

>  <r_epik_Ionization_Penalty_Neutral>  (371) 
0.000419501

>  <r_epik_State_Penalty>  (371) 
-0

>  <r_epik_Charging_Adjusted_Penalty>  (371) 
0

>  <i_epik_Tot_Q>  (371) 
0

>  <i_epik_Tot_abs_Q>  (371) 
0

>  <s_epik_Chemistry_Notes>  (371) 
This compound contains an acetal/aminal-like group ( X-CH(R)-Y where X, Y are N, S, or O) that may be acid/base labile, releasing an aldehyde.

>  <s_lp_Force_Field>  (371) 
OPLS3e

>  <r_lp_Energy>  (371) 
15.472

>  <b_lp_Chiralities_Consistent>  (371) 
1

>  <s_lp_Variant>  (371) 
106:0-1

>  <s_i_glide_gridfile>  (371) 
pfpi4k_grid

>  <i_i_glide_lignum>  (371) 
20

>  <i_i_glide_rotatable_bonds>  (371) 
6

>  <r_i_docking_score>  (371) 
-3.33391

>  <r_i_glide_ligand_efficiency>  (371) 
-0.158757

>  <r_i_glide_ligand_efficiency_sa>  (371) 
-0.438

>  <r_i_glide_ligand_efficiency_ln>  (371) 
-0.824302

>  <r_i_glide_gscore>  (371) 
-3.33391

>  <r_i_glide_lipo>  (371) 
-0.0732223

>  <r_i_glide_hbond>  (371) 
0

>  <r_i_glide_metal>  (371) 
-0

>  <r_i_glide_rewards>  (371) 
-1.47589

>  <r_i_glide_evdw>  (371) 
-18.6505

>  <r_i_glide_ecoul>  (371) 
-9.28033

>  <r_i_glide_erotb>  (371) 
0.573852

>  <r_i_glide_esite>  (371) 
-0.0340697

>  <r_i_glide_emodel>  (371) 
-33.8873

>  <r_i_glide_energy>  (371) 
-27.9308

>  <r_i_glide_einternal>  (371) 
2.88336

>  <r_i_glide_intrahb_reward>  (371) 
-0

>  <i_i_glide_confnum>  (371) 
1

>  <i_i_glide_posenum>  (371) 
38

>  <r_i_glide_eff_state_penalty>  (371) 
0

>  <ligand_id>  (371) 
106

>  <original_smiles>  (371) 
CCSCC1OC(n2cnc3c(=N)[nH]cnc32)C(O)C1O

>  <smiles>  (371) 
[H]OC1([H])C([H])(n2c([H])nc3c(N([H])[H])nc([H])nc32)OC([H])(C([H])([H])SC([H])([H])C([H])([H])[H])C1([H])O[H]

$$$$
106:0:1
     RDKit          3D

 38 40  0  0  1  0  0  0  0  0999 V2000
    0.0766   -7.8483    5.4676 C   0  0  0  0  0  0  0  0  0  0  0  0
   -0.9190   -8.4163    4.4523 C   0  0  0  0  0  0  0  0  0  0  0  0
   -0.9485   -7.4604    2.9054 S   0  0  0  0  0  0  0  0  0  0  0  0
    0.5666   -8.0858    2.1173 C   0  0  0  0  0  0  0  0  0  0  0  0
    1.7498   -7.1219    2.2487 C   0  0  2  0  0  0  0  0  0  0  0  0
    1.5500   -5.9953    1.3881 O   0  0  0  0  0  0  0  0  0  0  0  0
    2.7524   -5.6631    0.7561 C   0  0  1  0  0  0  0  0  0  0  0  0
    3.0121   -4.2060    0.9285 N   0  0  0  0  0  0  0  0  0  0  0  0
    2.5846   -3.3696    1.9389 C   0  0  0  0  0  0  0  0  0  0  0  0
    3.0143   -2.1379    1.8655 N   0  0  0  0  0  0  0  0  0  0  0  0
    3.8014   -2.1275    0.7181 C   0  0  0  0  0  0  0  0  0  0  0  0
    4.5703   -1.1432    0.0611 C   0  0  0  0  0  0  0  0  0  0  0  0
    4.6457    0.1044    0.5210 N   0  0  0  0  0  0  0  0  0  0  0  0
    5.2568   -1.4742   -1.0590 N   0  0  0  0  0  0  0  0  0  0  0  0
    5.1922   -2.7367   -1.5057 C   0  0  0  0  0  0  0  0  0  0  0  0
    4.5207   -3.7734   -0.9911 N   0  0  0  0  0  0  0  0  0  0  0  0
    3.8187   -3.4216    0.1292 C   0  0  0  0  0  0  0  0  0  0  0  0
    3.8636   -6.5059    1.4018 C   0  0  1  0  0  0  0  0  0  0  0  0
    4.4536   -5.8997    2.5502 O   0  0  0  0  0  0  0  0  0  0  0  0
    3.0744   -7.7358    1.7844 C   0  0  1  0  0  0  0  0  0  0  0  0
    3.7313   -8.4898    2.7846 O   0  0  0  0  0  0  0  0  0  0  0  0
    5.1182    0.8145   -0.0290 H   0  0  0  0  0  0  0  0  0  0  0  0
    0.0591   -8.4346    6.3858 H   0  0  0  0  0  0  0  0  0  0  0  0
   -0.1648   -6.8153    5.7199 H   0  0  0  0  0  0  0  0  0  0  0  0
    1.0978   -7.8810    5.0913 H   0  0  0  0  0  0  0  0  0  0  0  0
   -0.6830   -9.4570    4.2343 H   0  0  0  0  0  0  0  0  0  0  0  0
   -1.9202   -8.4194    4.8803 H   0  0  0  0  0  0  0  0  0  0  0  0
    0.8193   -9.0622    2.5308 H   0  0  0  0  0  0  0  0  0  0  0  0
    0.3718   -8.2475    1.0624 H   0  0  0  0  0  0  0  0  0  0  0  0
    1.8544   -6.7587    3.2728 H   0  0  0  0  0  0  0  0  0  0  0  0
    2.6413   -5.8260   -0.3158 H   0  0  0  0  0  0  0  0  0  0  0  0
    1.9514   -3.7172    2.7411 H   0  0  0  0  0  0  0  0  0  0  0  0
    4.1056    0.3467    1.3390 H   0  0  0  0  0  0  0  0  0  0  0  0
    5.7464   -2.9472   -2.4117 H   0  0  0  0  0  0  0  0  0  0  0  0
    4.6348   -6.7154    0.6655 H   0  0  0  0  0  0  0  0  0  0  0  0
    5.0963   -6.4907    2.9134 H   0  0  0  0  0  0  0  0  0  0  0  0
    2.9064   -8.3595    0.9051 H   0  0  0  0  0  0  0  0  0  0  0  0
    3.8160   -7.9502    3.5558 H   0  0  0  0  0  0  0  0  0  0  0  0
  1  2  1  0
  1 23  1  0
  1 24  1  0
  1 25  1  0
  2  3  1  0
  2 26  1  0
  2 27  1  0
  3  4  1  0
  4  5  1  0
  4 28  1  0
  4 29  1  0
  5 20  1  0
  5  6  1  0
  5 30  1  1
  6  7  1  0
  7 18  1  0
  7 31  1  6
  7  8  1  0
  8  9  1  0
  8 17  1  0
  9 10  2  0
  9 32  1  0
 10 11  1  0
 11 12  1  0
 11 17  2  0
 12 14  2  0
 12 13  1  0
 13 33  1  0
 13 22  1  0
 14 15  1  0
 15 34  1  0
 15 16  2  0
 16 17  1  0
 18 19  1  0
 18 20  1  0
 18 35  1  6
 19 36  1  0
 20 21  1  0
 20 37  1  6
 21 38  1  0
M  END
>  <i_m_ct_stereo_status>  (372) 
1

>  <s_m_source_file>  (372) 
/var/tmp/pbs.5076255.sched01/tmpl4jv_xt6/1264eazgjw7.sdf

>  <i_m_source_file_index>  (372) 
20

>  <i_lp_mmshare_version>  (372) 
48012

>  <i_f3d_flags>  (372) 
0

>  <s_epik_input>  (372) 
W0NIM11bQ0gyXVNbQ0gyXVtDQEBIXTFPW0NASF0oW0NAQEhdKFtPSF0pW0NASF0xW09IXSluKFtjSF1uMiljKGMyMyluW2NIXVtuSF1jXDM9TlxbSF0=

>  <s_epik_cmdline>  (372) 
J2VwaWtfcHl0aG9uJywgJy1waHQnLCAnMi4wJywgJy1waCcsICc3LjAnLCAnLXRuJywgJzgnLCAnLW1hJywgJzIwMCcsICctaW1hZScsICc8aW5maWxlLm1hZT4nLCAnLW9tYWUnLCAnPG91dGZpbGUubWFlPic=

>  <r_lp_tautomer_probability>  (372) 
1

>  <r_epik_Ionization_Penalty>  (372) 
0.000419501

>  <r_epik_Ionization_Penalty_Charging>  (372) 
0

>  <r_epik_Ionization_Penalty_Neutral>  (372) 
0.000419501

>  <r_epik_State_Penalty>  (372) 
-0

>  <r_epik_Charging_Adjusted_Penalty>  (372) 
0

>  <i_epik_Tot_Q>  (372) 
0

>  <i_epik_Tot_abs_Q>  (372) 
0

>  <s_epik_Chemistry_Notes>  (372) 
This compound contains an acetal/aminal-like group ( X-CH(R)-Y where X, Y are N, S, or O) that may be acid/base labile, releasing an aldehyde.

>  <s_lp_Force_Field>  (372) 
OPLS3e

>  <r_lp_Energy>  (372) 
15.472

>  <b_lp_Chiralities_Consistent>  (372) 
1

>  <s_lp_Variant>  (372) 
106:0-1

>  <s_i_glide_gridfile>  (372) 
pfpi4k_grid

>  <i_i_glide_lignum>  (372) 
20

>  <i_i_glide_rotatable_bonds>  (372) 
6

>  <r_i_docking_score>  (372) 
-3.28842

>  <r_i_glide_ligand_efficiency>  (372) 
-0.156592

>  <r_i_glide_ligand_efficiency_sa>  (372) 
-0.432024

>  <r_i_glide_ligand_efficiency_ln>  (372) 
-0.813056

>  <r_i_glide_gscore>  (372) 
-3.28842

>  <r_i_glide_lipo>  (372) 
-0.0702874

>  <r_i_glide_hbond>  (372) 
-0.399208

>  <r_i_glide_metal>  (372) 
-0

>  <r_i_glide_rewards>  (372) 
-1.30675

>  <r_i_glide_evdw>  (372) 
-21.9989

>  <r_i_glide_ecoul>  (372) 
-6.27712

>  <r_i_glide_erotb>  (372) 
0.573852

>  <r_i_glide_esite>  (372) 
-0.0445166

>  <r_i_glide_emodel>  (372) 
-34.8857

>  <r_i_glide_energy>  (372) 
-28.276

>  <r_i_glide_einternal>  (372) 
1.759

>  <r_i_glide_intrahb_reward>  (372) 
-0

>  <i_i_glide_confnum>  (372) 
4

>  <i_i_glide_posenum>  (372) 
2

>  <r_i_glide_eff_state_penalty>  (372) 
0

>  <ligand_id>  (372) 
106

>  <original_smiles>  (372) 
CCSCC1OC(n2cnc3c(=N)[nH]cnc32)C(O)C1O

>  <smiles>  (372) 
[H]OC1([H])C([H])(n2c([H])nc3c(N([H])[H])nc([H])nc32)OC([H])(C([H])([H])SC([H])([H])C([H])([H])[H])C1([H])O[H]

$$$$
106:0:2
     RDKit          3D

 38 40  0  0  1  0  0  0  0  0999 V2000
   -1.3028    2.7782    9.4469 C   0  0  0  0  0  0  0  0  0  0  0  0
   -2.4627    2.6481    8.4522 C   0  0  0  0  0  0  0  0  0  0  0  0
   -2.0120    1.6716    6.9865 S   0  0  0  0  0  0  0  0  0  0  0  0
   -0.9378    2.8721    6.1455 C   0  0  0  0  0  0  0  0  0  0  0  0
   -0.3993    2.3769    4.7966 C   0  0  2  0  0  0  0  0  0  0  0  0
    0.5566    1.3370    5.0151 O   0  0  0  0  0  0  0  0  0  0  0  0
    1.6678    1.5135    4.1826 C   0  0  1  0  0  0  0  0  0  0  0  0
    1.9480    0.2201    3.4824 N   0  0  0  0  0  0  0  0  0  0  0  0
    1.0430   -0.6578    2.9282 C   0  0  0  0  0  0  0  0  0  0  0  0
    1.5649   -1.6904    2.3178 N   0  0  0  0  0  0  0  0  0  0  0  0
    2.9327   -1.4942    2.4511 C   0  0  0  0  0  0  0  0  0  0  0  0
    4.0784   -2.2142    2.0308 C   0  0  0  0  0  0  0  0  0  0  0  0
    3.9879   -3.3571    1.3519 N   0  0  0  0  0  0  0  0  0  0  0  0
    5.3079   -1.7419    2.3488 N   0  0  0  0  0  0  0  0  0  0  0  0
    5.4069   -0.6073    3.0488 C   0  0  0  0  0  0  0  0  0  0  0  0
    4.4223    0.1721    3.5134 N   0  0  0  0  0  0  0  0  0  0  0  0
    3.1862   -0.3096    3.1868 C   0  0  0  0  0  0  0  0  0  0  0  0
    1.3166    2.6344    3.1917 C   0  0  1  0  0  0  0  0  0  0  0  0
    0.6635    2.1393    2.0228 O   0  0  0  0  0  0  0  0  0  0  0  0
    0.3783    3.4639    4.0424 C   0  0  1  0  0  0  0  0  0  0  0  0
   -0.4587    4.3343    3.3024 O   0  0  0  0  0  0  0  0  0  0  0  0
    4.8205   -3.8544    1.0819 H   0  0  0  0  0  0  0  0  0  0  0  0
   -1.6137    3.3563   10.3159 H   0  0  0  0  0  0  0  0  0  0  0  0
   -0.4435    3.2899    9.0158 H   0  0  0  0  0  0  0  0  0  0  0  0
   -0.9706    1.8034    9.8043 H   0  0  0  0  0  0  0  0  0  0  0  0
   -3.3049    2.1687    8.9512 H   0  0  0  0  0  0  0  0  0  0  0  0
   -2.8089    3.6333    8.1355 H   0  0  0  0  0  0  0  0  0  0  0  0
   -1.5127    3.7840    5.9913 H   0  0  0  0  0  0  0  0  0  0  0  0
   -0.0997    3.1263    6.7944 H   0  0  0  0  0  0  0  0  0  0  0  0
   -1.2041    1.9935    4.1651 H   0  0  0  0  0  0  0  0  0  0  0  0
    2.5408    1.7247    4.8049 H   0  0  0  0  0  0  0  0  0  0  0  0
   -0.0223   -0.4711    2.9583 H   0  0  0  0  0  0  0  0  0  0  0  0
    3.0663   -3.6816    1.1059 H   0  0  0  0  0  0  0  0  0  0  0  0
    6.4108   -0.2685    3.2694 H   0  0  0  0  0  0  0  0  0  0  0  0
    2.2201    3.1696    2.9103 H   0  0  0  0  0  0  0  0  0  0  0  0
    0.4463    2.8771    1.4422 H   0  0  0  0  0  0  0  0  0  0  0  0
    0.9680    4.0423    4.7558 H   0  0  0  0  0  0  0  0  0  0  0  0
   -0.2083    4.2941    2.3647 H   0  0  0  0  0  0  0  0  0  0  0  0
  1  2  1  0
  1 23  1  0
  1 24  1  0
  1 25  1  0
  2  3  1  0
  2 26  1  0
  2 27  1  0
  3  4  1  0
  4  5  1  0
  4 28  1  0
  4 29  1  0
  5 20  1  0
  5  6  1  0
  5 30  1  6
  6  7  1  0
  7 18  1  0
  7 31  1  1
  7  8  1  0
  8  9  1  0
  8 17  1  0
  9 10  2  0
  9 32  1  0
 10 11  1  0
 11 12  1  0
 11 17  2  0
 12 14  2  0
 12 13  1  0
 13 33  1  0
 13 22  1  0
 14 15  1  0
 15 34  1  0
 15 16  2  0
 16 17  1  0
 18 19  1  0
 18 20  1  0
 18 35  1  6
 19 36  1  0
 20 21  1  0
 20 37  1  1
 21 38  1  0
M  END
>  <i_m_ct_stereo_status>  (373) 
1

>  <s_m_source_file>  (373) 
/var/tmp/pbs.5076255.sched01/tmpl4jv_xt6/1264eazgjw7.sdf

>  <i_m_source_file_index>  (373) 
20

>  <i_lp_mmshare_version>  (373) 
48012

>  <i_f3d_flags>  (373) 
0

>  <s_epik_input>  (373) 
W0NIM11bQ0gyXVNbQ0gyXVtDQEBIXTFPW0NASF0oW0NAQEhdKFtPSF0pW0NASF0xW09IXSluKFtjSF1uMiljKGMyMyluW2NIXVtuSF1jXDM9TlxbSF0=

>  <s_epik_cmdline>  (373) 
J2VwaWtfcHl0aG9uJywgJy1waHQnLCAnMi4wJywgJy1waCcsICc3LjAnLCAnLXRuJywgJzgnLCAnLW1hJywgJzIwMCcsICctaW1hZScsICc8aW5maWxlLm1hZT4nLCAnLW9tYWUnLCAnPG91dGZpbGUubWFlPic=

>  <r_lp_tautomer_probability>  (373) 
1

>  <r_epik_Ionization_Penalty>  (373) 
0.000419501

>  <r_epik_Ionization_Penalty_Charging>  (373) 
0

>  <r_epik_Ionization_Penalty_Neutral>  (373) 
0.000419501

>  <r_epik_State_Penalty>  (373) 
-0

>  <r_epik_Charging_Adjusted_Penalty>  (373) 
0

>  <i_epik_Tot_Q>  (373) 
0

>  <i_epik_Tot_abs_Q>  (373) 
0

>  <s_epik_Chemistry_Notes>  (373) 
This compound contains an acetal/aminal-like group ( X-CH(R)-Y where X, Y are N, S, or O) that may be acid/base labile, releasing an aldehyde.

>  <s_lp_Force_Field>  (373) 
OPLS3e

>  <r_lp_Energy>  (373) 
15.472

>  <b_lp_Chiralities_Consistent>  (373) 
1

>  <s_lp_Variant>  (373) 
106:0-1

>  <s_i_glide_gridfile>  (373) 
pfpi4k_grid

>  <i_i_glide_lignum>  (373) 
20

>  <i_i_glide_rotatable_bonds>  (373) 
6

>  <r_i_docking_score>  (373) 
-3.25373

>  <r_i_glide_ligand_efficiency>  (373) 
-0.154939

>  <r_i_glide_ligand_efficiency_sa>  (373) 
-0.427466

>  <r_i_glide_ligand_efficiency_ln>  (373) 
-0.804478

>  <r_i_glide_gscore>  (373) 
-3.25373

>  <r_i_glide_lipo>  (373) 
-0.0235917

>  <r_i_glide_hbond>  (373) 
0

>  <r_i_glide_metal>  (373) 
-0

>  <r_i_glide_rewards>  (373) 
-1.45274

>  <r_i_glide_evdw>  (373) 
-16.5284

>  <r_i_glide_ecoul>  (373) 
-9.92606

>  <r_i_glide_erotb>  (373) 
0.573852

>  <r_i_glide_esite>  (373) 
-0.03592

>  <r_i_glide_emodel>  (373) 
-32.6214

>  <r_i_glide_energy>  (373) 
-26.4544

>  <r_i_glide_einternal>  (373) 
2.46886

>  <r_i_glide_intrahb_reward>  (373) 
-0

>  <i_i_glide_confnum>  (373) 
1

>  <i_i_glide_posenum>  (373) 
23

>  <r_i_glide_eff_state_penalty>  (373) 
0

>  <ligand_id>  (373) 
106

>  <original_smiles>  (373) 
CCSCC1OC(n2cnc3c(=N)[nH]cnc32)C(O)C1O

>  <smiles>  (373) 
[H]OC1([H])C([H])(n2c([H])nc3c(N([H])[H])nc([H])nc32)OC([H])(C([H])([H])SC([H])([H])C([H])([H])[H])C1([H])O[H]

$$$$
107:0:0
     RDKit          3D

 32 35  0  0  1  0  0  0  0  0999 V2000
   -0.6422   -6.7076    2.3060 O   0  0  0  0  0  0  0  0  0  0  0  0
   -0.2947   -7.4341    3.2707 C   0  0  0  0  0  0  0  0  0  0  0  0
   -0.4402   -8.9126    2.8816 C   0  0  0  0  0  0  0  0  0  0  0  0
    0.4924   -9.8624    3.6613 C   0  0  0  0  0  0  0  0  0  0  0  0
    0.6571   -9.4306    5.0978 C   0  0  0  0  0  0  0  0  0  0  0  0
    0.4668   -8.1652    5.5041 C   0  0  0  0  0  0  0  0  0  0  0  0
    0.5876   -7.8352    6.8482 N   0  0  0  0  0  0  0  0  0  0  0  0
    0.2137   -6.5865    7.3285 C   0  0  0  0  0  0  0  0  0  0  0  0
   -0.0859   -6.2611    8.5760 N   0  0  0  0  0  0  0  0  0  0  0  0
   -0.5304   -4.9787    8.3673 C   0  0  0  0  0  0  0  0  0  0  0  0
   -0.5140   -4.5375    7.1074 N   0  0  0  0  0  0  0  0  0  0  0  0
   -0.0042   -5.6083    6.4445 N   0  0  0  0  0  0  0  0  0  0  0  0
    0.2407   -5.6453    5.0125 C   0  0  1  0  0  0  0  0  0  0  0  0
    1.5968   -5.0129    4.7006 C   0  0  0  0  0  0  0  0  0  0  0  0
    2.7918   -5.5917    5.1851 C   0  0  0  0  0  0  0  0  0  0  0  0
    4.0182   -4.9723    4.8873 C   0  0  0  0  0  0  0  0  0  0  0  0
    4.0084   -3.7985    4.1151 C   0  0  0  0  0  0  0  0  0  0  0  0
    2.7686   -3.2986    3.6731 C   0  0  0  0  0  0  0  0  0  0  0  0
    1.5868   -3.8824    3.9609 N   0  0  0  0  0  0  0  0  0  0  0  0
    0.1504   -7.0973    4.5451 C   0  0  0  0  0  0  0  0  0  0  0  0
   -0.2659   -9.0460    1.8117 H   0  0  0  0  0  0  0  0  0  0  0  0
   -1.4739   -9.2231    3.0609 H   0  0  0  0  0  0  0  0  0  0  0  0
    0.0846  -10.8739    3.6439 H   0  0  0  0  0  0  0  0  0  0  0  0
    1.4775   -9.9022    3.1989 H   0  0  0  0  0  0  0  0  0  0  0  0
    0.9341  -10.2040    5.7960 H   0  0  0  0  0  0  0  0  0  0  0  0
   -0.8847   -4.3520    9.1735 H   0  0  0  0  0  0  0  0  0  0  0  0
   -0.5518   -5.0807    4.5235 H   0  0  0  0  0  0  0  0  0  0  0  0
    2.7642   -6.4990    5.7697 H   0  0  0  0  0  0  0  0  0  0  0  0
    4.9457   -5.3943    5.2467 H   0  0  0  0  0  0  0  0  0  0  0  0
    4.9265   -3.2967    3.8667 H   0  0  0  0  0  0  0  0  0  0  0  0
    2.7275   -2.3992    3.0764 H   0  0  0  0  0  0  0  0  0  0  0  0
    0.6912   -8.5811    7.5198 H   0  0  0  0  0  0  0  0  0  0  0  0
  1  2  1  0
  2  3  1  0
  2 20  2  0
  3  4  1  0
  3 21  1  0
  3 22  1  0
  4  5  1  0
  4 23  1  0
  4 24  1  0
  5 25  1  0
  5  6  2  0
  6 20  1  0
  6  7  1  0
  7  8  1  0
  7 32  1  0
  8 12  1  0
  8  9  2  0
  9 10  1  0
 10 11  2  0
 10 26  1  0
 11 12  1  0
 12 13  1  0
 13 14  1  0
 13 27  1  6
 13 20  1  0
 14 19  1  0
 14 15  2  0
 15 16  1  0
 15 28  1  0
 16 17  2  0
 16 29  1  0
 17 18  1  0
 17 30  1  0
 18 19  2  0
 18 31  1  0
M  CHG  1   1  -1
M  END
>  <i_m_ct_stereo_status>  (374) 
1

>  <s_m_source_file>  (374) 
/var/tmp/pbs.5076255.sched01/tmpl4jv_xt6/1264eazgjw7.sdf

>  <i_m_source_file_index>  (374) 
21

>  <i_lp_mmshare_version>  (374) 
48012

>  <i_f3d_flags>  (374) 
0

>  <s_epik_input>  (374) 
W0NIMl0xW0NIMl1bQ0gyXUMoPU8pW0NAQEhdKEMxPTIpW0NAQEhdKG4zYyhOMiluW2NIXW4zKWM0W2NIXVtjSF1bY0hdW2NIXW40

>  <s_epik_cmdline>  (374) 
J2VwaWtfcHl0aG9uJywgJy1waHQnLCAnMi4wJywgJy1waCcsICc3LjAnLCAnLXRuJywgJzgnLCAnLW1hJywgJzIwMCcsICctaW1hZScsICc8aW5maWxlLm1hZT4nLCAnLW9tYWUnLCAnPG91dGZpbGUubWFlPic=

>  <r_epik_Ionization_Penalty>  (374) 
0.539093

>  <r_epik_Ionization_Penalty_Charging>  (374) 
0.538938

>  <r_epik_Ionization_Penalty_Neutral>  (374) 
0.000154768

>  <r_epik_State_Penalty>  (374) 
0.383227

>  <r_epik_Charging_Adjusted_Penalty>  (374) 
0.922165

>  <i_epik_Tot_Q>  (374) 
-1

>  <i_epik_Tot_abs_Q>  (374) 
1

>  <s_epik_Chemistry_Notes>  (374) 
This compound has an imine and may undergo hydrolysis.

>  <s_lp_Force_Field>  (374) 
OPLS3e

>  <r_lp_Energy>  (374) 
35.248

>  <b_lp_Chiralities_Consistent>  (374) 
1

>  <s_lp_Variant>  (374) 
107:0-1

>  <s_i_glide_gridfile>  (374) 
pfpi4k_grid

>  <i_i_glide_lignum>  (374) 
21

>  <i_i_glide_rotatable_bonds>  (374) 
1

>  <r_i_docking_score>  (374) 
-2.82324

>  <r_i_glide_ligand_efficiency>  (374) 
-0.141162

>  <r_i_glide_ligand_efficiency_sa>  (374) 
-0.383173

>  <r_i_glide_ligand_efficiency_ln>  (374) 
-0.706564

>  <r_i_glide_gscore>  (374) 
-2.82324

>  <r_i_glide_lipo>  (374) 
-0.000965781

>  <r_i_glide_hbond>  (374) 
-0.311208

>  <r_i_glide_metal>  (374) 
-0

>  <r_i_glide_rewards>  (374) 
-1.61975

>  <r_i_glide_evdw>  (374) 
-17.458

>  <r_i_glide_ecoul>  (374) 
-1.59459

>  <r_i_glide_erotb>  (374) 
0.2512

>  <r_i_glide_esite>  (374) 
-0.0304302

>  <r_i_glide_emodel>  (374) 
-24.525

>  <r_i_glide_energy>  (374) 
-19.0526

>  <r_i_glide_einternal>  (374) 
0.000865549

>  <r_i_glide_intrahb_reward>  (374) 
-0

>  <i_i_glide_confnum>  (374) 
3

>  <i_i_glide_posenum>  (374) 
7

>  <r_i_glide_eff_state_penalty>  (374) 
0

>  <ligand_id>  (374) 
107

>  <original_smiles>  (374) 
O=C1CCCC2=Nc3ncnn3C(c3ccccn3)C12

>  <smiles>  (374) 
[H]C1=C2C(=C([O-])C([H])([H])C1([H])[H])C([H])(c1nc([H])c([H])c([H])c1[H])n1nc([H])nc1N2[H]

$$$$
107:0:1
     RDKit          3D

 32 35  0  0  1  0  0  0  0  0999 V2000
    0.4695   -5.4432    5.1678 O   0  0  0  0  0  0  0  0  0  0  0  0
    0.3584   -6.3469    4.3050 C   0  0  0  0  0  0  0  0  0  0  0  0
   -1.0042   -7.0243    4.4779 C   0  0  0  0  0  0  0  0  0  0  0  0
   -1.5483   -7.6845    3.1982 C   0  0  0  0  0  0  0  0  0  0  0  0
   -0.4449   -8.3063    2.3831 C   0  0  0  0  0  0  0  0  0  0  0  0
    0.8360   -7.9193    2.4670 C   0  0  0  0  0  0  0  0  0  0  0  0
    1.8205   -8.5874    1.7506 N   0  0  0  0  0  0  0  0  0  0  0  0
    3.1719   -8.3492    1.9684 C   0  0  0  0  0  0  0  0  0  0  0  0
    4.1953   -9.0950    1.5924 N   0  0  0  0  0  0  0  0  0  0  0  0
    5.2097   -8.4094    2.2093 C   0  0  0  0  0  0  0  0  0  0  0  0
    4.8625   -7.2992    2.8667 N   0  0  0  0  0  0  0  0  0  0  0  0
    3.5170   -7.2757    2.6851 N   0  0  0  0  0  0  0  0  0  0  0  0
    2.6374   -6.2118    3.1510 C   0  0  1  0  0  0  0  0  0  0  0  0
    2.6522   -5.0372    2.1698 C   0  0  0  0  0  0  0  0  0  0  0  0
    2.7175   -3.7014    2.6241 C   0  0  0  0  0  0  0  0  0  0  0  0
    2.7236   -2.6636    1.6698 C   0  0  0  0  0  0  0  0  0  0  0  0
    2.6804   -3.0011    0.3061 C   0  0  0  0  0  0  0  0  0  0  0  0
    2.6194   -4.3561   -0.0506 C   0  0  0  0  0  0  0  0  0  0  0  0
    2.5774   -5.3496    0.8542 N   0  0  0  0  0  0  0  0  0  0  0  0
    1.2306   -6.7859    3.3152 C   0  0  0  0  0  0  0  0  0  0  0  0
   -1.7410   -6.3076    4.8479 H   0  0  0  0  0  0  0  0  0  0  0  0
   -0.9094   -7.7896    5.2533 H   0  0  0  0  0  0  0  0  0  0  0  0
   -2.2726   -8.4540    3.4672 H   0  0  0  0  0  0  0  0  0  0  0  0
   -2.0609   -6.9598    2.5703 H   0  0  0  0  0  0  0  0  0  0  0  0
   -0.7367   -9.1072    1.7242 H   0  0  0  0  0  0  0  0  0  0  0  0
    6.2370   -8.7415    2.1697 H   0  0  0  0  0  0  0  0  0  0  0  0
    3.0063   -5.8830    4.1222 H   0  0  0  0  0  0  0  0  0  0  0  0
    2.7449   -3.4775    3.6811 H   0  0  0  0  0  0  0  0  0  0  0  0
    2.7517   -1.6272    1.9749 H   0  0  0  0  0  0  0  0  0  0  0  0
    2.6620   -2.2373   -0.4521 H   0  0  0  0  0  0  0  0  0  0  0  0
    2.5569   -4.6473   -1.0867 H   0  0  0  0  0  0  0  0  0  0  0  0
    1.5719   -9.4168    1.2285 H   0  0  0  0  0  0  0  0  0  0  0  0
  1  2  1  0
  2  3  1  0
  2 20  2  0
  3  4  1  0
  3 21  1  0
  3 22  1  0
  4  5  1  0
  4 23  1  0
  4 24  1  0
  5 25  1  0
  5  6  2  0
  6 20  1  0
  6  7  1  0
  7  8  1  0
  7 32  1  0
  8 12  1  0
  8  9  2  0
  9 10  1  0
 10 11  2  0
 10 26  1  0
 11 12  1  0
 12 13  1  0
 13 14  1  0
 13 27  1  1
 13 20  1  0
 14 19  1  0
 14 15  2  0
 15 16  1  0
 15 28  1  0
 16 17  2  0
 16 29  1  0
 17 18  1  0
 17 30  1  0
 18 19  2  0
 18 31  1  0
M  CHG  1   1  -1
M  END
>  <i_m_ct_stereo_status>  (375) 
1

>  <s_m_source_file>  (375) 
/var/tmp/pbs.5076255.sched01/tmpl4jv_xt6/1264eazgjw7.sdf

>  <i_m_source_file_index>  (375) 
21

>  <i_lp_mmshare_version>  (375) 
48012

>  <i_f3d_flags>  (375) 
0

>  <s_epik_input>  (375) 
W0NIMl0xW0NIMl1bQ0gyXUMoPU8pW0NAQEhdKEMxPTIpW0NAQEhdKG4zYyhOMiluW2NIXW4zKWM0W2NIXVtjSF1bY0hdW2NIXW40

>  <s_epik_cmdline>  (375) 
J2VwaWtfcHl0aG9uJywgJy1waHQnLCAnMi4wJywgJy1waCcsICc3LjAnLCAnLXRuJywgJzgnLCAnLW1hJywgJzIwMCcsICctaW1hZScsICc8aW5maWxlLm1hZT4nLCAnLW9tYWUnLCAnPG91dGZpbGUubWFlPic=

>  <r_epik_Ionization_Penalty>  (375) 
0.539093

>  <r_epik_Ionization_Penalty_Charging>  (375) 
0.538938

>  <r_epik_Ionization_Penalty_Neutral>  (375) 
0.000154768

>  <r_epik_State_Penalty>  (375) 
0.383227

>  <r_epik_Charging_Adjusted_Penalty>  (375) 
0.922165

>  <i_epik_Tot_Q>  (375) 
-1

>  <i_epik_Tot_abs_Q>  (375) 
1

>  <s_epik_Chemistry_Notes>  (375) 
This compound has an imine and may undergo hydrolysis.

>  <s_lp_Force_Field>  (375) 
OPLS3e

>  <r_lp_Energy>  (375) 
35.248

>  <b_lp_Chiralities_Consistent>  (375) 
1

>  <s_lp_Variant>  (375) 
107:0-1

>  <s_i_glide_gridfile>  (375) 
pfpi4k_grid

>  <i_i_glide_lignum>  (375) 
21

>  <i_i_glide_rotatable_bonds>  (375) 
1

>  <r_i_docking_score>  (375) 
-2.71014

>  <r_i_glide_ligand_efficiency>  (375) 
-0.135507

>  <r_i_glide_ligand_efficiency_sa>  (375) 
-0.367822

>  <r_i_glide_ligand_efficiency_ln>  (375) 
-0.678258

>  <r_i_glide_gscore>  (375) 
-2.71014

>  <r_i_glide_lipo>  (375) 
0

>  <r_i_glide_hbond>  (375) 
-0.109031

>  <r_i_glide_metal>  (375) 
-0

>  <r_i_glide_rewards>  (375) 
-1.60709

>  <r_i_glide_evdw>  (375) 
-20.7869

>  <r_i_glide_ecoul>  (375) 
-1.18088

>  <r_i_glide_erotb>  (375) 
0.2512

>  <r_i_glide_esite>  (375) 
-0.0287407

>  <r_i_glide_emodel>  (375) 
-27.0432

>  <r_i_glide_energy>  (375) 
-21.9678

>  <r_i_glide_einternal>  (375) 
0.40073

>  <r_i_glide_intrahb_reward>  (375) 
-0

>  <i_i_glide_confnum>  (375) 
4

>  <i_i_glide_posenum>  (375) 
34

>  <r_i_glide_eff_state_penalty>  (375) 
0

>  <ligand_id>  (375) 
107

>  <original_smiles>  (375) 
O=C1CCCC2=Nc3ncnn3C(c3ccccn3)C12

>  <smiles>  (375) 
[H]C1=C2C(=C([O-])C([H])([H])C1([H])[H])C([H])(c1nc([H])c([H])c([H])c1[H])n1nc([H])nc1N2[H]

$$$$
107:0:2
     RDKit          3D

 32 35  0  0  1  0  0  0  0  0999 V2000
    1.4036   -5.4566   -0.3192 O   0  0  0  0  0  0  0  0  0  0  0  0
    2.3663   -5.3782    0.4724 C   0  0  0  0  0  0  0  0  0  0  0  0
    3.2422   -4.1593    0.1432 C   0  0  0  0  0  0  0  0  0  0  0  0
    4.0693   -3.6481    1.3410 C   0  0  0  0  0  0  0  0  0  0  0  0
    4.5420   -4.7847    2.2150 C   0  0  0  0  0  0  0  0  0  0  0  0
    3.9272   -5.9812    2.2571 C   0  0  0  0  0  0  0  0  0  0  0  0
    4.4395   -7.0291    3.0076 N   0  0  0  0  0  0  0  0  0  0  0  0
    3.9387   -8.3214    2.9046 C   0  0  0  0  0  0  0  0  0  0  0  0
    4.5290   -9.4384    3.2861 N   0  0  0  0  0  0  0  0  0  0  0  0
    3.6081  -10.3417    2.8112 C   0  0  0  0  0  0  0  0  0  0  0  0
    2.5238   -9.8319    2.2162 N   0  0  0  0  0  0  0  0  0  0  0  0
    2.7635   -8.5036    2.2926 N   0  0  0  0  0  0  0  0  0  0  0  0
    1.8736   -7.4791    1.7902 C   0  0  1  0  0  0  0  0  0  0  0  0
    0.7435   -7.2126    2.7789 C   0  0  0  0  0  0  0  0  0  0  0  0
    1.0042   -6.5443    3.9942 C   0  0  0  0  0  0  0  0  0  0  0  0
   -0.0510   -6.3392    4.8957 C   0  0  0  0  0  0  0  0  0  0  0  0
   -1.3250   -6.8145    4.5452 C   0  0  0  0  0  0  0  0  0  0  0  0
   -1.4908   -7.4806    3.3201 C   0  0  0  0  0  0  0  0  0  0  0  0
   -0.4905   -7.6490    2.4363 N   0  0  0  0  0  0  0  0  0  0  0  0
    2.6962   -6.2241    1.5063 C   0  0  0  0  0  0  0  0  0  0  0  0
    2.6345   -3.3401   -0.2490 H   0  0  0  0  0  0  0  0  0  0  0  0
    3.9320   -4.4281   -0.6625 H   0  0  0  0  0  0  0  0  0  0  0  0
    4.9360   -3.0883    0.9812 H   0  0  0  0  0  0  0  0  0  0  0  0
    3.4732   -2.9734    1.9537 H   0  0  0  0  0  0  0  0  0  0  0  0
    5.4201   -4.5883    2.8047 H   0  0  0  0  0  0  0  0  0  0  0  0
    3.7426  -11.4106    2.8978 H   0  0  0  0  0  0  0  0  0  0  0  0
    1.4583   -7.8434    0.8564 H   0  0  0  0  0  0  0  0  0  0  0  0
    2.0020   -6.1970    4.2198 H   0  0  0  0  0  0  0  0  0  0  0  0
    0.1203   -5.8246    5.8288 H   0  0  0  0  0  0  0  0  0  0  0  0
   -2.1577   -6.6578    5.2032 H   0  0  0  0  0  0  0  0  0  0  0  0
   -2.4603   -7.8526    3.0270 H   0  0  0  0  0  0  0  0  0  0  0  0
    5.3282   -6.9226    3.4708 H   0  0  0  0  0  0  0  0  0  0  0  0
  1  2  1  0
  2  3  1  0
  2 20  2  0
  3  4  1  0
  3 21  1  0
  3 22  1  0
  4  5  1  0
  4 23  1  0
  4 24  1  0
  5 25  1  0
  5  6  2  0
  6 20  1  0
  6  7  1  0
  7  8  1  0
  7 32  1  0
  8 12  1  0
  8  9  2  0
  9 10  1  0
 10 11  2  0
 10 26  1  0
 11 12  1  0
 12 13  1  0
 13 14  1  0
 13 27  1  6
 13 20  1  0
 14 19  1  0
 14 15  2  0
 15 16  1  0
 15 28  1  0
 16 17  2  0
 16 29  1  0
 17 18  1  0
 17 30  1  0
 18 19  2  0
 18 31  1  0
M  CHG  1   1  -1
M  END
>  <i_m_ct_stereo_status>  (376) 
1

>  <s_m_source_file>  (376) 
/var/tmp/pbs.5076255.sched01/tmpl4jv_xt6/1264eazgjw7.sdf

>  <i_m_source_file_index>  (376) 
21

>  <i_lp_mmshare_version>  (376) 
48012

>  <i_f3d_flags>  (376) 
0

>  <s_epik_input>  (376) 
W0NIMl0xW0NIMl1bQ0gyXUMoPU8pW0NAQEhdKEMxPTIpW0NAQEhdKG4zYyhOMiluW2NIXW4zKWM0W2NIXVtjSF1bY0hdW2NIXW40

>  <s_epik_cmdline>  (376) 
J2VwaWtfcHl0aG9uJywgJy1waHQnLCAnMi4wJywgJy1waCcsICc3LjAnLCAnLXRuJywgJzgnLCAnLW1hJywgJzIwMCcsICctaW1hZScsICc8aW5maWxlLm1hZT4nLCAnLW9tYWUnLCAnPG91dGZpbGUubWFlPic=

>  <r_epik_Ionization_Penalty>  (376) 
0.539093

>  <r_epik_Ionization_Penalty_Charging>  (376) 
0.538938

>  <r_epik_Ionization_Penalty_Neutral>  (376) 
0.000154768

>  <r_epik_State_Penalty>  (376) 
0.383227

>  <r_epik_Charging_Adjusted_Penalty>  (376) 
0.922165

>  <i_epik_Tot_Q>  (376) 
-1

>  <i_epik_Tot_abs_Q>  (376) 
1

>  <s_epik_Chemistry_Notes>  (376) 
This compound has an imine and may undergo hydrolysis.

>  <s_lp_Force_Field>  (376) 
OPLS3e

>  <r_lp_Energy>  (376) 
35.248

>  <b_lp_Chiralities_Consistent>  (376) 
1

>  <s_lp_Variant>  (376) 
107:0-1

>  <s_i_glide_gridfile>  (376) 
pfpi4k_grid

>  <i_i_glide_lignum>  (376) 
21

>  <i_i_glide_rotatable_bonds>  (376) 
1

>  <r_i_docking_score>  (376) 
-2.60885

>  <r_i_glide_ligand_efficiency>  (376) 
-0.130442

>  <r_i_glide_ligand_efficiency_sa>  (376) 
-0.354075

>  <r_i_glide_ligand_efficiency_ln>  (376) 
-0.652908

>  <r_i_glide_gscore>  (376) 
-2.60885

>  <r_i_glide_lipo>  (376) 
-0.0271278

>  <r_i_glide_hbond>  (376) 
-0.207786

>  <r_i_glide_metal>  (376) 
-0

>  <r_i_glide_rewards>  (376) 
-1.59356

>  <r_i_glide_evdw>  (376) 
-19.8442

>  <r_i_glide_ecoul>  (376) 
0.179891

>  <r_i_glide_erotb>  (376) 
0.2512

>  <r_i_glide_esite>  (376) 
-0.0663458

>  <r_i_glide_emodel>  (376) 
-24.6451

>  <r_i_glide_energy>  (376) 
-19.6643

>  <r_i_glide_einternal>  (376) 
0.0140375

>  <r_i_glide_intrahb_reward>  (376) 
-0

>  <i_i_glide_confnum>  (376) 
3

>  <i_i_glide_posenum>  (376) 
8

>  <r_i_glide_eff_state_penalty>  (376) 
0

>  <ligand_id>  (376) 
107

>  <original_smiles>  (376) 
O=C1CCCC2=Nc3ncnn3C(c3ccccn3)C12

>  <smiles>  (376) 
[H]C1=C2C(=C([O-])C([H])([H])C1([H])[H])C([H])(c1nc([H])c([H])c([H])c1[H])n1nc([H])nc1N2[H]

$$$$
107:1:0
     RDKit          3D

 33 36  0  0  1  0  0  0  0  0999 V2000
    1.4238   -5.4599   -0.3146 O   0  0  0  0  0  0  0  0  0  0  0  0
    2.4079   -5.3352    0.5918 C   0  0  0  0  0  0  0  0  0  0  0  0
    3.2012   -4.0556    0.3623 C   0  0  0  0  0  0  0  0  0  0  0  0
    4.0149   -3.6235    1.6075 C   0  0  0  0  0  0  0  0  0  0  0  0
    4.4314   -4.7975    2.4747 C   0  0  0  0  0  0  0  0  0  0  0  0
    3.8357   -6.0025    2.4332 C   0  0  0  0  0  0  0  0  0  0  0  0
    4.3148   -7.0523    3.2050 N   0  0  0  0  0  0  0  0  0  0  0  0
    3.8617   -8.3501    3.0216 C   0  0  0  0  0  0  0  0  0  0  0  0
    4.4511   -9.4632    3.4148 N   0  0  0  0  0  0  0  0  0  0  0  0
    3.6030  -10.3718    2.8384 C   0  0  0  0  0  0  0  0  0  0  0  0
    2.5575   -9.8709    2.1713 N   0  0  0  0  0  0  0  0  0  0  0  0
    2.7505   -8.5390    2.3076 N   0  0  0  0  0  0  0  0  0  0  0  0
    1.8674   -7.5192    1.7638 C   0  0  1  0  0  0  0  0  0  0  0  0
    0.6809   -7.3213    2.6995 C   0  0  0  0  0  0  0  0  0  0  0  0
   -0.5392   -7.9988    2.4975 C   0  0  0  0  0  0  0  0  0  0  0  0
   -1.5873   -7.7904    3.4156 C   0  0  0  0  0  0  0  0  0  0  0  0
   -1.3845   -6.8897    4.4784 C   0  0  0  0  0  0  0  0  0  0  0  0
   -0.1343   -6.2647    4.6006 C   0  0  0  0  0  0  0  0  0  0  0  0
    0.8671   -6.4612    3.7271 N   0  0  0  0  0  0  0  0  0  0  0  0
    2.6767   -6.2304    1.5590 C   0  0  0  0  0  0  0  0  0  0  0  0
    2.5395   -3.2384    0.0705 H   0  0  0  0  0  0  0  0  0  0  0  0
    3.8859   -4.2306   -0.4714 H   0  0  0  0  0  0  0  0  0  0  0  0
    4.9164   -3.0894    1.2985 H   0  0  0  0  0  0  0  0  0  0  0  0
    3.4328   -2.9479    2.2386 H   0  0  0  0  0  0  0  0  0  0  0  0
    5.2593   -4.6204    3.1472 H   0  0  0  0  0  0  0  0  0  0  0  0
    3.7757  -11.4391    2.8943 H   0  0  0  0  0  0  0  0  0  0  0  0
    1.4947   -7.8808    0.8136 H   0  0  0  0  0  0  0  0  0  0  0  0
   -0.6560   -8.6926    1.6774 H   0  0  0  0  0  0  0  0  0  0  0  0
   -2.5384   -8.2916    3.2980 H   0  0  0  0  0  0  0  0  0  0  0  0
   -2.1663   -6.6607    5.1811 H   0  0  0  0  0  0  0  0  0  0  0  0
    0.0613   -5.5602    5.3935 H   0  0  0  0  0  0  0  0  0  0  0  0
    5.1545   -6.9339    3.7477 H   0  0  0  0  0  0  0  0  0  0  0  0
    1.6610   -4.9077   -1.0475 H   0  0  0  0  0  0  0  0  0  0  0  0
  1  2  1  0
  1 33  1  0
  2  3  1  0
  2 20  2  0
  3  4  1  0
  3 21  1  0
  3 22  1  0
  4  5  1  0
  4 23  1  0
  4 24  1  0
  5 25  1  0
  5  6  2  0
  6 20  1  0
  6  7  1  0
  7  8  1  0
  7 32  1  0
  8 12  1  0
  8  9  2  0
  9 10  1  0
 10 11  2  0
 10 26  1  0
 11 12  1  0
 12 13  1  0
 13 14  1  0
 13 27  1  6
 13 20  1  0
 14 19  1  0
 14 15  2  0
 15 16  1  0
 15 28  1  0
 16 17  2  0
 16 29  1  0
 17 18  1  0
 17 30  1  0
 18 19  2  0
 18 31  1  0
M  END
>  <i_m_ct_stereo_status>  (377) 
1

>  <s_m_source_file>  (377) 
/var/tmp/pbs.5076255.sched01/tmpl4jv_xt6/1264eazgjw7.sdf

>  <i_m_source_file_index>  (377) 
22

>  <i_lp_mmshare_version>  (377) 
48012

>  <i_f3d_flags>  (377) 
0

>  <s_epik_input>  (377) 
W0NIMl0xW0NIMl1bQ0gyXUMoPU8pW0NAQEhdKEMxPTIpW0NAQEhdKG4zYyhOMiluW2NIXW4zKWM0W2NIXVtjSF1bY0hdW2NIXW40

>  <s_epik_cmdline>  (377) 
J2VwaWtfcHl0aG9uJywgJy1waHQnLCAnMi4wJywgJy1waCcsICc3LjAnLCAnLXRuJywgJzgnLCAnLW1hJywgJzIwMCcsICctaW1hZScsICc8aW5maWxlLm1hZT4nLCAnLW9tYWUnLCAnPG91dGZpbGUubWFlPic=

>  <r_epik_Ionization_Penalty>  (377) 
0.305984

>  <r_epik_Ionization_Penalty_Charging>  (377) 
2.93331e-10

>  <r_epik_Ionization_Penalty_Neutral>  (377) 
0.305984

>  <r_epik_State_Penalty>  (377) 
0.439863

>  <r_epik_Charging_Adjusted_Penalty>  (377) 
0.439863

>  <i_epik_Tot_Q>  (377) 
0

>  <i_epik_Tot_abs_Q>  (377) 
0

>  <s_epik_Chemistry_Notes>  (377) 
This compound has an imine and may undergo hydrolysis.

>  <s_lp_Force_Field>  (377) 
OPLS3e

>  <r_lp_Energy>  (377) 
35.6754

>  <b_lp_Chiralities_Consistent>  (377) 
1

>  <s_lp_Variant>  (377) 
107:0-2

>  <s_i_glide_gridfile>  (377) 
pfpi4k_grid

>  <i_i_glide_lignum>  (377) 
22

>  <i_i_glide_rotatable_bonds>  (377) 
2

>  <r_i_docking_score>  (377) 
-3.31223

>  <r_i_glide_ligand_efficiency>  (377) 
-0.165612

>  <r_i_glide_ligand_efficiency_sa>  (377) 
-0.449539

>  <r_i_glide_ligand_efficiency_ln>  (377) 
-0.828942

>  <r_i_glide_gscore>  (377) 
-3.31223

>  <r_i_glide_lipo>  (377) 
-0.0126317

>  <r_i_glide_hbond>  (377) 
-0.270371

>  <r_i_glide_metal>  (377) 
-0

>  <r_i_glide_rewards>  (377) 
-1.58669

>  <r_i_glide_evdw>  (377) 
-20.5184

>  <r_i_glide_ecoul>  (377) 
-4.00725

>  <r_i_glide_erotb>  (377) 
0.249566

>  <r_i_glide_esite>  (377) 
-0.0650996

>  <r_i_glide_emodel>  (377) 
-27.8529

>  <r_i_glide_energy>  (377) 
-24.5257

>  <r_i_glide_einternal>  (377) 
3.03868

>  <r_i_glide_intrahb_reward>  (377) 
-0

>  <i_i_glide_confnum>  (377) 
4

>  <i_i_glide_posenum>  (377) 
13

>  <r_i_glide_eff_state_penalty>  (377) 
0

>  <ligand_id>  (377) 
107

>  <original_smiles>  (377) 
O=C1CCCC2=Nc3ncnn3C(c3ccccn3)C12

>  <smiles>  (377) 
[H]OC1=C2C(=C([H])C([H])([H])C1([H])[H])N([H])c1nc([H])nn1C2([H])c1nc([H])c([H])c([H])c1[H]

$$$$
107:1:1
     RDKit          3D

 33 36  0  0  1  0  0  0  0  0999 V2000
    0.3502   -6.6526    1.2548 O   0  0  0  0  0  0  0  0  0  0  0  0
    1.6720   -6.6900    1.4832 C   0  0  0  0  0  0  0  0  0  0  0  0
    2.3947   -5.6043    0.7058 C   0  0  0  0  0  0  0  0  0  0  0  0
    3.8097   -5.3065    1.2457 C   0  0  0  0  0  0  0  0  0  0  0  0
    4.4444   -6.5003    1.9319 C   0  0  0  0  0  0  0  0  0  0  0  0
    3.7471   -7.5501    2.3956 C   0  0  0  0  0  0  0  0  0  0  0  0
    4.4075   -8.6362    2.9566 N   0  0  0  0  0  0  0  0  0  0  0  0
    3.7459   -9.8250    3.2146 C   0  0  0  0  0  0  0  0  0  0  0  0
    4.2859  -11.0082    3.4408 N   0  0  0  0  0  0  0  0  0  0  0  0
    3.1419  -11.7605    3.4810 C   0  0  0  0  0  0  0  0  0  0  0  0
    1.9878  -11.1057    3.3246 N   0  0  0  0  0  0  0  0  0  0  0  0
    2.4111   -9.8274    3.1867 N   0  0  0  0  0  0  0  0  0  0  0  0
    1.5305   -8.6672    3.0784 C   0  0  1  0  0  0  0  0  0  0  0  0
    1.0733   -8.1809    4.4685 C   0  0  0  0  0  0  0  0  0  0  0  0
    1.0174   -9.0402    5.5914 C   0  0  0  0  0  0  0  0  0  0  0  0
    0.6123   -8.5308    6.8359 C   0  0  0  0  0  0  0  0  0  0  0  0
    0.2697   -7.1721    6.9289 C   0  0  0  0  0  0  0  0  0  0  0  0
    0.3383   -6.3886    5.7644 C   0  0  0  0  0  0  0  0  0  0  0  0
    0.7154   -6.8763    4.5633 N   0  0  0  0  0  0  0  0  0  0  0  0
    2.2853   -7.5791    2.2959 C   0  0  0  0  0  0  0  0  0  0  0  0
    1.8168   -4.6833    0.6823 H   0  0  0  0  0  0  0  0  0  0  0  0
    2.4767   -5.9563   -0.3222 H   0  0  0  0  0  0  0  0  0  0  0  0
    4.4565   -4.9933    0.4239 H   0  0  0  0  0  0  0  0  0  0  0  0
    3.7800   -4.4916    1.9686 H   0  0  0  0  0  0  0  0  0  0  0  0
    5.5196   -6.4720    2.0344 H   0  0  0  0  0  0  0  0  0  0  0  0
    3.1644  -12.8283    3.6374 H   0  0  0  0  0  0  0  0  0  0  0  0
    0.6533   -8.9831    2.5189 H   0  0  0  0  0  0  0  0  0  0  0  0
    1.2730  -10.0875    5.5296 H   0  0  0  0  0  0  0  0  0  0  0  0
    0.5599   -9.1859    7.6949 H   0  0  0  0  0  0  0  0  0  0  0  0
   -0.0517   -6.7486    7.8629 H   0  0  0  0  0  0  0  0  0  0  0  0
    0.0769   -5.3405    5.7946 H   0  0  0  0  0  0  0  0  0  0  0  0
    5.4136   -8.6749    2.9331 H   0  0  0  0  0  0  0  0  0  0  0  0
   -0.0298   -7.3829    1.7204 H   0  0  0  0  0  0  0  0  0  0  0  0
  1  2  1  0
  1 33  1  0
  2  3  1  0
  2 20  2  0
  3  4  1  0
  3 21  1  0
  3 22  1  0
  4  5  1  0
  4 23  1  0
  4 24  1  0
  5 25  1  0
  5  6  2  0
  6 20  1  0
  6  7  1  0
  7  8  1  0
  7 32  1  0
  8 12  1  0
  8  9  2  0
  9 10  1  0
 10 11  2  0
 10 26  1  0
 11 12  1  0
 12 13  1  0
 13 14  1  0
 13 27  1  6
 13 20  1  0
 14 19  1  0
 14 15  2  0
 15 16  1  0
 15 28  1  0
 16 17  2  0
 16 29  1  0
 17 18  1  0
 17 30  1  0
 18 19  2  0
 18 31  1  0
M  END
>  <i_m_ct_stereo_status>  (378) 
1

>  <s_m_source_file>  (378) 
/var/tmp/pbs.5076255.sched01/tmpl4jv_xt6/1264eazgjw7.sdf

>  <i_m_source_file_index>  (378) 
22

>  <i_lp_mmshare_version>  (378) 
48012

>  <i_f3d_flags>  (378) 
0

>  <s_epik_input>  (378) 
W0NIMl0xW0NIMl1bQ0gyXUMoPU8pW0NAQEhdKEMxPTIpW0NAQEhdKG4zYyhOMiluW2NIXW4zKWM0W2NIXVtjSF1bY0hdW2NIXW40

>  <s_epik_cmdline>  (378) 
J2VwaWtfcHl0aG9uJywgJy1waHQnLCAnMi4wJywgJy1waCcsICc3LjAnLCAnLXRuJywgJzgnLCAnLW1hJywgJzIwMCcsICctaW1hZScsICc8aW5maWxlLm1hZT4nLCAnLW9tYWUnLCAnPG91dGZpbGUubWFlPic=

>  <r_epik_Ionization_Penalty>  (378) 
0.305984

>  <r_epik_Ionization_Penalty_Charging>  (378) 
2.93331e-10

>  <r_epik_Ionization_Penalty_Neutral>  (378) 
0.305984

>  <r_epik_State_Penalty>  (378) 
0.439863

>  <r_epik_Charging_Adjusted_Penalty>  (378) 
0.439863

>  <i_epik_Tot_Q>  (378) 
0

>  <i_epik_Tot_abs_Q>  (378) 
0

>  <s_epik_Chemistry_Notes>  (378) 
This compound has an imine and may undergo hydrolysis.

>  <s_lp_Force_Field>  (378) 
OPLS3e

>  <r_lp_Energy>  (378) 
35.6754

>  <b_lp_Chiralities_Consistent>  (378) 
1

>  <s_lp_Variant>  (378) 
107:0-2

>  <s_i_glide_gridfile>  (378) 
pfpi4k_grid

>  <i_i_glide_lignum>  (378) 
22

>  <i_i_glide_rotatable_bonds>  (378) 
2

>  <r_i_docking_score>  (378) 
-2.98761

>  <r_i_glide_ligand_efficiency>  (378) 
-0.14938

>  <r_i_glide_ligand_efficiency_sa>  (378) 
-0.405481

>  <r_i_glide_ligand_efficiency_ln>  (378) 
-0.7477

>  <r_i_glide_gscore>  (378) 
-2.98761

>  <r_i_glide_lipo>  (378) 
-0.0493081

>  <r_i_glide_hbond>  (378) 
-0.128621

>  <r_i_glide_metal>  (378) 
-0

>  <r_i_glide_rewards>  (378) 
-1.58669

>  <r_i_glide_evdw>  (378) 
-20.2792

>  <r_i_glide_ecoul>  (378) 
-2.64909

>  <r_i_glide_erotb>  (378) 
0.249566

>  <r_i_glide_esite>  (378) 
-0.0612358

>  <r_i_glide_emodel>  (378) 
-26.955

>  <r_i_glide_energy>  (378) 
-22.9283

>  <r_i_glide_einternal>  (378) 
1.49028

>  <r_i_glide_intrahb_reward>  (378) 
-0

>  <i_i_glide_confnum>  (378) 
2

>  <i_i_glide_posenum>  (378) 
16

>  <r_i_glide_eff_state_penalty>  (378) 
0

>  <ligand_id>  (378) 
107

>  <original_smiles>  (378) 
O=C1CCCC2=Nc3ncnn3C(c3ccccn3)C12

>  <smiles>  (378) 
[H]OC1=C2C(=C([H])C([H])([H])C1([H])[H])N([H])c1nc([H])nn1C2([H])c1nc([H])c([H])c([H])c1[H]

$$$$
107:1:2
     RDKit          3D

 33 36  0  0  1  0  0  0  0  0999 V2000
    1.0124   -5.4165    5.2174 O   0  0  0  0  0  0  0  0  0  0  0  0
    0.7281   -6.3831    4.3318 C   0  0  0  0  0  0  0  0  0  0  0  0
   -0.6508   -6.9636    4.5964 C   0  0  0  0  0  0  0  0  0  0  0  0
   -1.2297   -7.7156    3.3796 C   0  0  0  0  0  0  0  0  0  0  0  0
   -0.1526   -8.3161    2.4949 C   0  0  0  0  0  0  0  0  0  0  0  0
    1.1292   -7.9161    2.5014 C   0  0  0  0  0  0  0  0  0  0  0  0
    2.0749   -8.5760    1.7263 N   0  0  0  0  0  0  0  0  0  0  0  0
    3.4350   -8.3422    1.8837 C   0  0  0  0  0  0  0  0  0  0  0  0
    4.4384   -9.0847    1.4518 N   0  0  0  0  0  0  0  0  0  0  0  0
    5.4803   -8.4133    2.0296 C   0  0  0  0  0  0  0  0  0  0  0  0
    5.1697   -7.3089    2.7136 N   0  0  0  0  0  0  0  0  0  0  0  0
    3.8189   -7.2798    2.5981 N   0  0  0  0  0  0  0  0  0  0  0  0
    2.9630   -6.2255    3.1299 C   0  0  1  0  0  0  0  0  0  0  0  0
    2.9355   -5.0410    2.1634 C   0  0  0  0  0  0  0  0  0  0  0  0
    3.2013   -3.7251    2.6014 C   0  0  0  0  0  0  0  0  0  0  0  0
    3.1593   -2.6783    1.6568 C   0  0  0  0  0  0  0  0  0  0  0  0
    2.8679   -2.9838    0.3168 C   0  0  0  0  0  0  0  0  0  0  0  0
    2.6150   -4.3196   -0.0265 C   0  0  0  0  0  0  0  0  0  0  0  0
    2.6235   -5.3225    0.8756 N   0  0  0  0  0  0  0  0  0  0  0  0
    1.5572   -6.7997    3.3496 C   0  0  0  0  0  0  0  0  0  0  0  0
   -1.3395   -6.1794    4.9087 H   0  0  0  0  0  0  0  0  0  0  0  0
   -0.5569   -7.6555    5.4370 H   0  0  0  0  0  0  0  0  0  0  0  0
   -1.8836   -8.5192    3.7252 H   0  0  0  0  0  0  0  0  0  0  0  0
   -1.8278   -7.0505    2.7560 H   0  0  0  0  0  0  0  0  0  0  0  0
   -0.4698   -9.1258    1.8542 H   0  0  0  0  0  0  0  0  0  0  0  0
    6.5042   -8.7555    1.9442 H   0  0  0  0  0  0  0  0  0  0  0  0
    3.3903   -5.9208    4.0814 H   0  0  0  0  0  0  0  0  0  0  0  0
    3.4326   -3.5144    3.6350 H   0  0  0  0  0  0  0  0  0  0  0  0
    3.3404   -1.6527    1.9549 H   0  0  0  0  0  0  0  0  0  0  0  0
    2.8049   -2.2091   -0.4279 H   0  0  0  0  0  0  0  0  0  0  0  0
    2.3655   -4.5891   -1.0403 H   0  0  0  0  0  0  0  0  0  0  0  0
    1.7951   -9.3989    1.2145 H   0  0  0  0  0  0  0  0  0  0  0  0
    1.8965   -5.1294    5.0554 H   0  0  0  0  0  0  0  0  0  0  0  0
  1  2  1  0
  1 33  1  0
  2  3  1  0
  2 20  2  0
  3  4  1  0
  3 21  1  0
  3 22  1  0
  4  5  1  0
  4 23  1  0
  4 24  1  0
  5 25  1  0
  5  6  2  0
  6 20  1  0
  6  7  1  0
  7  8  1  0
  7 32  1  0
  8 12  1  0
  8  9  2  0
  9 10  1  0
 10 11  2  0
 10 26  1  0
 11 12  1  0
 12 13  1  0
 13 14  1  0
 13 27  1  1
 13 20  1  0
 14 19  1  0
 14 15  2  0
 15 16  1  0
 15 28  1  0
 16 17  2  0
 16 29  1  0
 17 18  1  0
 17 30  1  0
 18 19  2  0
 18 31  1  0
M  END
>  <i_m_ct_stereo_status>  (379) 
1

>  <s_m_source_file>  (379) 
/var/tmp/pbs.5076255.sched01/tmpl4jv_xt6/1264eazgjw7.sdf

>  <i_m_source_file_index>  (379) 
22

>  <i_lp_mmshare_version>  (379) 
48012

>  <i_f3d_flags>  (379) 
0

>  <s_epik_input>  (379) 
W0NIMl0xW0NIMl1bQ0gyXUMoPU8pW0NAQEhdKEMxPTIpW0NAQEhdKG4zYyhOMiluW2NIXW4zKWM0W2NIXVtjSF1bY0hdW2NIXW40

>  <s_epik_cmdline>  (379) 
J2VwaWtfcHl0aG9uJywgJy1waHQnLCAnMi4wJywgJy1waCcsICc3LjAnLCAnLXRuJywgJzgnLCAnLW1hJywgJzIwMCcsICctaW1hZScsICc8aW5maWxlLm1hZT4nLCAnLW9tYWUnLCAnPG91dGZpbGUubWFlPic=

>  <r_epik_Ionization_Penalty>  (379) 
0.305984

>  <r_epik_Ionization_Penalty_Charging>  (379) 
2.93331e-10

>  <r_epik_Ionization_Penalty_Neutral>  (379) 
0.305984

>  <r_epik_State_Penalty>  (379) 
0.439863

>  <r_epik_Charging_Adjusted_Penalty>  (379) 
0.439863

>  <i_epik_Tot_Q>  (379) 
0

>  <i_epik_Tot_abs_Q>  (379) 
0

>  <s_epik_Chemistry_Notes>  (379) 
This compound has an imine and may undergo hydrolysis.

>  <s_lp_Force_Field>  (379) 
OPLS3e

>  <r_lp_Energy>  (379) 
35.6754

>  <b_lp_Chiralities_Consistent>  (379) 
1

>  <s_lp_Variant>  (379) 
107:0-2

>  <s_i_glide_gridfile>  (379) 
pfpi4k_grid

>  <i_i_glide_lignum>  (379) 
22

>  <i_i_glide_rotatable_bonds>  (379) 
2

>  <r_i_docking_score>  (379) 
-2.79527

>  <r_i_glide_ligand_efficiency>  (379) 
-0.139763

>  <r_i_glide_ligand_efficiency_sa>  (379) 
-0.379376

>  <r_i_glide_ligand_efficiency_ln>  (379) 
-0.699563

>  <r_i_glide_gscore>  (379) 
-2.79527

>  <r_i_glide_lipo>  (379) 
-0.000119239

>  <r_i_glide_hbond>  (379) 
-0.0280601

>  <r_i_glide_metal>  (379) 
-0

>  <r_i_glide_rewards>  (379) 
-1.63273

>  <r_i_glide_evdw>  (379) 
-21.3703

>  <r_i_glide_ecoul>  (379) 
-1.95116

>  <r_i_glide_erotb>  (379) 
0.249566

>  <r_i_glide_esite>  (379) 
-0.0227384

>  <r_i_glide_emodel>  (379) 
-27.4114

>  <r_i_glide_energy>  (379) 
-23.3214

>  <r_i_glide_einternal>  (379) 
0.234014

>  <r_i_glide_intrahb_reward>  (379) 
-0

>  <i_i_glide_confnum>  (379) 
4

>  <i_i_glide_posenum>  (379) 
19

>  <r_i_glide_eff_state_penalty>  (379) 
0

>  <ligand_id>  (379) 
107

>  <original_smiles>  (379) 
O=C1CCCC2=Nc3ncnn3C(c3ccccn3)C12

>  <smiles>  (379) 
[H]OC1=C2C(=C([H])C([H])([H])C1([H])[H])N([H])c1nc([H])nn1C2([H])c1nc([H])c([H])c([H])c1[H]

$$$$
108:0:0
     RDKit          3D

 31 32  0  0  1  0  0  0  0  0999 V2000
   -3.6733    3.1372    9.1001 C   0  0  0  0  0  0  0  0  0  0  0  0
   -2.6571    4.1625    8.5896 C   0  0  0  0  0  0  0  0  0  0  0  0
   -1.8963    3.6805    7.3976 C   0  0  0  0  0  0  0  0  0  0  0  0
   -2.0768    2.5677    6.6284 C   0  0  0  0  0  0  0  0  0  0  0  0
   -1.0861    2.6638    5.6755 N   0  0  0  0  0  0  0  0  0  0  0  0
   -0.8051    1.7709    4.5522 C   0  0  2  0  0  0  0  0  0  0  0  0
    0.1617    0.8400    4.9558 O   0  0  0  0  0  0  0  0  0  0  0  0
    0.4356   -0.1648    3.9722 C   0  0  0  0  0  0  0  0  0  0  0  0
    1.0216    0.4823    2.6948 C   0  0  1  0  0  0  0  0  0  0  0  0
    1.3412   -0.4955    1.7025 O   0  0  0  0  0  0  0  0  0  0  0  0
    0.0602    1.5629    2.1728 C   0  0  1  0  0  0  0  0  0  0  0  0
   -1.1179    0.9428    1.6891 O   0  0  0  0  0  0  0  0  0  0  0  0
   -0.2940    2.5411    3.3074 C   0  0  1  0  0  0  0  0  0  0  0  0
   -1.2126    3.5343    2.8788 O   0  0  0  0  0  0  0  0  0  0  0  0
   -0.3013    3.7490    5.9102 N   0  0  0  0  0  0  0  0  0  0  0  0
   -0.8111    4.3957    6.9093 N   0  0  0  0  0  0  0  0  0  0  0  0
   -4.1840    3.4874    9.9933 H   0  0  0  0  0  0  0  0  0  0  0  0
   -3.1751    2.2046    9.3645 H   0  0  0  0  0  0  0  0  0  0  0  0
   -4.4325    2.9440    8.3425 H   0  0  0  0  0  0  0  0  0  0  0  0
   -3.1746    5.0921    8.3481 H   0  0  0  0  0  0  0  0  0  0  0  0
   -1.9527    4.4024    9.3873 H   0  0  0  0  0  0  0  0  0  0  0  0
   -2.8006    1.7752    6.6773 H   0  0  0  0  0  0  0  0  0  0  0  0
   -1.7297    1.2364    4.3280 H   0  0  0  0  0  0  0  0  0  0  0  0
    1.1348   -0.8826    4.3986 H   0  0  0  0  0  0  0  0  0  0  0  0
   -0.4638   -0.7379    3.7463 H   0  0  0  0  0  0  0  0  0  0  0  0
    1.9682    0.9514    2.9792 H   0  0  0  0  0  0  0  0  0  0  0  0
    1.0291   -0.2732    0.8218 H   0  0  0  0  0  0  0  0  0  0  0  0
    0.5442    2.1036    1.3671 H   0  0  0  0  0  0  0  0  0  0  0  0
   -1.0243    0.8253    0.7315 H   0  0  0  0  0  0  0  0  0  0  0  0
    0.6341    3.0498    3.5687 H   0  0  0  0  0  0  0  0  0  0  0  0
   -0.8469    3.9008    2.0766 H   0  0  0  0  0  0  0  0  0  0  0  0
  1  2  1  0
  1 17  1  0
  1 18  1  0
  1 19  1  0
  2  3  1  0
  2 20  1  0
  2 21  1  0
  3 16  1  0
  3  4  2  0
  4  5  1  0
  4 22  1  0
  5  6  1  0
  5 15  1  0
  6 13  1  0
  6  7  1  0
  6 23  1  6
  7  8  1  0
  8  9  1  0
  8 24  1  0
  8 25  1  0
  9 10  1  0
  9 11  1  0
  9 26  1  1
 10 27  1  0
 11 12  1  0
 11 13  1  0
 11 28  1  6
 12 29  1  0
 13 14  1  0
 13 30  1  1
 14 31  1  0
 15 16  2  0
M  END
>  <i_m_ct_stereo_status>  (380) 
1

>  <s_m_source_file>  (380) 
/var/tmp/pbs.5076255.sched01/tmpl4jv_xt6/1264eazgjw7.sdf

>  <i_m_source_file_index>  (380) 
23

>  <i_lp_mmshare_version>  (380) 
48012

>  <i_f3d_flags>  (380) 
0

>  <s_epik_input>  (380) 
W0NIM11bQ0gyXWMxW2NIXW4obm4xKVtDQEBIXTJPW0NIMl1bQ0BASF0oW09IXSlbQ0BASF0oW09IXSlbQ0BIXTJbT0hd

>  <s_epik_cmdline>  (380) 
J2VwaWtfcHl0aG9uJywgJy1waHQnLCAnMi4wJywgJy1waCcsICc3LjAnLCAnLXRuJywgJzgnLCAnLW1hJywgJzIwMCcsICctaW1hZScsICc8aW5maWxlLm1hZT4nLCAnLW9tYWUnLCAnPG91dGZpbGUubWFlPic=

>  <r_lp_tautomer_probability>  (380) 
1

>  <r_epik_Ionization_Penalty>  (380) 
3.93073e-05

>  <r_epik_Ionization_Penalty_Charging>  (380) 
0

>  <r_epik_Ionization_Penalty_Neutral>  (380) 
3.93073e-05

>  <r_epik_State_Penalty>  (380) 
-0

>  <r_epik_Charging_Adjusted_Penalty>  (380) 
0

>  <i_epik_Tot_Q>  (380) 
0

>  <i_epik_Tot_abs_Q>  (380) 
0

>  <s_epik_Chemistry_Notes>  (380) 
This compound contains an acetal/aminal-like group ( X-CH(R)-Y where X, Y are N, S, or O) that may be acid/base labile, releasing an aldehyde.

>  <s_lp_Force_Field>  (380) 
OPLS3e

>  <r_lp_Energy>  (380) 
15.9315

>  <b_lp_Chiralities_Consistent>  (380) 
1

>  <s_lp_Variant>  (380) 
108:0-1

>  <s_i_glide_gridfile>  (380) 
pfpi4k_grid

>  <i_i_glide_lignum>  (380) 
23

>  <i_i_glide_rotatable_bonds>  (380) 
5

>  <r_i_docking_score>  (380) 
-4.0762

>  <r_i_glide_ligand_efficiency>  (380) 
-0.254763

>  <r_i_glide_ligand_efficiency_sa>  (380) 
-0.641962

>  <r_i_glide_ligand_efficiency_ln>  (380) 
-1.08048

>  <r_i_glide_gscore>  (380) 
-4.0762

>  <r_i_glide_lipo>  (380) 
-0.203281

>  <r_i_glide_hbond>  (380) 
0

>  <r_i_glide_metal>  (380) 
-0

>  <r_i_glide_rewards>  (380) 
-1.85062

>  <r_i_glide_evdw>  (380) 
-11.5421

>  <r_i_glide_ecoul>  (380) 
-10.9689

>  <r_i_glide_erotb>  (380) 
0.227239

>  <r_i_glide_esite>  (380) 
-0.0271071

>  <r_i_glide_emodel>  (380) 
-27.4545

>  <r_i_glide_energy>  (380) 
-22.511

>  <r_i_glide_einternal>  (380) 
5.90323

>  <r_i_glide_intrahb_reward>  (380) 
-0

>  <i_i_glide_confnum>  (380) 
2

>  <i_i_glide_posenum>  (380) 
29

>  <r_i_glide_eff_state_penalty>  (380) 
0

>  <ligand_id>  (380) 
108

>  <original_smiles>  (380) 
CCc1cn(C2OCC(O)C(O)C2O)nn1

>  <smiles>  (380) 
[H]OC1([H])C([H])([H])OC([H])(n2nnc(C([H])([H])C([H])([H])[H])c2[H])C([H])(O[H])C1([H])O[H]

$$$$
108:0:1
     RDKit          3D

 31 32  0  0  1  0  0  0  0  0999 V2000
   -2.5974    3.2839    9.8932 C   0  0  0  0  0  0  0  0  0  0  0  0
   -2.8973    3.8002    8.4817 C   0  0  0  0  0  0  0  0  0  0  0  0
   -1.8158    3.4635    7.4997 C   0  0  0  0  0  0  0  0  0  0  0  0
   -1.8296    2.5843    6.4667 C   0  0  0  0  0  0  0  0  0  0  0  0
   -0.5720    2.7293    5.9113 N   0  0  0  0  0  0  0  0  0  0  0  0
   -0.0062    2.0727    4.7319 C   0  0  2  0  0  0  0  0  0  0  0  0
    0.9786    1.1690    5.1545 O   0  0  0  0  0  0  0  0  0  0  0  0
    1.5181    0.3650    4.1029 C   0  0  0  0  0  0  0  0  0  0  0  0
    2.2349    1.2621    3.0795 C   0  0  1  0  0  0  0  0  0  0  0  0
    2.7462    0.4993    1.9995 O   0  0  0  0  0  0  0  0  0  0  0  0
    1.2709    2.3347    2.5494 C   0  0  1  0  0  0  0  0  0  0  0  0
    0.2816    1.7241    1.7451 O   0  0  0  0  0  0  0  0  0  0  0  0
    0.6219    3.0869    3.7303 C   0  0  1  0  0  0  0  0  0  0  0  0
   -0.3227    4.0417    3.2788 O   0  0  0  0  0  0  0  0  0  0  0  0
    0.1769    3.6275    6.6053 N   0  0  0  0  0  0  0  0  0  0  0  0
   -0.5796    4.1139    7.5319 N   0  0  0  0  0  0  0  0  0  0  0  0
   -3.3921    3.5501   10.5883 H   0  0  0  0  0  0  0  0  0  0  0  0
   -1.6740    3.7143   10.2802 H   0  0  0  0  0  0  0  0  0  0  0  0
   -2.4973    2.1991    9.9060 H   0  0  0  0  0  0  0  0  0  0  0  0
   -3.8433    3.3686    8.1543 H   0  0  0  0  0  0  0  0  0  0  0  0
   -3.0440    4.8816    8.5148 H   0  0  0  0  0  0  0  0  0  0  0  0
   -2.5896    1.9314    6.0783 H   0  0  0  0  0  0  0  0  0  0  0  0
   -0.8052    1.4999    4.2598 H   0  0  0  0  0  0  0  0  0  0  0  0
    2.2200   -0.3496    4.5288 H   0  0  0  0  0  0  0  0  0  0  0  0
    0.7394   -0.2286    3.6240 H   0  0  0  0  0  0  0  0  0  0  0  0
    3.0780    1.7468    3.5747 H   0  0  0  0  0  0  0  0  0  0  0  0
    2.0067    0.2276    1.4697 H   0  0  0  0  0  0  0  0  0  0  0  0
    1.8363    3.0325    1.9337 H   0  0  0  0  0  0  0  0  0  0  0  0
   -0.1283    2.4088    1.2302 H   0  0  0  0  0  0  0  0  0  0  0  0
    1.4183    3.6232    4.2460 H   0  0  0  0  0  0  0  0  0  0  0  0
   -0.1843    4.1617    2.3306 H   0  0  0  0  0  0  0  0  0  0  0  0
  1  2  1  0
  1 17  1  0
  1 18  1  0
  1 19  1  0
  2  3  1  0
  2 20  1  0
  2 21  1  0
  3 16  1  0
  3  4  2  0
  4  5  1  0
  4 22  1  0
  5  6  1  0
  5 15  1  0
  6 13  1  0
  6  7  1  0
  6 23  1  6
  7  8  1  0
  8  9  1  0
  8 24  1  0
  8 25  1  0
  9 10  1  0
  9 11  1  0
  9 26  1  1
 10 27  1  0
 11 12  1  0
 11 13  1  0
 11 28  1  6
 12 29  1  0
 13 14  1  0
 13 30  1  1
 14 31  1  0
 15 16  2  0
M  END
>  <i_m_ct_stereo_status>  (381) 
1

>  <s_m_source_file>  (381) 
/var/tmp/pbs.5076255.sched01/tmpl4jv_xt6/1264eazgjw7.sdf

>  <i_m_source_file_index>  (381) 
23

>  <i_lp_mmshare_version>  (381) 
48012

>  <i_f3d_flags>  (381) 
0

>  <s_epik_input>  (381) 
W0NIM11bQ0gyXWMxW2NIXW4obm4xKVtDQEBIXTJPW0NIMl1bQ0BASF0oW09IXSlbQ0BASF0oW09IXSlbQ0BIXTJbT0hd

>  <s_epik_cmdline>  (381) 
J2VwaWtfcHl0aG9uJywgJy1waHQnLCAnMi4wJywgJy1waCcsICc3LjAnLCAnLXRuJywgJzgnLCAnLW1hJywgJzIwMCcsICctaW1hZScsICc8aW5maWxlLm1hZT4nLCAnLW9tYWUnLCAnPG91dGZpbGUubWFlPic=

>  <r_lp_tautomer_probability>  (381) 
1

>  <r_epik_Ionization_Penalty>  (381) 
3.93073e-05

>  <r_epik_Ionization_Penalty_Charging>  (381) 
0

>  <r_epik_Ionization_Penalty_Neutral>  (381) 
3.93073e-05

>  <r_epik_State_Penalty>  (381) 
-0

>  <r_epik_Charging_Adjusted_Penalty>  (381) 
0

>  <i_epik_Tot_Q>  (381) 
0

>  <i_epik_Tot_abs_Q>  (381) 
0

>  <s_epik_Chemistry_Notes>  (381) 
This compound contains an acetal/aminal-like group ( X-CH(R)-Y where X, Y are N, S, or O) that may be acid/base labile, releasing an aldehyde.

>  <s_lp_Force_Field>  (381) 
OPLS3e

>  <r_lp_Energy>  (381) 
15.9315

>  <b_lp_Chiralities_Consistent>  (381) 
1

>  <s_lp_Variant>  (381) 
108:0-1

>  <s_i_glide_gridfile>  (381) 
pfpi4k_grid

>  <i_i_glide_lignum>  (381) 
23

>  <i_i_glide_rotatable_bonds>  (381) 
5

>  <r_i_docking_score>  (381) 
-3.70368

>  <r_i_glide_ligand_efficiency>  (381) 
-0.23148

>  <r_i_glide_ligand_efficiency_sa>  (381) 
-0.583294

>  <r_i_glide_ligand_efficiency_ln>  (381) 
-0.981736

>  <r_i_glide_gscore>  (381) 
-3.70368

>  <r_i_glide_lipo>  (381) 
-0.196482

>  <r_i_glide_hbond>  (381) 
0

>  <r_i_glide_metal>  (381) 
-0

>  <r_i_glide_rewards>  (381) 
-1.84614

>  <r_i_glide_evdw>  (381) 
-13.2752

>  <r_i_glide_ecoul>  (381) 
-8.71325

>  <r_i_glide_erotb>  (381) 
0.324627

>  <r_i_glide_esite>  (381) 
-0.0149444

>  <r_i_glide_emodel>  (381) 
-28.2337

>  <r_i_glide_energy>  (381) 
-21.9884

>  <r_i_glide_einternal>  (381) 
2.27306

>  <r_i_glide_intrahb_reward>  (381) 
-0

>  <i_i_glide_confnum>  (381) 
2

>  <i_i_glide_posenum>  (381) 
9

>  <r_i_glide_eff_state_penalty>  (381) 
0

>  <ligand_id>  (381) 
108

>  <original_smiles>  (381) 
CCc1cn(C2OCC(O)C(O)C2O)nn1

>  <smiles>  (381) 
[H]OC1([H])C([H])([H])OC([H])(n2nnc(C([H])([H])C([H])([H])[H])c2[H])C([H])(O[H])C1([H])O[H]

$$$$
108:0:2
     RDKit          3D

 31 32  0  0  1  0  0  0  0  0999 V2000
   -3.0233    3.3518   10.5537 C   0  0  0  0  0  0  0  0  0  0  0  0
   -3.5380    3.8504    9.2003 C   0  0  0  0  0  0  0  0  0  0  0  0
   -2.5585    3.5960    8.0856 C   0  0  0  0  0  0  0  0  0  0  0  0
   -2.5463    2.5963    7.1658 C   0  0  0  0  0  0  0  0  0  0  0  0
   -1.4412    2.8841    6.3821 N   0  0  0  0  0  0  0  0  0  0  0  0
   -0.9597    2.1777    5.1991 C   0  0  2  0  0  0  0  0  0  0  0  0
    0.4403    2.0980    5.2643 O   0  0  0  0  0  0  0  0  0  0  0  0
    1.0368    1.3376    4.2083 C   0  0  0  0  0  0  0  0  0  0  0  0
    0.7380    2.0050    2.8522 C   0  0  1  0  0  0  0  0  0  0  0  0
    1.2879    1.2546    1.7890 O   0  0  0  0  0  0  0  0  0  0  0  0
   -0.7829    2.1519    2.6831 C   0  0  1  0  0  0  0  0  0  0  0  0
   -1.3695    0.8717    2.5791 O   0  0  0  0  0  0  0  0  0  0  0  0
   -1.3808    2.8979    3.8873 C   0  0  1  0  0  0  0  0  0  0  0  0
   -2.7897    2.9766    3.7195 O   0  0  0  0  0  0  0  0  0  0  0  0
   -0.8214    4.0082    6.8100 N   0  0  0  0  0  0  0  0  0  0  0  0
   -1.4847    4.4418    7.8396 N   0  0  0  0  0  0  0  0  0  0  0  0
   -3.7411    3.5575   11.3502 H   0  0  0  0  0  0  0  0  0  0  0  0
   -2.0861    3.8367   10.8272 H   0  0  0  0  0  0  0  0  0  0  0  0
   -2.8559    2.2747   10.5472 H   0  0  0  0  0  0  0  0  0  0  0  0
   -4.4955    3.3777    8.9863 H   0  0  0  0  0  0  0  0  0  0  0  0
   -3.7429    4.9179    9.2606 H   0  0  0  0  0  0  0  0  0  0  0  0
   -3.2057    1.7663    6.9910 H   0  0  0  0  0  0  0  0  0  0  0  0
   -1.3494    1.1581    5.2484 H   0  0  0  0  0  0  0  0  0  0  0  0
    2.1130    1.2806    4.3699 H   0  0  0  0  0  0  0  0  0  0  0  0
    0.6702    0.3076    4.2275 H   0  0  0  0  0  0  0  0  0  0  0  0
    1.2027    2.9922    2.8221 H   0  0  0  0  0  0  0  0  0  0  0  0
    0.8318    1.4877    0.9890 H   0  0  0  0  0  0  0  0  0  0  0  0
   -0.9856    2.7115    1.7791 H   0  0  0  0  0  0  0  0  0  0  0  0
   -2.3062    0.9519    2.3966 H   0  0  0  0  0  0  0  0  0  0  0  0
   -0.9853    3.9164    3.9345 H   0  0  0  0  0  0  0  0  0  0  0  0
   -3.1390    2.1031    3.5960 H   0  0  0  0  0  0  0  0  0  0  0  0
  1  2  1  0
  1 17  1  0
  1 18  1  0
  1 19  1  0
  2  3  1  0
  2 20  1  0
  2 21  1  0
  3 16  1  0
  3  4  2  0
  4  5  1  0
  4 22  1  0
  5  6  1  0
  5 15  1  0
  6 13  1  0
  6  7  1  0
  6 23  1  6
  7  8  1  0
  8  9  1  0
  8 24  1  0
  8 25  1  0
  9 10  1  0
  9 11  1  0
  9 26  1  1
 10 27  1  0
 11 12  1  0
 11 13  1  0
 11 28  1  6
 12 29  1  0
 13 14  1  0
 13 30  1  1
 14 31  1  0
 15 16  2  0
M  END
>  <i_m_ct_stereo_status>  (382) 
1

>  <s_m_source_file>  (382) 
/var/tmp/pbs.5076255.sched01/tmpl4jv_xt6/1264eazgjw7.sdf

>  <i_m_source_file_index>  (382) 
23

>  <i_lp_mmshare_version>  (382) 
48012

>  <i_f3d_flags>  (382) 
0

>  <s_epik_input>  (382) 
W0NIM11bQ0gyXWMxW2NIXW4obm4xKVtDQEBIXTJPW0NIMl1bQ0BASF0oW09IXSlbQ0BASF0oW09IXSlbQ0BIXTJbT0hd

>  <s_epik_cmdline>  (382) 
J2VwaWtfcHl0aG9uJywgJy1waHQnLCAnMi4wJywgJy1waCcsICc3LjAnLCAnLXRuJywgJzgnLCAnLW1hJywgJzIwMCcsICctaW1hZScsICc8aW5maWxlLm1hZT4nLCAnLW9tYWUnLCAnPG91dGZpbGUubWFlPic=

>  <r_lp_tautomer_probability>  (382) 
1

>  <r_epik_Ionization_Penalty>  (382) 
3.93073e-05

>  <r_epik_Ionization_Penalty_Charging>  (382) 
0

>  <r_epik_Ionization_Penalty_Neutral>  (382) 
3.93073e-05

>  <r_epik_State_Penalty>  (382) 
-0

>  <r_epik_Charging_Adjusted_Penalty>  (382) 
0

>  <i_epik_Tot_Q>  (382) 
0

>  <i_epik_Tot_abs_Q>  (382) 
0

>  <s_epik_Chemistry_Notes>  (382) 
This compound contains an acetal/aminal-like group ( X-CH(R)-Y where X, Y are N, S, or O) that may be acid/base labile, releasing an aldehyde.

>  <s_lp_Force_Field>  (382) 
OPLS3e

>  <r_lp_Energy>  (382) 
15.9315

>  <b_lp_Chiralities_Consistent>  (382) 
1

>  <s_lp_Variant>  (382) 
108:0-1

>  <s_i_glide_gridfile>  (382) 
pfpi4k_grid

>  <i_i_glide_lignum>  (382) 
23

>  <i_i_glide_rotatable_bonds>  (382) 
5

>  <r_i_docking_score>  (382) 
-3.5969

>  <r_i_glide_ligand_efficiency>  (382) 
-0.224806

>  <r_i_glide_ligand_efficiency_sa>  (382) 
-0.566476

>  <r_i_glide_ligand_efficiency_ln>  (382) 
-0.95343

>  <r_i_glide_gscore>  (382) 
-3.5969

>  <r_i_glide_lipo>  (382) 
-0.333198

>  <r_i_glide_hbond>  (382) 
0

>  <r_i_glide_metal>  (382) 
-0

>  <r_i_glide_rewards>  (382) 
-1.89985

>  <r_i_glide_evdw>  (382) 
-16.536

>  <r_i_glide_ecoul>  (382) 
-5.63977

>  <r_i_glide_erotb>  (382) 
0.324627

>  <r_i_glide_esite>  (382) 
-0.0157141

>  <r_i_glide_emodel>  (382) 
-28.4304

>  <r_i_glide_energy>  (382) 
-22.1758

>  <r_i_glide_einternal>  (382) 
1.71742

>  <r_i_glide_intrahb_reward>  (382) 
-0

>  <i_i_glide_confnum>  (382) 
4

>  <i_i_glide_posenum>  (382) 
17

>  <r_i_glide_eff_state_penalty>  (382) 
0

>  <ligand_id>  (382) 
108

>  <original_smiles>  (382) 
CCc1cn(C2OCC(O)C(O)C2O)nn1

>  <smiles>  (382) 
[H]OC1([H])C([H])([H])OC([H])(n2nnc(C([H])([H])C([H])([H])[H])c2[H])C([H])(O[H])C1([H])O[H]

$$$$
109:0:0
     RDKit          3D

 64 69  0  0  1  0  0  0  0  0999 V2000
    5.2155   -8.8602    3.4817 C   0  0  0  0  0  0  0  0  0  0  0  0
    4.4905   -7.7130    2.7441 C   0  0  2  0  0  0  0  0  0  0  0  0
    5.0389   -7.6904    1.2957 C   0  0  0  0  0  0  0  0  0  0  0  0
    4.6034   -6.4614    0.4813 C   0  0  0  0  0  0  0  0  0  0  0  0
    5.0107   -5.1238    1.1420 C   0  0  2  0  0  0  0  0  0  0  0  0
    6.4266   -5.0961    1.2502 O   0  0  0  0  0  0  0  0  0  0  0  0
    4.4036   -5.0900    2.5663 C   0  0  2  0  0  0  0  0  0  0  0  0
    4.6911   -3.7516    3.2938 C   0  0  0  0  0  0  0  0  0  0  0  0
    5.0705   -2.5787    2.3643 C   0  0  0  0  0  0  0  0  0  0  0  0
    4.2884   -2.5675    1.0262 C   0  0  1  0  0  0  0  0  0  0  0  0
    2.7904   -2.3047    1.2879 C   0  0  0  0  0  0  0  0  0  0  0  0
    4.8161   -1.4901    0.0376 C   0  0  1  0  0  0  0  0  0  0  0  0
    5.2754   -0.2933    0.6429 O   0  0  0  0  0  0  0  0  0  0  0  0
    5.9157   -2.1716   -0.7650 C   0  0  0  0  0  0  0  0  0  0  0  0
    5.3904   -3.5877   -0.9625 C   0  0  0  0  0  0  0  0  0  0  0  0
    4.5132   -3.9174    0.2704 C   0  0  1  0  0  0  0  0  0  0  0  0
    4.7565   -6.3357    3.4522 C   0  0  1  0  0  0  0  0  0  0  0  0
    4.0087   -6.2834    4.8144 C   0  0  0  0  0  0  0  0  0  0  0  0
    2.4707   -6.3920    4.6497 C   0  0  0  0  0  0  0  0  0  0  0  0
    2.0998   -7.4029    3.5772 C   0  0  0  0  0  0  0  0  0  0  0  0
    2.9881   -8.0185    2.7891 C   0  0  0  0  0  0  0  0  0  0  0  0
    2.3389   -9.0571    1.9189 C   0  0  0  0  0  0  0  0  0  0  0  0
    0.9277   -9.2022    2.5149 C   0  0  0  0  0  0  0  0  0  0  0  0
    0.6873   -7.9064    3.3379 C   0  0  0  0  0  0  0  0  0  0  0  0
   -0.0657   -7.0058    2.5950 O   0  0  0  0  0  0  0  0  0  0  0  0
   -1.3937   -7.4500    2.7766 C   0  0  0  0  0  0  0  0  0  0  0  0
   -1.3791   -7.9682    4.2075 C   0  0  0  0  0  0  0  0  0  0  0  0
   -0.0082   -8.1918    4.5027 O   0  0  0  0  0  0  0  0  0  0  0  0
    6.2760   -8.6452    3.6059 H   0  0  0  0  0  0  0  0  0  0  0  0
    5.1404   -9.7972    2.9307 H   0  0  0  0  0  0  0  0  0  0  0  0
    4.8015   -9.0483    4.4720 H   0  0  0  0  0  0  0  0  0  0  0  0
    6.1263   -7.7194    1.3317 H   0  0  0  0  0  0  0  0  0  0  0  0
    4.7508   -8.5989    0.7658 H   0  0  0  0  0  0  0  0  0  0  0  0
    5.0106   -6.5265   -0.5240 H   0  0  0  0  0  0  0  0  0  0  0  0
    3.5206   -6.4985    0.3451 H   0  0  0  0  0  0  0  0  0  0  0  0
    6.6916   -5.8544    1.7462 H   0  0  0  0  0  0  0  0  0  0  0  0
    3.3251   -5.1219    2.4039 H   0  0  0  0  0  0  0  0  0  0  0  0
    3.7999   -3.4842    3.8620 H   0  0  0  0  0  0  0  0  0  0  0  0
    5.4918   -3.8864    4.0250 H   0  0  0  0  0  0  0  0  0  0  0  0
    4.9211   -1.6403    2.9003 H   0  0  0  0  0  0  0  0  0  0  0  0
    6.1379   -2.6304    2.1471 H   0  0  0  0  0  0  0  0  0  0  0  0
    2.2276   -2.2628    0.3538 H   0  0  0  0  0  0  0  0  0  0  0  0
    2.6458   -1.3500    1.7941 H   0  0  0  0  0  0  0  0  0  0  0  0
    2.3367   -3.0823    1.8995 H   0  0  0  0  0  0  0  0  0  0  0  0
    4.0204   -1.2240   -0.6628 H   0  0  0  0  0  0  0  0  0  0  0  0
    5.2931    0.3994   -0.0062 H   0  0  0  0  0  0  0  0  0  0  0  0
    6.1260   -1.6719   -1.7112 H   0  0  0  0  0  0  0  0  0  0  0  0
    6.8428   -2.2038   -0.1911 H   0  0  0  0  0  0  0  0  0  0  0  0
    4.7695   -3.6137   -1.8575 H   0  0  0  0  0  0  0  0  0  0  0  0
    6.2137   -4.2803   -1.1266 H   0  0  0  0  0  0  0  0  0  0  0  0
    3.5407   -4.2078   -0.1311 H   0  0  0  0  0  0  0  0  0  0  0  0
    5.8269   -6.2857    3.6637 H   0  0  0  0  0  0  0  0  0  0  0  0
    4.3558   -7.1031    5.4418 H   0  0  0  0  0  0  0  0  0  0  0  0
    4.2678   -5.3859    5.3765 H   0  0  0  0  0  0  0  0  0  0  0  0
    2.0219   -6.6923    5.5960 H   0  0  0  0  0  0  0  0  0  0  0  0
    2.0410   -5.4270    4.3828 H   0  0  0  0  0  0  0  0  0  0  0  0
    2.2914   -8.6974    0.8896 H   0  0  0  0  0  0  0  0  0  0  0  0
    2.8777  -10.0035    1.9283 H   0  0  0  0  0  0  0  0  0  0  0  0
    0.1738   -9.3475    1.7437 H   0  0  0  0  0  0  0  0  0  0  0  0
    0.8980  -10.0560    3.1940 H   0  0  0  0  0  0  0  0  0  0  0  0
   -2.1186   -6.6547    2.6352 H   0  0  0  0  0  0  0  0  0  0  0  0
   -1.6383   -8.2384    2.0665 H   0  0  0  0  0  0  0  0  0  0  0  0
   -1.7858   -7.2165    4.8832 H   0  0  0  0  0  0  0  0  0  0  0  0
   -1.9707   -8.8792    4.3067 H   0  0  0  0  0  0  0  0  0  0  0  0
  2  1  1  1
  1 29  1  0
  1 30  1  0
  1 31  1  0
  2 17  1  0
  2 21  1  0
  2  3  1  0
  3  4  1  0
  3 32  1  0
  3 33  1  0
  4  5  1  0
  4 34  1  0
  4 35  1  0
  5 16  1  0
  5  6  1  1
  5  7  1  0
  6 36  1  0
  7  8  1  0
  7 17  1  0
  7 37  1  6
  8  9  1  0
  8 38  1  0
  8 39  1  0
  9 10  1  0
  9 40  1  0
  9 41  1  0
 10 16  1  0
 10 11  1  1
 10 12  1  0
 11 42  1  0
 11 43  1  0
 11 44  1  0
 12 13  1  0
 12 14  1  0
 12 45  1  6
 13 46  1  0
 14 15  1  0
 14 47  1  0
 14 48  1  0
 15 16  1  0
 15 49  1  0
 15 50  1  0
 16 51  1  6
 17 18  1  0
 17 52  1  1
 18 19  1  0
 18 53  1  0
 18 54  1  0
 19 20  1  0
 19 55  1  0
 19 56  1  0
 20 24  1  0
 20 21  2  0
 21 22  1  0
 22 23  1  0
 22 57  1  0
 22 58  1  0
 23 24  1  0
 23 59  1  0
 23 60  1  0
 24 28  1  0
 24 25  1  0
 25 26  1  0
 26 27  1  0
 26 61  1  0
 26 62  1  0
 27 28  1  0
 27 63  1  0
 27 64  1  0
M  END
>  <i_m_ct_stereo_status>  (383) 
1

>  <s_m_source_file>  (383) 
/var/tmp/pbs.5076255.sched01/tmpl4jv_xt6/1264eazgjw7.sdf

>  <i_m_source_file_index>  (383) 
24

>  <i_lp_mmshare_version>  (383) 
48012

>  <i_f3d_flags>  (383) 
0

>  <s_epik_input>  (383) 
TzFbQ0gyXVtDSDJdT0MxMkMzPUMoW0NIMl1bQ0gyXTIpW0NAXTQoW0NIM10pW0NASF0oW0NIMl1bQ0gyXTMpW0NAQEhdNVtDQEBdKFtPSF0pKFtDSDJdW0NIMl00KVtDQEhdNltDQEBdKFtDSDNdKShbQ0gyXVtDSDJdNSlbQ0BASF0oW09IXSlbQ0gyXVtDSDJdNg==

>  <s_epik_cmdline>  (383) 
J2VwaWtfcHl0aG9uJywgJy1waHQnLCAnMi4wJywgJy1waCcsICc3LjAnLCAnLXRuJywgJzgnLCAnLW1hJywgJzIwMCcsICctaW1hZScsICc8aW5maWxlLm1hZT4nLCAnLW9tYWUnLCAnPG91dGZpbGUubWFlPic=

>  <r_lp_tautomer_probability>  (383) 
1

>  <r_epik_Ionization_Penalty>  (383) 
4.00271e-06

>  <r_epik_Ionization_Penalty_Charging>  (383) 
0

>  <r_epik_Ionization_Penalty_Neutral>  (383) 
4.00271e-06

>  <r_epik_State_Penalty>  (383) 
-0

>  <r_epik_Charging_Adjusted_Penalty>  (383) 
0

>  <i_epik_Tot_Q>  (383) 
0

>  <i_epik_Tot_abs_Q>  (383) 
0

>  <s_lp_Force_Field>  (383) 
OPLS3e

>  <r_lp_Energy>  (383) 
27.6051

>  <b_lp_Chiralities_Consistent>  (383) 
1

>  <s_lp_Variant>  (383) 
109:0-1

>  <s_i_glide_gridfile>  (383) 
pfpi4k_grid

>  <i_i_glide_lignum>  (383) 
24

>  <i_i_glide_rotatable_bonds>  (383) 
2

>  <r_i_docking_score>  (383) 
-3.58876

>  <r_i_glide_ligand_efficiency>  (383) 
-0.12817

>  <r_i_glide_ligand_efficiency_sa>  (383) 
-0.389199

>  <r_i_glide_ligand_efficiency_ln>  (383) 
-0.82839

>  <r_i_glide_gscore>  (383) 
-3.58876

>  <r_i_glide_lipo>  (383) 
-0.478889

>  <r_i_glide_hbond>  (383) 
-0.37141

>  <r_i_glide_metal>  (383) 
-0

>  <r_i_glide_rewards>  (383) 
-0.759953

>  <r_i_glide_evdw>  (383) 
-28.9374

>  <r_i_glide_ecoul>  (383) 
-3.37757

>  <r_i_glide_erotb>  (383) 
0

>  <r_i_glide_esite>  (383) 
-0.0249983

>  <r_i_glide_emodel>  (383) 
-38.8465

>  <r_i_glide_energy>  (383) 
-32.315

>  <r_i_glide_einternal>  (383) 
0.56615

>  <r_i_glide_intrahb_reward>  (383) 
-0

>  <i_i_glide_confnum>  (383) 
3

>  <i_i_glide_posenum>  (383) 
28

>  <r_i_glide_eff_state_penalty>  (383) 
0

>  <ligand_id>  (383) 
109

>  <original_smiles>  (383) 
CC12CCC3(O)C(CCC4(C)C(O)CCC43)C1CCC1=C2CCC12OCCO2

>  <smiles>  (383) 
[H]OC1([H])C([H])([H])C([H])([H])C2([H])C3(O[H])C([H])([H])C([H])([H])C4(C([H])([H])[H])C5=C(C([H])([H])C([H])([H])C4([H])C3([H])C([H])([H])C([H])([H])C12C([H])([H])[H])C1(OC([H])([H])C([H])([H])O1)C([H])([H])C5([H])[H]

$$$$
109:0:1
     RDKit          3D

 64 69  0  0  1  0  0  0  0  0999 V2000
    5.2238   -8.9086    3.4930 C   0  0  0  0  0  0  0  0  0  0  0  0
    4.4866   -7.7603    2.7684 C   0  0  2  0  0  0  0  0  0  0  0  0
    5.0424   -7.7088    1.3219 C   0  0  0  0  0  0  0  0  0  0  0  0
    4.5979   -6.4744    0.5231 C   0  0  0  0  0  0  0  0  0  0  0  0
    4.9806   -5.1432    1.2087 C   0  0  2  0  0  0  0  0  0  0  0  0
    6.3972   -5.0963    1.3279 O   0  0  0  0  0  0  0  0  0  0  0  0
    4.3656   -5.1378    2.6311 C   0  0  2  0  0  0  0  0  0  0  0  0
    4.6331   -3.8080    3.3816 C   0  0  0  0  0  0  0  0  0  0  0  0
    5.0015   -2.6179    2.4738 C   0  0  0  0  0  0  0  0  0  0  0  0
    4.2255   -2.5974    1.1333 C   0  0  1  0  0  0  0  0  0  0  0  0
    2.7265   -2.3534    1.3903 C   0  0  0  0  0  0  0  0  0  0  0  0
    4.7470   -1.5033    0.1691 C   0  0  1  0  0  0  0  0  0  0  0  0
    5.1832   -0.3232    0.8089 O   0  0  0  0  0  0  0  0  0  0  0  0
    5.8623   -2.1516   -0.6393 C   0  0  0  0  0  0  0  0  0  0  0  0
    5.3559   -3.5722   -0.8701 C   0  0  0  0  0  0  0  0  0  0  0  0
    4.4745   -3.9299    0.3539 C   0  0  1  0  0  0  0  0  0  0  0  0
    4.7325   -6.3909    3.4997 C   0  0  1  0  0  0  0  0  0  0  0  0
    3.9785   -6.3692    4.8602 C   0  0  0  0  0  0  0  0  0  0  0  0
    2.4444   -6.4951    4.6891 C   0  0  0  0  0  0  0  0  0  0  0  0
    2.0922   -7.4924    3.5975 C   0  0  0  0  0  0  0  0  0  0  0  0
    2.9899   -8.0839    2.8038 C   0  0  0  0  0  0  0  0  0  0  0  0
    2.3567   -9.1170    1.9156 C   0  0  0  0  0  0  0  0  0  0  0  0
    0.9442   -9.2873    2.5003 C   0  0  0  0  0  0  0  0  0  0  0  0
    0.6869   -8.0067    3.3426 C   0  0  0  0  0  0  0  0  0  0  0  0
   -0.0700   -7.0976    2.6107 O   0  0  0  0  0  0  0  0  0  0  0  0
   -1.3992   -7.5486    2.7776 C   0  0  0  0  0  0  0  0  0  0  0  0
   -1.3805   -8.1078    4.1952 C   0  0  0  0  0  0  0  0  0  0  0  0
   -0.0107   -8.3204    4.4966 O   0  0  0  0  0  0  0  0  0  0  0  0
    6.2811   -8.6825    3.6254 H   0  0  0  0  0  0  0  0  0  0  0  0
    5.1626   -9.8377    2.9278 H   0  0  0  0  0  0  0  0  0  0  0  0
    4.8080   -9.1166    4.4785 H   0  0  0  0  0  0  0  0  0  0  0  0
    6.1306   -7.7261    1.3644 H   0  0  0  0  0  0  0  0  0  0  0  0
    4.7680   -8.6122    0.7787 H   0  0  0  0  0  0  0  0  0  0  0  0
    5.0151   -6.5157   -0.4806 H   0  0  0  0  0  0  0  0  0  0  0  0
    3.5161   -6.5210    0.3810 H   0  0  0  0  0  0  0  0  0  0  0  0
    6.6687   -5.8610    1.8092 H   0  0  0  0  0  0  0  0  0  0  0  0
    3.2893   -5.1816    2.4617 H   0  0  0  0  0  0  0  0  0  0  0  0
    3.7373   -3.5597    3.9502 H   0  0  0  0  0  0  0  0  0  0  0  0
    5.4330   -3.9413    4.1133 H   0  0  0  0  0  0  0  0  0  0  0  0
    4.8381   -1.6914    3.0275 H   0  0  0  0  0  0  0  0  0  0  0  0
    6.0701   -2.6518    2.2613 H   0  0  0  0  0  0  0  0  0  0  0  0
    2.1801   -2.3020    0.4481 H   0  0  0  0  0  0  0  0  0  0  0  0
    2.5641   -1.4085    1.9099 H   0  0  0  0  0  0  0  0  0  0  0  0
    2.2745   -3.1465    1.9846 H   0  0  0  0  0  0  0  0  0  0  0  0
    3.9642   -1.2215   -0.5376 H   0  0  0  0  0  0  0  0  0  0  0  0
    4.4178    0.1543    1.0942 H   0  0  0  0  0  0  0  0  0  0  0  0
    6.0613   -1.6252   -1.5756 H   0  0  0  0  0  0  0  0  0  0  0  0
    6.7895   -2.1749   -0.0643 H   0  0  0  0  0  0  0  0  0  0  0  0
    4.7360   -3.5831   -1.7654 H   0  0  0  0  0  0  0  0  0  0  0  0
    6.1842   -4.2559   -1.0529 H   0  0  0  0  0  0  0  0  0  0  0  0
    3.5080   -4.2270   -0.0594 H   0  0  0  0  0  0  0  0  0  0  0  0
    5.8015   -6.3279    3.7160 H   0  0  0  0  0  0  0  0  0  0  0  0
    4.3334   -7.1932    5.4777 H   0  0  0  0  0  0  0  0  0  0  0  0
    4.2233   -5.4772    5.4371 H   0  0  0  0  0  0  0  0  0  0  0  0
    1.9955   -6.8145    5.6295 H   0  0  0  0  0  0  0  0  0  0  0  0
    2.0027   -5.5325    4.4333 H   0  0  0  0  0  0  0  0  0  0  0  0
    2.3067   -8.7398    0.8945 H   0  0  0  0  0  0  0  0  0  0  0  0
    2.9058  -10.0586    1.9099 H   0  0  0  0  0  0  0  0  0  0  0  0
    0.1960   -9.4292    1.7243 H   0  0  0  0  0  0  0  0  0  0  0  0
    0.9221  -10.1525    3.1655 H   0  0  0  0  0  0  0  0  0  0  0  0
   -2.1341   -6.7540    2.6457 H   0  0  0  0  0  0  0  0  0  0  0  0
   -1.6284   -8.3340    2.0548 H   0  0  0  0  0  0  0  0  0  0  0  0
   -1.7948   -7.3740    4.8834 H   0  0  0  0  0  0  0  0  0  0  0  0
   -1.9596   -9.0297    4.2708 H   0  0  0  0  0  0  0  0  0  0  0  0
  2  1  1  1
  1 29  1  0
  1 30  1  0
  1 31  1  0
  2 17  1  0
  2 21  1  0
  2  3  1  0
  3  4  1  0
  3 32  1  0
  3 33  1  0
  4  5  1  0
  4 34  1  0
  4 35  1  0
  5 16  1  0
  5  6  1  1
  5  7  1  0
  6 36  1  0
  7  8  1  0
  7 17  1  0
  7 37  1  6
  8  9  1  0
  8 38  1  0
  8 39  1  0
  9 10  1  0
  9 40  1  0
  9 41  1  0
 10 16  1  0
 10 11  1  1
 10 12  1  0
 11 42  1  0
 11 43  1  0
 11 44  1  0
 12 13  1  0
 12 14  1  0
 12 45  1  6
 13 46  1  0
 14 15  1  0
 14 47  1  0
 14 48  1  0
 15 16  1  0
 15 49  1  0
 15 50  1  0
 16 51  1  6
 17 18  1  0
 17 52  1  1
 18 19  1  0
 18 53  1  0
 18 54  1  0
 19 20  1  0
 19 55  1  0
 19 56  1  0
 20 24  1  0
 20 21  2  0
 21 22  1  0
 22 23  1  0
 22 57  1  0
 22 58  1  0
 23 24  1  0
 23 59  1  0
 23 60  1  0
 24 28  1  0
 24 25  1  0
 25 26  1  0
 26 27  1  0
 26 61  1  0
 26 62  1  0
 27 28  1  0
 27 63  1  0
 27 64  1  0
M  END
>  <i_m_ct_stereo_status>  (384) 
1

>  <s_m_source_file>  (384) 
/var/tmp/pbs.5076255.sched01/tmpl4jv_xt6/1264eazgjw7.sdf

>  <i_m_source_file_index>  (384) 
24

>  <i_lp_mmshare_version>  (384) 
48012

>  <i_f3d_flags>  (384) 
0

>  <s_epik_input>  (384) 
TzFbQ0gyXVtDSDJdT0MxMkMzPUMoW0NIMl1bQ0gyXTIpW0NAXTQoW0NIM10pW0NASF0oW0NIMl1bQ0gyXTMpW0NAQEhdNVtDQEBdKFtPSF0pKFtDSDJdW0NIMl00KVtDQEhdNltDQEBdKFtDSDNdKShbQ0gyXVtDSDJdNSlbQ0BASF0oW09IXSlbQ0gyXVtDSDJdNg==

>  <s_epik_cmdline>  (384) 
J2VwaWtfcHl0aG9uJywgJy1waHQnLCAnMi4wJywgJy1waCcsICc3LjAnLCAnLXRuJywgJzgnLCAnLW1hJywgJzIwMCcsICctaW1hZScsICc8aW5maWxlLm1hZT4nLCAnLW9tYWUnLCAnPG91dGZpbGUubWFlPic=

>  <r_lp_tautomer_probability>  (384) 
1

>  <r_epik_Ionization_Penalty>  (384) 
4.00271e-06

>  <r_epik_Ionization_Penalty_Charging>  (384) 
0

>  <r_epik_Ionization_Penalty_Neutral>  (384) 
4.00271e-06

>  <r_epik_State_Penalty>  (384) 
-0

>  <r_epik_Charging_Adjusted_Penalty>  (384) 
0

>  <i_epik_Tot_Q>  (384) 
0

>  <i_epik_Tot_abs_Q>  (384) 
0

>  <s_lp_Force_Field>  (384) 
OPLS3e

>  <r_lp_Energy>  (384) 
27.6051

>  <b_lp_Chiralities_Consistent>  (384) 
1

>  <s_lp_Variant>  (384) 
109:0-1

>  <s_i_glide_gridfile>  (384) 
pfpi4k_grid

>  <i_i_glide_lignum>  (384) 
24

>  <i_i_glide_rotatable_bonds>  (384) 
2

>  <r_i_docking_score>  (384) 
-2.90928

>  <r_i_glide_ligand_efficiency>  (384) 
-0.103903

>  <r_i_glide_ligand_efficiency_sa>  (384) 
-0.31551

>  <r_i_glide_ligand_efficiency_ln>  (384) 
-0.671548

>  <r_i_glide_gscore>  (384) 
-2.90928

>  <r_i_glide_lipo>  (384) 
-0.484983

>  <r_i_glide_hbond>  (384) 
-0.0225546

>  <r_i_glide_metal>  (384) 
-0

>  <r_i_glide_rewards>  (384) 
-0.759953

>  <r_i_glide_evdw>  (384) 
-28.9208

>  <r_i_glide_ecoul>  (384) 
-1.14262

>  <r_i_glide_erotb>  (384) 
0

>  <r_i_glide_esite>  (384) 
-0.0243553

>  <r_i_glide_emodel>  (384) 
-35.3882

>  <r_i_glide_energy>  (384) 
-30.0635

>  <r_i_glide_einternal>  (384) 
0.404565

>  <r_i_glide_intrahb_reward>  (384) 
-0

>  <i_i_glide_confnum>  (384) 
6

>  <i_i_glide_posenum>  (384) 
17

>  <r_i_glide_eff_state_penalty>  (384) 
0

>  <ligand_id>  (384) 
109

>  <original_smiles>  (384) 
CC12CCC3(O)C(CCC4(C)C(O)CCC43)C1CCC1=C2CCC12OCCO2

>  <smiles>  (384) 
[H]OC1([H])C([H])([H])C([H])([H])C2([H])C3(O[H])C([H])([H])C([H])([H])C4(C([H])([H])[H])C5=C(C([H])([H])C([H])([H])C4([H])C3([H])C([H])([H])C([H])([H])C12C([H])([H])[H])C1(OC([H])([H])C([H])([H])O1)C([H])([H])C5([H])[H]

$$$$
109:0:2
     RDKit          3D

 64 69  0  0  1  0  0  0  0  0999 V2000
    5.2370   -8.8868    3.4901 C   0  0  0  0  0  0  0  0  0  0  0  0
    4.4956   -7.7448    2.7614 C   0  0  2  0  0  0  0  0  0  0  0  0
    5.0492   -7.6984    1.3152 C   0  0  0  0  0  0  0  0  0  0  0  0
    4.5973   -6.4737    0.5077 C   0  0  0  0  0  0  0  0  0  0  0  0
    4.9823   -5.1424    1.1847 C   0  0  2  0  0  0  0  0  0  0  0  0
    6.3961   -5.0972    1.2971 O   0  0  0  0  0  0  0  0  0  0  0  0
    4.3714   -5.1253    2.6082 C   0  0  2  0  0  0  0  0  0  0  0  0
    4.6347   -3.7901    3.3516 C   0  0  0  0  0  0  0  0  0  0  0  0
    4.9960   -2.6021    2.4377 C   0  0  0  0  0  0  0  0  0  0  0  0
    4.2168   -2.5967    1.0984 C   0  0  1  0  0  0  0  0  0  0  0  0
    2.7167   -2.3547    1.3577 C   0  0  0  0  0  0  0  0  0  0  0  0
    4.7312   -1.5025    0.1264 C   0  0  1  0  0  0  0  0  0  0  0  0
    5.1654   -0.3176    0.7618 O   0  0  0  0  0  0  0  0  0  0  0  0
    5.8463   -2.1511   -0.6805 C   0  0  0  0  0  0  0  0  0  0  0  0
    5.3452   -3.5748   -0.9014 C   0  0  0  0  0  0  0  0  0  0  0  0
    4.4698   -3.9327    0.3261 C   0  0  1  0  0  0  0  0  0  0  0  0
    4.7379   -6.3713    3.4837 C   0  0  1  0  0  0  0  0  0  0  0  0
    3.9853   -6.3439    4.8437 C   0  0  0  0  0  0  0  0  0  0  0  0
    2.4497   -6.4764    4.6738 C   0  0  0  0  0  0  0  0  0  0  0  0
    2.0988   -7.4826    3.5905 C   0  0  0  0  0  0  0  0  0  0  0  0
    2.9992   -8.0745    2.7978 C   0  0  0  0  0  0  0  0  0  0  0  0
    2.3694   -9.1153    1.9154 C   0  0  0  0  0  0  0  0  0  0  0  0
    0.9590   -9.2893    2.5067 C   0  0  0  0  0  0  0  0  0  0  0  0
    0.6956   -8.0038    3.3388 C   0  0  0  0  0  0  0  0  0  0  0  0
   -0.0655   -7.1040    2.6034 O   0  0  0  0  0  0  0  0  0  0  0  0
   -1.3943   -7.5543    2.7747 C   0  0  0  0  0  0  0  0  0  0  0  0
   -1.3711   -8.1056    4.1962 C   0  0  0  0  0  0  0  0  0  0  0  0
    0.0004   -8.3120    4.4971 O   0  0  0  0  0  0  0  0  0  0  0  0
    6.2929   -8.6554    3.6197 H   0  0  0  0  0  0  0  0  0  0  0  0
    5.1795   -9.8194    2.9302 H   0  0  0  0  0  0  0  0  0  0  0  0
    4.8236   -9.0917    4.4770 H   0  0  0  0  0  0  0  0  0  0  0  0
    6.1368   -7.6996    1.3588 H   0  0  0  0  0  0  0  0  0  0  0  0
    4.7827   -8.6054    0.7747 H   0  0  0  0  0  0  0  0  0  0  0  0
    5.0159   -6.5173   -0.4952 H   0  0  0  0  0  0  0  0  0  0  0  0
    3.5155   -6.5201    0.3673 H   0  0  0  0  0  0  0  0  0  0  0  0
    6.6173   -4.3056    1.7634 H   0  0  0  0  0  0  0  0  0  0  0  0
    3.2943   -5.1695    2.4414 H   0  0  0  0  0  0  0  0  0  0  0  0
    3.7360   -3.5416    3.9178 H   0  0  0  0  0  0  0  0  0  0  0  0
    5.4319   -3.9167    4.0873 H   0  0  0  0  0  0  0  0  0  0  0  0
    4.8211   -1.6746    2.9868 H   0  0  0  0  0  0  0  0  0  0  0  0
    6.0649   -2.6201    2.2256 H   0  0  0  0  0  0  0  0  0  0  0  0
    2.1711   -2.3112    0.4153 H   0  0  0  0  0  0  0  0  0  0  0  0
    2.5486   -1.4072    1.8719 H   0  0  0  0  0  0  0  0  0  0  0  0
    2.2670   -3.1450    1.9561 H   0  0  0  0  0  0  0  0  0  0  0  0
    3.9439   -1.2257   -0.5793 H   0  0  0  0  0  0  0  0  0  0  0  0
    4.3986    0.1604    1.0453 H   0  0  0  0  0  0  0  0  0  0  0  0
    6.0432   -1.6285   -1.6176 H   0  0  0  0  0  0  0  0  0  0  0  0
    6.7734   -2.1656   -0.1055 H   0  0  0  0  0  0  0  0  0  0  0  0
    4.7227   -3.5905   -1.7966 H   0  0  0  0  0  0  0  0  0  0  0  0
    6.1718   -4.2589   -1.0849 H   0  0  0  0  0  0  0  0  0  0  0  0
    3.5027   -4.2299   -0.0834 H   0  0  0  0  0  0  0  0  0  0  0  0
    5.8078   -6.3060    3.6930 H   0  0  0  0  0  0  0  0  0  0  0  0
    4.3432   -7.1640    5.4639 H   0  0  0  0  0  0  0  0  0  0  0  0
    4.2269   -5.4483    5.4168 H   0  0  0  0  0  0  0  0  0  0  0  0
    2.0023   -6.7929    5.6157 H   0  0  0  0  0  0  0  0  0  0  0  0
    2.0044   -5.5164    4.4146 H   0  0  0  0  0  0  0  0  0  0  0  0
    2.3191   -8.7465    0.8896 H   0  0  0  0  0  0  0  0  0  0  0  0
    2.9240  -10.0528    1.9176 H   0  0  0  0  0  0  0  0  0  0  0  0
    0.2079   -9.4396    1.7339 H   0  0  0  0  0  0  0  0  0  0  0  0
    0.9424  -10.1495    3.1769 H   0  0  0  0  0  0  0  0  0  0  0  0
   -2.1307   -6.7619    2.6399 H   0  0  0  0  0  0  0  0  0  0  0  0
   -1.6194   -8.3464    2.0589 H   0  0  0  0  0  0  0  0  0  0  0  0
   -1.7901   -7.3710    4.8819 H   0  0  0  0  0  0  0  0  0  0  0  0
   -1.9473   -9.0289    4.2787 H   0  0  0  0  0  0  0  0  0  0  0  0
  2  1  1  1
  1 29  1  0
  1 30  1  0
  1 31  1  0
  2 17  1  0
  2 21  1  0
  2  3  1  0
  3  4  1  0
  3 32  1  0
  3 33  1  0
  4  5  1  0
  4 34  1  0
  4 35  1  0
  5 16  1  0
  5  6  1  1
  5  7  1  0
  6 36  1  0
  7  8  1  0
  7 17  1  0
  7 37  1  6
  8  9  1  0
  8 38  1  0
  8 39  1  0
  9 10  1  0
  9 40  1  0
  9 41  1  0
 10 16  1  0
 10 11  1  1
 10 12  1  0
 11 42  1  0
 11 43  1  0
 11 44  1  0
 12 13  1  0
 12 14  1  0
 12 45  1  6
 13 46  1  0
 14 15  1  0
 14 47  1  0
 14 48  1  0
 15 16  1  0
 15 49  1  0
 15 50  1  0
 16 51  1  6
 17 18  1  0
 17 52  1  1
 18 19  1  0
 18 53  1  0
 18 54  1  0
 19 20  1  0
 19 55  1  0
 19 56  1  0
 20 24  1  0
 20 21  2  0
 21 22  1  0
 22 23  1  0
 22 57  1  0
 22 58  1  0
 23 24  1  0
 23 59  1  0
 23 60  1  0
 24 28  1  0
 24 25  1  0
 25 26  1  0
 26 27  1  0
 26 61  1  0
 26 62  1  0
 27 28  1  0
 27 63  1  0
 27 64  1  0
M  END
>  <i_m_ct_stereo_status>  (385) 
1

>  <s_m_source_file>  (385) 
/var/tmp/pbs.5076255.sched01/tmpl4jv_xt6/1264eazgjw7.sdf

>  <i_m_source_file_index>  (385) 
24

>  <i_lp_mmshare_version>  (385) 
48012

>  <i_f3d_flags>  (385) 
0

>  <s_epik_input>  (385) 
TzFbQ0gyXVtDSDJdT0MxMkMzPUMoW0NIMl1bQ0gyXTIpW0NAXTQoW0NIM10pW0NASF0oW0NIMl1bQ0gyXTMpW0NAQEhdNVtDQEBdKFtPSF0pKFtDSDJdW0NIMl00KVtDQEhdNltDQEBdKFtDSDNdKShbQ0gyXVtDSDJdNSlbQ0BASF0oW09IXSlbQ0gyXVtDSDJdNg==

>  <s_epik_cmdline>  (385) 
J2VwaWtfcHl0aG9uJywgJy1waHQnLCAnMi4wJywgJy1waCcsICc3LjAnLCAnLXRuJywgJzgnLCAnLW1hJywgJzIwMCcsICctaW1hZScsICc8aW5maWxlLm1hZT4nLCAnLW9tYWUnLCAnPG91dGZpbGUubWFlPic=

>  <r_lp_tautomer_probability>  (385) 
1

>  <r_epik_Ionization_Penalty>  (385) 
4.00271e-06

>  <r_epik_Ionization_Penalty_Charging>  (385) 
0

>  <r_epik_Ionization_Penalty_Neutral>  (385) 
4.00271e-06

>  <r_epik_State_Penalty>  (385) 
-0

>  <r_epik_Charging_Adjusted_Penalty>  (385) 
0

>  <i_epik_Tot_Q>  (385) 
0

>  <i_epik_Tot_abs_Q>  (385) 
0

>  <s_lp_Force_Field>  (385) 
OPLS3e

>  <r_lp_Energy>  (385) 
27.6051

>  <b_lp_Chiralities_Consistent>  (385) 
1

>  <s_lp_Variant>  (385) 
109:0-1

>  <s_i_glide_gridfile>  (385) 
pfpi4k_grid

>  <i_i_glide_lignum>  (385) 
24

>  <i_i_glide_rotatable_bonds>  (385) 
2

>  <r_i_docking_score>  (385) 
-2.90127

>  <r_i_glide_ligand_efficiency>  (385) 
-0.103617

>  <r_i_glide_ligand_efficiency_sa>  (385) 
-0.314642

>  <r_i_glide_ligand_efficiency_ln>  (385) 
-0.669698

>  <r_i_glide_gscore>  (385) 
-2.90127

>  <r_i_glide_lipo>  (385) 
-0.485367

>  <r_i_glide_hbond>  (385) 
-0.0196931

>  <r_i_glide_metal>  (385) 
-0

>  <r_i_glide_rewards>  (385) 
-0.759953

>  <r_i_glide_evdw>  (385) 
-28.9186

>  <r_i_glide_ecoul>  (385) 
-1.10713

>  <r_i_glide_erotb>  (385) 
0

>  <r_i_glide_esite>  (385) 
-0.0242579

>  <r_i_glide_emodel>  (385) 
-35.3328

>  <r_i_glide_energy>  (385) 
-30.0257

>  <r_i_glide_einternal>  (385) 
0.39772

>  <r_i_glide_intrahb_reward>  (385) 
-0

>  <i_i_glide_confnum>  (385) 
3

>  <i_i_glide_posenum>  (385) 
32

>  <r_i_glide_eff_state_penalty>  (385) 
0

>  <ligand_id>  (385) 
109

>  <original_smiles>  (385) 
CC12CCC3(O)C(CCC4(C)C(O)CCC43)C1CCC1=C2CCC12OCCO2

>  <smiles>  (385) 
[H]OC1([H])C([H])([H])C([H])([H])C2([H])C3(O[H])C([H])([H])C([H])([H])C4(C([H])([H])[H])C5=C(C([H])([H])C([H])([H])C4([H])C3([H])C([H])([H])C([H])([H])C12C([H])([H])[H])C1(OC([H])([H])C([H])([H])O1)C([H])([H])C5([H])[H]

$$$$
110:0:0
     RDKit          3D

 31 32  0  0  1  0  0  0  0  0999 V2000
    6.6898   -1.4511    0.1982 O   0  0  0  0  0  0  0  0  0  0  0  0
    6.3458   -2.6030    0.4377 C   0  0  0  0  0  0  0  0  0  0  0  0
    7.3433   -3.7484    0.5215 C   0  0  0  0  0  0  0  0  0  0  0  0
    6.4580   -4.9519    0.8492 C   0  0  0  0  0  0  0  0  0  0  0  0
    5.0551   -4.3551    0.8635 C   0  0  0  0  0  0  0  0  0  0  0  0
    4.0433   -5.0231    1.0482 O   0  0  0  0  0  0  0  0  0  0  0  0
    5.0869   -3.0378    0.6094 N   0  0  0  0  0  0  0  0  0  0  0  0
    3.8831   -2.2117    0.4175 C   0  0  0  0  0  0  0  0  0  0  0  0
    3.4213   -1.9701   -0.9787 N   0  0  0  0  0  0  0  0  0  0  0  0
    3.1678   -3.2375   -1.7176 C   0  0  0  0  0  0  0  0  0  0  0  0
    2.6003   -2.9537   -3.1158 C   0  0  0  0  0  0  0  0  0  0  0  0
    3.5332   -2.0312   -3.9143 C   0  0  0  0  0  0  0  0  0  0  0  0
    3.8230   -0.7484   -3.1231 C   0  0  0  0  0  0  0  0  0  0  0  0
    4.3582   -1.0937   -1.7355 C   0  0  0  0  0  0  0  0  0  0  0  0
    7.8591   -3.8578   -0.4330 H   0  0  0  0  0  0  0  0  0  0  0  0
    8.0740   -3.5360    1.2981 H   0  0  0  0  0  0  0  0  0  0  0  0
    6.5215   -5.7298    0.0847 H   0  0  0  0  0  0  0  0  0  0  0  0
    6.6999   -5.3801    1.8220 H   0  0  0  0  0  0  0  0  0  0  0  0
    4.0334   -1.2471    0.9124 H   0  0  0  0  0  0  0  0  0  0  0  0
    3.0424   -2.6591    0.9562 H   0  0  0  0  0  0  0  0  0  0  0  0
    4.0978   -3.7996   -1.8253 H   0  0  0  0  0  0  0  0  0  0  0  0
    2.4723   -3.8610   -1.1517 H   0  0  0  0  0  0  0  0  0  0  0  0
    2.4591   -3.8916   -3.6544 H   0  0  0  0  0  0  0  0  0  0  0  0
    1.6143   -2.4970   -3.0199 H   0  0  0  0  0  0  0  0  0  0  0  0
    4.4606   -2.5634   -4.1532 H   0  0  0  0  0  0  0  0  0  0  0  0
    3.0575   -1.7543   -4.8536 H   0  0  0  0  0  0  0  0  0  0  0  0
    4.5627   -0.1511   -3.6557 H   0  0  0  0  0  0  0  0  0  0  0  0
    2.9186   -0.1439   -3.0391 H   0  0  0  0  0  0  0  0  0  0  0  0
    4.5330   -0.1818   -1.1604 H   0  0  0  0  0  0  0  0  0  0  0  0
    5.3156   -1.5925   -1.8885 H   0  0  0  0  0  0  0  0  0  0  0  0
    2.5236   -1.4897   -0.9164 H   0  0  0  0  0  0  0  0  0  0  0  0
  1  2  2  0
  2  3  1  0
  2  7  1  0
  3 16  1  0
  3 15  1  0
  3  4  1  0
  4 17  1  0
  4 18  1  0
  4  5  1  0
  5  6  2  0
  5  7  1  0
  7  8  1  0
  8  9  1  0
  8 19  1  0
  8 20  1  0
  9 14  1  0
  9 10  1  0
  9 31  1  0
 10 11  1  0
 10 21  1  0
 10 22  1  0
 11 12  1  0
 11 23  1  0
 11 24  1  0
 12 13  1  0
 12 25  1  0
 12 26  1  0
 13 14  1  0
 13 27  1  0
 13 28  1  0
 14 29  1  0
 14 30  1  0
M  CHG  1   9   1
M  END
>  <i_m_ct_stereo_status>  (386) 
1

>  <s_m_source_file>  (386) 
/var/tmp/pbs.5076255.sched01/tmpl4jv_xt6/1264eazgjw7.sdf

>  <i_m_source_file_index>  (386) 
25

>  <i_lp_mmshare_version>  (386) 
48012

>  <i_f3d_flags>  (386) 
0

>  <s_epik_input>  (386) 
W09IXWMxW2NIXVtjSF1jKFtPSF0pbjFbQ0gyXU4yW0NIMl1bQ0gyXVtDSDJdW0NIMl1bQ0gyXTI=

>  <s_epik_cmdline>  (386) 
J2VwaWtfcHl0aG9uJywgJy1waHQnLCAnMi4wJywgJy1waCcsICc3LjAnLCAnLXRuJywgJzgnLCAnLW1hJywgJzIwMCcsICctaW1hZScsICc8aW5maWxlLm1hZT4nLCAnLW9tYWUnLCAnPG91dGZpbGUubWFlPic=

>  <r_lp_tautomer_probability>  (386) 
1

>  <r_epik_Ionization_Penalty>  (386) 
0.167762

>  <r_epik_Ionization_Penalty_Charging>  (386) 
0.167762

>  <r_epik_Ionization_Penalty_Neutral>  (386) 
6.05168e-15

>  <r_epik_State_Penalty>  (386) 
0.157121

>  <r_epik_Charging_Adjusted_Penalty>  (386) 
0.324883

>  <i_epik_Tot_Q>  (386) 
1

>  <i_epik_Tot_abs_Q>  (386) 
1

>  <s_epik_Chemistry_Notes>  (386) 
This compound contains an acetal/aminal-like group ( X-CH(R)-Y where X, Y are N, S, or O) that may be acid/base labile, releasing an aldehyde.

>  <s_lp_Force_Field>  (386) 
OPLS3e

>  <r_lp_Energy>  (386) 
5.81866

>  <b_lp_Chiralities_Consistent>  (386) 
1

>  <s_lp_Variant>  (386) 
110:0-1

>  <s_i_glide_gridfile>  (386) 
pfpi4k_grid

>  <i_i_glide_lignum>  (386) 
25

>  <i_i_glide_rotatable_bonds>  (386) 
2

>  <r_i_docking_score>  (386) 
-4.3231

>  <r_i_glide_ligand_efficiency>  (386) 
-0.308793

>  <r_i_glide_ligand_efficiency_sa>  (386) 
-0.744234

>  <r_i_glide_ligand_efficiency_ln>  (386) 
-1.18797

>  <r_i_glide_gscore>  (386) 
-4.3231

>  <r_i_glide_lipo>  (386) 
-0.634487

>  <r_i_glide_hbond>  (386) 
-0.229377

>  <r_i_glide_metal>  (386) 
-0

>  <r_i_glide_rewards>  (386) 
-2.27238

>  <r_i_glide_evdw>  (386) 
-21.9596

>  <r_i_glide_ecoul>  (386) 
-5.46831

>  <r_i_glide_erotb>  (386) 
0.835684

>  <r_i_glide_esite>  (386) 
-0.104317

>  <r_i_glide_emodel>  (386) 
-33.9566

>  <r_i_glide_energy>  (386) 
-27.4279

>  <r_i_glide_einternal>  (386) 
4.21673

>  <r_i_glide_intrahb_reward>  (386) 
-0

>  <i_i_glide_confnum>  (386) 
4

>  <i_i_glide_posenum>  (386) 
28

>  <r_i_glide_eff_state_penalty>  (386) 
0

>  <ligand_id>  (386) 
110

>  <original_smiles>  (386) 
Oc1ccc(O)n1CN1CCCCC1

>  <smiles>  (386) 
[H]C1([H])C(=O)N(C([H])([H])[N+]2([H])C([H])([H])C([H])([H])C([H])([H])C([H])([H])C2([H])[H])C(=O)C1([H])[H]

$$$$
110:0:1
     RDKit          3D

 31 32  0  0  1  0  0  0  0  0999 V2000
    3.7683   -3.9897    2.0872 O   0  0  0  0  0  0  0  0  0  0  0  0
    4.5166   -3.0615    1.8023 C   0  0  0  0  0  0  0  0  0  0  0  0
    4.6673   -1.8153    2.6695 C   0  0  0  0  0  0  0  0  0  0  0  0
    5.6405   -0.9494    1.8683 C   0  0  0  0  0  0  0  0  0  0  0  0
    5.9794   -1.8278    0.6777 C   0  0  0  0  0  0  0  0  0  0  0  0
    6.7820   -1.4890   -0.1903 O   0  0  0  0  0  0  0  0  0  0  0  0
    5.2748   -2.9690    0.6954 N   0  0  0  0  0  0  0  0  0  0  0  0
    5.2379   -3.9302   -0.4130 C   0  0  0  0  0  0  0  0  0  0  0  0
    4.4196   -3.5819   -1.6065 N   0  0  0  0  0  0  0  0  0  0  0  0
    4.9994   -2.4649   -2.4044 C   0  0  0  0  0  0  0  0  0  0  0  0
    4.2226   -2.2280   -3.7047 C   0  0  0  0  0  0  0  0  0  0  0  0
    2.7544   -1.9345   -3.3901 C   0  0  0  0  0  0  0  0  0  0  0  0
    2.1742   -3.0683   -2.5347 C   0  0  0  0  0  0  0  0  0  0  0  0
    2.9995   -3.3143   -1.2653 C   0  0  0  0  0  0  0  0  0  0  0  0
    3.6947   -1.3331    2.7991 H   0  0  0  0  0  0  0  0  0  0  0  0
    5.0756   -2.0755    3.6476 H   0  0  0  0  0  0  0  0  0  0  0  0
    5.1771   -0.0244    1.5242 H   0  0  0  0  0  0  0  0  0  0  0  0
    6.5536   -0.7182    2.4117 H   0  0  0  0  0  0  0  0  0  0  0  0
    4.8713   -4.8963   -0.0458 H   0  0  0  0  0  0  0  0  0  0  0  0
    6.2627   -4.1374   -0.7351 H   0  0  0  0  0  0  0  0  0  0  0  0
    4.9314   -1.5343   -1.8436 H   0  0  0  0  0  0  0  0  0  0  0  0
    6.0496   -2.6760   -2.6257 H   0  0  0  0  0  0  0  0  0  0  0  0
    4.6507   -1.3585   -4.2081 H   0  0  0  0  0  0  0  0  0  0  0  0
    4.3183   -3.0894   -4.3723 H   0  0  0  0  0  0  0  0  0  0  0  0
    2.6592   -0.9806   -2.8549 H   0  0  0  0  0  0  0  0  0  0  0  0
    2.1868   -1.8424   -4.3205 H   0  0  0  0  0  0  0  0  0  0  0  0
    1.1402   -2.8463   -2.2708 H   0  0  0  0  0  0  0  0  0  0  0  0
    2.1397   -3.9722   -3.1407 H   0  0  0  0  0  0  0  0  0  0  0  0
    2.6054   -4.1875   -0.7388 H   0  0  0  0  0  0  0  0  0  0  0  0
    2.9226   -2.4474   -0.6032 H   0  0  0  0  0  0  0  0  0  0  0  0
    4.4073   -4.4048   -2.1903 H   0  0  0  0  0  0  0  0  0  0  0  0
  1  2  2  0
  2  3  1  0
  2  7  1  0
  3 16  1  0
  3 15  1  0
  3  4  1  0
  4 17  1  0
  4 18  1  0
  4  5  1  0
  5  6  2  0
  5  7  1  0
  7  8  1  0
  8  9  1  0
  8 19  1  0
  8 20  1  0
  9 14  1  0
  9 10  1  0
  9 31  1  0
 10 11  1  0
 10 21  1  0
 10 22  1  0
 11 12  1  0
 11 23  1  0
 11 24  1  0
 12 13  1  0
 12 25  1  0
 12 26  1  0
 13 14  1  0
 13 27  1  0
 13 28  1  0
 14 29  1  0
 14 30  1  0
M  CHG  1   9   1
M  END
>  <i_m_ct_stereo_status>  (387) 
1

>  <s_m_source_file>  (387) 
/var/tmp/pbs.5076255.sched01/tmpl4jv_xt6/1264eazgjw7.sdf

>  <i_m_source_file_index>  (387) 
25

>  <i_lp_mmshare_version>  (387) 
48012

>  <i_f3d_flags>  (387) 
0

>  <s_epik_input>  (387) 
W09IXWMxW2NIXVtjSF1jKFtPSF0pbjFbQ0gyXU4yW0NIMl1bQ0gyXVtDSDJdW0NIMl1bQ0gyXTI=

>  <s_epik_cmdline>  (387) 
J2VwaWtfcHl0aG9uJywgJy1waHQnLCAnMi4wJywgJy1waCcsICc3LjAnLCAnLXRuJywgJzgnLCAnLW1hJywgJzIwMCcsICctaW1hZScsICc8aW5maWxlLm1hZT4nLCAnLW9tYWUnLCAnPG91dGZpbGUubWFlPic=

>  <r_lp_tautomer_probability>  (387) 
1

>  <r_epik_Ionization_Penalty>  (387) 
0.167762

>  <r_epik_Ionization_Penalty_Charging>  (387) 
0.167762

>  <r_epik_Ionization_Penalty_Neutral>  (387) 
6.05168e-15

>  <r_epik_State_Penalty>  (387) 
0.157121

>  <r_epik_Charging_Adjusted_Penalty>  (387) 
0.324883

>  <i_epik_Tot_Q>  (387) 
1

>  <i_epik_Tot_abs_Q>  (387) 
1

>  <s_epik_Chemistry_Notes>  (387) 
This compound contains an acetal/aminal-like group ( X-CH(R)-Y where X, Y are N, S, or O) that may be acid/base labile, releasing an aldehyde.

>  <s_lp_Force_Field>  (387) 
OPLS3e

>  <r_lp_Energy>  (387) 
5.81866

>  <b_lp_Chiralities_Consistent>  (387) 
1

>  <s_lp_Variant>  (387) 
110:0-1

>  <s_i_glide_gridfile>  (387) 
pfpi4k_grid

>  <i_i_glide_lignum>  (387) 
25

>  <i_i_glide_rotatable_bonds>  (387) 
2

>  <r_i_docking_score>  (387) 
-4.20308

>  <r_i_glide_ligand_efficiency>  (387) 
-0.30022

>  <r_i_glide_ligand_efficiency_sa>  (387) 
-0.723573

>  <r_i_glide_ligand_efficiency_ln>  (387) 
-1.15499

>  <r_i_glide_gscore>  (387) 
-4.20308

>  <r_i_glide_lipo>  (387) 
-0.759475

>  <r_i_glide_hbond>  (387) 
-0.114568

>  <r_i_glide_metal>  (387) 
-0

>  <r_i_glide_rewards>  (387) 
-2.36764

>  <r_i_glide_evdw>  (387) 
-19.4091

>  <r_i_glide_ecoul>  (387) 
-5.39258

>  <r_i_glide_erotb>  (387) 
0.835684

>  <r_i_glide_esite>  (387) 
-0.0177448

>  <r_i_glide_emodel>  (387) 
-31.8617

>  <r_i_glide_energy>  (387) 
-24.8017

>  <r_i_glide_einternal>  (387) 
2.52309

>  <r_i_glide_intrahb_reward>  (387) 
-0

>  <i_i_glide_confnum>  (387) 
3

>  <i_i_glide_posenum>  (387) 
6

>  <r_i_glide_eff_state_penalty>  (387) 
0

>  <ligand_id>  (387) 
110

>  <original_smiles>  (387) 
Oc1ccc(O)n1CN1CCCCC1

>  <smiles>  (387) 
[H]C1([H])C(=O)N(C([H])([H])[N+]2([H])C([H])([H])C([H])([H])C([H])([H])C([H])([H])C2([H])[H])C(=O)C1([H])[H]

$$$$
110:0:2
     RDKit          3D

 31 32  0  0  1  0  0  0  0  0999 V2000
    1.3592   -2.4938    2.8677 O   0  0  0  0  0  0  0  0  0  0  0  0
    2.0210   -1.4723    2.6255 C   0  0  0  0  0  0  0  0  0  0  0  0
    1.8906   -0.1785    3.4113 C   0  0  0  0  0  0  0  0  0  0  0  0
    2.9614    0.7197    2.7552 C   0  0  0  0  0  0  0  0  0  0  0  0
    3.6221   -0.2276    1.7830 C   0  0  0  0  0  0  0  0  0  0  0  0
    4.6920    0.0470    1.2352 O   0  0  0  0  0  0  0  0  0  0  0  0
    2.9720   -1.3883    1.6836 N   0  0  0  0  0  0  0  0  0  0  0  0
    3.3272   -2.4398    0.7159 C   0  0  0  0  0  0  0  0  0  0  0  0
    3.0428   -2.1964   -0.7319 N   0  0  0  0  0  0  0  0  0  0  0  0
    2.8157   -3.4266   -1.5192 C   0  0  0  0  0  0  0  0  0  0  0  0
    2.3866   -3.0597   -2.9702 C   0  0  0  0  0  0  0  0  0  0  0  0
    3.4156   -2.1542   -3.6685 C   0  0  0  0  0  0  0  0  0  0  0  0
    3.7013   -0.9469   -2.7946 C   0  0  0  0  0  0  0  0  0  0  0  0
    4.0891   -1.3733   -1.3958 C   0  0  0  0  0  0  0  0  0  0  0  0
    0.8768    0.2292    3.3026 H   0  0  0  0  0  0  0  0  0  0  0  0
    2.1142   -0.3421    4.4765 H   0  0  0  0  0  0  0  0  0  0  0  0
    2.5030    1.5817    2.2617 H   0  0  0  0  0  0  0  0  0  0  0  0
    3.7051    1.0653    3.4780 H   0  0  0  0  0  0  0  0  0  0  0  0
    2.8009   -3.3503    1.0085 H   0  0  0  0  0  0  0  0  0  0  0  0
    4.3709   -2.7294    0.8480 H   0  0  0  0  0  0  0  0  0  0  0  0
    3.7438   -4.0216   -1.5501 H   0  0  0  0  0  0  0  0  0  0  0  0
    2.0377   -4.0641   -1.0659 H   0  0  0  0  0  0  0  0  0  0  0  0
    2.2607   -3.9634   -3.5608 H   0  0  0  0  0  0  0  0  0  0  0  0
    1.4094   -2.5763   -2.9364 H   0  0  0  0  0  0  0  0  0  0  0  0
    4.3506   -2.7061   -3.8325 H   0  0  0  0  0  0  0  0  0  0  0  0
    3.0364   -1.8085   -4.6334 H   0  0  0  0  0  0  0  0  0  0  0  0
    4.4944   -0.3167   -3.2207 H   0  0  0  0  0  0  0  0  0  0  0  0
    2.8086   -0.3190   -2.7314 H   0  0  0  0  0  0  0  0  0  0  0  0
    4.1690   -0.3953   -0.9566 H   0  0  0  0  0  0  0  0  0  0  0  0
    5.0556   -1.8811   -1.3537 H   0  0  0  0  0  0  0  0  0  0  0  0
    2.1473   -1.7117   -0.7431 H   0  0  0  0  0  0  0  0  0  0  0  0
  1  2  2  0
  2  3  1  0
  2  7  1  0
  3 16  1  0
  3 15  1  0
  3  4  1  0
  4 17  1  0
  4 18  1  0
  4  5  1  0
  5  6  2  0
  5  7  1  0
  7  8  1  0
  8  9  1  0
  8 19  1  0
  8 20  1  0
  9 14  1  0
  9 10  1  0
  9 31  1  0
 10 11  1  0
 10 21  1  0
 10 22  1  0
 11 12  1  0
 11 23  1  0
 11 24  1  0
 12 13  1  0
 12 25  1  0
 12 26  1  0
 13 14  1  0
 13 27  1  0
 13 28  1  0
 14 29  1  0
 14 30  1  0
M  CHG  1   9   1
M  END
>  <i_m_ct_stereo_status>  (388) 
1

>  <s_m_source_file>  (388) 
/var/tmp/pbs.5076255.sched01/tmpl4jv_xt6/1264eazgjw7.sdf

>  <i_m_source_file_index>  (388) 
25

>  <i_lp_mmshare_version>  (388) 
48012

>  <i_f3d_flags>  (388) 
0

>  <s_epik_input>  (388) 
W09IXWMxW2NIXVtjSF1jKFtPSF0pbjFbQ0gyXU4yW0NIMl1bQ0gyXVtDSDJdW0NIMl1bQ0gyXTI=

>  <s_epik_cmdline>  (388) 
J2VwaWtfcHl0aG9uJywgJy1waHQnLCAnMi4wJywgJy1waCcsICc3LjAnLCAnLXRuJywgJzgnLCAnLW1hJywgJzIwMCcsICctaW1hZScsICc8aW5maWxlLm1hZT4nLCAnLW9tYWUnLCAnPG91dGZpbGUubWFlPic=

>  <r_lp_tautomer_probability>  (388) 
1

>  <r_epik_Ionization_Penalty>  (388) 
0.167762

>  <r_epik_Ionization_Penalty_Charging>  (388) 
0.167762

>  <r_epik_Ionization_Penalty_Neutral>  (388) 
6.05168e-15

>  <r_epik_State_Penalty>  (388) 
0.157121

>  <r_epik_Charging_Adjusted_Penalty>  (388) 
0.324883

>  <i_epik_Tot_Q>  (388) 
1

>  <i_epik_Tot_abs_Q>  (388) 
1

>  <s_epik_Chemistry_Notes>  (388) 
This compound contains an acetal/aminal-like group ( X-CH(R)-Y where X, Y are N, S, or O) that may be acid/base labile, releasing an aldehyde.

>  <s_lp_Force_Field>  (388) 
OPLS3e

>  <r_lp_Energy>  (388) 
5.81866

>  <b_lp_Chiralities_Consistent>  (388) 
1

>  <s_lp_Variant>  (388) 
110:0-1

>  <s_i_glide_gridfile>  (388) 
pfpi4k_grid

>  <i_i_glide_lignum>  (388) 
25

>  <i_i_glide_rotatable_bonds>  (388) 
2

>  <r_i_docking_score>  (388) 
-4.02254

>  <r_i_glide_ligand_efficiency>  (388) 
-0.287324

>  <r_i_glide_ligand_efficiency_sa>  (388) 
-0.692493

>  <r_i_glide_ligand_efficiency_ln>  (388) 
-1.10538

>  <r_i_glide_gscore>  (388) 
-4.02254

>  <r_i_glide_lipo>  (388) 
-0.496042

>  <r_i_glide_hbond>  (388) 
-0.271173

>  <r_i_glide_metal>  (388) 
-0

>  <r_i_glide_rewards>  (388) 
-2.07871

>  <r_i_glide_evdw>  (388) 
-19.8185

>  <r_i_glide_ecoul>  (388) 
-5.66294

>  <r_i_glide_erotb>  (388) 
0.835684

>  <r_i_glide_esite>  (388) 
-0.171931

>  <r_i_glide_emodel>  (388) 
-31.738

>  <r_i_glide_energy>  (388) 
-25.4815

>  <r_i_glide_einternal>  (388) 
1.54637

>  <r_i_glide_intrahb_reward>  (388) 
-0

>  <i_i_glide_confnum>  (388) 
4

>  <i_i_glide_posenum>  (388) 
1

>  <r_i_glide_eff_state_penalty>  (388) 
0

>  <ligand_id>  (388) 
110

>  <original_smiles>  (388) 
Oc1ccc(O)n1CN1CCCCC1

>  <smiles>  (388) 
[H]C1([H])C(=O)N(C([H])([H])[N+]2([H])C([H])([H])C([H])([H])C([H])([H])C([H])([H])C2([H])[H])C(=O)C1([H])[H]

$$$$
110:1:0
     RDKit          3D

 30 31  0  0  1  0  0  0  0  0999 V2000
    6.2041   -5.8123    0.8246 O   0  0  0  0  0  0  0  0  0  0  0  0
    6.9270   -4.8250    0.6636 C   0  0  0  0  0  0  0  0  0  0  0  0
    8.4443   -4.9263    0.6526 C   0  0  0  0  0  0  0  0  0  0  0  0
    8.8750   -3.4717    0.4187 C   0  0  0  0  0  0  0  0  0  0  0  0
    7.5514   -2.7301    0.3878 C   0  0  0  0  0  0  0  0  0  0  0  0
    7.4995   -1.4976    0.3124 O   0  0  0  0  0  0  0  0  0  0  0  0
    6.5100   -3.5658    0.4717 N   0  0  0  0  0  0  0  0  0  0  0  0
    5.0936   -3.1733    0.3509 C   0  0  0  0  0  0  0  0  0  0  0  0
    4.5467   -2.9837   -0.9960 N   0  0  0  0  0  0  0  0  0  0  0  0
    3.0813   -3.0337   -1.0010 C   0  0  0  0  0  0  0  0  0  0  0  0
    2.5506   -2.9774   -2.4438 C   0  0  0  0  0  0  0  0  0  0  0  0
    3.0264   -1.7078   -3.1634 C   0  0  0  0  0  0  0  0  0  0  0  0
    4.5372   -1.6121   -3.0345 C   0  0  0  0  0  0  0  0  0  0  0  0
    4.9833   -1.7105   -1.5756 C   0  0  0  0  0  0  0  0  0  0  0  0
    8.8004   -5.3052    1.6125 H   0  0  0  0  0  0  0  0  0  0  0  0
    8.7747   -5.6060   -0.1386 H   0  0  0  0  0  0  0  0  0  0  0  0
    9.5140   -3.1008    1.2240 H   0  0  0  0  0  0  0  0  0  0  0  0
    9.4011   -3.3586   -0.5319 H   0  0  0  0  0  0  0  0  0  0  0  0
    4.9096   -2.2836    0.9557 H   0  0  0  0  0  0  0  0  0  0  0  0
    4.4944   -3.9469    0.8323 H   0  0  0  0  0  0  0  0  0  0  0  0
    2.7474   -3.9686   -0.5458 H   0  0  0  0  0  0  0  0  0  0  0  0
    2.6579   -2.2248   -0.4064 H   0  0  0  0  0  0  0  0  0  0  0  0
    2.8970   -3.8575   -2.9916 H   0  0  0  0  0  0  0  0  0  0  0  0
    1.4569   -3.0179   -2.4519 H   0  0  0  0  0  0  0  0  0  0  0  0
    2.7351   -1.7226   -4.2165 H   0  0  0  0  0  0  0  0  0  0  0  0
    2.5820   -0.8239   -2.7106 H   0  0  0  0  0  0  0  0  0  0  0  0
    5.0152   -2.4159   -3.5933 H   0  0  0  0  0  0  0  0  0  0  0  0
    4.8801   -0.6689   -3.4490 H   0  0  0  0  0  0  0  0  0  0  0  0
    4.5936   -0.8736   -0.9929 H   0  0  0  0  0  0  0  0  0  0  0  0
    6.0658   -1.6499   -1.6051 H   0  0  0  0  0  0  0  0  0  0  0  0
  1  2  2  0
  2  3  1  0
  2  7  1  0
  3 16  1  0
  3 15  1  0
  3  4  1  0
  4 17  1  0
  4 18  1  0
  4  5  1  0
  5  6  2  0
  5  7  1  0
  7  8  1  0
  8  9  1  0
  8 19  1  0
  8 20  1  0
  9 14  1  0
  9 10  1  0
 10 11  1  0
 10 21  1  0
 10 22  1  0
 11 12  1  0
 11 23  1  0
 11 24  1  0
 12 13  1  0
 12 25  1  0
 12 26  1  0
 13 14  1  0
 13 27  1  0
 13 28  1  0
 14 29  1  0
 14 30  1  0
M  END
>  <i_m_ct_stereo_status>  (389) 
1

>  <s_m_source_file>  (389) 
/var/tmp/pbs.5076255.sched01/tmpl4jv_xt6/1264eazgjw7.sdf

>  <i_m_source_file_index>  (389) 
26

>  <i_lp_mmshare_version>  (389) 
48012

>  <i_f3d_flags>  (389) 
0

>  <s_epik_input>  (389) 
W09IXWMxW2NIXVtjSF1jKFtPSF0pbjFbQ0gyXU4yW0NIMl1bQ0gyXVtDSDJdW0NIMl1bQ0gyXTI=

>  <s_epik_cmdline>  (389) 
J2VwaWtfcHl0aG9uJywgJy1waHQnLCAnMi4wJywgJy1waCcsICc3LjAnLCAnLXRuJywgJzgnLCAnLW1hJywgJzIwMCcsICctaW1hZScsICc8aW5maWxlLm1hZT4nLCAnLW9tYWUnLCAnPG91dGZpbGUubWFlPic=

>  <r_lp_tautomer_probability>  (389) 
1

>  <r_epik_Ionization_Penalty>  (389) 
0.829491

>  <r_epik_Ionization_Penalty_Charging>  (389) 
0

>  <r_epik_Ionization_Penalty_Neutral>  (389) 
0.829491

>  <r_epik_State_Penalty>  (389) 
0.863239

>  <r_epik_Charging_Adjusted_Penalty>  (389) 
0.863239

>  <i_epik_Tot_Q>  (389) 
0

>  <i_epik_Tot_abs_Q>  (389) 
0

>  <s_epik_Chemistry_Notes>  (389) 
This compound contains an acetal/aminal-like group ( X-CH(R)-Y where X, Y are N, S, or O) that may be acid/base labile, releasing an aldehyde.

>  <s_lp_Force_Field>  (389) 
OPLS3e

>  <r_lp_Energy>  (389) 
-2.44009

>  <b_lp_Chiralities_Consistent>  (389) 
1

>  <s_lp_Variant>  (389) 
110:0-2

>  <s_i_glide_gridfile>  (389) 
pfpi4k_grid

>  <i_i_glide_lignum>  (389) 
26

>  <i_i_glide_rotatable_bonds>  (389) 
2

>  <r_i_docking_score>  (389) 
-3.31496

>  <r_i_glide_ligand_efficiency>  (389) 
-0.236783

>  <r_i_glide_ligand_efficiency_sa>  (389) 
-0.570681

>  <r_i_glide_ligand_efficiency_ln>  (389) 
-0.91094

>  <r_i_glide_gscore>  (389) 
-3.31496

>  <r_i_glide_lipo>  (389) 
-0.245754

>  <r_i_glide_hbond>  (389) 
-0.0568015

>  <r_i_glide_metal>  (389) 
-0

>  <r_i_glide_rewards>  (389) 
-2.65692

>  <r_i_glide_evdw>  (389) 
-22.8741

>  <r_i_glide_ecoul>  (389) 
-0.364125

>  <r_i_glide_erotb>  (389) 
0.842834

>  <r_i_glide_esite>  (389) 
0

>  <r_i_glide_emodel>  (389) 
-27.1609

>  <r_i_glide_energy>  (389) 
-23.2382

>  <r_i_glide_einternal>  (389) 
1.32223

>  <r_i_glide_intrahb_reward>  (389) 
-0

>  <i_i_glide_confnum>  (389) 
5

>  <i_i_glide_posenum>  (389) 
4

>  <r_i_glide_eff_state_penalty>  (389) 
0

>  <ligand_id>  (389) 
110

>  <original_smiles>  (389) 
Oc1ccc(O)n1CN1CCCCC1

>  <smiles>  (389) 
[H]C([H])(N1C(=O)C([H])([H])C([H])([H])C1=O)N1C([H])([H])C([H])([H])C([H])([H])C([H])([H])C1([H])[H]

$$$$
110:1:1
     RDKit          3D

 30 31  0  0  1  0  0  0  0  0999 V2000
    3.5169   -3.8356    2.0618 O   0  0  0  0  0  0  0  0  0  0  0  0
    4.2894   -2.8989    1.8844 C   0  0  0  0  0  0  0  0  0  0  0  0
    4.3946   -1.7295    2.8593 C   0  0  0  0  0  0  0  0  0  0  0  0
    5.4554   -0.8387    2.2036 C   0  0  0  0  0  0  0  0  0  0  0  0
    5.8552   -1.6326    0.9709 C   0  0  0  0  0  0  0  0  0  0  0  0
    6.7363   -1.2546    0.1975 O   0  0  0  0  0  0  0  0  0  0  0  0
    5.1286   -2.7489    0.8518 N   0  0  0  0  0  0  0  0  0  0  0  0
    5.2252   -3.6917   -0.2787 C   0  0  0  0  0  0  0  0  0  0  0  0
    4.5388   -3.3652   -1.5308 N   0  0  0  0  0  0  0  0  0  0  0  0
    3.0996   -3.1800   -1.3333 C   0  0  0  0  0  0  0  0  0  0  0  0
    2.4041   -2.9614   -2.6945 C   0  0  0  0  0  0  0  0  0  0  0  0
    3.0055   -1.7676   -3.4391 C   0  0  0  0  0  0  0  0  0  0  0  0
    4.5087   -1.9684   -3.5514 C   0  0  0  0  0  0  0  0  0  0  0  0
    5.1219   -2.1845   -2.1621 C   0  0  0  0  0  0  0  0  0  0  0  0
    3.4303   -1.2319    2.9459 H   0  0  0  0  0  0  0  0  0  0  0  0
    4.7057   -2.0776    3.8431 H   0  0  0  0  0  0  0  0  0  0  0  0
    5.0440    0.1260    1.9095 H   0  0  0  0  0  0  0  0  0  0  0  0
    6.3196   -0.6797    2.8460 H   0  0  0  0  0  0  0  0  0  0  0  0
    4.8623   -4.6747    0.0363 H   0  0  0  0  0  0  0  0  0  0  0  0
    6.2801   -3.8617   -0.5107 H   0  0  0  0  0  0  0  0  0  0  0  0
    2.6778   -4.0614   -0.8432 H   0  0  0  0  0  0  0  0  0  0  0  0
    2.9117   -2.3161   -0.6917 H   0  0  0  0  0  0  0  0  0  0  0  0
    2.4929   -3.8611   -3.3070 H   0  0  0  0  0  0  0  0  0  0  0  0
    1.3372   -2.8004   -2.5275 H   0  0  0  0  0  0  0  0  0  0  0  0
    2.5625   -1.6733   -4.4287 H   0  0  0  0  0  0  0  0  0  0  0  0
    2.7838   -0.8481   -2.8984 H   0  0  0  0  0  0  0  0  0  0  0  0
    4.7311   -2.8216   -4.2000 H   0  0  0  0  0  0  0  0  0  0  0  0
    4.9582   -1.0843   -4.0018 H   0  0  0  0  0  0  0  0  0  0  0  0
    4.9216   -1.3022   -1.5546 H   0  0  0  0  0  0  0  0  0  0  0  0
    6.2036   -2.3148   -2.2580 H   0  0  0  0  0  0  0  0  0  0  0  0
  1  2  2  0
  2  3  1  0
  2  7  1  0
  3 16  1  0
  3 15  1  0
  3  4  1  0
  4 17  1  0
  4 18  1  0
  4  5  1  0
  5  6  2  0
  5  7  1  0
  7  8  1  0
  8  9  1  0
  8 19  1  0
  8 20  1  0
  9 14  1  0
  9 10  1  0
 10 11  1  0
 10 21  1  0
 10 22  1  0
 11 12  1  0
 11 23  1  0
 11 24  1  0
 12 13  1  0
 12 25  1  0
 12 26  1  0
 13 14  1  0
 13 27  1  0
 13 28  1  0
 14 29  1  0
 14 30  1  0
M  END
>  <i_m_ct_stereo_status>  (390) 
1

>  <s_m_source_file>  (390) 
/var/tmp/pbs.5076255.sched01/tmpl4jv_xt6/1264eazgjw7.sdf

>  <i_m_source_file_index>  (390) 
26

>  <i_lp_mmshare_version>  (390) 
48012

>  <i_f3d_flags>  (390) 
0

>  <s_epik_input>  (390) 
W09IXWMxW2NIXVtjSF1jKFtPSF0pbjFbQ0gyXU4yW0NIMl1bQ0gyXVtDSDJdW0NIMl1bQ0gyXTI=

>  <s_epik_cmdline>  (390) 
J2VwaWtfcHl0aG9uJywgJy1waHQnLCAnMi4wJywgJy1waCcsICc3LjAnLCAnLXRuJywgJzgnLCAnLW1hJywgJzIwMCcsICctaW1hZScsICc8aW5maWxlLm1hZT4nLCAnLW9tYWUnLCAnPG91dGZpbGUubWFlPic=

>  <r_lp_tautomer_probability>  (390) 
1

>  <r_epik_Ionization_Penalty>  (390) 
0.829491

>  <r_epik_Ionization_Penalty_Charging>  (390) 
0

>  <r_epik_Ionization_Penalty_Neutral>  (390) 
0.829491

>  <r_epik_State_Penalty>  (390) 
0.863239

>  <r_epik_Charging_Adjusted_Penalty>  (390) 
0.863239

>  <i_epik_Tot_Q>  (390) 
0

>  <i_epik_Tot_abs_Q>  (390) 
0

>  <s_epik_Chemistry_Notes>  (390) 
This compound contains an acetal/aminal-like group ( X-CH(R)-Y where X, Y are N, S, or O) that may be acid/base labile, releasing an aldehyde.

>  <s_lp_Force_Field>  (390) 
OPLS3e

>  <r_lp_Energy>  (390) 
-2.44009

>  <b_lp_Chiralities_Consistent>  (390) 
1

>  <s_lp_Variant>  (390) 
110:0-2

>  <s_i_glide_gridfile>  (390) 
pfpi4k_grid

>  <i_i_glide_lignum>  (390) 
26

>  <i_i_glide_rotatable_bonds>  (390) 
2

>  <r_i_docking_score>  (390) 
-3.19629

>  <r_i_glide_ligand_efficiency>  (390) 
-0.228306

>  <r_i_glide_ligand_efficiency_sa>  (390) 
-0.55025

>  <r_i_glide_ligand_efficiency_ln>  (390) 
-0.878328

>  <r_i_glide_gscore>  (390) 
-3.19629

>  <r_i_glide_lipo>  (390) 
-0.512193

>  <r_i_glide_hbond>  (390) 
-0.0435521

>  <r_i_glide_metal>  (390) 
-0

>  <r_i_glide_rewards>  (390) 
-2.38321

>  <r_i_glide_evdw>  (390) 
-20.9552

>  <r_i_glide_ecoul>  (390) 
-0.349367

>  <r_i_glide_erotb>  (390) 
0.842834

>  <r_i_glide_esite>  (390) 
0

>  <r_i_glide_emodel>  (390) 
-24.9886

>  <r_i_glide_energy>  (390) 
-21.3046

>  <r_i_glide_einternal>  (390) 
1.92208

>  <r_i_glide_intrahb_reward>  (390) 
-0

>  <i_i_glide_confnum>  (390) 
3

>  <i_i_glide_posenum>  (390) 
5

>  <r_i_glide_eff_state_penalty>  (390) 
0

>  <ligand_id>  (390) 
110

>  <original_smiles>  (390) 
Oc1ccc(O)n1CN1CCCCC1

>  <smiles>  (390) 
[H]C([H])(N1C(=O)C([H])([H])C([H])([H])C1=O)N1C([H])([H])C([H])([H])C([H])([H])C([H])([H])C1([H])[H]

$$$$
110:1:2
     RDKit          3D

 30 31  0  0  1  0  0  0  0  0999 V2000
    4.3749   -4.5404    1.6337 O   0  0  0  0  0  0  0  0  0  0  0  0
    4.7986   -3.3897    1.7383 C   0  0  0  0  0  0  0  0  0  0  0  0
    4.6965   -2.5938    3.0371 C   0  0  0  0  0  0  0  0  0  0  0  0
    5.3372   -1.2476    2.6629 C   0  0  0  0  0  0  0  0  0  0  0  0
    5.7855   -1.4897    1.2272 C   0  0  0  0  0  0  0  0  0  0  0  0
    6.4352   -0.6739    0.5677 O   0  0  0  0  0  0  0  0  0  0  0  0
    5.3960   -2.6820    0.7760 N   0  0  0  0  0  0  0  0  0  0  0  0
    5.6075   -3.1171   -0.6141 C   0  0  0  0  0  0  0  0  0  0  0  0
    4.6354   -2.6667   -1.6168 N   0  0  0  0  0  0  0  0  0  0  0  0
    4.8057   -1.2371   -1.9190 C   0  0  0  0  0  0  0  0  0  0  0  0
    3.7316   -0.7272   -2.8698 C   0  0  0  0  0  0  0  0  0  0  0  0
    3.6954   -1.5356   -4.1582 C   0  0  0  0  0  0  0  0  0  0  0  0
    3.6027   -3.0271   -3.8091 C   0  0  0  0  0  0  0  0  0  0  0  0
    4.7284   -3.4512   -2.8478 C   0  0  0  0  0  0  0  0  0  0  0  0
    3.6519   -2.4927    3.3416 H   0  0  0  0  0  0  0  0  0  0  0  0
    5.2522   -3.0927    3.8307 H   0  0  0  0  0  0  0  0  0  0  0  0
    4.6146   -0.4323    2.7206 H   0  0  0  0  0  0  0  0  0  0  0  0
    6.1939   -1.0015    3.2879 H   0  0  0  0  0  0  0  0  0  0  0  0
    5.5848   -4.2040   -0.5976 H   0  0  0  0  0  0  0  0  0  0  0  0
    6.6192   -2.8706   -0.9441 H   0  0  0  0  0  0  0  0  0  0  0  0
    4.6932   -0.6383   -1.0198 H   0  0  0  0  0  0  0  0  0  0  0  0
    5.8030   -1.0690   -2.3283 H   0  0  0  0  0  0  0  0  0  0  0  0
    2.7723   -0.7865   -2.3631 H   0  0  0  0  0  0  0  0  0  0  0  0
    3.9124    0.3256   -3.0864 H   0  0  0  0  0  0  0  0  0  0  0  0
    2.8299   -1.2142   -4.7409 H   0  0  0  0  0  0  0  0  0  0  0  0
    4.5980   -1.3320   -4.7311 H   0  0  0  0  0  0  0  0  0  0  0  0
    2.6359   -3.2399   -3.3459 H   0  0  0  0  0  0  0  0  0  0  0  0
    3.6437   -3.6235   -4.7215 H   0  0  0  0  0  0  0  0  0  0  0  0
    5.7070   -3.3273   -3.3126 H   0  0  0  0  0  0  0  0  0  0  0  0
    4.6185   -4.5207   -2.6198 H   0  0  0  0  0  0  0  0  0  0  0  0
  1  2  2  0
  2  3  1  0
  2  7  1  0
  3 16  1  0
  3 15  1  0
  3  4  1  0
  4 17  1  0
  4 18  1  0
  4  5  1  0
  5  6  2  0
  5  7  1  0
  7  8  1  0
  8  9  1  0
  8 19  1  0
  8 20  1  0
  9 14  1  0
  9 10  1  0
 10 11  1  0
 10 21  1  0
 10 22  1  0
 11 12  1  0
 11 23  1  0
 11 24  1  0
 12 13  1  0
 12 25  1  0
 12 26  1  0
 13 14  1  0
 13 27  1  0
 13 28  1  0
 14 29  1  0
 14 30  1  0
M  END
>  <i_m_ct_stereo_status>  (391) 
1

>  <s_m_source_file>  (391) 
/var/tmp/pbs.5076255.sched01/tmpl4jv_xt6/1264eazgjw7.sdf

>  <i_m_source_file_index>  (391) 
26

>  <i_lp_mmshare_version>  (391) 
48012

>  <i_f3d_flags>  (391) 
0

>  <s_epik_input>  (391) 
W09IXWMxW2NIXVtjSF1jKFtPSF0pbjFbQ0gyXU4yW0NIMl1bQ0gyXVtDSDJdW0NIMl1bQ0gyXTI=

>  <s_epik_cmdline>  (391) 
J2VwaWtfcHl0aG9uJywgJy1waHQnLCAnMi4wJywgJy1waCcsICc3LjAnLCAnLXRuJywgJzgnLCAnLW1hJywgJzIwMCcsICctaW1hZScsICc8aW5maWxlLm1hZT4nLCAnLW9tYWUnLCAnPG91dGZpbGUubWFlPic=

>  <r_lp_tautomer_probability>  (391) 
1

>  <r_epik_Ionization_Penalty>  (391) 
0.829491

>  <r_epik_Ionization_Penalty_Charging>  (391) 
0

>  <r_epik_Ionization_Penalty_Neutral>  (391) 
0.829491

>  <r_epik_State_Penalty>  (391) 
0.863239

>  <r_epik_Charging_Adjusted_Penalty>  (391) 
0.863239

>  <i_epik_Tot_Q>  (391) 
0

>  <i_epik_Tot_abs_Q>  (391) 
0

>  <s_epik_Chemistry_Notes>  (391) 
This compound contains an acetal/aminal-like group ( X-CH(R)-Y where X, Y are N, S, or O) that may be acid/base labile, releasing an aldehyde.

>  <s_lp_Force_Field>  (391) 
OPLS3e

>  <r_lp_Energy>  (391) 
-2.44009

>  <b_lp_Chiralities_Consistent>  (391) 
1

>  <s_lp_Variant>  (391) 
110:0-2

>  <s_i_glide_gridfile>  (391) 
pfpi4k_grid

>  <i_i_glide_lignum>  (391) 
26

>  <i_i_glide_rotatable_bonds>  (391) 
2

>  <r_i_docking_score>  (391) 
-3.04408

>  <r_i_glide_ligand_efficiency>  (391) 
-0.217434

>  <r_i_glide_ligand_efficiency_sa>  (391) 
-0.524048

>  <r_i_glide_ligand_efficiency_ln>  (391) 
-0.836503

>  <r_i_glide_gscore>  (391) 
-3.04408

>  <r_i_glide_lipo>  (391) 
-0.412487

>  <r_i_glide_hbond>  (391) 
0

>  <r_i_glide_metal>  (391) 
-0

>  <r_i_glide_rewards>  (391) 
-2.43896

>  <r_i_glide_evdw>  (391) 
-23.0391

>  <r_i_glide_ecoul>  (391) 
0.776579

>  <r_i_glide_erotb>  (391) 
0.842834

>  <r_i_glide_esite>  (391) 
0

>  <r_i_glide_emodel>  (391) 
-25.3141

>  <r_i_glide_energy>  (391) 
-22.2625

>  <r_i_glide_einternal>  (391) 
2.12225

>  <r_i_glide_intrahb_reward>  (391) 
-0

>  <i_i_glide_confnum>  (391) 
6

>  <i_i_glide_posenum>  (391) 
32

>  <r_i_glide_eff_state_penalty>  (391) 
0

>  <ligand_id>  (391) 
110

>  <original_smiles>  (391) 
Oc1ccc(O)n1CN1CCCCC1

>  <smiles>  (391) 
[H]C([H])(N1C(=O)C([H])([H])C([H])([H])C1=O)N1C([H])([H])C([H])([H])C([H])([H])C([H])([H])C1([H])[H]

$$$$
111:0:0
     RDKit          3D

 43 47  0  0  1  0  0  0  0  0999 V2000
    2.4544   -4.2002   -0.2149 C   0  0  0  0  0  0  0  0  0  0  0  0
    3.4696   -3.3204   -0.2822 C   0  0  0  0  0  0  0  0  0  0  0  0
    3.6726   -2.5454   -1.5277 C   0  0  0  0  0  0  0  0  0  0  0  0
    3.3047   -3.0510   -2.7931 C   0  0  0  0  0  0  0  0  0  0  0  0
    3.4638   -2.2444   -3.9232 C   0  0  0  0  0  0  0  0  0  0  0  0
    3.9463   -0.9930   -3.8904 N   0  0  0  0  0  0  0  0  0  0  0  0
    4.2738   -0.4962   -2.6848 C   0  0  0  0  0  0  0  0  0  0  0  0
    4.1906   -1.2305   -1.4789 C   0  0  0  0  0  0  0  0  0  0  0  0
    4.6354   -0.6045   -0.1601 C   0  0  0  0  0  0  0  0  0  0  0  0
    4.2544   -1.4310    1.0824 C   0  0  2  0  0  0  0  0  0  0  0  0
    4.8970   -0.8917    2.3808 C   0  0  0  0  0  0  0  0  0  0  0  0
    4.3268   -1.6159    3.4970 N   0  0  0  0  0  0  0  0  0  0  0  0
    4.7645   -1.3346    4.8582 C   0  0  0  0  0  0  0  0  0  0  0  0
    4.5802   -2.5286    5.6000 O   0  0  0  0  0  0  0  0  0  0  0  0
    4.1218   -3.4936    4.6961 C   0  0  2  0  0  0  0  0  0  0  0  0
    4.5892   -4.7912    4.8283 O   0  0  0  0  0  0  0  0  0  0  0  0
    4.0158   -5.6528    3.8177 C   0  0  0  0  0  0  0  0  0  0  0  0
    3.9960   -5.0388    2.4074 C   0  0  0  0  0  0  0  0  0  0  0  0
    4.2918   -3.7413    2.1938 C   0  0  0  0  0  0  0  0  0  0  0  0
    4.7008   -2.9742    3.4207 C   0  0  1  0  0  0  0  0  0  0  0  0
    4.4492   -2.9677    0.8553 C   0  0  1  0  0  0  0  0  0  0  0  0
    5.8054   -3.1031    0.4100 O   0  0  0  0  0  0  0  0  0  0  0  0
    6.2452   -4.4130    0.0636 C   0  0  0  0  0  0  0  0  0  0  0  0
    2.1922   -4.7524    0.6680 H   0  0  0  0  0  0  0  0  0  0  0  0
    1.8034   -4.3416   -1.0639 H   0  0  0  0  0  0  0  0  0  0  0  0
    2.8963   -4.0341   -2.9332 H   0  0  0  0  0  0  0  0  0  0  0  0
    3.2154   -2.6312   -4.8958 H   0  0  0  0  0  0  0  0  0  0  0  0
    4.6354    0.5212   -2.7031 H   0  0  0  0  0  0  0  0  0  0  0  0
    5.7166   -0.4823   -0.2091 H   0  0  0  0  0  0  0  0  0  0  0  0
    4.2164    0.3971   -0.0507 H   0  0  0  0  0  0  0  0  0  0  0  0
    3.1804   -1.2744    1.2102 H   0  0  0  0  0  0  0  0  0  0  0  0
    5.9834   -1.0097    2.3557 H   0  0  0  0  0  0  0  0  0  0  0  0
    4.6814    0.1728    2.4889 H   0  0  0  0  0  0  0  0  0  0  0  0
    5.8233   -1.0742    4.8886 H   0  0  0  0  0  0  0  0  0  0  0  0
    4.1889   -0.5115    5.2842 H   0  0  0  0  0  0  0  0  0  0  0  0
    3.0293   -3.4791    4.6995 H   0  0  0  0  0  0  0  0  0  0  0  0
    4.5893   -6.5806    3.7918 H   0  0  0  0  0  0  0  0  0  0  0  0
    2.9914   -5.9111    4.0945 H   0  0  0  0  0  0  0  0  0  0  0  0
    3.7786   -5.7225    1.5982 H   0  0  0  0  0  0  0  0  0  0  0  0
    5.7887   -3.0681    3.4791 H   0  0  0  0  0  0  0  0  0  0  0  0
    7.2617   -4.3458   -0.3196 H   0  0  0  0  0  0  0  0  0  0  0  0
    5.6295   -4.8694   -0.7116 H   0  0  0  0  0  0  0  0  0  0  0  0
    6.2728   -5.0790    0.9245 H   0  0  0  0  0  0  0  0  0  0  0  0
  1  2  2  0
  1 24  1  0
  1 25  1  0
  2 21  1  0
  2  3  1  0
  3  8  2  0
  3  4  1  0
  4  5  2  0
  4 26  1  0
  5  6  1  0
  5 27  1  0
  6  7  2  0
  7  8  1  0
  7 28  1  0
  8  9  1  0
  9 10  1  0
  9 29  1  0
  9 30  1  0
 10 21  1  0
 10 11  1  0
 10 31  1  1
 11 12  1  0
 11 32  1  0
 11 33  1  0
 12 20  1  0
 12 13  1  0
 13 14  1  0
 13 34  1  0
 13 35  1  0
 14 15  1  0
 15 20  1  0
 15 16  1  0
 15 36  1  6
 16 17  1  0
 17 18  1  0
 17 37  1  0
 17 38  1  0
 18 19  2  0
 18 39  1  0
 19 20  1  0
 19 21  1  0
 20 40  1  1
 21 22  1  6
 22 23  1  0
 23 41  1  0
 23 42  1  0
 23 43  1  0
M  END
>  <i_m_ct_stereo_status>  (392) 
1

>  <s_m_source_file>  (392) 
/var/tmp/pbs.5076255.sched01/tmpl4jv_xt6/1264eazgjw7.sdf

>  <i_m_source_file_index>  (392) 
27

>  <i_lp_mmshare_version>  (392) 
48012

>  <i_f3d_flags>  (392) 
0

>  <s_epik_input>  (392) 
W2NIXTFuW2NIXVtjSF1jKEMyPVtDSDJdKWMxW0NIMl1bQ0BASF0oW0NAXTIzT1tDSDNdKVtDSDJdTjRbQ0BIXTVbQ0BIXShPW0NIMl00KU9bQ0gyXVtDSF09QzM1

>  <s_epik_cmdline>  (392) 
J2VwaWtfcHl0aG9uJywgJy1waHQnLCAnMi4wJywgJy1waCcsICc3LjAnLCAnLXRuJywgJzgnLCAnLW1hJywgJzIwMCcsICctaW1hZScsICc8aW5maWxlLm1hZT4nLCAnLW9tYWUnLCAnPG91dGZpbGUubWFlPic=

>  <r_epik_Ionization_Penalty>  (392) 
0.0460638

>  <r_epik_Ionization_Penalty_Charging>  (392) 
0

>  <r_epik_Ionization_Penalty_Neutral>  (392) 
0.0460638

>  <r_epik_State_Penalty>  (392) 
0.0391199

>  <r_epik_Charging_Adjusted_Penalty>  (392) 
0.0391199

>  <i_epik_Tot_Q>  (392) 
0

>  <i_epik_Tot_abs_Q>  (392) 
0

>  <s_epik_Chemistry_Notes>  (392) 
This compound contains an acetal/aminal-like group ( X-CH(R)-Y where X, Y are N, S, or O) that may be acid/base labile, releasing an aldehyde.

>  <s_lp_Force_Field>  (392) 
OPLS3e

>  <r_lp_Energy>  (392) 
56.5365

>  <b_lp_Chiralities_Consistent>  (392) 
1

>  <s_lp_Variant>  (392) 
111:0-1

>  <s_i_glide_gridfile>  (392) 
pfpi4k_grid

>  <i_i_glide_lignum>  (392) 
27

>  <i_i_glide_rotatable_bonds>  (392) 
1

>  <r_i_docking_score>  (392) 
-3.06974

>  <r_i_glide_ligand_efficiency>  (392) 
-0.133467

>  <r_i_glide_ligand_efficiency_sa>  (392) 
-0.379562

>  <r_i_glide_ligand_efficiency_ln>  (392) 
-0.74229

>  <r_i_glide_gscore>  (392) 
-3.06974

>  <r_i_glide_lipo>  (392) 
-0.470465

>  <r_i_glide_hbond>  (392) 
0

>  <r_i_glide_metal>  (392) 
-0

>  <r_i_glide_rewards>  (392) 
-1.31816

>  <r_i_glide_evdw>  (392) 
-20.8919

>  <r_i_glide_ecoul>  (392) 
-1.57676

>  <r_i_glide_erotb>  (392) 
0

>  <r_i_glide_esite>  (392) 
0

>  <r_i_glide_emodel>  (392) 
-27.0926

>  <r_i_glide_energy>  (392) 
-22.4686

>  <r_i_glide_einternal>  (392) 
0.0185401

>  <r_i_glide_intrahb_reward>  (392) 
-0

>  <i_i_glide_confnum>  (392) 
2

>  <i_i_glide_posenum>  (392) 
18

>  <r_i_glide_eff_state_penalty>  (392) 
0

>  <ligand_id>  (392) 
111

>  <original_smiles>  (392) 
C=C1c2ccncc2CC2CN3COC4OCC=C(C43)C12OC

>  <smiles>  (392) 
[H]C([H])=C1c2c([H])c([H])nc([H])c2C([H])([H])C2([H])C1(OC([H])([H])[H])C1=C([H])C([H])([H])OC3([H])OC([H])([H])N(C2([H])[H])C13[H]

$$$$
111:0:1
     RDKit          3D

 43 47  0  0  1  0  0  0  0  0999 V2000
    2.1024    1.8631    5.9466 C   0  0  0  0  0  0  0  0  0  0  0  0
    1.2590    1.3811    5.0103 C   0  0  0  0  0  0  0  0  0  0  0  0
   -0.0836    1.9887    4.8539 C   0  0  0  0  0  0  0  0  0  0  0  0
   -0.7815    2.5673    5.9415 C   0  0  0  0  0  0  0  0  0  0  0  0
   -2.0166    3.1962    5.7013 C   0  0  0  0  0  0  0  0  0  0  0  0
   -2.5781    3.2916    4.4811 N   0  0  0  0  0  0  0  0  0  0  0  0
   -1.9254    2.7269    3.4434 C   0  0  0  0  0  0  0  0  0  0  0  0
   -0.6900    2.0598    3.5764 C   0  0  0  0  0  0  0  0  0  0  0  0
   -0.0381    1.4322    2.3481 C   0  0  0  0  0  0  0  0  0  0  0  0
    1.4007    0.9352    2.5942 C   0  0  2  0  0  0  0  0  0  0  0  0
    1.9628    0.1051    1.4189 C   0  0  0  0  0  0  0  0  0  0  0  0
    3.3702   -0.1331    1.6658 N   0  0  0  0  0  0  0  0  0  0  0  0
    4.1554   -0.9214    0.7225 C   0  0  0  0  0  0  0  0  0  0  0  0
    5.2045   -1.5165    1.4693 O   0  0  0  0  0  0  0  0  0  0  0  0
    4.9891   -1.1708    2.8086 C   0  0  2  0  0  0  0  0  0  0  0  0
    5.2307   -2.1260    3.7832 O   0  0  0  0  0  0  0  0  0  0  0  0
    4.9638   -1.5954    5.1021 C   0  0  0  0  0  0  0  0  0  0  0  0
    3.6554   -0.7921    5.2010 C   0  0  0  0  0  0  0  0  0  0  0  0
    2.9512   -0.4420    4.1050 C   0  0  0  0  0  0  0  0  0  0  0  0
    3.5121   -0.9523    2.8047 C   0  0  1  0  0  0  0  0  0  0  0  0
    1.5657    0.2553    3.9976 C   0  0  1  0  0  0  0  0  0  0  0  0
    0.5435   -0.7534    4.0429 O   0  0  0  0  0  0  0  0  0  0  0  0
    0.4052   -1.4919    5.2536 C   0  0  0  0  0  0  0  0  0  0  0  0
    3.1128    1.5214    6.0853 H   0  0  0  0  0  0  0  0  0  0  0  0
    1.8021    2.6799    6.5837 H   0  0  0  0  0  0  0  0  0  0  0  0
   -0.3876    2.5396    6.9458 H   0  0  0  0  0  0  0  0  0  0  0  0
   -2.5692    3.6437    6.5134 H   0  0  0  0  0  0  0  0  0  0  0  0
   -2.4075    2.8114    2.4804 H   0  0  0  0  0  0  0  0  0  0  0  0
   -0.6675    0.5990    2.0341 H   0  0  0  0  0  0  0  0  0  0  0  0
   -0.0426    2.1440    1.5213 H   0  0  0  0  0  0  0  0  0  0  0  0
    2.0148    1.8392    2.6205 H   0  0  0  0  0  0  0  0  0  0  0  0
    1.4253   -0.8406    1.3185 H   0  0  0  0  0  0  0  0  0  0  0  0
    1.8303    0.6405    0.4792 H   0  0  0  0  0  0  0  0  0  0  0  0
    3.5534   -1.7177    0.2764 H   0  0  0  0  0  0  0  0  0  0  0  0
    4.5527   -0.2846   -0.0689 H   0  0  0  0  0  0  0  0  0  0  0  0
    5.5500   -0.2571    3.0235 H   0  0  0  0  0  0  0  0  0  0  0  0
    4.9228   -2.4292    5.8047 H   0  0  0  0  0  0  0  0  0  0  0  0
    5.7899   -0.9521    5.4149 H   0  0  0  0  0  0  0  0  0  0  0  0
    3.3139   -0.5638    6.2005 H   0  0  0  0  0  0  0  0  0  0  0  0
    3.0294   -1.9190    2.6331 H   0  0  0  0  0  0  0  0  0  0  0  0
   -0.4428   -2.1691    5.1588 H   0  0  0  0  0  0  0  0  0  0  0  0
    0.2170   -0.8474    6.1120 H   0  0  0  0  0  0  0  0  0  0  0  0
    1.2788   -2.1068    5.4641 H   0  0  0  0  0  0  0  0  0  0  0  0
  1  2  2  0
  1 24  1  0
  1 25  1  0
  2 21  1  0
  2  3  1  0
  3  8  2  0
  3  4  1  0
  4  5  2  0
  4 26  1  0
  5  6  1  0
  5 27  1  0
  6  7  2  0
  7  8  1  0
  7 28  1  0
  8  9  1  0
  9 10  1  0
  9 29  1  0
  9 30  1  0
 10 21  1  0
 10 11  1  0
 10 31  1  1
 11 12  1  0
 11 32  1  0
 11 33  1  0
 12 20  1  0
 12 13  1  0
 13 14  1  0
 13 34  1  0
 13 35  1  0
 14 15  1  0
 15 20  1  0
 15 16  1  0
 15 36  1  1
 16 17  1  0
 17 18  1  0
 17 37  1  0
 17 38  1  0
 18 19  2  0
 18 39  1  0
 19 20  1  0
 19 21  1  0
 20 40  1  6
 21 22  1  6
 22 23  1  0
 23 41  1  0
 23 42  1  0
 23 43  1  0
M  END
>  <i_m_ct_stereo_status>  (393) 
1

>  <s_m_source_file>  (393) 
/var/tmp/pbs.5076255.sched01/tmpl4jv_xt6/1264eazgjw7.sdf

>  <i_m_source_file_index>  (393) 
27

>  <i_lp_mmshare_version>  (393) 
48012

>  <i_f3d_flags>  (393) 
0

>  <s_epik_input>  (393) 
W2NIXTFuW2NIXVtjSF1jKEMyPVtDSDJdKWMxW0NIMl1bQ0BASF0oW0NAXTIzT1tDSDNdKVtDSDJdTjRbQ0BIXTVbQ0BIXShPW0NIMl00KU9bQ0gyXVtDSF09QzM1

>  <s_epik_cmdline>  (393) 
J2VwaWtfcHl0aG9uJywgJy1waHQnLCAnMi4wJywgJy1waCcsICc3LjAnLCAnLXRuJywgJzgnLCAnLW1hJywgJzIwMCcsICctaW1hZScsICc8aW5maWxlLm1hZT4nLCAnLW9tYWUnLCAnPG91dGZpbGUubWFlPic=

>  <r_epik_Ionization_Penalty>  (393) 
0.0460638

>  <r_epik_Ionization_Penalty_Charging>  (393) 
0

>  <r_epik_Ionization_Penalty_Neutral>  (393) 
0.0460638

>  <r_epik_State_Penalty>  (393) 
0.0391199

>  <r_epik_Charging_Adjusted_Penalty>  (393) 
0.0391199

>  <i_epik_Tot_Q>  (393) 
0

>  <i_epik_Tot_abs_Q>  (393) 
0

>  <s_epik_Chemistry_Notes>  (393) 
This compound contains an acetal/aminal-like group ( X-CH(R)-Y where X, Y are N, S, or O) that may be acid/base labile, releasing an aldehyde.

>  <s_lp_Force_Field>  (393) 
OPLS3e

>  <r_lp_Energy>  (393) 
56.5365

>  <b_lp_Chiralities_Consistent>  (393) 
1

>  <s_lp_Variant>  (393) 
111:0-1

>  <s_i_glide_gridfile>  (393) 
pfpi4k_grid

>  <i_i_glide_lignum>  (393) 
27

>  <i_i_glide_rotatable_bonds>  (393) 
1

>  <r_i_docking_score>  (393) 
-2.66087

>  <r_i_glide_ligand_efficiency>  (393) 
-0.11569

>  <r_i_glide_ligand_efficiency_sa>  (393) 
-0.329007

>  <r_i_glide_ligand_efficiency_ln>  (393) 
-0.643422

>  <r_i_glide_gscore>  (393) 
-2.66087

>  <r_i_glide_lipo>  (393) 
-0.0479288

>  <r_i_glide_hbond>  (393) 
0

>  <r_i_glide_metal>  (393) 
-0

>  <r_i_glide_rewards>  (393) 
-1.44432

>  <r_i_glide_evdw>  (393) 
-19.7173

>  <r_i_glide_ecoul>  (393) 
-1.21835

>  <r_i_glide_erotb>  (393) 
0

>  <r_i_glide_esite>  (393) 
0

>  <r_i_glide_emodel>  (393) 
-24.9596

>  <r_i_glide_energy>  (393) 
-20.9357

>  <r_i_glide_einternal>  (393) 
0.00205682

>  <r_i_glide_intrahb_reward>  (393) 
-0

>  <i_i_glide_confnum>  (393) 
1

>  <i_i_glide_posenum>  (393) 
17

>  <r_i_glide_eff_state_penalty>  (393) 
0

>  <ligand_id>  (393) 
111

>  <original_smiles>  (393) 
C=C1c2ccncc2CC2CN3COC4OCC=C(C43)C12OC

>  <smiles>  (393) 
[H]C([H])=C1c2c([H])c([H])nc([H])c2C([H])([H])C2([H])C1(OC([H])([H])[H])C1=C([H])C([H])([H])OC3([H])OC([H])([H])N(C2([H])[H])C13[H]

$$$$
111:0:2
     RDKit          3D

 43 47  0  0  1  0  0  0  0  0999 V2000
    1.8886   -4.3227   -0.7192 C   0  0  0  0  0  0  0  0  0  0  0  0
    2.9416   -3.5058   -0.5510 C   0  0  0  0  0  0  0  0  0  0  0  0
    3.3681   -2.6652   -1.6843 C   0  0  0  0  0  0  0  0  0  0  0  0
    3.1704   -3.0567   -3.0247 C   0  0  0  0  0  0  0  0  0  0  0  0
    3.5299   -2.1745   -4.0506 C   0  0  0  0  0  0  0  0  0  0  0  0
    4.0646   -0.9629   -3.8440 N   0  0  0  0  0  0  0  0  0  0  0  0
    4.2365   -0.5872   -2.5638 C   0  0  0  0  0  0  0  0  0  0  0  0
    3.9362   -1.3920   -1.4509 C   0  0  0  0  0  0  0  0  0  0  0  0
    4.1999   -0.8815   -0.0376 C   0  0  0  0  0  0  0  0  0  0  0  0
    3.6048   -1.7757    1.0661 C   0  0  2  0  0  0  0  0  0  0  0  0
    4.0662   -1.3695    2.4846 C   0  0  0  0  0  0  0  0  0  0  0  0
    3.3088   -2.1423    3.4461 N   0  0  0  0  0  0  0  0  0  0  0  0
    3.5589   -1.9863    4.8752 C   0  0  0  0  0  0  0  0  0  0  0  0
    3.1955   -3.2155    5.4816 O   0  0  0  0  0  0  0  0  0  0  0  0
    2.8406   -4.0874    4.4459 C   0  0  2  0  0  0  0  0  0  0  0  0
    3.2197   -5.4167    4.5403 O   0  0  0  0  0  0  0  0  0  0  0  0
    2.7685   -6.1677    3.3903 C   0  0  0  0  0  0  0  0  0  0  0  0
    2.9875   -5.4537    2.0437 C   0  0  0  0  0  0  0  0  0  0  0  0
    3.3712   -4.1598    1.9802 C   0  0  0  0  0  0  0  0  0  0  0  0
    3.6250   -3.5112    3.3138 C   0  0  1  0  0  0  0  0  0  0  0  0
    3.7592   -3.3019    0.7422 C   0  0  1  0  0  0  0  0  0  0  0  0
    5.1582   -3.4824    0.4865 O   0  0  0  0  0  0  0  0  0  0  0  0
    5.5764   -4.7747    0.0553 C   0  0  0  0  0  0  0  0  0  0  0  0
    1.4948   -4.9455    0.0590 H   0  0  0  0  0  0  0  0  0  0  0  0
    1.3569   -4.3618   -1.6595 H   0  0  0  0  0  0  0  0  0  0  0  0
    2.7526   -4.0115   -3.2955 H   0  0  0  0  0  0  0  0  0  0  0  0
    3.4143   -2.4637   -5.0794 H   0  0  0  0  0  0  0  0  0  0  0  0
    4.6294    0.4081   -2.4374 H   0  0  0  0  0  0  0  0  0  0  0  0
    5.2813   -0.8173    0.0811 H   0  0  0  0  0  0  0  0  0  0  0  0
    3.8169    0.1330    0.0809 H   0  0  0  0  0  0  0  0  0  0  0  0
    2.5315   -1.5702    1.0502 H   0  0  0  0  0  0  0  0  0  0  0  0
    5.1373   -1.5483    2.6057 H   0  0  0  0  0  0  0  0  0  0  0  0
    3.8886   -0.3033    2.6454 H   0  0  0  0  0  0  0  0  0  0  0  0
    4.6188   -1.8024    5.0782 H   0  0  0  0  0  0  0  0  0  0  0  0
    2.9622   -1.1675    5.2798 H   0  0  0  0  0  0  0  0  0  0  0  0
    1.7631   -4.0112    4.2893 H   0  0  0  0  0  0  0  0  0  0  0  0
    3.2970   -7.1222    3.3777 H   0  0  0  0  0  0  0  0  0  0  0  0
    1.7048   -6.3913    3.4958 H   0  0  0  0  0  0  0  0  0  0  0  0
    2.8656   -6.0641    1.1596 H   0  0  0  0  0  0  0  0  0  0  0  0
    4.6870   -3.6708    3.5237 H   0  0  0  0  0  0  0  0  0  0  0  0
    6.6427   -4.7385   -0.1588 H   0  0  0  0  0  0  0  0  0  0  0  0
    5.0714   -5.0996   -0.8547 H   0  0  0  0  0  0  0  0  0  0  0  0
    5.4350   -5.5351    0.8215 H   0  0  0  0  0  0  0  0  0  0  0  0
  1  2  2  0
  1 24  1  0
  1 25  1  0
  2 21  1  0
  2  3  1  0
  3  8  2  0
  3  4  1  0
  4  5  2  0
  4 26  1  0
  5  6  1  0
  5 27  1  0
  6  7  2  0
  7  8  1  0
  7 28  1  0
  8  9  1  0
  9 10  1  0
  9 29  1  0
  9 30  1  0
 10 21  1  0
 10 11  1  0
 10 31  1  1
 11 12  1  0
 11 32  1  0
 11 33  1  0
 12 20  1  0
 12 13  1  0
 13 14  1  0
 13 34  1  0
 13 35  1  0
 14 15  1  0
 15 20  1  0
 15 16  1  0
 15 36  1  6
 16 17  1  0
 17 18  1  0
 17 37  1  0
 17 38  1  0
 18 19  2  0
 18 39  1  0
 19 20  1  0
 19 21  1  0
 20 40  1  1
 21 22  1  6
 22 23  1  0
 23 41  1  0
 23 42  1  0
 23 43  1  0
M  END
>  <i_m_ct_stereo_status>  (394) 
1

>  <s_m_source_file>  (394) 
/var/tmp/pbs.5076255.sched01/tmpl4jv_xt6/1264eazgjw7.sdf

>  <i_m_source_file_index>  (394) 
27

>  <i_lp_mmshare_version>  (394) 
48012

>  <i_f3d_flags>  (394) 
0

>  <s_epik_input>  (394) 
W2NIXTFuW2NIXVtjSF1jKEMyPVtDSDJdKWMxW0NIMl1bQ0BASF0oW0NAXTIzT1tDSDNdKVtDSDJdTjRbQ0BIXTVbQ0BIXShPW0NIMl00KU9bQ0gyXVtDSF09QzM1

>  <s_epik_cmdline>  (394) 
J2VwaWtfcHl0aG9uJywgJy1waHQnLCAnMi4wJywgJy1waCcsICc3LjAnLCAnLXRuJywgJzgnLCAnLW1hJywgJzIwMCcsICctaW1hZScsICc8aW5maWxlLm1hZT4nLCAnLW9tYWUnLCAnPG91dGZpbGUubWFlPic=

>  <r_epik_Ionization_Penalty>  (394) 
0.0460638

>  <r_epik_Ionization_Penalty_Charging>  (394) 
0

>  <r_epik_Ionization_Penalty_Neutral>  (394) 
0.0460638

>  <r_epik_State_Penalty>  (394) 
0.0391199

>  <r_epik_Charging_Adjusted_Penalty>  (394) 
0.0391199

>  <i_epik_Tot_Q>  (394) 
0

>  <i_epik_Tot_abs_Q>  (394) 
0

>  <s_epik_Chemistry_Notes>  (394) 
This compound contains an acetal/aminal-like group ( X-CH(R)-Y where X, Y are N, S, or O) that may be acid/base labile, releasing an aldehyde.

>  <s_lp_Force_Field>  (394) 
OPLS3e

>  <r_lp_Energy>  (394) 
56.5365

>  <b_lp_Chiralities_Consistent>  (394) 
1

>  <s_lp_Variant>  (394) 
111:0-1

>  <s_i_glide_gridfile>  (394) 
pfpi4k_grid

>  <i_i_glide_lignum>  (394) 
27

>  <i_i_glide_rotatable_bonds>  (394) 
1

>  <r_i_docking_score>  (394) 
-2.46816

>  <r_i_glide_ligand_efficiency>  (394) 
-0.107311

>  <r_i_glide_ligand_efficiency_sa>  (394) 
-0.305179

>  <r_i_glide_ligand_efficiency_ln>  (394) 
-0.596822

>  <r_i_glide_gscore>  (394) 
-2.46816

>  <r_i_glide_lipo>  (394) 
-0.181365

>  <r_i_glide_hbond>  (394) 
0

>  <r_i_glide_metal>  (394) 
-0

>  <r_i_glide_rewards>  (394) 
-1.27934

>  <r_i_glide_evdw>  (394) 
-18.0047

>  <r_i_glide_ecoul>  (394) 
-0.714754

>  <r_i_glide_erotb>  (394) 
0

>  <r_i_glide_esite>  (394) 
0

>  <r_i_glide_emodel>  (394) 
-22.4246

>  <r_i_glide_energy>  (394) 
-18.7194

>  <r_i_glide_einternal>  (394) 
0.00147174

>  <r_i_glide_intrahb_reward>  (394) 
-0

>  <i_i_glide_confnum>  (394) 
1

>  <i_i_glide_posenum>  (394) 
31

>  <r_i_glide_eff_state_penalty>  (394) 
0

>  <ligand_id>  (394) 
111

>  <original_smiles>  (394) 
C=C1c2ccncc2CC2CN3COC4OCC=C(C43)C12OC

>  <smiles>  (394) 
[H]C([H])=C1c2c([H])c([H])nc([H])c2C([H])([H])C2([H])C1(OC([H])([H])[H])C1=C([H])C([H])([H])OC3([H])OC([H])([H])N(C2([H])[H])C13[H]

$$$$
111:1:0
     RDKit          3D

 44 48  0  0  1  0  0  0  0  0999 V2000
    2.2535   -4.4131   -0.2308 C   0  0  0  0  0  0  0  0  0  0  0  0
    3.2943   -3.5591   -0.2326 C   0  0  0  0  0  0  0  0  0  0  0  0
    3.5350   -2.7002   -1.4166 C   0  0  0  0  0  0  0  0  0  0  0  0
    3.1578   -3.0900   -2.7260 C   0  0  0  0  0  0  0  0  0  0  0  0
    3.3342   -2.2264   -3.8128 C   0  0  0  0  0  0  0  0  0  0  0  0
    3.8521   -0.9999   -3.6111 N   0  0  0  0  0  0  0  0  0  0  0  0
    4.2351   -0.5788   -2.3884 C   0  0  0  0  0  0  0  0  0  0  0  0
    4.0933   -1.4083   -1.2583 C   0  0  0  0  0  0  0  0  0  0  0  0
    4.5222   -0.8872    0.1089 C   0  0  0  0  0  0  0  0  0  0  0  0
    4.1209   -1.8036    1.2838 C   0  0  2  0  0  0  0  0  0  0  0  0
    4.7733   -1.3919    2.6244 C   0  0  0  0  0  0  0  0  0  0  0  0
    4.1882   -2.1952    3.6766 N   0  0  0  0  0  0  0  0  0  0  0  0
    4.6338   -2.0352    5.0562 C   0  0  0  0  0  0  0  0  0  0  0  0
    4.4145   -3.2798    5.6981 O   0  0  0  0  0  0  0  0  0  0  0  0
    3.9357   -4.1564    4.7195 C   0  0  2  0  0  0  0  0  0  0  0  0
    4.3736   -5.4710    4.7444 O   0  0  0  0  0  0  0  0  0  0  0  0
    3.7822   -6.2353    3.6655 C   0  0  0  0  0  0  0  0  0  0  0  0
    3.7777   -5.5084    2.3118 C   0  0  0  0  0  0  0  0  0  0  0  0
    4.1009   -4.2026    2.2058 C   0  0  0  0  0  0  0  0  0  0  0  0
    4.5277   -3.5508    3.4918 C   0  0  1  0  0  0  0  0  0  0  0  0
    4.2766   -3.3249    0.9340 C   0  0  1  0  0  0  0  0  0  0  0  0
    5.6299   -3.4509    0.4776 O   0  0  0  0  0  0  0  0  0  0  0  0
    6.0630   -4.7471    0.0767 C   0  0  0  0  0  0  0  0  0  0  0  0
    1.9808   -5.0282    0.6085 H   0  0  0  0  0  0  0  0  0  0  0  0
    1.6012   -4.4814   -1.0863 H   0  0  0  0  0  0  0  0  0  0  0  0
    2.7188   -4.0514   -2.9198 H   0  0  0  0  0  0  0  0  0  0  0  0
    3.0381   -2.4833   -4.8146 H   0  0  0  0  0  0  0  0  0  0  0  0
    4.6124    0.4302   -2.3423 H   0  0  0  0  0  0  0  0  0  0  0  0
    5.6086   -0.7753    0.0883 H   0  0  0  0  0  0  0  0  0  0  0  0
    4.1046    0.1091    0.2687 H   0  0  0  0  0  0  0  0  0  0  0  0
    3.0503   -1.6364    1.4271 H   0  0  0  0  0  0  0  0  0  0  0  0
    5.8585   -1.5362    2.5924 H   0  0  0  0  0  0  0  0  0  0  0  0
    4.5848   -0.3335    2.8241 H   0  0  0  0  0  0  0  0  0  0  0  0
    5.7016   -1.8082    5.1057 H   0  0  0  0  0  0  0  0  0  0  0  0
    4.0742   -1.2357    5.5456 H   0  0  0  0  0  0  0  0  0  0  0  0
    2.8428   -4.1223    4.7240 H   0  0  0  0  0  0  0  0  0  0  0  0
    4.3353   -7.1711    3.5618 H   0  0  0  0  0  0  0  0  0  0  0  0
    2.7510   -6.4965    3.9197 H   0  0  0  0  0  0  0  0  0  0  0  0
    3.5469   -6.1182    1.4507 H   0  0  0  0  0  0  0  0  0  0  0  0
    5.6130   -3.6771    3.5426 H   0  0  0  0  0  0  0  0  0  0  0  0
    7.0758   -4.6587   -0.3120 H   0  0  0  0  0  0  0  0  0  0  0  0
    5.4354   -5.1706   -0.7079 H   0  0  0  0  0  0  0  0  0  0  0  0
    6.1018   -5.4477    0.9092 H   0  0  0  0  0  0  0  0  0  0  0  0
    3.9350   -0.3568   -4.3990 H   0  0  0  0  0  0  0  0  0  0  0  0
  1  2  2  0
  1 24  1  0
  1 25  1  0
  2 21  1  0
  2  3  1  0
  3  8  2  0
  3  4  1  0
  4  5  2  0
  4 26  1  0
  5  6  1  0
  5 27  1  0
  6  7  2  0
  6 44  1  0
  7  8  1  0
  7 28  1  0
  8  9  1  0
  9 10  1  0
  9 29  1  0
  9 30  1  0
 10 21  1  0
 10 11  1  0
 10 31  1  1
 11 12  1  0
 11 32  1  0
 11 33  1  0
 12 20  1  0
 12 13  1  0
 13 14  1  0
 13 34  1  0
 13 35  1  0
 14 15  1  0
 15 20  1  0
 15 16  1  0
 15 36  1  6
 16 17  1  0
 17 18  1  0
 17 37  1  0
 17 38  1  0
 18 19  2  0
 18 39  1  0
 19 20  1  0
 19 21  1  0
 20 40  1  1
 21 22  1  6
 22 23  1  0
 23 41  1  0
 23 42  1  0
 23 43  1  0
M  CHG  1   6   1
M  END
>  <i_m_ct_stereo_status>  (395) 
1

>  <s_m_source_file>  (395) 
/var/tmp/pbs.5076255.sched01/tmpl4jv_xt6/1264eazgjw7.sdf

>  <i_m_source_file_index>  (395) 
28

>  <i_lp_mmshare_version>  (395) 
48012

>  <i_f3d_flags>  (395) 
0

>  <s_epik_input>  (395) 
W2NIXTFuW2NIXVtjSF1jKEMyPVtDSDJdKWMxW0NIMl1bQ0BASF0oW0NAXTIzT1tDSDNdKVtDSDJdTjRbQ0BIXTVbQ0BIXShPW0NIMl00KU9bQ0gyXVtDSF09QzM1

>  <s_epik_cmdline>  (395) 
J2VwaWtfcHl0aG9uJywgJy1waHQnLCAnMi4wJywgJy1waCcsICc3LjAnLCAnLXRuJywgJzgnLCAnLW1hJywgJzIwMCcsICctaW1hZScsICc8aW5maWxlLm1hZT4nLCAnLW9tYWUnLCAnPG91dGZpbGUubWFlPic=

>  <r_epik_Ionization_Penalty>  (395) 
1.53658

>  <r_epik_Ionization_Penalty_Charging>  (395) 
1.53658

>  <r_epik_Ionization_Penalty_Neutral>  (395) 
3.86987e-06

>  <r_epik_State_Penalty>  (395) 
1.62965

>  <r_epik_Charging_Adjusted_Penalty>  (395) 
3.16623

>  <i_epik_Tot_Q>  (395) 
1

>  <i_epik_Tot_abs_Q>  (395) 
1

>  <s_epik_Chemistry_Notes>  (395) 
This compound contains an acetal/aminal-like group ( X-CH(R)-Y where X, Y are N, S, or O) that may be acid/base labile, releasing an aldehyde.

>  <s_lp_Force_Field>  (395) 
OPLS3e

>  <r_lp_Energy>  (395) 
60.5709

>  <b_lp_Chiralities_Consistent>  (395) 
1

>  <s_lp_Variant>  (395) 
111:0-2

>  <s_i_glide_gridfile>  (395) 
pfpi4k_grid

>  <i_i_glide_lignum>  (395) 
28

>  <i_i_glide_rotatable_bonds>  (395) 
1

>  <r_i_docking_score>  (395) 
-3.08825

>  <r_i_glide_ligand_efficiency>  (395) 
-0.134272

>  <r_i_glide_ligand_efficiency_sa>  (395) 
-0.381851

>  <r_i_glide_ligand_efficiency_ln>  (395) 
-0.746766

>  <r_i_glide_gscore>  (395) 
-3.08825

>  <r_i_glide_lipo>  (395) 
-0.403784

>  <r_i_glide_hbond>  (395) 
0

>  <r_i_glide_metal>  (395) 
-0

>  <r_i_glide_rewards>  (395) 
-1.29869

>  <r_i_glide_evdw>  (395) 
-16.9392

>  <r_i_glide_ecoul>  (395) 
-3.59212

>  <r_i_glide_erotb>  (395) 
0

>  <r_i_glide_esite>  (395) 
0

>  <r_i_glide_emodel>  (395) 
-26.0739

>  <r_i_glide_energy>  (395) 
-20.5313

>  <r_i_glide_einternal>  (395) 
0.0742039

>  <r_i_glide_intrahb_reward>  (395) 
-0

>  <i_i_glide_confnum>  (395) 
1

>  <i_i_glide_posenum>  (395) 
4

>  <r_i_glide_eff_state_penalty>  (395) 
0

>  <ligand_id>  (395) 
111

>  <original_smiles>  (395) 
C=C1c2ccncc2CC2CN3COC4OCC=C(C43)C12OC

>  <smiles>  (395) 
[H]C([H])=C1c2c([H])c([H])[n+]([H])c([H])c2C([H])([H])C2([H])C1(OC([H])([H])[H])C1=C([H])C([H])([H])OC3([H])OC([H])([H])N(C2([H])[H])C13[H]

$$$$
111:1:1
     RDKit          3D

 44 48  0  0  1  0  0  0  0  0999 V2000
    0.4373    0.2497    2.4309 C   0  0  0  0  0  0  0  0  0  0  0  0
    0.6222    1.0942    3.4637 C   0  0  0  0  0  0  0  0  0  0  0  0
   -0.5151    1.8932    3.9737 C   0  0  0  0  0  0  0  0  0  0  0  0
   -1.5707    2.3138    3.1287 C   0  0  0  0  0  0  0  0  0  0  0  0
   -2.6720    2.9986    3.6697 C   0  0  0  0  0  0  0  0  0  0  0  0
   -2.7141    3.2571    4.9943 N   0  0  0  0  0  0  0  0  0  0  0  0
   -1.7320    2.8949    5.8434 C   0  0  0  0  0  0  0  0  0  0  0  0
   -0.6015    2.2087    5.3554 C   0  0  0  0  0  0  0  0  0  0  0  0
    0.5087    1.8335    6.3256 C   0  0  0  0  0  0  0  0  0  0  0  0
    1.5902    0.9217    5.7137 C   0  0  2  0  0  0  0  0  0  0  0  0
    2.8196    0.7467    6.6345 C   0  0  0  0  0  0  0  0  0  0  0  0
    3.6683   -0.2722    6.0557 N   0  0  0  0  0  0  0  0  0  0  0  0
    4.9237   -0.6378    6.7017 C   0  0  0  0  0  0  0  0  0  0  0  0
    5.7844   -1.1019    5.6787 O   0  0  0  0  0  0  0  0  0  0  0  0
    5.0933   -0.9457    4.4695 C   0  0  2  0  0  0  0  0  0  0  0  0
    5.8036   -0.5282    3.3536 O   0  0  0  0  0  0  0  0  0  0  0  0
    4.9367   -0.4299    2.1998 C   0  0  0  0  0  0  0  0  0  0  0  0
    3.5884    0.2513    2.4869 C   0  0  0  0  0  0  0  0  0  0  0  0
    3.1898    0.5377    3.7439 C   0  0  0  0  0  0  0  0  0  0  0  0
    4.1795    0.1803    4.8196 C   0  0  1  0  0  0  0  0  0  0  0  0
    1.9379    1.3159    4.2354 C   0  0  1  0  0  0  0  0  0  0  0  0
    2.2554    2.7147    4.2954 O   0  0  0  0  0  0  0  0  0  0  0  0
    2.4465    3.3977    3.0562 C   0  0  0  0  0  0  0  0  0  0  0  0
    1.1941   -0.3999    2.0271 H   0  0  0  0  0  0  0  0  0  0  0  0
   -0.5293    0.1605    1.9644 H   0  0  0  0  0  0  0  0  0  0  0  0
   -1.5428    2.1139    2.0701 H   0  0  0  0  0  0  0  0  0  0  0  0
   -3.5169    3.3286    3.0825 H   0  0  0  0  0  0  0  0  0  0  0  0
   -1.8804    3.1543    6.8829 H   0  0  0  0  0  0  0  0  0  0  0  0
    0.9688    2.7651    6.6608 H   0  0  0  0  0  0  0  0  0  0  0  0
    0.0798    1.3556    7.2080 H   0  0  0  0  0  0  0  0  0  0  0  0
    1.1367   -0.0704    5.6582 H   0  0  0  0  0  0  0  0  0  0  0  0
    3.3646    1.6889    6.7428 H   0  0  0  0  0  0  0  0  0  0  0  0
    2.4990    0.4350    7.6313 H   0  0  0  0  0  0  0  0  0  0  0  0
    5.3945    0.2287    7.1735 H   0  0  0  0  0  0  0  0  0  0  0  0
    4.7587   -1.4113    7.4549 H   0  0  0  0  0  0  0  0  0  0  0  0
    4.5580   -1.8742    4.2547 H   0  0  0  0  0  0  0  0  0  0  0  0
    5.4640    0.1334    1.4278 H   0  0  0  0  0  0  0  0  0  0  0  0
    4.7478   -1.4270    1.7947 H   0  0  0  0  0  0  0  0  0  0  0  0
    3.0111    0.5397    1.6211 H   0  0  0  0  0  0  0  0  0  0  0  0
    4.7897    1.0741    4.9722 H   0  0  0  0  0  0  0  0  0  0  0  0
    2.6292    4.4537    3.2518 H   0  0  0  0  0  0  0  0  0  0  0  0
    1.5727    3.3369    2.4097 H   0  0  0  0  0  0  0  0  0  0  0  0
    3.3045    3.0210    2.5074 H   0  0  0  0  0  0  0  0  0  0  0  0
   -3.5370    3.7291    5.3742 H   0  0  0  0  0  0  0  0  0  0  0  0
  1  2  2  0
  1 24  1  0
  1 25  1  0
  2 21  1  0
  2  3  1  0
  3  8  2  0
  3  4  1  0
  4  5  2  0
  4 26  1  0
  5  6  1  0
  5 27  1  0
  6  7  2  0
  6 44  1  0
  7  8  1  0
  7 28  1  0
  8  9  1  0
  9 10  1  0
  9 29  1  0
  9 30  1  0
 10 21  1  0
 10 11  1  0
 10 31  1  6
 11 12  1  0
 11 32  1  0
 11 33  1  0
 12 20  1  0
 12 13  1  0
 13 14  1  0
 13 34  1  0
 13 35  1  0
 14 15  1  0
 15 20  1  0
 15 16  1  0
 15 36  1  6
 16 17  1  0
 17 18  1  0
 17 37  1  0
 17 38  1  0
 18 19  2  0
 18 39  1  0
 19 20  1  0
 19 21  1  0
 20 40  1  1
 21 22  1  1
 22 23  1  0
 23 41  1  0
 23 42  1  0
 23 43  1  0
M  CHG  1   6   1
M  END
>  <i_m_ct_stereo_status>  (396) 
1

>  <s_m_source_file>  (396) 
/var/tmp/pbs.5076255.sched01/tmpl4jv_xt6/1264eazgjw7.sdf

>  <i_m_source_file_index>  (396) 
28

>  <i_lp_mmshare_version>  (396) 
48012

>  <i_f3d_flags>  (396) 
0

>  <s_epik_input>  (396) 
W2NIXTFuW2NIXVtjSF1jKEMyPVtDSDJdKWMxW0NIMl1bQ0BASF0oW0NAXTIzT1tDSDNdKVtDSDJdTjRbQ0BIXTVbQ0BIXShPW0NIMl00KU9bQ0gyXVtDSF09QzM1

>  <s_epik_cmdline>  (396) 
J2VwaWtfcHl0aG9uJywgJy1waHQnLCAnMi4wJywgJy1waCcsICc3LjAnLCAnLXRuJywgJzgnLCAnLW1hJywgJzIwMCcsICctaW1hZScsICc8aW5maWxlLm1hZT4nLCAnLW9tYWUnLCAnPG91dGZpbGUubWFlPic=

>  <r_epik_Ionization_Penalty>  (396) 
1.53658

>  <r_epik_Ionization_Penalty_Charging>  (396) 
1.53658

>  <r_epik_Ionization_Penalty_Neutral>  (396) 
3.86987e-06

>  <r_epik_State_Penalty>  (396) 
1.62965

>  <r_epik_Charging_Adjusted_Penalty>  (396) 
3.16623

>  <i_epik_Tot_Q>  (396) 
1

>  <i_epik_Tot_abs_Q>  (396) 
1

>  <s_epik_Chemistry_Notes>  (396) 
This compound contains an acetal/aminal-like group ( X-CH(R)-Y where X, Y are N, S, or O) that may be acid/base labile, releasing an aldehyde.

>  <s_lp_Force_Field>  (396) 
OPLS3e

>  <r_lp_Energy>  (396) 
60.5709

>  <b_lp_Chiralities_Consistent>  (396) 
1

>  <s_lp_Variant>  (396) 
111:0-2

>  <s_i_glide_gridfile>  (396) 
pfpi4k_grid

>  <i_i_glide_lignum>  (396) 
28

>  <i_i_glide_rotatable_bonds>  (396) 
1

>  <r_i_docking_score>  (396) 
-2.75203

>  <r_i_glide_ligand_efficiency>  (396) 
-0.119653

>  <r_i_glide_ligand_efficiency_sa>  (396) 
-0.340278

>  <r_i_glide_ligand_efficiency_ln>  (396) 
-0.665466

>  <r_i_glide_gscore>  (396) 
-2.75203

>  <r_i_glide_lipo>  (396) 
-0.199832

>  <r_i_glide_hbond>  (396) 
0

>  <r_i_glide_metal>  (396) 
-0

>  <r_i_glide_rewards>  (396) 
-1.35836

>  <r_i_glide_evdw>  (396) 
-17.11

>  <r_i_glide_ecoul>  (396) 
-2.10697

>  <r_i_glide_erotb>  (396) 
0

>  <r_i_glide_esite>  (396) 
-0.0222882

>  <r_i_glide_emodel>  (396) 
-24.1407

>  <r_i_glide_energy>  (396) 
-19.217

>  <r_i_glide_einternal>  (396) 
0.0927271

>  <r_i_glide_intrahb_reward>  (396) 
-0

>  <i_i_glide_confnum>  (396) 
1

>  <i_i_glide_posenum>  (396) 
3

>  <r_i_glide_eff_state_penalty>  (396) 
0

>  <ligand_id>  (396) 
111

>  <original_smiles>  (396) 
C=C1c2ccncc2CC2CN3COC4OCC=C(C43)C12OC

>  <smiles>  (396) 
[H]C([H])=C1c2c([H])c([H])[n+]([H])c([H])c2C([H])([H])C2([H])C1(OC([H])([H])[H])C1=C([H])C([H])([H])OC3([H])OC([H])([H])N(C2([H])[H])C13[H]

$$$$
111:1:2
     RDKit          3D

 44 48  0  0  1  0  0  0  0  0999 V2000
    1.7572    2.4389    5.7530 C   0  0  0  0  0  0  0  0  0  0  0  0
    1.0253    1.7554    4.8459 C   0  0  0  0  0  0  0  0  0  0  0  0
   -0.3606    2.1898    4.5530 C   0  0  0  0  0  0  0  0  0  0  0  0
   -1.1774    2.8040    5.5357 C   0  0  0  0  0  0  0  0  0  0  0  0
   -2.4657    3.2568    5.1906 C   0  0  0  0  0  0  0  0  0  0  0  0
   -2.9122    3.1109    3.9245 N   0  0  0  0  0  0  0  0  0  0  0  0
   -2.1744    2.5431    2.9540 C   0  0  0  0  0  0  0  0  0  0  0  0
   -0.8869    2.0433    3.2420 C   0  0  0  0  0  0  0  0  0  0  0  0
   -0.1005    1.3471    2.1386 C   0  0  0  0  0  0  0  0  0  0  0  0
    1.3598    1.0360    2.5166 C   0  0  2  0  0  0  0  0  0  0  0  0
    2.0726    0.1330    1.4841 C   0  0  0  0  0  0  0  0  0  0  0  0
    3.4777    0.0792    1.8311 N   0  0  0  0  0  0  0  0  0  0  0  0
    4.4022   -0.7218    1.0363 C   0  0  0  0  0  0  0  0  0  0  0  0
    5.4568   -1.1021    1.9057 O   0  0  0  0  0  0  0  0  0  0  0  0
    5.1213   -0.6241    3.1776 C   0  0  2  0  0  0  0  0  0  0  0  0
    5.3976   -1.4207    4.2781 O   0  0  0  0  0  0  0  0  0  0  0  0
    4.9956   -0.7661    5.5029 C   0  0  0  0  0  0  0  0  0  0  0  0
    3.6097   -0.1048    5.4343 C   0  0  0  0  0  0  0  0  0  0  0  0
    2.9426    0.0279    4.2671 C   0  0  0  0  0  0  0  0  0  0  0  0
    3.6332   -0.5720    3.0722 C   0  0  1  0  0  0  0  0  0  0  0  0
    1.5038    0.5551    4.0029 C   0  0  1  0  0  0  0  0  0  0  0  0
    0.5822   -0.5407    4.1281 O   0  0  0  0  0  0  0  0  0  0  0  0
    0.4613   -1.1532    5.4101 C   0  0  0  0  0  0  0  0  0  0  0  0
    2.7874    2.2282    5.9779 H   0  0  0  0  0  0  0  0  0  0  0  0
    1.3407    3.2896    6.2667 H   0  0  0  0  0  0  0  0  0  0  0  0
   -0.8284    2.9247    6.5513 H   0  0  0  0  0  0  0  0  0  0  0  0
   -3.1437    3.7244    5.8894 H   0  0  0  0  0  0  0  0  0  0  0  0
   -2.6577    2.4512    1.9938 H   0  0  0  0  0  0  0  0  0  0  0  0
   -0.6160    0.4171    1.9000 H   0  0  0  0  0  0  0  0  0  0  0  0
   -0.1245    1.9530    1.2329 H   0  0  0  0  0  0  0  0  0  0  0  0
    1.8802    1.9944    2.4579 H   0  0  0  0  0  0  0  0  0  0  0  0
    1.6391   -0.8686    1.4753 H   0  0  0  0  0  0  0  0  0  0  0  0
    1.9484    0.5417    0.4789 H   0  0  0  0  0  0  0  0  0  0  0  0
    3.9194   -1.6298    0.6634 H   0  0  0  0  0  0  0  0  0  0  0  0
    4.7854   -0.1430    0.1945 H   0  0  0  0  0  0  0  0  0  0  0  0
    5.5692    0.3641    3.3046 H   0  0  0  0  0  0  0  0  0  0  0  0
    4.9979   -1.5088    6.3017 H   0  0  0  0  0  0  0  0  0  0  0  0
    5.7341   -0.0064    5.7688 H   0  0  0  0  0  0  0  0  0  0  0  0
    3.1859    0.2058    6.3769 H   0  0  0  0  0  0  0  0  0  0  0  0
    3.2644   -1.5989    3.0017 H   0  0  0  0  0  0  0  0  0  0  0  0
   -0.3106   -1.9202    5.3640 H   0  0  0  0  0  0  0  0  0  0  0  0
    0.1709   -0.4415    6.1823 H   0  0  0  0  0  0  0  0  0  0  0  0
    1.3786   -1.6502    5.7226 H   0  0  0  0  0  0  0  0  0  0  0  0
   -3.8542    3.4279    3.6848 H   0  0  0  0  0  0  0  0  0  0  0  0
  1  2  2  0
  1 24  1  0
  1 25  1  0
  2 21  1  0
  2  3  1  0
  3  8  2  0
  3  4  1  0
  4  5  2  0
  4 26  1  0
  5  6  1  0
  5 27  1  0
  6  7  2  0
  6 44  1  0
  7  8  1  0
  7 28  1  0
  8  9  1  0
  9 10  1  0
  9 29  1  0
  9 30  1  0
 10 21  1  0
 10 11  1  0
 10 31  1  1
 11 12  1  0
 11 32  1  0
 11 33  1  0
 12 20  1  0
 12 13  1  0
 13 14  1  0
 13 34  1  0
 13 35  1  0
 14 15  1  0
 15 20  1  0
 15 16  1  0
 15 36  1  1
 16 17  1  0
 17 18  1  0
 17 37  1  0
 17 38  1  0
 18 19  2  0
 18 39  1  0
 19 20  1  0
 19 21  1  0
 20 40  1  6
 21 22  1  6
 22 23  1  0
 23 41  1  0
 23 42  1  0
 23 43  1  0
M  CHG  1   6   1
M  END
>  <i_m_ct_stereo_status>  (397) 
1

>  <s_m_source_file>  (397) 
/var/tmp/pbs.5076255.sched01/tmpl4jv_xt6/1264eazgjw7.sdf

>  <i_m_source_file_index>  (397) 
28

>  <i_lp_mmshare_version>  (397) 
48012

>  <i_f3d_flags>  (397) 
0

>  <s_epik_input>  (397) 
W2NIXTFuW2NIXVtjSF1jKEMyPVtDSDJdKWMxW0NIMl1bQ0BASF0oW0NAXTIzT1tDSDNdKVtDSDJdTjRbQ0BIXTVbQ0BIXShPW0NIMl00KU9bQ0gyXVtDSF09QzM1

>  <s_epik_cmdline>  (397) 
J2VwaWtfcHl0aG9uJywgJy1waHQnLCAnMi4wJywgJy1waCcsICc3LjAnLCAnLXRuJywgJzgnLCAnLW1hJywgJzIwMCcsICctaW1hZScsICc8aW5maWxlLm1hZT4nLCAnLW9tYWUnLCAnPG91dGZpbGUubWFlPic=

>  <r_epik_Ionization_Penalty>  (397) 
1.53658

>  <r_epik_Ionization_Penalty_Charging>  (397) 
1.53658

>  <r_epik_Ionization_Penalty_Neutral>  (397) 
3.86987e-06

>  <r_epik_State_Penalty>  (397) 
1.62965

>  <r_epik_Charging_Adjusted_Penalty>  (397) 
3.16623

>  <i_epik_Tot_Q>  (397) 
1

>  <i_epik_Tot_abs_Q>  (397) 
1

>  <s_epik_Chemistry_Notes>  (397) 
This compound contains an acetal/aminal-like group ( X-CH(R)-Y where X, Y are N, S, or O) that may be acid/base labile, releasing an aldehyde.

>  <s_lp_Force_Field>  (397) 
OPLS3e

>  <r_lp_Energy>  (397) 
60.5709

>  <b_lp_Chiralities_Consistent>  (397) 
1

>  <s_lp_Variant>  (397) 
111:0-2

>  <s_i_glide_gridfile>  (397) 
pfpi4k_grid

>  <i_i_glide_lignum>  (397) 
28

>  <i_i_glide_rotatable_bonds>  (397) 
1

>  <r_i_docking_score>  (397) 
-2.71683

>  <r_i_glide_ligand_efficiency>  (397) 
-0.118123

>  <r_i_glide_ligand_efficiency_sa>  (397) 
-0.335927

>  <r_i_glide_ligand_efficiency_ln>  (397) 
-0.656955

>  <r_i_glide_gscore>  (397) 
-2.71683

>  <r_i_glide_lipo>  (397) 
-0.0396281

>  <r_i_glide_hbond>  (397) 
0

>  <r_i_glide_metal>  (397) 
-0

>  <r_i_glide_rewards>  (397) 
-1.57329

>  <r_i_glide_evdw>  (397) 
-18.7479

>  <r_i_glide_ecoul>  (397) 
-0.81868

>  <r_i_glide_erotb>  (397) 
0

>  <r_i_glide_esite>  (397) 
-0.0437254

>  <r_i_glide_emodel>  (397) 
-24.4825

>  <r_i_glide_energy>  (397) 
-19.5665

>  <r_i_glide_einternal>  (397) 
0.00617261

>  <r_i_glide_intrahb_reward>  (397) 
-0

>  <i_i_glide_confnum>  (397) 
1

>  <i_i_glide_posenum>  (397) 
2

>  <r_i_glide_eff_state_penalty>  (397) 
0

>  <ligand_id>  (397) 
111

>  <original_smiles>  (397) 
C=C1c2ccncc2CC2CN3COC4OCC=C(C43)C12OC

>  <smiles>  (397) 
[H]C([H])=C1c2c([H])c([H])[n+]([H])c([H])c2C([H])([H])C2([H])C1(OC([H])([H])[H])C1=C([H])C([H])([H])OC3([H])OC([H])([H])N(C2([H])[H])C13[H]

$$$$
112:0:0
     RDKit          3D

 56 59  0  0  1  0  0  0  0  0999 V2000
    1.4166   -0.1299    4.5138 C   0  0  0  0  0  0  0  0  0  0  0  0
    2.1557   -1.1933    4.8689 C   0  0  0  0  0  0  0  0  0  0  0  0
    3.1354   -1.1422    6.0189 C   0  0  0  0  0  0  0  0  0  0  0  0
    4.5452   -1.4768    5.5174 C   0  0  0  0  0  0  0  0  0  0  0  0
    4.5991   -2.8391    4.8031 C   0  0  1  0  0  0  0  0  0  0  0  0
    4.4581   -3.8425    5.7828 O   0  0  0  0  0  0  0  0  0  0  0  0
    3.5481   -2.9654    3.6520 C   0  0  2  0  0  0  0  0  0  0  0  0
    2.1298   -2.4976    4.0807 C   0  0  1  0  0  0  0  0  0  0  0  0
    1.4363   -3.6574    4.8126 C   0  0  1  0  0  0  0  0  0  0  0  0
    0.1224   -3.2914    5.1521 O   0  0  0  0  0  0  0  0  0  0  0  0
    1.4090   -4.7495    3.9483 O   0  0  0  0  0  0  0  0  0  0  0  0
    2.6684   -5.2768    3.6015 C   0  0  1  0  0  0  0  0  0  0  0  0
    2.5606   -6.5110    2.9510 O   0  0  0  0  0  0  0  0  0  0  0  0
    1.7825   -6.5022    1.7951 C   0  0  1  0  0  0  0  0  0  0  0  0
    0.4025   -6.3029    2.0484 O   0  0  0  0  0  0  0  0  0  0  0  0
    2.3537   -5.5199    0.7447 C   0  0  1  0  0  0  0  0  0  0  0  0
    1.4243   -5.4576   -0.3254 O   0  0  0  0  0  0  0  0  0  0  0  0
    2.7594   -4.1028    1.3378 C   0  0  2  0  0  0  0  0  0  0  0  0
    3.5946   -3.2208    0.2937 C   0  0  0  0  0  0  0  0  0  0  0  0
    3.0192   -3.2542   -1.1402 C   0  0  0  0  0  0  0  0  0  0  0  0
    3.6215   -1.7043    0.6410 C   0  0  0  0  0  0  0  0  0  0  0  0
    5.0470   -3.7516    0.1788 C   0  0  0  0  0  0  0  0  0  0  0  0
    5.7432   -3.9556    1.5253 C   0  0  0  0  0  0  0  0  0  0  0  0
    4.9092   -4.8803    2.4231 C   0  0  1  0  0  0  0  0  0  0  0  0
    5.6674   -5.2680    3.5509 O   0  0  0  0  0  0  0  0  0  0  0  0
    3.4986   -4.2694    2.7421 C   0  0  1  0  0  0  0  0  0  0  0  0
    0.7453   -0.1663    3.6658 H   0  0  0  0  0  0  0  0  0  0  0  0
    1.4804    0.7968    5.0632 H   0  0  0  0  0  0  0  0  0  0  0  0
    3.1241   -0.1528    6.4772 H   0  0  0  0  0  0  0  0  0  0  0  0
    2.8214   -1.8519    6.7853 H   0  0  0  0  0  0  0  0  0  0  0  0
    4.8600   -0.7005    4.8199 H   0  0  0  0  0  0  0  0  0  0  0  0
    5.2563   -1.4507    6.3456 H   0  0  0  0  0  0  0  0  0  0  0  0
    5.6015   -2.9299    4.3933 H   0  0  0  0  0  0  0  0  0  0  0  0
    4.7077   -4.6609    5.3715 H   0  0  0  0  0  0  0  0  0  0  0  0
    3.8922   -2.1677    3.0220 H   0  0  0  0  0  0  0  0  0  0  0  0
    1.5371   -2.3019    3.1904 H   0  0  0  0  0  0  0  0  0  0  0  0
    1.9232   -3.9189    5.7514 H   0  0  0  0  0  0  0  0  0  0  0  0
   -0.2901   -2.9855    4.3599 H   0  0  0  0  0  0  0  0  0  0  0  0
    3.1806   -5.5285    4.5262 H   0  0  0  0  0  0  0  0  0  0  0  0
    1.8468   -7.5165    1.3880 H   0  0  0  0  0  0  0  0  0  0  0  0
    0.1133   -7.0646    2.5310 H   0  0  0  0  0  0  0  0  0  0  0  0
    3.2503   -5.9991    0.3473 H   0  0  0  0  0  0  0  0  0  0  0  0
    1.9063   -5.3585   -1.1379 H   0  0  0  0  0  0  0  0  0  0  0  0
    1.8206   -3.5951    1.5210 H   0  0  0  0  0  0  0  0  0  0  0  0
    3.5254   -2.5488   -1.8002 H   0  0  0  0  0  0  0  0  0  0  0  0
    1.9543   -3.0152   -1.1633 H   0  0  0  0  0  0  0  0  0  0  0  0
    3.1684   -4.2283   -1.5955 H   0  0  0  0  0  0  0  0  0  0  0  0
    3.6499   -1.0697   -0.2469 H   0  0  0  0  0  0  0  0  0  0  0  0
    4.5111   -1.4190    1.2034 H   0  0  0  0  0  0  0  0  0  0  0  0
    2.7323   -1.3988    1.1991 H   0  0  0  0  0  0  0  0  0  0  0  0
    5.0453   -4.7079   -0.3435 H   0  0  0  0  0  0  0  0  0  0  0  0
    5.6413   -3.0854   -0.4408 H   0  0  0  0  0  0  0  0  0  0  0  0
    6.7264   -4.3966    1.3461 H   0  0  0  0  0  0  0  0  0  0  0  0
    5.9311   -3.0032    2.0164 H   0  0  0  0  0  0  0  0  0  0  0  0
    4.7799   -5.8156    1.8792 H   0  0  0  0  0  0  0  0  0  0  0  0
    6.4168   -5.7630    3.2430 H   0  0  0  0  0  0  0  0  0  0  0  0
  1  2  2  0
  1 27  1  0
  1 28  1  0
  2  8  1  0
  2  3  1  0
  3  4  1  0
  3 29  1  0
  3 30  1  0
  4  5  1  0
  4 31  1  0
  4 32  1  0
  5  6  1  0
  5  7  1  0
  5 33  1  6
  6 34  1  0
  7 26  1  0
  7  8  1  0
  7 35  1  6
  8  9  1  0
  8 36  1  6
  9 10  1  0
  9 11  1  0
  9 37  1  1
 10 38  1  0
 11 12  1  0
 12 26  1  0
 12 13  1  0
 12 39  1  1
 13 14  1  0
 14 15  1  0
 14 16  1  0
 14 40  1  6
 15 41  1  0
 16 17  1  0
 16 18  1  0
 16 42  1  6
 17 43  1  0
 18 26  1  0
 18 19  1  0
 18 44  1  1
 19 20  1  0
 19 21  1  0
 19 22  1  0
 20 45  1  0
 20 46  1  0
 20 47  1  0
 21 48  1  0
 21 49  1  0
 21 50  1  0
 22 23  1  0
 22 51  1  0
 22 52  1  0
 23 24  1  0
 23 53  1  0
 23 54  1  0
 24 25  1  0
 26 24  1  6
 24 55  1  6
 25 56  1  0
M  END
>  <i_m_ct_stereo_status>  (398) 
1

>  <s_m_source_file>  (398) 
/var/tmp/pbs.5076255.sched01/tmpl4jv_xt6/1264eazgjw7.sdf

>  <i_m_source_file_index>  (398) 
29

>  <i_lp_mmshare_version>  (398) 
48012

>  <i_f3d_flags>  (398) 
0

>  <s_epik_input>  (398) 
W09IXVtDQEBIXTFbQ0gyXVtDSDJdQyg9W0NIMl0pW0NAQEhdKFtDQEBIXTFbQ0BAXTIzNClbQ0BASF0oW09IXSlPW0NASF0yT1tDQEBIXShbT0hdKVtDQEBIXShbT0hdKVtDQEBIXTNDKFtDSDNdKShbQ0gzXSlbQ0gyXVtDSDJdW0NASF00W09IXQ==

>  <s_epik_cmdline>  (398) 
J2VwaWtfcHl0aG9uJywgJy1waHQnLCAnMi4wJywgJy1waCcsICc3LjAnLCAnLXRuJywgJzgnLCAnLW1hJywgJzIwMCcsICctaW1hZScsICc8aW5maWxlLm1hZT4nLCAnLW9tYWUnLCAnPG91dGZpbGUubWFlPic=

>  <r_lp_tautomer_probability>  (398) 
1

>  <r_epik_Ionization_Penalty>  (398) 
8.08734e-07

>  <r_epik_Ionization_Penalty_Charging>  (398) 
0

>  <r_epik_Ionization_Penalty_Neutral>  (398) 
8.08734e-07

>  <r_epik_State_Penalty>  (398) 
-0

>  <r_epik_Charging_Adjusted_Penalty>  (398) 
0

>  <i_epik_Tot_Q>  (398) 
0

>  <i_epik_Tot_abs_Q>  (398) 
0

>  <s_epik_Chemistry_Notes>  (398) 
This compound contains an acetal/aminal-like group ( X-CH(R)-Y where X, Y are N, S, or O) that may be acid/base labile, releasing an aldehyde.

>  <s_lp_Force_Field>  (398) 
OPLS3e

>  <r_lp_Energy>  (398) 
56.2561

>  <b_lp_Chiralities_Consistent>  (398) 
1

>  <s_lp_Variant>  (398) 
112:0-1

>  <s_i_glide_gridfile>  (398) 
pfpi4k_grid

>  <i_i_glide_lignum>  (398) 
29

>  <i_i_glide_rotatable_bonds>  (398) 
5

>  <r_i_docking_score>  (398) 
-4.15174

>  <r_i_glide_ligand_efficiency>  (398) 
-0.159682

>  <r_i_glide_ligand_efficiency_sa>  (398) 
-0.473059

>  <r_i_glide_ligand_efficiency_ln>  (398) 
-0.975023

>  <r_i_glide_gscore>  (398) 
-4.15174

>  <r_i_glide_lipo>  (398) 
-0.201837

>  <r_i_glide_hbond>  (398) 
0

>  <r_i_glide_metal>  (398) 
-0

>  <r_i_glide_rewards>  (398) 
-1.39362

>  <r_i_glide_evdw>  (398) 
-18.3647

>  <r_i_glide_ecoul>  (398) 
-10.6961

>  <r_i_glide_erotb>  (398) 
0

>  <r_i_glide_esite>  (398) 
-0.0336281

>  <r_i_glide_emodel>  (398) 
-40.9809

>  <r_i_glide_energy>  (398) 
-29.0609

>  <r_i_glide_einternal>  (398) 
1.96382

>  <r_i_glide_intrahb_reward>  (398) 
-0.5

>  <i_i_glide_confnum>  (398) 
2

>  <i_i_glide_posenum>  (398) 
39

>  <r_i_glide_eff_state_penalty>  (398) 
0

>  <ligand_id>  (398) 
112

>  <original_smiles>  (398) 
C=C1CCC(O)C2C1C(O)OC1OC(O)C(O)C3C(C)(C)CCC(O)C123

>  <smiles>  (398) 
[H]OC1([H])OC2([H])OC([H])(O[H])C3([H])C(=C([H])[H])C([H])([H])C([H])([H])C([H])(O[H])C3([H])C23C([H])(O[H])C([H])([H])C([H])([H])C(C([H])([H])[H])(C([H])([H])[H])C3([H])C1([H])O[H]

$$$$
112:0:1
     RDKit          3D

 56 59  0  0  1  0  0  0  0  0999 V2000
    2.2925   -7.0622    1.7665 C   0  0  0  0  0  0  0  0  0  0  0  0
    2.8733   -6.0185    2.3933 C   0  0  0  0  0  0  0  0  0  0  0  0
    2.3608   -5.5156    3.7187 C   0  0  0  0  0  0  0  0  0  0  0  0
    1.9684   -4.0399    3.5922 C   0  0  0  0  0  0  0  0  0  0  0  0
    3.1256   -3.1720    3.0722 C   0  0  1  0  0  0  0  0  0  0  0  0
    4.0692   -3.0686    4.1162 O   0  0  0  0  0  0  0  0  0  0  0  0
    3.7342   -3.7012    1.7321 C   0  0  2  0  0  0  0  0  0  0  0  0
    4.0138   -5.2327    1.7622 C   0  0  1  0  0  0  0  0  0  0  0  0
    5.3839   -5.4662    2.4254 C   0  0  1  0  0  0  0  0  0  0  0  0
    5.7123   -6.8281    2.4211 O   0  0  0  0  0  0  0  0  0  0  0  0
    6.3314   -4.7596    1.6779 O   0  0  0  0  0  0  0  0  0  0  0  0
    6.1655   -3.3563    1.7216 C   0  0  1  0  0  0  0  0  0  0  0  0
    7.2638   -2.6534    1.2215 O   0  0  0  0  0  0  0  0  0  0  0  0
    7.6765   -3.0199   -0.0465 C   0  0  1  0  0  0  0  0  0  0  0  0
    8.1867   -4.3274   -0.1036 O   0  0  0  0  0  0  0  0  0  0  0  0
    6.5193   -2.7414   -1.0349 C   0  0  1  0  0  0  0  0  0  0  0  0
    6.8752   -3.2602   -2.2958 O   0  0  0  0  0  0  0  0  0  0  0  0
    5.1043   -3.2453   -0.5510 C   0  0  2  0  0  0  0  0  0  0  0  0
    3.9313   -2.6774   -1.4721 C   0  0  0  0  0  0  0  0  0  0  0  0
    4.2109   -2.7760   -2.9957 C   0  0  0  0  0  0  0  0  0  0  0  0
    2.5999   -3.4506   -1.3098 C   0  0  0  0  0  0  0  0  0  0  0  0
    3.7228   -1.1689   -1.1603 C   0  0  0  0  0  0  0  0  0  0  0  0
    3.5588   -0.8505    0.3390 C   0  0  0  0  0  0  0  0  0  0  0  0
    4.7661   -1.3548    1.1104 C   0  0  1  0  0  0  0  0  0  0  0  0
    4.7739   -0.8464    2.4326 O   0  0  0  0  0  0  0  0  0  0  0  0
    4.8927   -2.9087    0.9939 C   0  0  1  0  0  0  0  0  0  0  0  0
    2.6833   -7.3929    0.8237 H   0  0  0  0  0  0  0  0  0  0  0  0
    1.4577   -7.5872    2.1912 H   0  0  0  0  0  0  0  0  0  0  0  0
    1.5082   -6.1095    4.0345 H   0  0  0  0  0  0  0  0  0  0  0  0
    3.1440   -5.6491    4.4608 H   0  0  0  0  0  0  0  0  0  0  0  0
    1.1311   -3.9599    2.9019 H   0  0  0  0  0  0  0  0  0  0  0  0
    1.6108   -3.6655    4.5560 H   0  0  0  0  0  0  0  0  0  0  0  0
    2.7036   -2.1865    2.9054 H   0  0  0  0  0  0  0  0  0  0  0  0
    4.7415   -2.4479    3.8814 H   0  0  0  0  0  0  0  0  0  0  0  0
    2.8653   -3.6322    1.1133 H   0  0  0  0  0  0  0  0  0  0  0  0
    4.1107   -5.5978    0.7372 H   0  0  0  0  0  0  0  0  0  0  0  0
    5.3887   -5.1694    3.4734 H   0  0  0  0  0  0  0  0  0  0  0  0
    5.6331   -7.1608    1.5423 H   0  0  0  0  0  0  0  0  0  0  0  0
    6.1374   -3.0546    2.7621 H   0  0  0  0  0  0  0  0  0  0  0  0
    8.5301   -2.3939   -0.2928 H   0  0  0  0  0  0  0  0  0  0  0  0
    7.4834   -4.9166    0.1291 H   0  0  0  0  0  0  0  0  0  0  0  0
    6.4848   -1.6550   -1.1486 H   0  0  0  0  0  0  0  0  0  0  0  0
    7.7881   -3.0765   -2.4891 H   0  0  0  0  0  0  0  0  0  0  0  0
    5.1307   -4.3324   -0.6788 H   0  0  0  0  0  0  0  0  0  0  0  0
    3.3383   -2.4936   -3.5897 H   0  0  0  0  0  0  0  0  0  0  0  0
    4.4909   -3.7941   -3.2834 H   0  0  0  0  0  0  0  0  0  0  0  0
    4.9917   -2.0917   -3.3094 H   0  0  0  0  0  0  0  0  0  0  0  0
    2.0091   -3.4906   -2.2301 H   0  0  0  0  0  0  0  0  0  0  0  0
    1.9264   -2.9982   -0.5915 H   0  0  0  0  0  0  0  0  0  0  0  0
    2.7634   -4.4913   -1.0084 H   0  0  0  0  0  0  0  0  0  0  0  0
    4.5475   -0.5840   -1.5619 H   0  0  0  0  0  0  0  0  0  0  0  0
    2.8491   -0.8349   -1.7129 H   0  0  0  0  0  0  0  0  0  0  0  0
    3.4685    0.2224    0.4972 H   0  0  0  0  0  0  0  0  0  0  0  0
    2.6340   -1.2817    0.7182 H   0  0  0  0  0  0  0  0  0  0  0  0
    5.6315   -0.8723    0.6635 H   0  0  0  0  0  0  0  0  0  0  0  0
    3.9218   -0.9781    2.8150 H   0  0  0  0  0  0  0  0  0  0  0  0
  1  2  2  0
  1 27  1  0
  1 28  1  0
  2  8  1  0
  2  3  1  0
  3  4  1  0
  3 29  1  0
  3 30  1  0
  4  5  1  0
  4 31  1  0
  4 32  1  0
  5  6  1  0
  5  7  1  0
  5 33  1  6
  6 34  1  0
  7 26  1  0
  7  8  1  0
  7 35  1  6
  8  9  1  0
  8 36  1  6
  9 10  1  0
  9 11  1  0
  9 37  1  1
 10 38  1  0
 11 12  1  0
 12 26  1  0
 12 13  1  0
 12 39  1  1
 13 14  1  0
 14 15  1  0
 14 16  1  0
 14 40  1  6
 15 41  1  0
 16 17  1  0
 16 18  1  0
 16 42  1  6
 17 43  1  0
 18 26  1  0
 18 19  1  0
 18 44  1  1
 19 20  1  0
 19 21  1  0
 19 22  1  0
 20 45  1  0
 20 46  1  0
 20 47  1  0
 21 48  1  0
 21 49  1  0
 21 50  1  0
 22 23  1  0
 22 51  1  0
 22 52  1  0
 23 24  1  0
 23 53  1  0
 23 54  1  0
 24 25  1  0
 26 24  1  6
 24 55  1  6
 25 56  1  0
M  END
>  <i_m_ct_stereo_status>  (399) 
1

>  <s_m_source_file>  (399) 
/var/tmp/pbs.5076255.sched01/tmpl4jv_xt6/1264eazgjw7.sdf

>  <i_m_source_file_index>  (399) 
29

>  <i_lp_mmshare_version>  (399) 
48012

>  <i_f3d_flags>  (399) 
0

>  <s_epik_input>  (399) 
W09IXVtDQEBIXTFbQ0gyXVtDSDJdQyg9W0NIMl0pW0NAQEhdKFtDQEBIXTFbQ0BAXTIzNClbQ0BASF0oW09IXSlPW0NASF0yT1tDQEBIXShbT0hdKVtDQEBIXShbT0hdKVtDQEBIXTNDKFtDSDNdKShbQ0gzXSlbQ0gyXVtDSDJdW0NASF00W09IXQ==

>  <s_epik_cmdline>  (399) 
J2VwaWtfcHl0aG9uJywgJy1waHQnLCAnMi4wJywgJy1waCcsICc3LjAnLCAnLXRuJywgJzgnLCAnLW1hJywgJzIwMCcsICctaW1hZScsICc8aW5maWxlLm1hZT4nLCAnLW9tYWUnLCAnPG91dGZpbGUubWFlPic=

>  <r_lp_tautomer_probability>  (399) 
1

>  <r_epik_Ionization_Penalty>  (399) 
8.08734e-07

>  <r_epik_Ionization_Penalty_Charging>  (399) 
0

>  <r_epik_Ionization_Penalty_Neutral>  (399) 
8.08734e-07

>  <r_epik_State_Penalty>  (399) 
-0

>  <r_epik_Charging_Adjusted_Penalty>  (399) 
0

>  <i_epik_Tot_Q>  (399) 
0

>  <i_epik_Tot_abs_Q>  (399) 
0

>  <s_epik_Chemistry_Notes>  (399) 
This compound contains an acetal/aminal-like group ( X-CH(R)-Y where X, Y are N, S, or O) that may be acid/base labile, releasing an aldehyde.

>  <s_lp_Force_Field>  (399) 
OPLS3e

>  <r_lp_Energy>  (399) 
56.2561

>  <b_lp_Chiralities_Consistent>  (399) 
1

>  <s_lp_Variant>  (399) 
112:0-1

>  <s_i_glide_gridfile>  (399) 
pfpi4k_grid

>  <i_i_glide_lignum>  (399) 
29

>  <i_i_glide_rotatable_bonds>  (399) 
5

>  <r_i_docking_score>  (399) 
-3.43529

>  <r_i_glide_ligand_efficiency>  (399) 
-0.132127

>  <r_i_glide_ligand_efficiency_sa>  (399) 
-0.391424

>  <r_i_glide_ligand_efficiency_ln>  (399) 
-0.806767

>  <r_i_glide_gscore>  (399) 
-3.43529

>  <r_i_glide_lipo>  (399) 
-0.278303

>  <r_i_glide_hbond>  (399) 
0

>  <r_i_glide_metal>  (399) 
-0

>  <r_i_glide_rewards>  (399) 
-1.67524

>  <r_i_glide_evdw>  (399) 
-21.4788

>  <r_i_glide_ecoul>  (399) 
-2.7187

>  <r_i_glide_erotb>  (399) 
0

>  <r_i_glide_esite>  (399) 
0

>  <r_i_glide_emodel>  (399) 
-35.4015

>  <r_i_glide_energy>  (399) 
-24.1975

>  <r_i_glide_einternal>  (399) 
0.799511

>  <r_i_glide_intrahb_reward>  (399) 
-0.5

>  <i_i_glide_confnum>  (399) 
1

>  <i_i_glide_posenum>  (399) 
1

>  <r_i_glide_eff_state_penalty>  (399) 
0

>  <ligand_id>  (399) 
112

>  <original_smiles>  (399) 
C=C1CCC(O)C2C1C(O)OC1OC(O)C(O)C3C(C)(C)CCC(O)C123

>  <smiles>  (399) 
[H]OC1([H])OC2([H])OC([H])(O[H])C3([H])C(=C([H])[H])C([H])([H])C([H])([H])C([H])(O[H])C3([H])C23C([H])(O[H])C([H])([H])C([H])([H])C(C([H])([H])[H])(C([H])([H])[H])C3([H])C1([H])O[H]

$$$$
112:0:2
     RDKit          3D

 56 59  0  0  1  0  0  0  0  0999 V2000
    2.3680   -7.1087    1.8084 C   0  0  0  0  0  0  0  0  0  0  0  0
    2.9320   -6.0643    2.4320 C   0  0  0  0  0  0  0  0  0  0  0  0
    2.4389   -5.5747    3.7723 C   0  0  0  0  0  0  0  0  0  0  0  0
    2.0096   -4.1085    3.6640 C   0  0  0  0  0  0  0  0  0  0  0  0
    3.1401   -3.2103    3.1308 C   0  0  1  0  0  0  0  0  0  0  0  0
    4.0998   -3.0878    4.1599 O   0  0  0  0  0  0  0  0  0  0  0  0
    3.7317   -3.7235    1.7751 C   0  0  2  0  0  0  0  0  0  0  0  0
    4.0520   -5.2445    1.7935 C   0  0  1  0  0  0  0  0  0  0  0  0
    5.4351   -5.4477    2.4365 C   0  0  1  0  0  0  0  0  0  0  0  0
    5.7955   -6.8092    2.4134 O   0  0  0  0  0  0  0  0  0  0  0  0
    6.3527   -4.7089    1.6922 O   0  0  0  0  0  0  0  0  0  0  0  0
    6.1587   -3.3144    1.7284 C   0  0  1  0  0  0  0  0  0  0  0  0
    7.2338   -2.5972    1.2073 O   0  0  0  0  0  0  0  0  0  0  0  0
    7.6167   -2.9384   -0.0776 C   0  0  1  0  0  0  0  0  0  0  0  0
    8.1382   -4.2423   -0.1716 O   0  0  0  0  0  0  0  0  0  0  0  0
    6.4413   -2.6700   -1.0461 C   0  0  1  0  0  0  0  0  0  0  0  0
    6.7857   -3.1794   -2.3215 O   0  0  0  0  0  0  0  0  0  0  0  0
    5.0457   -3.2085   -0.5326 C   0  0  2  0  0  0  0  0  0  0  0  0
    3.8401   -2.6636   -1.4294 C   0  0  0  0  0  0  0  0  0  0  0  0
    4.1001   -2.7439   -2.9588 C   0  0  0  0  0  0  0  0  0  0  0  0
    2.5226   -3.4601   -1.2399 C   0  0  0  0  0  0  0  0  0  0  0  0
    3.6021   -1.1705   -1.1097 C   0  0  0  0  0  0  0  0  0  0  0  0
    3.4538   -0.8543    0.3887 C   0  0  0  0  0  0  0  0  0  0  0  0
    4.6850   -1.3349    1.1478 C   0  0  1  0  0  0  0  0  0  0  0  0
    4.7080   -0.8224    2.4664 O   0  0  0  0  0  0  0  0  0  0  0  0
    4.8526   -2.8891    1.0202 C   0  0  1  0  0  0  0  0  0  0  0  0
    2.7453   -7.4317    0.8533 H   0  0  0  0  0  0  0  0  0  0  0  0
    1.5503   -7.6555    2.2465 H   0  0  0  0  0  0  0  0  0  0  0  0
    1.6051   -6.1894    4.1028 H   0  0  0  0  0  0  0  0  0  0  0  0
    3.2375   -5.6953    4.5045 H   0  0  0  0  0  0  0  0  0  0  0  0
    1.1561   -4.0413    2.9886 H   0  0  0  0  0  0  0  0  0  0  0  0
    1.6607   -3.7498    4.6348 H   0  0  0  0  0  0  0  0  0  0  0  0
    2.6912   -2.2327    2.9810 H   0  0  0  0  0  0  0  0  0  0  0  0
    4.7491   -2.4471    3.9040 H   0  0  0  0  0  0  0  0  0  0  0  0
    2.8476   -3.6661    1.1710 H   0  0  0  0  0  0  0  0  0  0  0  0
    4.1508   -5.6044    0.7664 H   0  0  0  0  0  0  0  0  0  0  0  0
    5.4517   -5.1436    3.4816 H   0  0  0  0  0  0  0  0  0  0  0  0
    6.6234   -6.9045    2.8662 H   0  0  0  0  0  0  0  0  0  0  0  0
    6.1530   -3.0118    2.7717 H   0  0  0  0  0  0  0  0  0  0  0  0
    8.4532   -2.2757   -0.3186 H   0  0  0  0  0  0  0  0  0  0  0  0
    7.4370   -4.8435    0.0564 H   0  0  0  0  0  0  0  0  0  0  0  0
    6.3824   -1.5907   -1.1481 H   0  0  0  0  0  0  0  0  0  0  0  0
    7.7151   -3.0702   -2.4736 H   0  0  0  0  0  0  0  0  0  0  0  0
    5.0939   -4.2884   -0.6615 H   0  0  0  0  0  0  0  0  0  0  0  0
    3.2147   -2.4759   -3.5331 H   0  0  0  0  0  0  0  0  0  0  0  0
    4.3989   -3.7510   -3.2565 H   0  0  0  0  0  0  0  0  0  0  0  0
    4.8642   -2.0365   -3.2770 H   0  0  0  0  0  0  0  0  0  0  0  0
    1.9252   -3.5077   -2.1502 H   0  0  0  0  0  0  0  0  0  0  0  0
    1.8516   -3.0222   -0.5036 H   0  0  0  0  0  0  0  0  0  0  0  0
    2.7223   -4.4939   -0.9500 H   0  0  0  0  0  0  0  0  0  0  0  0
    4.4107   -0.5627   -1.5130 H   0  0  0  0  0  0  0  0  0  0  0  0
    2.7179   -0.8455   -1.6522 H   0  0  0  0  0  0  0  0  0  0  0  0
    3.3395    0.2232    0.5068 H   0  0  0  0  0  0  0  0  0  0  0  0
    2.5471   -1.2948    0.7959 H   0  0  0  0  0  0  0  0  0  0  0  0
    5.5337   -0.8317    0.6911 H   0  0  0  0  0  0  0  0  0  0  0  0
    3.8646   -0.9696    2.8679 H   0  0  0  0  0  0  0  0  0  0  0  0
  1  2  2  0
  1 27  1  0
  1 28  1  0
  2  8  1  0
  2  3  1  0
  3  4  1  0
  3 29  1  0
  3 30  1  0
  4  5  1  0
  4 31  1  0
  4 32  1  0
  5  6  1  0
  5  7  1  0
  5 33  1  6
  6 34  1  0
  7 26  1  0
  7  8  1  0
  7 35  1  6
  8  9  1  0
  8 36  1  6
  9 10  1  0
  9 11  1  0
  9 37  1  1
 10 38  1  0
 11 12  1  0
 12 26  1  0
 12 13  1  0
 12 39  1  1
 13 14  1  0
 14 15  1  0
 14 16  1  0
 14 40  1  6
 15 41  1  0
 16 17  1  0
 16 18  1  0
 16 42  1  6
 17 43  1  0
 18 26  1  0
 18 19  1  0
 18 44  1  1
 19 20  1  0
 19 21  1  0
 19 22  1  0
 20 45  1  0
 20 46  1  0
 20 47  1  0
 21 48  1  0
 21 49  1  0
 21 50  1  0
 22 23  1  0
 22 51  1  0
 22 52  1  0
 23 24  1  0
 23 53  1  0
 23 54  1  0
 24 25  1  0
 26 24  1  6
 24 55  1  6
 25 56  1  0
M  END
>  <i_m_ct_stereo_status>  (400) 
1

>  <s_m_source_file>  (400) 
/var/tmp/pbs.5076255.sched01/tmpl4jv_xt6/1264eazgjw7.sdf

>  <i_m_source_file_index>  (400) 
29

>  <i_lp_mmshare_version>  (400) 
48012

>  <i_f3d_flags>  (400) 
0

>  <s_epik_input>  (400) 
W09IXVtDQEBIXTFbQ0gyXVtDSDJdQyg9W0NIMl0pW0NAQEhdKFtDQEBIXTFbQ0BAXTIzNClbQ0BASF0oW09IXSlPW0NASF0yT1tDQEBIXShbT0hdKVtDQEBIXShbT0hdKVtDQEBIXTNDKFtDSDNdKShbQ0gzXSlbQ0gyXVtDSDJdW0NASF00W09IXQ==

>  <s_epik_cmdline>  (400) 
J2VwaWtfcHl0aG9uJywgJy1waHQnLCAnMi4wJywgJy1waCcsICc3LjAnLCAnLXRuJywgJzgnLCAnLW1hJywgJzIwMCcsICctaW1hZScsICc8aW5maWxlLm1hZT4nLCAnLW9tYWUnLCAnPG91dGZpbGUubWFlPic=

>  <r_lp_tautomer_probability>  (400) 
1

>  <r_epik_Ionization_Penalty>  (400) 
8.08734e-07

>  <r_epik_Ionization_Penalty_Charging>  (400) 
0

>  <r_epik_Ionization_Penalty_Neutral>  (400) 
8.08734e-07

>  <r_epik_State_Penalty>  (400) 
-0

>  <r_epik_Charging_Adjusted_Penalty>  (400) 
0

>  <i_epik_Tot_Q>  (400) 
0

>  <i_epik_Tot_abs_Q>  (400) 
0

>  <s_epik_Chemistry_Notes>  (400) 
This compound contains an acetal/aminal-like group ( X-CH(R)-Y where X, Y are N, S, or O) that may be acid/base labile, releasing an aldehyde.

>  <s_lp_Force_Field>  (400) 
OPLS3e

>  <r_lp_Energy>  (400) 
56.2561

>  <b_lp_Chiralities_Consistent>  (400) 
1

>  <s_lp_Variant>  (400) 
112:0-1

>  <s_i_glide_gridfile>  (400) 
pfpi4k_grid

>  <i_i_glide_lignum>  (400) 
29

>  <i_i_glide_rotatable_bonds>  (400) 
5

>  <r_i_docking_score>  (400) 
-3.34515

>  <r_i_glide_ligand_efficiency>  (400) 
-0.12866

>  <r_i_glide_ligand_efficiency_sa>  (400) 
-0.381154

>  <r_i_glide_ligand_efficiency_ln>  (400) 
-0.785598

>  <r_i_glide_gscore>  (400) 
-3.34515

>  <r_i_glide_lipo>  (400) 
-0.232884

>  <r_i_glide_hbond>  (400) 
0

>  <r_i_glide_metal>  (400) 
-0

>  <r_i_glide_rewards>  (400) 
-1.6464

>  <r_i_glide_evdw>  (400) 
-21.254

>  <r_i_glide_ecoul>  (400) 
-2.68775

>  <r_i_glide_erotb>  (400) 
0

>  <r_i_glide_esite>  (400) 
0

>  <r_i_glide_emodel>  (400) 
-34.6953

>  <r_i_glide_energy>  (400) 
-23.9418

>  <r_i_glide_einternal>  (400) 
1.21011

>  <r_i_glide_intrahb_reward>  (400) 
-0.5

>  <i_i_glide_confnum>  (400) 
1

>  <i_i_glide_posenum>  (400) 
10

>  <r_i_glide_eff_state_penalty>  (400) 
0

>  <ligand_id>  (400) 
112

>  <original_smiles>  (400) 
C=C1CCC(O)C2C1C(O)OC1OC(O)C(O)C3C(C)(C)CCC(O)C123

>  <smiles>  (400) 
[H]OC1([H])OC2([H])OC([H])(O[H])C3([H])C(=C([H])[H])C([H])([H])C([H])([H])C([H])(O[H])C3([H])C23C([H])(O[H])C([H])([H])C([H])([H])C(C([H])([H])[H])(C([H])([H])[H])C3([H])C1([H])O[H]

$$$$
114:0:0
     RDKit          3D

 35 38  0  0  1  0  0  0  0  0999 V2000
    7.3244   -2.3027    0.8764 C   0  0  0  0  0  0  0  0  0  0  0  0
    6.4715   -2.7556   -0.2699 C   0  0  0  0  0  0  0  0  0  0  0  0
    7.5012   -2.8561   -1.4355 C   0  0  0  0  0  0  0  0  0  0  0  0
    5.9837   -4.1506    0.1307 C   0  0  0  0  0  0  0  0  0  0  0  0
    4.7672   -4.5381   -0.2647 C   0  0  0  0  0  0  0  0  0  0  0  0
    4.8747   -4.5856   -1.7171 C   0  0  0  0  0  0  0  0  0  0  0  0
    4.6161   -3.4438   -2.3766 C   0  0  0  0  0  0  0  0  0  0  0  0
    4.4981   -3.3266   -4.0916 Cl  0  0  0  0  0  0  0  0  0  0  0  0
    4.1536   -2.2458   -1.5826 C   0  0  1  0  0  0  0  0  0  0  0  0
    3.5215   -0.9028   -2.5849 Cl  0  0  0  0  0  0  0  0  0  0  0  0
    3.1010   -2.8712   -0.6872 C   0  0  0  0  0  0  0  0  0  0  0  0
    3.5877   -3.7791    0.1797 C   0  0  0  0  0  0  0  0  0  0  0  0
    3.5467   -3.2973    1.5686 C   0  0  0  0  0  0  0  0  0  0  0  0
    3.3033   -4.0238    2.5360 O   0  0  0  0  0  0  0  0  0  0  0  0
    3.8604   -1.7820    1.7935 C   0  0  2  0  0  0  0  0  0  0  0  0
    4.4894   -1.5588    3.1493 C   0  0  0  0  0  0  0  0  0  0  0  0
    3.7150   -0.8165    3.9334 C   0  0  0  0  0  0  0  0  0  0  0  0
    2.5155   -0.4920    3.1772 C   0  0  0  0  0  0  0  0  0  0  0  0
    1.5630    0.1685    3.5792 O   0  0  0  0  0  0  0  0  0  0  0  0
    2.6329   -1.0722    1.9524 O   0  0  0  0  0  0  0  0  0  0  0  0
    4.7198   -1.0408    0.6996 C   0  0  0  0  0  0  0  0  0  0  0  0
    4.9971    0.1369    0.8898 O   0  0  0  0  0  0  0  0  0  0  0  0
    5.2983   -1.7337   -0.6030 C   0  0  1  0  0  0  0  0  0  0  0  0
    7.6259   -1.2610    0.8079 H   0  0  0  0  0  0  0  0  0  0  0  0
    8.2022   -2.9387    0.9469 H   0  0  0  0  0  0  0  0  0  0  0  0
    6.7846   -2.4560    1.8017 H   0  0  0  0  0  0  0  0  0  0  0  0
    7.9938   -1.9052   -1.5776 H   0  0  0  0  0  0  0  0  0  0  0  0
    7.0688   -3.1452   -2.3905 H   0  0  0  0  0  0  0  0  0  0  0  0
    8.2985   -3.5671   -1.2002 H   0  0  0  0  0  0  0  0  0  0  0  0
    6.7333   -4.8368   -0.2223 H   0  0  0  0  0  0  0  0  0  0  0  0
    5.0255   -5.4943   -2.2420 H   0  0  0  0  0  0  0  0  0  0  0  0
    2.3367   -2.1835   -0.3773 H   0  0  0  0  0  0  0  0  0  0  0  0
    5.4419   -1.9554    3.4439 H   0  0  0  0  0  0  0  0  0  0  0  0
    3.9134   -0.5193    4.9550 H   0  0  0  0  0  0  0  0  0  0  0  0
    5.7865   -0.9299   -1.1498 H   0  0  0  0  0  0  0  0  0  0  0  0
  1  2  1  0
  1 24  1  0
  1 25  1  0
  1 26  1  0
  2 23  1  0
  2  3  1  0
  2  4  1  0
  3 27  1  0
  3 28  1  0
  3 29  1  0
  4  5  2  0
  4 30  1  0
  5 12  1  0
  5  6  1  0
  6  7  2  0
  6 31  1  0
  7  8  1  0
  7  9  1  0
  9 23  1  0
  9 10  1  6
  9 11  1  0
 11 12  2  0
 11 32  1  0
 12 13  1  0
 13 14  2  0
 13 15  1  0
 15 20  1  1
 15 16  1  0
 15 21  1  0
 16 17  2  0
 16 33  1  0
 17 18  1  0
 17 34  1  0
 18 19  2  0
 18 20  1  0
 21 22  2  0
 21 23  1  0
 23 35  1  6
M  END
>  <i_m_ct_stereo_status>  (401) 
1

>  <s_m_source_file>  (401) 
/var/tmp/pbs.5076255.sched01/tmpl4jv_xt6/1264eazgjw7.sdf

>  <i_m_source_file_index>  (401) 
31

>  <i_lp_mmshare_version>  (401) 
48012

>  <i_f3d_flags>  (401) 
0

>  <s_epik_input>  (401) 
W0NIXTE9QyhDbClbQ0BAXShDbCkoW0NIXT0yKVtDQEBIXShDMz1PKUMoW0NIM10pKFtDSDNdKVtDSF09QzFDMkMoPU8pW0NAQF0zNFtDSF09W0NIXUMoPU8pTzQ=

>  <s_epik_cmdline>  (401) 
J2VwaWtfcHl0aG9uJywgJy1waHQnLCAnMi4wJywgJy1waCcsICc3LjAnLCAnLXRuJywgJzgnLCAnLW1hJywgJzIwMCcsICctaW1hZScsICc8aW5maWxlLm1hZT4nLCAnLW9tYWUnLCAnPG91dGZpbGUubWFlPic=

>  <r_lp_tautomer_probability>  (401) 
1

>  <r_epik_Ionization_Penalty>  (401) 
0.0049663

>  <r_epik_Ionization_Penalty_Charging>  (401) 
0

>  <r_epik_Ionization_Penalty_Neutral>  (401) 
0.0049663

>  <r_epik_State_Penalty>  (401) 
-0

>  <r_epik_Charging_Adjusted_Penalty>  (401) 
0

>  <i_epik_Tot_Q>  (401) 
0

>  <i_epik_Tot_abs_Q>  (401) 
0

>  <s_epik_Chemistry_Notes>  (401) 
This compound has an ester and may undergo hydrolysis at high or low pH.

>  <s_lp_Force_Field>  (401) 
OPLS3e

>  <r_lp_Energy>  (401) 
162.216

>  <b_lp_Chiralities_Consistent>  (401) 
1

>  <s_lp_Variant>  (401) 
114:0-1

>  <s_i_glide_gridfile>  (401) 
pfpi4k_grid

>  <i_i_glide_lignum>  (401) 
31

>  <i_i_glide_rotatable_bonds>  (401) 
0

>  <r_i_docking_score>  (401) 
-2.53463

>  <r_i_glide_ligand_efficiency>  (401) 
-0.110201

>  <r_i_glide_ligand_efficiency_sa>  (401) 
-0.313398

>  <r_i_glide_ligand_efficiency_ln>  (401) 
-0.612897

>  <r_i_glide_gscore>  (401) 
-2.53463

>  <r_i_glide_lipo>  (401) 
-0.270937

>  <r_i_glide_hbond>  (401) 
-0.121546

>  <r_i_glide_metal>  (401) 
-0

>  <r_i_glide_rewards>  (401) 
-1.10604

>  <r_i_glide_evdw>  (401) 
-17.6365

>  <r_i_glide_ecoul>  (401) 
-1.00131

>  <r_i_glide_erotb>  (401) 
0

>  <r_i_glide_esite>  (401) 
-0.0040892

>  <r_i_glide_emodel>  (401) 
-17.7401

>  <r_i_glide_energy>  (401) 
-18.6378

>  <r_i_glide_einternal>  (401) 
0

>  <r_i_glide_intrahb_reward>  (401) 
-0

>  <i_i_glide_confnum>  (401) 
1

>  <i_i_glide_posenum>  (401) 
2

>  <r_i_glide_eff_state_penalty>  (401) 
0

>  <ligand_id>  (401) 
114

>  <original_smiles>  (401) 
CC1(C)C=C2C=C(Cl)C3(Cl)C=C2C(=O)C2(C=CC(=O)O2)C(=O)C13

>  <smiles>  (401) 
[H]C1=C([H])C2(OC1=O)C(=O)C1=C([H])C3(Cl)C(Cl)=C([H])C1=C([H])C(C([H])([H])[H])(C([H])([H])[H])C3([H])C2=O

$$$$
115:0:0
     RDKit          3D

 20 22  0  0  1  0  0  0  0  0999 V2000
    3.8045   -0.4116   -3.2885 C   0  0  0  0  0  0  0  0  0  0  0  0
    3.7559   -1.5016   -4.1737 C   0  0  0  0  0  0  0  0  0  0  0  0
    4.1236   -2.7720   -3.8659 N   0  0  0  0  0  0  0  0  0  0  0  0
    4.5267   -2.9904   -2.6093 C   0  0  0  0  0  0  0  0  0  0  0  0
    4.9604   -4.1837   -1.9797 C   0  0  0  0  0  0  0  0  0  0  0  0
    5.2450   -3.8637   -0.6914 N   0  0  0  0  0  0  0  0  0  0  0  0
    5.6734   -4.7179    0.2359 N   0  0  0  0  0  0  0  0  0  0  0  0
    5.9081   -4.1911    1.4488 C   0  0  0  0  0  0  0  0  0  0  0  0
    5.7145   -2.8255    1.7288 C   0  0  0  0  0  0  0  0  0  0  0  0
    5.2497   -1.9222    0.7434 C   0  0  0  0  0  0  0  0  0  0  0  0
    5.0295   -2.5519   -0.4836 N   0  0  0  0  0  0  0  0  0  0  0  0
    4.5822   -1.9589   -1.6349 C   0  0  0  0  0  0  0  0  0  0  0  0
    4.2193   -0.6569   -1.9751 C   0  0  0  0  0  0  0  0  0  0  0  0
    3.5031    0.5838   -3.5975 H   0  0  0  0  0  0  0  0  0  0  0  0
    3.4233   -1.3308   -5.1787 H   0  0  0  0  0  0  0  0  0  0  0  0
    5.0065   -5.1564   -2.4519 H   0  0  0  0  0  0  0  0  0  0  0  0
    6.2624   -4.8714    2.2097 H   0  0  0  0  0  0  0  0  0  0  0  0
    5.9209   -2.4570    2.7184 H   0  0  0  0  0  0  0  0  0  0  0  0
    5.0728   -0.8575    0.8748 H   0  0  0  0  0  0  0  0  0  0  0  0
    4.2731    0.1324   -1.2470 H   0  0  0  0  0  0  0  0  0  0  0  0
  1 13  2  0
  1  2  1  0
  1 14  1  0
  2  3  2  0
  2 15  1  0
  3  4  1  0
  4 12  2  0
  4  5  1  0
  5  6  2  0
  5 16  1  0
  6 11  1  0
  6  7  1  0
  7  8  2  0
  8  9  1  0
  8 17  1  0
  9 10  2  0
  9 18  1  0
 10 11  1  0
 10 19  1  0
 11 12  1  0
 12 13  1  0
 13 20  1  0
M  CHG  1   6   1
M  END
>  <i_m_ct_stereo_status>  (402) 
1

>  <s_m_source_file>  (402) 
/var/tmp/pbs.5076255.sched01/tmpl4jv_xt6/1264eazgjw7.sdf

>  <i_m_source_file_index>  (402) 
32

>  <i_lp_mmshare_version>  (402) 
48012

>  <i_f3d_flags>  (402) 
0

>  <s_epik_input>  (402) 
bjFbY0hdW2NIXVtjSF1jKGMxMiluM1tuK10oW2NIXTIpbltjSF1bY0hdW2NIXTM=

>  <s_epik_cmdline>  (402) 
J2VwaWtfcHl0aG9uJywgJy1waHQnLCAnMi4wJywgJy1waCcsICc3LjAnLCAnLXRuJywgJzgnLCAnLW1hJywgJzIwMCcsICctaW1hZScsICc8aW5maWxlLm1hZT4nLCAnLW9tYWUnLCAnPG91dGZpbGUubWFlPic=

>  <r_lp_tautomer_probability>  (402) 
1

>  <r_epik_Ionization_Penalty>  (402) 
0.000189717

>  <r_epik_Ionization_Penalty_Charging>  (402) 
0

>  <r_epik_Ionization_Penalty_Neutral>  (402) 
0.000189717

>  <r_epik_State_Penalty>  (402) 
-0

>  <r_epik_Charging_Adjusted_Penalty>  (402) 
0

>  <i_epik_Tot_Q>  (402) 
1

>  <i_epik_Tot_abs_Q>  (402) 
1

>  <s_lp_Force_Field>  (402) 
OPLS3e

>  <r_lp_Energy>  (402) 
27.884

>  <b_lp_Chiralities_Consistent>  (402) 
1

>  <s_lp_Variant>  (402) 
115:0-1

>  <s_i_glide_gridfile>  (402) 
pfpi4k_grid

>  <i_i_glide_lignum>  (402) 
32

>  <i_i_glide_rotatable_bonds>  (402) 
0

>  <r_i_docking_score>  (402) 
-4.41524

>  <r_i_glide_ligand_efficiency>  (402) 
-0.339634

>  <r_i_glide_ligand_efficiency_sa>  (402) 
-0.798593

>  <r_i_glide_ligand_efficiency_ln>  (402) 
-1.23851

>  <r_i_glide_gscore>  (402) 
-4.41524

>  <r_i_glide_lipo>  (402) 
-0.444248

>  <r_i_glide_hbond>  (402) 
-0.0987594

>  <r_i_glide_metal>  (402) 
-0

>  <r_i_glide_rewards>  (402) 
-2.31865

>  <r_i_glide_evdw>  (402) 
-15.8707

>  <r_i_glide_ecoul>  (402) 
-5.03347

>  <r_i_glide_erotb>  (402) 
0

>  <r_i_glide_esite>  (402) 
-0.00502184

>  <r_i_glide_emodel>  (402) 
-28.025

>  <r_i_glide_energy>  (402) 
-20.9042

>  <r_i_glide_einternal>  (402) 
0

>  <r_i_glide_intrahb_reward>  (402) 
-0

>  <i_i_glide_confnum>  (402) 
1

>  <i_i_glide_posenum>  (402) 
10

>  <r_i_glide_eff_state_penalty>  (402) 
0

>  <ligand_id>  (402) 
115

>  <original_smiles>  (402) 
c1cnc2c[n+]3ncccn3c2c1

>  <smiles>  (402) 
[H]c1nc2c([H])[n+]3nc([H])c([H])c([H])n3c2c([H])c1[H]

$$$$
115:0:1
     RDKit          3D

 20 22  0  0  1  0  0  0  0  0999 V2000
    4.2293   -2.8967    1.7299 C   0  0  0  0  0  0  0  0  0  0  0  0
    3.3187   -3.9642    1.5754 C   0  0  0  0  0  0  0  0  0  0  0  0
    2.6137   -4.2371    0.4480 N   0  0  0  0  0  0  0  0  0  0  0  0
    2.8149   -3.4254   -0.5980 C   0  0  0  0  0  0  0  0  0  0  0  0
    2.2400   -3.4533   -1.9016 C   0  0  0  0  0  0  0  0  0  0  0  0
    2.8243   -2.4380   -2.5864 N   0  0  0  0  0  0  0  0  0  0  0  0
    2.5892   -2.1392   -3.8578 N   0  0  0  0  0  0  0  0  0  0  0  0
    3.1848   -1.0233   -4.3130 C   0  0  0  0  0  0  0  0  0  0  0  0
    4.0696   -0.2735   -3.5327 C   0  0  0  0  0  0  0  0  0  0  0  0
    4.3978   -0.6613   -2.2111 C   0  0  0  0  0  0  0  0  0  0  0  0
    3.6752   -1.7678   -1.7878 N   0  0  0  0  0  0  0  0  0  0  0  0
    3.7242   -2.3303   -0.5401 C   0  0  0  0  0  0  0  0  0  0  0  0
    4.4367   -2.0482    0.6335 C   0  0  0  0  0  0  0  0  0  0  0  0
    4.7542   -2.7276    2.6607 H   0  0  0  0  0  0  0  0  0  0  0  0
    3.1454   -4.6183    2.4084 H   0  0  0  0  0  0  0  0  0  0  0  0
    1.5168   -4.1760   -2.2689 H   0  0  0  0  0  0  0  0  0  0  0  0
    2.9645   -0.7124   -5.3226 H   0  0  0  0  0  0  0  0  0  0  0  0
    4.5218    0.6006   -3.9611 H   0  0  0  0  0  0  0  0  0  0  0  0
    5.0695   -0.1501   -1.5324 H   0  0  0  0  0  0  0  0  0  0  0  0
    5.1204   -1.2164    0.6803 H   0  0  0  0  0  0  0  0  0  0  0  0
  1 13  2  0
  1  2  1  0
  1 14  1  0
  2  3  2  0
  2 15  1  0
  3  4  1  0
  4 12  2  0
  4  5  1  0
  5  6  2  0
  5 16  1  0
  6 11  1  0
  6  7  1  0
  7  8  2  0
  8  9  1  0
  8 17  1  0
  9 10  2  0
  9 18  1  0
 10 11  1  0
 10 19  1  0
 11 12  1  0
 12 13  1  0
 13 20  1  0
M  CHG  1   6   1
M  END
>  <i_m_ct_stereo_status>  (403) 
1

>  <s_m_source_file>  (403) 
/var/tmp/pbs.5076255.sched01/tmpl4jv_xt6/1264eazgjw7.sdf

>  <i_m_source_file_index>  (403) 
32

>  <i_lp_mmshare_version>  (403) 
48012

>  <i_f3d_flags>  (403) 
0

>  <s_epik_input>  (403) 
bjFbY0hdW2NIXVtjSF1jKGMxMiluM1tuK10oW2NIXTIpbltjSF1bY0hdW2NIXTM=

>  <s_epik_cmdline>  (403) 
J2VwaWtfcHl0aG9uJywgJy1waHQnLCAnMi4wJywgJy1waCcsICc3LjAnLCAnLXRuJywgJzgnLCAnLW1hJywgJzIwMCcsICctaW1hZScsICc8aW5maWxlLm1hZT4nLCAnLW9tYWUnLCAnPG91dGZpbGUubWFlPic=

>  <r_lp_tautomer_probability>  (403) 
1

>  <r_epik_Ionization_Penalty>  (403) 
0.000189717

>  <r_epik_Ionization_Penalty_Charging>  (403) 
0

>  <r_epik_Ionization_Penalty_Neutral>  (403) 
0.000189717

>  <r_epik_State_Penalty>  (403) 
-0

>  <r_epik_Charging_Adjusted_Penalty>  (403) 
0

>  <i_epik_Tot_Q>  (403) 
1

>  <i_epik_Tot_abs_Q>  (403) 
1

>  <s_lp_Force_Field>  (403) 
OPLS3e

>  <r_lp_Energy>  (403) 
27.884

>  <b_lp_Chiralities_Consistent>  (403) 
1

>  <s_lp_Variant>  (403) 
115:0-1

>  <s_i_glide_gridfile>  (403) 
pfpi4k_grid

>  <i_i_glide_lignum>  (403) 
32

>  <i_i_glide_rotatable_bonds>  (403) 
0

>  <r_i_docking_score>  (403) 
-4.23887

>  <r_i_glide_ligand_efficiency>  (403) 
-0.326067

>  <r_i_glide_ligand_efficiency_sa>  (403) 
-0.766692

>  <r_i_glide_ligand_efficiency_ln>  (403) 
-1.18904

>  <r_i_glide_gscore>  (403) 
-4.23887

>  <r_i_glide_lipo>  (403) 
-0.466553

>  <r_i_glide_hbond>  (403) 
0

>  <r_i_glide_metal>  (403) 
-0

>  <r_i_glide_rewards>  (403) 
-2.24196

>  <r_i_glide_evdw>  (403) 
-14.9354

>  <r_i_glide_ecoul>  (403) 
-4.49805

>  <r_i_glide_erotb>  (403) 
0

>  <r_i_glide_esite>  (403) 
-0.108876

>  <r_i_glide_emodel>  (403) 
-26.2237

>  <r_i_glide_energy>  (403) 
-19.4334

>  <r_i_glide_einternal>  (403) 
0

>  <r_i_glide_intrahb_reward>  (403) 
-0

>  <i_i_glide_confnum>  (403) 
2

>  <i_i_glide_posenum>  (403) 
35

>  <r_i_glide_eff_state_penalty>  (403) 
0

>  <ligand_id>  (403) 
115

>  <original_smiles>  (403) 
c1cnc2c[n+]3ncccn3c2c1

>  <smiles>  (403) 
[H]c1nc2c([H])[n+]3nc([H])c([H])c([H])n3c2c([H])c1[H]

$$$$
115:0:2
     RDKit          3D

 20 22  0  0  1  0  0  0  0  0999 V2000
    4.1062   -0.7030   -3.2598 C   0  0  0  0  0  0  0  0  0  0  0  0
    3.2326   -1.6086   -3.8933 C   0  0  0  0  0  0  0  0  0  0  0  0
    2.6523   -2.6760   -3.2894 N   0  0  0  0  0  0  0  0  0  0  0  0
    2.9200   -2.8484   -1.9917 C   0  0  0  0  0  0  0  0  0  0  0  0
    2.4465   -3.8433   -1.0932 C   0  0  0  0  0  0  0  0  0  0  0  0
    3.0280   -3.5749    0.1074 N   0  0  0  0  0  0  0  0  0  0  0  0
    2.8612   -4.2871    1.2180 N   0  0  0  0  0  0  0  0  0  0  0  0
    3.5308   -3.8585    2.3033 C   0  0  0  0  0  0  0  0  0  0  0  0
    4.3597   -2.7196    2.2711 C   0  0  0  0  0  0  0  0  0  0  0  0
    4.5383   -1.9676    1.0870 C   0  0  0  0  0  0  0  0  0  0  0  0
    3.8138   -2.4835    0.0111 N   0  0  0  0  0  0  0  0  0  0  0  0
    3.7881   -1.9898   -1.2666 C   0  0  0  0  0  0  0  0  0  0  0  0
    4.3962   -0.9067   -1.9054 C   0  0  0  0  0  0  0  0  0  0  0  0
    4.5269    0.1365   -3.7940 H   0  0  0  0  0  0  0  0  0  0  0  0
    3.0080   -1.4580   -4.9337 H   0  0  0  0  0  0  0  0  0  0  0  0
    1.7728   -4.6435   -1.3551 H   0  0  0  0  0  0  0  0  0  0  0  0
    3.4051   -4.4214    3.2157 H   0  0  0  0  0  0  0  0  0  0  0  0
    4.8712   -2.4106    3.1677 H   0  0  0  0  0  0  0  0  0  0  0  0
    5.1556   -1.0817    0.9717 H   0  0  0  0  0  0  0  0  0  0  0  0
    5.0469   -0.2482   -1.3561 H   0  0  0  0  0  0  0  0  0  0  0  0
  1 13  2  0
  1  2  1  0
  1 14  1  0
  2  3  2  0
  2 15  1  0
  3  4  1  0
  4 12  2  0
  4  5  1  0
  5  6  2  0
  5 16  1  0
  6 11  1  0
  6  7  1  0
  7  8  2  0
  8  9  1  0
  8 17  1  0
  9 10  2  0
  9 18  1  0
 10 11  1  0
 10 19  1  0
 11 12  1  0
 12 13  1  0
 13 20  1  0
M  CHG  1   6   1
M  END
>  <i_m_ct_stereo_status>  (404) 
1

>  <s_m_source_file>  (404) 
/var/tmp/pbs.5076255.sched01/tmpl4jv_xt6/1264eazgjw7.sdf

>  <i_m_source_file_index>  (404) 
32

>  <i_lp_mmshare_version>  (404) 
48012

>  <i_f3d_flags>  (404) 
0

>  <s_epik_input>  (404) 
bjFbY0hdW2NIXVtjSF1jKGMxMiluM1tuK10oW2NIXTIpbltjSF1bY0hdW2NIXTM=

>  <s_epik_cmdline>  (404) 
J2VwaWtfcHl0aG9uJywgJy1waHQnLCAnMi4wJywgJy1waCcsICc3LjAnLCAnLXRuJywgJzgnLCAnLW1hJywgJzIwMCcsICctaW1hZScsICc8aW5maWxlLm1hZT4nLCAnLW9tYWUnLCAnPG91dGZpbGUubWFlPic=

>  <r_lp_tautomer_probability>  (404) 
1

>  <r_epik_Ionization_Penalty>  (404) 
0.000189717

>  <r_epik_Ionization_Penalty_Charging>  (404) 
0

>  <r_epik_Ionization_Penalty_Neutral>  (404) 
0.000189717

>  <r_epik_State_Penalty>  (404) 
-0

>  <r_epik_Charging_Adjusted_Penalty>  (404) 
0

>  <i_epik_Tot_Q>  (404) 
1

>  <i_epik_Tot_abs_Q>  (404) 
1

>  <s_lp_Force_Field>  (404) 
OPLS3e

>  <r_lp_Energy>  (404) 
27.884

>  <b_lp_Chiralities_Consistent>  (404) 
1

>  <s_lp_Variant>  (404) 
115:0-1

>  <s_i_glide_gridfile>  (404) 
pfpi4k_grid

>  <i_i_glide_lignum>  (404) 
32

>  <i_i_glide_rotatable_bonds>  (404) 
0

>  <r_i_docking_score>  (404) 
-3.83438

>  <r_i_glide_ligand_efficiency>  (404) 
-0.294952

>  <r_i_glide_ligand_efficiency_sa>  (404) 
-0.693532

>  <r_i_glide_ligand_efficiency_ln>  (404) 
-1.07558

>  <r_i_glide_gscore>  (404) 
-3.83438

>  <r_i_glide_lipo>  (404) 
-0.341383

>  <r_i_glide_hbond>  (404) 
0

>  <r_i_glide_metal>  (404) 
-0

>  <r_i_glide_rewards>  (404) 
-2.24196

>  <r_i_glide_evdw>  (404) 
-16.2409

>  <r_i_glide_ecoul>  (404) 
-2.69903

>  <r_i_glide_erotb>  (404) 
0

>  <r_i_glide_esite>  (404) 
-0.0341349

>  <r_i_glide_emodel>  (404) 
-25.1346

>  <r_i_glide_energy>  (404) 
-18.9399

>  <r_i_glide_einternal>  (404) 
0

>  <r_i_glide_intrahb_reward>  (404) 
-0

>  <i_i_glide_confnum>  (404) 
1

>  <i_i_glide_posenum>  (404) 
19

>  <r_i_glide_eff_state_penalty>  (404) 
0

>  <ligand_id>  (404) 
115

>  <original_smiles>  (404) 
c1cnc2c[n+]3ncccn3c2c1

>  <smiles>  (404) 
[H]c1nc2c([H])[n+]3nc([H])c([H])c([H])n3c2c([H])c1[H]

$$$$
116:0:0
     RDKit          3D

 56 61  0  0  1  0  0  0  0  0999 V2000
   -1.6621   -9.2842    2.2581 C   0  0  0  0  0  0  0  0  0  0  0  0
   -0.6167   -8.4572    2.9574 C   0  0  0  0  0  0  0  0  0  0  0  0
   -0.8428   -7.9119    4.2368 C   0  0  0  0  0  0  0  0  0  0  0  0
    0.1968   -7.1630    4.8308 C   0  0  0  0  0  0  0  0  0  0  0  0
    1.3745   -6.9301    4.2278 N   0  0  0  0  0  0  0  0  0  0  0  0
    1.6060   -7.4650    3.0172 C   0  0  0  0  0  0  0  0  0  0  0  0
    2.8457   -7.2833    2.3500 N   0  0  0  0  0  0  0  0  0  0  0  0
    4.0119   -7.7744    2.8027 C   0  0  0  0  0  0  0  0  0  0  0  0
    4.1874   -8.4880    3.7913 O   0  0  0  0  0  0  0  0  0  0  0  0
    5.1614   -7.3430    1.9075 C   0  0  1  0  0  0  0  0  0  0  0  0
    4.4655   -6.4564    0.8454 C   0  0  1  0  0  0  0  0  0  0  0  0
    3.0017   -6.5031    1.2792 C   0  0  0  0  0  0  0  0  0  0  0  0
    2.1131   -5.8736    0.6817 O   0  0  0  0  0  0  0  0  0  0  0  0
    5.1843   -5.0840    1.0249 C   0  0  2  0  0  0  0  0  0  0  0  0
    4.4992   -3.8450    0.3929 C   0  0  0  0  0  0  0  0  0  0  0  0
    4.5083   -3.8574   -1.0777 N   0  0  0  0  0  0  0  0  0  0  0  0
    3.7604   -2.7875   -1.7776 C   0  0  2  0  0  0  0  0  0  0  0  0
    2.4011   -3.2643   -2.2889 C   0  0  0  0  0  0  0  0  0  0  0  0
    2.4367   -3.1187   -3.8320 C   0  0  0  0  0  0  0  0  0  0  0  0
    3.4823   -2.0239   -4.1008 C   0  0  0  0  0  0  0  0  0  0  0  0
    4.5010   -2.2105   -2.9951 C   0  0  1  0  0  0  0  0  0  0  0  0
    4.9614   -1.0155   -2.1658 C   0  0  0  0  0  0  0  0  0  0  0  0
    3.8902   -1.3755   -1.1437 C   0  0  0  0  0  0  0  0  0  0  0  0
    6.6292   -5.2857    0.6023 C   0  0  0  0  0  0  0  0  0  0  0  0
    7.2169   -6.0581    1.5192 C   0  0  0  0  0  0  0  0  0  0  0  0
    6.1771   -6.3761    2.5686 C   0  0  1  0  0  0  0  0  0  0  0  0
    5.4039   -5.0472    2.5531 C   0  0  0  0  0  0  0  0  0  0  0  0
    0.6256   -8.2245    2.3340 C   0  0  0  0  0  0  0  0  0  0  0  0
   -2.5676   -9.3649    2.8582 H   0  0  0  0  0  0  0  0  0  0  0  0
   -1.2808  -10.2858    2.0719 H   0  0  0  0  0  0  0  0  0  0  0  0
   -1.9066   -8.8390    1.2956 H   0  0  0  0  0  0  0  0  0  0  0  0
   -1.7675   -8.0935    4.7587 H   0  0  0  0  0  0  0  0  0  0  0  0
    0.0742   -6.7408    5.8168 H   0  0  0  0  0  0  0  0  0  0  0  0
    5.6401   -8.2210    1.4783 H   0  0  0  0  0  0  0  0  0  0  0  0
    4.5698   -6.8517   -0.1670 H   0  0  0  0  0  0  0  0  0  0  0  0
    3.4760   -3.7170    0.7623 H   0  0  0  0  0  0  0  0  0  0  0  0
    5.0647   -2.9956    0.7803 H   0  0  0  0  0  0  0  0  0  0  0  0
    5.4730   -3.8322   -1.3924 H   0  0  0  0  0  0  0  0  0  0  0  0
    2.1288   -4.2540   -1.9590 H   0  0  0  0  0  0  0  0  0  0  0  0
    1.5939   -2.6539   -1.9123 H   0  0  0  0  0  0  0  0  0  0  0  0
    2.7910   -4.0573   -4.2732 H   0  0  0  0  0  0  0  0  0  0  0  0
    1.4599   -2.8981   -4.2696 H   0  0  0  0  0  0  0  0  0  0  0  0
    3.8966   -2.0573   -5.1033 H   0  0  0  0  0  0  0  0  0  0  0  0
    2.9943   -1.0459   -4.0150 H   0  0  0  0  0  0  0  0  0  0  0  0
    5.3504   -2.8362   -3.2938 H   0  0  0  0  0  0  0  0  0  0  0  0
    5.9663   -1.1308   -1.7708 H   0  0  0  0  0  0  0  0  0  0  0  0
    4.7850   -0.0448   -2.6400 H   0  0  0  0  0  0  0  0  0  0  0  0
    2.9953   -0.7848   -1.3128 H   0  0  0  0  0  0  0  0  0  0  0  0
    4.2238   -1.2650   -0.1155 H   0  0  0  0  0  0  0  0  0  0  0  0
    7.0874   -4.8690   -0.2841 H   0  0  0  0  0  0  0  0  0  0  0  0
    8.2324   -6.4310    1.5249 H   0  0  0  0  0  0  0  0  0  0  0  0
    6.5822   -6.6708    3.5348 H   0  0  0  0  0  0  0  0  0  0  0  0
    6.0219   -4.2047    2.8792 H   0  0  0  0  0  0  0  0  0  0  0  0
    4.4980   -5.0382    3.1613 H   0  0  0  0  0  0  0  0  0  0  0  0
    0.8404   -8.6423    1.3627 H   0  0  0  0  0  0  0  0  0  0  0  0
    4.0977   -4.7378   -1.4046 H   0  0  0  0  0  0  0  0  0  0  0  0
  1  2  1  0
  1 29  1  0
  1 30  1  0
  1 31  1  0
  2 28  2  0
  2  3  1  0
  3  4  2  0
  3 32  1  0
  4  5  1  0
  4 33  1  0
  5  6  2  0
  6 28  1  0
  6  7  1  0
  7 12  1  0
  7  8  1  0
  8  9  2  0
  8 10  1  0
 10 26  1  0
 10 34  1  6
 10 11  1  0
 11 14  1  0
 11 35  1  6
 11 12  1  0
 12 13  2  0
 14 27  1  0
 14 15  1  6
 14 24  1  0
 15 16  1  0
 15 36  1  0
 15 37  1  0
 17 16  1  1
 16 38  1  0
 16 56  1  0
 17 21  1  0
 17 23  1  0
 17 18  1  0
 18 19  1  0
 18 39  1  0
 18 40  1  0
 19 20  1  0
 19 41  1  0
 19 42  1  0
 20 21  1  0
 20 43  1  0
 20 44  1  0
 21 22  1  0
 21 45  1  6
 22 23  1  0
 22 46  1  0
 22 47  1  0
 23 48  1  0
 23 49  1  0
 24 25  2  0
 24 50  1  0
 25 26  1  0
 25 51  1  0
 26 27  1  0
 26 52  1  1
 27 53  1  0
 27 54  1  0
 28 55  1  0
M  CHG  1  16   1
M  END
>  <i_m_ct_stereo_status>  (405) 
1

>  <s_m_source_file>  (405) 
/var/tmp/pbs.5076255.sched01/tmpl4jv_xt6/1264eazgjw7.sdf

>  <i_m_source_file_index>  (405) 
33

>  <i_lp_mmshare_version>  (405) 
48012

>  <i_f3d_flags>  (405) 
0

>  <s_epik_input>  (405) 
W0NIM11jMVtjSF1bY0hdbmMoW2NIXTEpLW4oYzJbT0hdKWMoW09IXSljKFtDQEhdKFtDSDJdMylbQ0hdPVtDSF00KWMyW0NAQF0zNFtDSDJdW05IXVtDQEBdNTZbQ0BIXShbQ0gyXVtDSDJdNilbQ0gyXVtDSDJdW0NIMl01

>  <s_epik_cmdline>  (405) 
J2VwaWtfcHl0aG9uJywgJy1waHQnLCAnMi4wJywgJy1waCcsICc3LjAnLCAnLXRuJywgJzgnLCAnLW1hJywgJzIwMCcsICctaW1hZScsICc8aW5maWxlLm1hZT4nLCAnLW9tYWUnLCAnPG91dGZpbGUubWFlPic=

>  <r_lp_tautomer_probability>  (405) 
1

>  <r_epik_Ionization_Penalty>  (405) 
0.00736564

>  <r_epik_Ionization_Penalty_Charging>  (405) 
0.000243838

>  <r_epik_Ionization_Penalty_Neutral>  (405) 
0.00712181

>  <r_epik_State_Penalty>  (405) 
0.00530435

>  <r_epik_Charging_Adjusted_Penalty>  (405) 
0.00554819

>  <i_epik_Tot_Q>  (405) 
1

>  <i_epik_Tot_abs_Q>  (405) 
1

>  <s_lp_Force_Field>  (405) 
OPLS3e

>  <r_lp_Energy>  (405) 
62.8759

>  <b_lp_Chiralities_Consistent>  (405) 
1

>  <s_lp_Variant>  (405) 
116:0-1

>  <s_i_glide_gridfile>  (405) 
pfpi4k_grid

>  <i_i_glide_lignum>  (405) 
33

>  <i_i_glide_rotatable_bonds>  (405) 
4

>  <r_i_docking_score>  (405) 
-3.61282

>  <r_i_glide_ligand_efficiency>  (405) 
-0.129029

>  <r_i_glide_ligand_efficiency_sa>  (405) 
-0.391809

>  <r_i_glide_ligand_efficiency_ln>  (405) 
-0.833946

>  <r_i_glide_gscore>  (405) 
-3.61282

>  <r_i_glide_lipo>  (405) 
-1.14554

>  <r_i_glide_hbond>  (405) 
0

>  <r_i_glide_metal>  (405) 
-0

>  <r_i_glide_rewards>  (405) 
-0.871971

>  <r_i_glide_evdw>  (405) 
-30.1845

>  <r_i_glide_ecoul>  (405) 
-4.07526

>  <r_i_glide_erotb>  (405) 
0.541133

>  <r_i_glide_esite>  (405) 
-0.0159331

>  <r_i_glide_emodel>  (405) 
-41.345

>  <r_i_glide_energy>  (405) 
-34.2598

>  <r_i_glide_einternal>  (405) 
3.37324

>  <r_i_glide_intrahb_reward>  (405) 
-0

>  <i_i_glide_confnum>  (405) 
3

>  <i_i_glide_posenum>  (405) 
12

>  <r_i_glide_eff_state_penalty>  (405) 
0

>  <ligand_id>  (405) 
116

>  <original_smiles>  (405) 
Cc1ccnc(-n2c(O)c3c(c2O)C2(CNC45CCCC4CC5)C=CC3C2)c1

>  <smiles>  (405) 
[H]C1=C([H])C2(C([H])([H])[N+]([H])([H])C34C([H])([H])C([H])([H])C([H])([H])C3([H])C([H])([H])C4([H])[H])C([H])([H])C1([H])C1([H])C(=O)N(c3nc([H])c([H])c(C([H])([H])[H])c3[H])C(=O)C12[H]

$$$$
116:0:1
     RDKit          3D

 56 61  0  0  1  0  0  0  0  0999 V2000
    5.3419   -0.6103    0.5178 C   0  0  0  0  0  0  0  0  0  0  0  0
    4.7288   -1.9579    0.2598 C   0  0  0  0  0  0  0  0  0  0  0  0
    3.6962   -2.1330   -0.6879 C   0  0  0  0  0  0  0  0  0  0  0  0
    3.1622   -3.4337   -0.8525 C   0  0  0  0  0  0  0  0  0  0  0  0
    3.5879   -4.4877   -0.1508 N   0  0  0  0  0  0  0  0  0  0  0  0
    4.5832   -4.3433    0.7308 C   0  0  0  0  0  0  0  0  0  0  0  0
    5.0788   -5.4502    1.4835 N   0  0  0  0  0  0  0  0  0  0  0  0
    6.3353   -5.9070    1.4257 C   0  0  0  0  0  0  0  0  0  0  0  0
    7.2745   -5.4254    0.7739 O   0  0  0  0  0  0  0  0  0  0  0  0
    6.5076   -7.1346    2.3002 C   0  0  1  0  0  0  0  0  0  0  0  0
    5.0882   -7.3625    2.8650 C   0  0  1  0  0  0  0  0  0  0  0  0
    4.2963   -6.2295    2.2370 C   0  0  0  0  0  0  0  0  0  0  0  0
    3.0823   -6.0939    2.4660 O   0  0  0  0  0  0  0  0  0  0  0  0
    4.7286   -8.8041    2.3717 C   0  0  2  0  0  0  0  0  0  0  0  0
    3.2254   -9.2168    2.4229 C   0  0  0  0  0  0  0  0  0  0  0  0
    2.5645   -8.8427    3.6764 N   0  0  0  0  0  0  0  0  0  0  0  0
    1.1037   -8.9770    3.7487 C   0  0  2  0  0  0  0  0  0  0  0  0
    0.3380   -8.3051    2.6055 C   0  0  0  0  0  0  0  0  0  0  0  0
   -0.5804   -7.2503    3.2488 C   0  0  0  0  0  0  0  0  0  0  0  0
   -0.8132   -7.7374    4.6840 C   0  0  0  0  0  0  0  0  0  0  0  0
    0.4750   -8.4445    5.0526 C   0  0  1  0  0  0  0  0  0  0  0  0
    0.4525   -9.8503    5.6475 C   0  0  0  0  0  0  0  0  0  0  0  0
    0.6854  -10.3922    4.2268 C   0  0  0  0  0  0  0  0  0  0  0  0
    5.6659   -9.7361    3.1075 C   0  0  0  0  0  0  0  0  0  0  0  0
    6.8861   -9.5357    2.6045 C   0  0  0  0  0  0  0  0  0  0  0  0
    6.7848   -8.4585    1.5486 C   0  0  1  0  0  0  0  0  0  0  0  0
    5.4005   -8.8119    0.9840 C   0  0  0  0  0  0  0  0  0  0  0  0
    5.1826   -3.0774    0.9803 C   0  0  0  0  0  0  0  0  0  0  0  0
    4.8510    0.1397   -0.0939 H   0  0  0  0  0  0  0  0  0  0  0  0
    6.4032   -0.6218    0.2744 H   0  0  0  0  0  0  0  0  0  0  0  0
    5.2282   -0.3231    1.5628 H   0  0  0  0  0  0  0  0  0  0  0  0
    3.2975   -1.3063   -1.2526 H   0  0  0  0  0  0  0  0  0  0  0  0
    2.3638   -3.6083   -1.5591 H   0  0  0  0  0  0  0  0  0  0  0  0
    7.2437   -6.9347    3.0778 H   0  0  0  0  0  0  0  0  0  0  0  0
    5.0564   -7.2669    3.9530 H   0  0  0  0  0  0  0  0  0  0  0  0
    2.7796   -8.7409    1.5479 H   0  0  0  0  0  0  0  0  0  0  0  0
    3.1198  -10.2965    2.2462 H   0  0  0  0  0  0  0  0  0  0  0  0
    2.9753   -9.3537    4.4542 H   0  0  0  0  0  0  0  0  0  0  0  0
    0.9337   -7.7962    1.8538 H   0  0  0  0  0  0  0  0  0  0  0  0
   -0.2791   -9.0429    2.0825 H   0  0  0  0  0  0  0  0  0  0  0  0
   -0.0221   -6.3069    3.3040 H   0  0  0  0  0  0  0  0  0  0  0  0
   -1.4927   -7.0725    2.6829 H   0  0  0  0  0  0  0  0  0  0  0  0
   -1.0837   -6.9104    5.3415 H   0  0  0  0  0  0  0  0  0  0  0  0
   -1.6577   -8.4460    4.6725 H   0  0  0  0  0  0  0  0  0  0  0  0
    1.1646   -7.8024    5.6171 H   0  0  0  0  0  0  0  0  0  0  0  0
    1.2762  -10.0619    6.3257 H   0  0  0  0  0  0  0  0  0  0  0  0
   -0.5128  -10.1190    6.0923 H   0  0  0  0  0  0  0  0  0  0  0  0
   -0.2483  -10.7135    3.7625 H   0  0  0  0  0  0  0  0  0  0  0  0
    1.4505  -11.1643    4.1806 H   0  0  0  0  0  0  0  0  0  0  0  0
    5.3714  -10.4400    3.8760 H   0  0  0  0  0  0  0  0  0  0  0  0
    7.8043  -10.0231    2.8917 H   0  0  0  0  0  0  0  0  0  0  0  0
    7.5995   -8.4455    0.8301 H   0  0  0  0  0  0  0  0  0  0  0  0
    5.3692   -9.7956    0.5056 H   0  0  0  0  0  0  0  0  0  0  0  0
    4.9985   -8.0903    0.2688 H   0  0  0  0  0  0  0  0  0  0  0  0
    5.9675   -2.9754    1.7156 H   0  0  0  0  0  0  0  0  0  0  0  0
    2.7502   -7.8457    3.8315 H   0  0  0  0  0  0  0  0  0  0  0  0
  1  2  1  0
  1 29  1  0
  1 30  1  0
  1 31  1  0
  2 28  2  0
  2  3  1  0
  3  4  2  0
  3 32  1  0
  4  5  1  0
  4 33  1  0
  5  6  2  0
  6 28  1  0
  6  7  1  0
  7 12  1  0
  7  8  1  0
  8  9  2  0
  8 10  1  0
 10 26  1  0
 10 34  1  1
 10 11  1  0
 11 14  1  0
 11 35  1  1
 11 12  1  0
 12 13  2  0
 14 27  1  0
 14 15  1  6
 14 24  1  0
 15 16  1  0
 15 36  1  0
 15 37  1  0
 17 16  1  1
 16 38  1  0
 16 56  1  0
 17 21  1  0
 17 23  1  0
 17 18  1  0
 18 19  1  0
 18 39  1  0
 18 40  1  0
 19 20  1  0
 19 41  1  0
 19 42  1  0
 20 21  1  0
 20 43  1  0
 20 44  1  0
 21 22  1  0
 21 45  1  1
 22 23  1  0
 22 46  1  0
 22 47  1  0
 23 48  1  0
 23 49  1  0
 24 25  2  0
 24 50  1  0
 25 26  1  0
 25 51  1  0
 26 27  1  0
 26 52  1  6
 27 53  1  0
 27 54  1  0
 28 55  1  0
M  CHG  1  16   1
M  END
>  <i_m_ct_stereo_status>  (406) 
1

>  <s_m_source_file>  (406) 
/var/tmp/pbs.5076255.sched01/tmpl4jv_xt6/1264eazgjw7.sdf

>  <i_m_source_file_index>  (406) 
33

>  <i_lp_mmshare_version>  (406) 
48012

>  <i_f3d_flags>  (406) 
0

>  <s_epik_input>  (406) 
W0NIM11jMVtjSF1bY0hdbmMoW2NIXTEpLW4oYzJbT0hdKWMoW09IXSljKFtDQEhdKFtDSDJdMylbQ0hdPVtDSF00KWMyW0NAQF0zNFtDSDJdW05IXVtDQEBdNTZbQ0BIXShbQ0gyXVtDSDJdNilbQ0gyXVtDSDJdW0NIMl01

>  <s_epik_cmdline>  (406) 
J2VwaWtfcHl0aG9uJywgJy1waHQnLCAnMi4wJywgJy1waCcsICc3LjAnLCAnLXRuJywgJzgnLCAnLW1hJywgJzIwMCcsICctaW1hZScsICc8aW5maWxlLm1hZT4nLCAnLW9tYWUnLCAnPG91dGZpbGUubWFlPic=

>  <r_lp_tautomer_probability>  (406) 
1

>  <r_epik_Ionization_Penalty>  (406) 
0.00736564

>  <r_epik_Ionization_Penalty_Charging>  (406) 
0.000243838

>  <r_epik_Ionization_Penalty_Neutral>  (406) 
0.00712181

>  <r_epik_State_Penalty>  (406) 
0.00530435

>  <r_epik_Charging_Adjusted_Penalty>  (406) 
0.00554819

>  <i_epik_Tot_Q>  (406) 
1

>  <i_epik_Tot_abs_Q>  (406) 
1

>  <s_lp_Force_Field>  (406) 
OPLS3e

>  <r_lp_Energy>  (406) 
62.8759

>  <b_lp_Chiralities_Consistent>  (406) 
1

>  <s_lp_Variant>  (406) 
116:0-1

>  <s_i_glide_gridfile>  (406) 
pfpi4k_grid

>  <i_i_glide_lignum>  (406) 
33

>  <i_i_glide_rotatable_bonds>  (406) 
4

>  <r_i_docking_score>  (406) 
-3.0738

>  <r_i_glide_ligand_efficiency>  (406) 
-0.109778

>  <r_i_glide_ligand_efficiency_sa>  (406) 
-0.333352

>  <r_i_glide_ligand_efficiency_ln>  (406) 
-0.709522

>  <r_i_glide_gscore>  (406) 
-3.0738

>  <r_i_glide_lipo>  (406) 
-0.508566

>  <r_i_glide_hbond>  (406) 
0

>  <r_i_glide_metal>  (406) 
-0

>  <r_i_glide_rewards>  (406) 
-1.52345

>  <r_i_glide_evdw>  (406) 
-26.0981

>  <r_i_glide_ecoul>  (406) 
-1.81349

>  <r_i_glide_erotb>  (406) 
0.541133

>  <r_i_glide_esite>  (406) 
-0.00598194

>  <r_i_glide_emodel>  (406) 
-38.6943

>  <r_i_glide_energy>  (406) 
-27.9116

>  <r_i_glide_einternal>  (406) 
3.28809

>  <r_i_glide_intrahb_reward>  (406) 
-0.5

>  <i_i_glide_confnum>  (406) 
3

>  <i_i_glide_posenum>  (406) 
36

>  <r_i_glide_eff_state_penalty>  (406) 
0

>  <ligand_id>  (406) 
116

>  <original_smiles>  (406) 
Cc1ccnc(-n2c(O)c3c(c2O)C2(CNC45CCCC4CC5)C=CC3C2)c1

>  <smiles>  (406) 
[H]C1=C([H])C2(C([H])([H])[N+]([H])([H])C34C([H])([H])C([H])([H])C([H])([H])C3([H])C([H])([H])C4([H])[H])C([H])([H])C1([H])C1([H])C(=O)N(c3nc([H])c([H])c(C([H])([H])[H])c3[H])C(=O)C12[H]

$$$$
116:0:2
     RDKit          3D

 56 61  0  0  1  0  0  0  0  0999 V2000
    2.6424   -2.8093   -3.0590 C   0  0  0  0  0  0  0  0  0  0  0  0
    3.5609   -2.5263   -1.8915 C   0  0  0  0  0  0  0  0  0  0  0  0
    4.1123   -1.2469   -1.6774 C   0  0  0  0  0  0  0  0  0  0  0  0
    4.9321   -1.0650   -0.5480 C   0  0  0  0  0  0  0  0  0  0  0  0
    5.2386   -2.0475    0.3174 N   0  0  0  0  0  0  0  0  0  0  0  0
    4.7224   -3.2811    0.1151 C   0  0  0  0  0  0  0  0  0  0  0  0
    5.0224   -4.3498    1.0015 N   0  0  0  0  0  0  0  0  0  0  0  0
    6.2736   -4.7139    1.3311 C   0  0  0  0  0  0  0  0  0  0  0  0
    7.3271   -4.2549    0.8877 O   0  0  0  0  0  0  0  0  0  0  0  0
    6.2544   -5.8475    2.3459 C   0  0  1  0  0  0  0  0  0  0  0  0
    4.7435   -6.1144    2.5541 C   0  0  1  0  0  0  0  0  0  0  0  0
    4.0966   -5.0843    1.6369 C   0  0  0  0  0  0  0  0  0  0  0  0
    2.8685   -4.9939    1.5403 O   0  0  0  0  0  0  0  0  0  0  0  0
    4.5779   -7.6063    2.1224 C   0  0  2  0  0  0  0  0  0  0  0  0
    3.1429   -8.1178    1.8203 C   0  0  0  0  0  0  0  0  0  0  0  0
    2.3068   -8.1657    3.0482 N   0  0  0  0  0  0  0  0  0  0  0  0
    0.9387   -8.7201    2.8871 C   0  0  2  0  0  0  0  0  0  0  0  0
   -0.0116   -7.7560    2.1687 C   0  0  0  0  0  0  0  0  0  0  0  0
   -1.1447   -7.4499    3.1741 C   0  0  0  0  0  0  0  0  0  0  0  0
   -1.1761   -8.6533    4.1292 C   0  0  0  0  0  0  0  0  0  0  0  0
    0.2764   -9.0930    4.2178 C   0  0  1  0  0  0  0  0  0  0  0  0
    0.6538  -10.5598    4.0061 C   0  0  0  0  0  0  0  0  0  0  0  0
    0.9332  -10.2251    2.5437 C   0  0  0  0  0  0  0  0  0  0  0  0
    5.3499   -8.4265    3.1419 C   0  0  0  0  0  0  0  0  0  0  0  0
    6.6504   -8.1888    2.9501 C   0  0  0  0  0  0  0  0  0  0  0  0
    6.7706   -7.2045    1.8115 C   0  0  1  0  0  0  0  0  0  0  0  0
    5.5835   -7.6816    0.9563 C   0  0  0  0  0  0  0  0  0  0  0  0
    3.8795   -3.5510   -0.9851 C   0  0  0  0  0  0  0  0  0  0  0  0
    2.5082   -1.9208   -3.6721 H   0  0  0  0  0  0  0  0  0  0  0  0
    1.6613   -3.1281   -2.7025 H   0  0  0  0  0  0  0  0  0  0  0  0
    3.0540   -3.6042   -3.6837 H   0  0  0  0  0  0  0  0  0  0  0  0
    3.8861   -0.4241   -2.3383 H   0  0  0  0  0  0  0  0  0  0  0  0
    5.3724   -0.1069   -0.3240 H   0  0  0  0  0  0  0  0  0  0  0  0
    6.7586   -5.5311    3.2579 H   0  0  0  0  0  0  0  0  0  0  0  0
    4.4264   -5.9338    3.5826 H   0  0  0  0  0  0  0  0  0  0  0  0
    2.6518   -7.4959    1.0716 H   0  0  0  0  0  0  0  0  0  0  0  0
    3.2089   -9.1073    1.3695 H   0  0  0  0  0  0  0  0  0  0  0  0
    2.7845   -8.7298    3.7376 H   0  0  0  0  0  0  0  0  0  0  0  0
    0.4701   -6.8409    1.8134 H   0  0  0  0  0  0  0  0  0  0  0  0
   -0.4500   -8.2400    1.2939 H   0  0  0  0  0  0  0  0  0  0  0  0
   -0.8775   -6.5617    3.7547 H   0  0  0  0  0  0  0  0  0  0  0  0
   -2.1092   -7.2636    2.6981 H   0  0  0  0  0  0  0  0  0  0  0  0
   -1.6193   -8.4174    5.0997 H   0  0  0  0  0  0  0  0  0  0  0  0
   -1.7909   -9.4395    3.6781 H   0  0  0  0  0  0  0  0  0  0  0  0
    0.7920   -8.6743    5.0814 H   0  0  0  0  0  0  0  0  0  0  0  0
    1.5500  -10.8541    4.5580 H   0  0  0  0  0  0  0  0  0  0  0  0
   -0.1707  -11.2657    4.1464 H   0  0  0  0  0  0  0  0  0  0  0  0
    0.0848  -10.5130    1.9226 H   0  0  0  0  0  0  0  0  0  0  0  0
    1.8670  -10.6511    2.1822 H   0  0  0  0  0  0  0  0  0  0  0  0
    4.9119   -9.0770    3.8867 H   0  0  0  0  0  0  0  0  0  0  0  0
    7.4857   -8.5816    3.5098 H   0  0  0  0  0  0  0  0  0  0  0  0
    7.7388   -7.1968    1.3150 H   0  0  0  0  0  0  0  0  0  0  0  0
    5.7245   -8.6992    0.5820 H   0  0  0  0  0  0  0  0  0  0  0  0
    5.3486   -7.0419    0.1033 H   0  0  0  0  0  0  0  0  0  0  0  0
    3.4743   -4.5466   -1.1207 H   0  0  0  0  0  0  0  0  0  0  0  0
    2.2105   -7.2239    3.4049 H   0  0  0  0  0  0  0  0  0  0  0  0
  1  2  1  0
  1 29  1  0
  1 30  1  0
  1 31  1  0
  2 28  2  0
  2  3  1  0
  3  4  2  0
  3 32  1  0
  4  5  1  0
  4 33  1  0
  5  6  2  0
  6 28  1  0
  6  7  1  0
  7 12  1  0
  7  8  1  0
  8  9  2  0
  8 10  1  0
 10 26  1  0
 10 34  1  1
 10 11  1  0
 11 14  1  0
 11 35  1  1
 11 12  1  0
 12 13  2  0
 14 27  1  0
 14 15  1  6
 14 24  1  0
 15 16  1  0
 15 36  1  0
 15 37  1  0
 17 16  1  1
 16 38  1  0
 16 56  1  0
 17 21  1  0
 17 23  1  0
 17 18  1  0
 18 19  1  0
 18 39  1  0
 18 40  1  0
 19 20  1  0
 19 41  1  0
 19 42  1  0
 20 21  1  0
 20 43  1  0
 20 44  1  0
 21 22  1  0
 21 45  1  1
 22 23  1  0
 22 46  1  0
 22 47  1  0
 23 48  1  0
 23 49  1  0
 24 25  2  0
 24 50  1  0
 25 26  1  0
 25 51  1  0
 26 27  1  0
 26 52  1  6
 27 53  1  0
 27 54  1  0
 28 55  1  0
M  CHG  1  16   1
M  END
>  <i_m_ct_stereo_status>  (407) 
1

>  <s_m_source_file>  (407) 
/var/tmp/pbs.5076255.sched01/tmpl4jv_xt6/1264eazgjw7.sdf

>  <i_m_source_file_index>  (407) 
33

>  <i_lp_mmshare_version>  (407) 
48012

>  <i_f3d_flags>  (407) 
0

>  <s_epik_input>  (407) 
W0NIM11jMVtjSF1bY0hdbmMoW2NIXTEpLW4oYzJbT0hdKWMoW09IXSljKFtDQEhdKFtDSDJdMylbQ0hdPVtDSF00KWMyW0NAQF0zNFtDSDJdW05IXVtDQEBdNTZbQ0BIXShbQ0gyXVtDSDJdNilbQ0gyXVtDSDJdW0NIMl01

>  <s_epik_cmdline>  (407) 
J2VwaWtfcHl0aG9uJywgJy1waHQnLCAnMi4wJywgJy1waCcsICc3LjAnLCAnLXRuJywgJzgnLCAnLW1hJywgJzIwMCcsICctaW1hZScsICc8aW5maWxlLm1hZT4nLCAnLW9tYWUnLCAnPG91dGZpbGUubWFlPic=

>  <r_lp_tautomer_probability>  (407) 
1

>  <r_epik_Ionization_Penalty>  (407) 
0.00736564

>  <r_epik_Ionization_Penalty_Charging>  (407) 
0.000243838

>  <r_epik_Ionization_Penalty_Neutral>  (407) 
0.00712181

>  <r_epik_State_Penalty>  (407) 
0.00530435

>  <r_epik_Charging_Adjusted_Penalty>  (407) 
0.00554819

>  <i_epik_Tot_Q>  (407) 
1

>  <i_epik_Tot_abs_Q>  (407) 
1

>  <s_lp_Force_Field>  (407) 
OPLS3e

>  <r_lp_Energy>  (407) 
62.8759

>  <b_lp_Chiralities_Consistent>  (407) 
1

>  <s_lp_Variant>  (407) 
116:0-1

>  <s_i_glide_gridfile>  (407) 
pfpi4k_grid

>  <i_i_glide_lignum>  (407) 
33

>  <i_i_glide_rotatable_bonds>  (407) 
4

>  <r_i_docking_score>  (407) 
-2.85071

>  <r_i_glide_ligand_efficiency>  (407) 
-0.101811

>  <r_i_glide_ligand_efficiency_sa>  (407) 
-0.309159

>  <r_i_glide_ligand_efficiency_ln>  (407) 
-0.658029

>  <r_i_glide_gscore>  (407) 
-2.85071

>  <r_i_glide_lipo>  (407) 
-0.478559

>  <r_i_glide_hbond>  (407) 
0

>  <r_i_glide_metal>  (407) 
-0

>  <r_i_glide_rewards>  (407) 
-1.02196

>  <r_i_glide_evdw>  (407) 
-29.01

>  <r_i_glide_ecoul>  (407) 
-2.89276

>  <r_i_glide_erotb>  (407) 
0.541133

>  <r_i_glide_esite>  (407) 
-0.00691409

>  <r_i_glide_emodel>  (407) 
-38.79

>  <r_i_glide_energy>  (407) 
-31.9028

>  <r_i_glide_einternal>  (407) 
0.370291

>  <r_i_glide_intrahb_reward>  (407) 
-0

>  <i_i_glide_confnum>  (407) 
2

>  <i_i_glide_posenum>  (407) 
32

>  <r_i_glide_eff_state_penalty>  (407) 
0

>  <ligand_id>  (407) 
116

>  <original_smiles>  (407) 
Cc1ccnc(-n2c(O)c3c(c2O)C2(CNC45CCCC4CC5)C=CC3C2)c1

>  <smiles>  (407) 
[H]C1=C([H])C2(C([H])([H])[N+]([H])([H])C34C([H])([H])C([H])([H])C([H])([H])C3([H])C([H])([H])C4([H])[H])C([H])([H])C1([H])C1([H])C(=O)N(c3nc([H])c([H])c(C([H])([H])[H])c3[H])C(=O)C12[H]

$$$$
116:1:0
     RDKit          3D

 56 61  0  0  1  0  0  0  0  0999 V2000
    1.1368  -10.8325    3.1601 C   0  0  0  0  0  0  0  0  0  0  0  0
    0.8744   -9.3848    2.8524 C   0  0  0  0  0  0  0  0  0  0  0  0
   -0.4129   -8.9058    2.5175 C   0  0  0  0  0  0  0  0  0  0  0  0
   -0.5486   -7.5331    2.2622 C   0  0  0  0  0  0  0  0  0  0  0  0
    0.4489   -6.6514    2.3265 N   0  0  0  0  0  0  0  0  0  0  0  0
    1.6979   -7.0872    2.6358 C   0  0  0  0  0  0  0  0  0  0  0  0
    2.8298   -6.1736    2.6891 N   0  0  0  0  0  0  0  0  0  0  0  0
    3.8277   -6.1932    3.6157 C   0  0  0  0  0  0  0  0  0  0  0  0
    3.9732   -6.9727    4.5595 O   0  0  0  0  0  0  0  0  0  0  0  0
    4.8151   -5.0715    3.3808 C   0  0  2  0  0  0  0  0  0  0  0  0
    4.2416   -4.3485    2.1565 C   0  0  2  0  0  0  0  0  0  0  0  0
    3.0051   -5.1490    1.8223 C   0  0  0  0  0  0  0  0  0  0  0  0
    2.3580   -4.8881    0.7971 O   0  0  0  0  0  0  0  0  0  0  0  0
    5.3771   -4.4313    1.0863 C   0  0  2  0  0  0  0  0  0  0  0  0
    5.2895   -3.4361   -0.1119 C   0  0  0  0  0  0  0  0  0  0  0  0
    4.3356   -3.8289   -1.1420 N   0  0  0  0  0  0  0  0  0  0  0  0
    4.4104   -3.0553   -2.3781 C   0  0  2  0  0  0  0  0  0  0  0  0
    4.1675   -1.5715   -2.2111 C   0  0  0  0  0  0  0  0  0  0  0  0
    2.9549   -1.2622   -3.1000 C   0  0  0  0  0  0  0  0  0  0  0  0
    2.8994   -2.3500   -4.1711 C   0  0  0  0  0  0  0  0  0  0  0  0
    3.4776   -3.5475   -3.4983 C   0  0  1  0  0  0  0  0  0  0  0  0
    4.6118   -4.3717   -4.1212 C   0  0  0  0  0  0  0  0  0  0  0  0
    5.5654   -3.5320   -3.2691 C   0  0  0  0  0  0  0  0  0  0  0  0
    5.6492   -5.8753    0.7070 C   0  0  0  0  0  0  0  0  0  0  0  0
    6.1606   -6.4915    1.7741 C   0  0  0  0  0  0  0  0  0  0  0  0
    6.2254   -5.4790    2.9007 C   0  0  1  0  0  0  0  0  0  0  0  0
    6.5332   -4.2263    2.0617 C   0  0  0  0  0  0  0  0  0  0  0  0
    1.9329   -8.4642    2.8854 C   0  0  0  0  0  0  0  0  0  0  0  0
    0.2306  -11.4195    3.0435 H   0  0  0  0  0  0  0  0  0  0  0  0
    1.4855  -10.9461    4.1873 H   0  0  0  0  0  0  0  0  0  0  0  0
    1.9003  -11.2254    2.4923 H   0  0  0  0  0  0  0  0  0  0  0  0
   -1.2523   -9.5812    2.4497 H   0  0  0  0  0  0  0  0  0  0  0  0
   -1.5084   -7.1205    2.0060 H   0  0  0  0  0  0  0  0  0  0  0  0
    4.8430   -4.4332    4.2632 H   0  0  0  0  0  0  0  0  0  0  0  0
    3.9576   -3.3230    2.4114 H   0  0  0  0  0  0  0  0  0  0  0  0
    5.0512   -2.4551    0.3118 H   0  0  0  0  0  0  0  0  0  0  0  0
    6.2975   -3.3273   -0.5182 H   0  0  0  0  0  0  0  0  0  0  0  0
    4.4737   -4.8018   -1.3823 H   0  0  0  0  0  0  0  0  0  0  0  0
    3.9627   -1.2456   -1.1950 H   0  0  0  0  0  0  0  0  0  0  0  0
    5.0112   -0.9819   -2.5855 H   0  0  0  0  0  0  0  0  0  0  0  0
    2.0970   -1.4478   -2.4614 H   0  0  0  0  0  0  0  0  0  0  0  0
    2.8997   -0.2422   -3.4833 H   0  0  0  0  0  0  0  0  0  0  0  0
    1.8783   -2.5341   -4.5011 H   0  0  0  0  0  0  0  0  0  0  0  0
    3.5014   -2.0157   -5.0236 H   0  0  0  0  0  0  0  0  0  0  0  0
    2.6782   -4.1893   -3.1209 H   0  0  0  0  0  0  0  0  0  0  0  0
    4.6201   -5.4240   -3.8500 H   0  0  0  0  0  0  0  0  0  0  0  0
    4.7267   -4.2554   -5.1949 H   0  0  0  0  0  0  0  0  0  0  0  0
    5.9361   -2.6974   -3.8343 H   0  0  0  0  0  0  0  0  0  0  0  0
    6.3561   -4.0853   -2.7812 H   0  0  0  0  0  0  0  0  0  0  0  0
    5.4621   -6.2966   -0.2755 H   0  0  0  0  0  0  0  0  0  0  0  0
    6.4584   -7.5266    1.8587 H   0  0  0  0  0  0  0  0  0  0  0  0
    6.9449   -5.7103    3.6828 H   0  0  0  0  0  0  0  0  0  0  0  0
    7.5249   -4.2634    1.6018 H   0  0  0  0  0  0  0  0  0  0  0  0
    6.3911   -3.2591    2.5482 H   0  0  0  0  0  0  0  0  0  0  0  0
    2.9315   -8.8435    3.1192 H   0  0  0  0  0  0  0  0  0  0  0  0
    3.3999   -3.7498   -0.7597 H   0  0  0  0  0  0  0  0  0  0  0  0
  1  2  1  0
  1 29  1  0
  1 30  1  0
  1 31  1  0
  2 28  2  0
  2  3  1  0
  3  4  2  0
  3 32  1  0
  4  5  1  0
  4 33  1  0
  5  6  2  0
  6 28  1  0
  6  7  1  0
  7 12  1  0
  7  8  1  0
  8  9  2  0
  8 10  1  0
 10 26  1  0
 10 34  1  1
 10 11  1  0
 11 14  1  0
 11 35  1  1
 11 12  1  0
 12 13  2  0
 14 27  1  0
 14 15  1  6
 14 24  1  0
 15 16  1  0
 15 36  1  0
 15 37  1  0
 17 16  1  1
 16 38  1  0
 16 56  1  0
 17 21  1  0
 17 23  1  0
 17 18  1  0
 18 19  1  0
 18 39  1  0
 18 40  1  0
 19 20  1  0
 19 41  1  0
 19 42  1  0
 20 21  1  0
 20 43  1  0
 20 44  1  0
 21 22  1  0
 21 45  1  1
 22 23  1  0
 22 46  1  0
 22 47  1  0
 23 48  1  0
 23 49  1  0
 24 25  2  0
 24 50  1  0
 25 26  1  0
 25 51  1  0
 26 27  1  0
 26 52  1  1
 27 53  1  0
 27 54  1  0
 28 55  1  0
M  CHG  1  16   1
M  END
>  <i_m_ct_stereo_status>  (408) 
1

>  <s_m_source_file>  (408) 
/var/tmp/pbs.5076255.sched01/tmpl4jv_xt6/1264eazgjw7.sdf

>  <i_m_source_file_index>  (408) 
34

>  <i_lp_mmshare_version>  (408) 
48012

>  <i_f3d_flags>  (408) 
0

>  <s_epik_input>  (408) 
W0NIM11jMVtjSF1bY0hdbmMoW2NIXTEpLW4oYzJbT0hdKWMoW09IXSljKFtDQEhdKFtDSDJdMylbQ0hdPVtDSF00KWMyW0NAQF0zNFtDSDJdW05IXVtDQEBdNTZbQ0BIXShbQ0gyXVtDSDJdNilbQ0gyXVtDSDJdW0NIMl01

>  <s_epik_cmdline>  (408) 
J2VwaWtfcHl0aG9uJywgJy1waHQnLCAnMi4wJywgJy1waCcsICc3LjAnLCAnLXRuJywgJzgnLCAnLW1hJywgJzIwMCcsICctaW1hZScsICc8aW5maWxlLm1hZT4nLCAnLW9tYWUnLCAnPG91dGZpbGUubWFlPic=

>  <r_lp_tautomer_probability>  (408) 
1

>  <r_epik_Ionization_Penalty>  (408) 
0.00736564

>  <r_epik_Ionization_Penalty_Charging>  (408) 
0.000243838

>  <r_epik_Ionization_Penalty_Neutral>  (408) 
0.00712181

>  <r_epik_State_Penalty>  (408) 
0.00530435

>  <r_epik_Charging_Adjusted_Penalty>  (408) 
0.00554819

>  <i_epik_Tot_Q>  (408) 
1

>  <i_epik_Tot_abs_Q>  (408) 
1

>  <s_lp_Force_Field>  (408) 
OPLS3e

>  <r_lp_Energy>  (408) 
64.9706

>  <b_lp_Chiralities_Consistent>  (408) 
1

>  <s_lp_Variant>  (408) 
116:0-2

>  <s_i_glide_gridfile>  (408) 
pfpi4k_grid

>  <i_i_glide_lignum>  (408) 
34

>  <i_i_glide_rotatable_bonds>  (408) 
4

>  <r_i_docking_score>  (408) 
-3.31728

>  <r_i_glide_ligand_efficiency>  (408) 
-0.118474

>  <r_i_glide_ligand_efficiency_sa>  (408) 
-0.359757

>  <r_i_glide_ligand_efficiency_ln>  (408) 
-0.765725

>  <r_i_glide_gscore>  (408) 
-3.31728

>  <r_i_glide_lipo>  (408) 
-0.785002

>  <r_i_glide_hbond>  (408) 
-0.0110202

>  <r_i_glide_metal>  (408) 
-0

>  <r_i_glide_rewards>  (408) 
-1.3285

>  <r_i_glide_evdw>  (408) 
-20.1825

>  <r_i_glide_ecoul>  (408) 
-4.671

>  <r_i_glide_erotb>  (408) 
0.541133

>  <r_i_glide_esite>  (408) 
-0.0241199

>  <r_i_glide_emodel>  (408) 
-36.3101

>  <r_i_glide_energy>  (408) 
-24.8535

>  <r_i_glide_einternal>  (408) 
1.91189

>  <r_i_glide_intrahb_reward>  (408) 
-0.5

>  <i_i_glide_confnum>  (408) 
2

>  <i_i_glide_posenum>  (408) 
9

>  <r_i_glide_eff_state_penalty>  (408) 
0

>  <ligand_id>  (408) 
116

>  <original_smiles>  (408) 
Cc1ccnc(-n2c(O)c3c(c2O)C2(CNC45CCCC4CC5)C=CC3C2)c1

>  <smiles>  (408) 
[H]C1=C([H])C2(C([H])([H])[N+]([H])([H])C34C([H])([H])C([H])([H])C([H])([H])C3([H])C([H])([H])C4([H])[H])C([H])([H])C1([H])C1([H])C(=O)N(c3nc([H])c([H])c(C([H])([H])[H])c3[H])C(=O)C12[H]

$$$$
116:1:1
     RDKit          3D

 56 61  0  0  1  0  0  0  0  0999 V2000
    2.0340    0.2021    1.5563 C   0  0  0  0  0  0  0  0  0  0  0  0
    3.0797   -0.7331    2.1183 C   0  0  0  0  0  0  0  0  0  0  0  0
    3.9414   -0.3232    3.1526 C   0  0  0  0  0  0  0  0  0  0  0  0
    4.8864   -1.2497    3.6273 C   0  0  0  0  0  0  0  0  0  0  0  0
    5.0046   -2.5011    3.1401 N   0  0  0  0  0  0  0  0  0  0  0  0
    4.1880   -2.8980    2.1361 C   0  0  0  0  0  0  0  0  0  0  0  0
    4.3045   -4.1941    1.5738 N   0  0  0  0  0  0  0  0  0  0  0  0
    5.4347   -4.6553    1.0051 C   0  0  0  0  0  0  0  0  0  0  0  0
    6.4847   -4.0400    0.8229 O   0  0  0  0  0  0  0  0  0  0  0  0
    5.2587   -6.0990    0.5564 C   0  0  2  0  0  0  0  0  0  0  0  0
    3.8232   -6.4344    1.0055 C   0  0  2  0  0  0  0  0  0  0  0  0
    3.3527   -5.1411    1.6475 C   0  0  0  0  0  0  0  0  0  0  0  0
    2.2395   -5.0632    2.1763 O   0  0  0  0  0  0  0  0  0  0  0  0
    4.0065   -7.6597    1.9600 C   0  0  2  0  0  0  0  0  0  0  0  0
    2.7444   -8.5158    2.2467 C   0  0  0  0  0  0  0  0  0  0  0  0
    1.8158   -7.8666    3.2145 N   0  0  0  0  0  0  0  0  0  0  0  0
    0.5237   -8.5717    3.4551 C   0  0  2  0  0  0  0  0  0  0  0  0
   -0.3574   -8.6557    2.2110 C   0  0  0  0  0  0  0  0  0  0  0  0
   -1.6651   -7.9213    2.5550 C   0  0  0  0  0  0  0  0  0  0  0  0
   -1.7740   -7.9687    4.0802 C   0  0  0  0  0  0  0  0  0  0  0  0
   -0.3315   -7.9372    4.5605 C   0  0  1  0  0  0  0  0  0  0  0  0
    0.1709   -8.9793    5.5598 C   0  0  0  0  0  0  0  0  0  0  0  0
    0.6718   -9.8035    4.3738 C   0  0  0  0  0  0  0  0  0  0  0  0
    4.8107   -7.2578    3.1891 C   0  0  0  0  0  0  0  0  0  0  0  0
    6.0514   -6.9782    2.7863 C   0  0  0  0  0  0  0  0  0  0  0  0
    6.1057   -7.1759    1.2847 C   0  0  1  0  0  0  0  0  0  0  0  0
    5.1273   -8.3541    1.1627 C   0  0  0  0  0  0  0  0  0  0  0  0
    3.2085   -2.0332    1.5996 C   0  0  0  0  0  0  0  0  0  0  0  0
    2.0745    1.1827    2.0325 H   0  0  0  0  0  0  0  0  0  0  0  0
    1.0315   -0.2132    1.6881 H   0  0  0  0  0  0  0  0  0  0  0  0
    2.2077    0.3333    0.4909 H   0  0  0  0  0  0  0  0  0  0  0  0
    3.8787    0.6706    3.5708 H   0  0  0  0  0  0  0  0  0  0  0  0
    5.5697   -0.9811    4.4211 H   0  0  0  0  0  0  0  0  0  0  0  0
    5.3553   -6.1560   -0.5258 H   0  0  0  0  0  0  0  0  0  0  0  0
    3.1950   -6.6570    0.1447 H   0  0  0  0  0  0  0  0  0  0  0  0
    2.2404   -8.7161    1.3014 H   0  0  0  0  0  0  0  0  0  0  0  0
    3.0360   -9.4892    2.6420 H   0  0  0  0  0  0  0  0  0  0  0  0
    2.2830   -7.7833    4.1065 H   0  0  0  0  0  0  0  0  0  0  0  0
    0.0878   -8.2332    1.3078 H   0  0  0  0  0  0  0  0  0  0  0  0
   -0.5898   -9.7024    2.0049 H   0  0  0  0  0  0  0  0  0  0  0  0
   -1.5645   -6.8779    2.2509 H   0  0  0  0  0  0  0  0  0  0  0  0
   -2.5384   -8.3406    2.0552 H   0  0  0  0  0  0  0  0  0  0  0  0
   -2.3844   -7.1526    4.4735 H   0  0  0  0  0  0  0  0  0  0  0  0
   -2.2499   -8.9148    4.3572 H   0  0  0  0  0  0  0  0  0  0  0  0
    0.0020   -6.9355    4.8262 H   0  0  0  0  0  0  0  0  0  0  0  0
    0.9758   -8.6075    6.1958 H   0  0  0  0  0  0  0  0  0  0  0  0
   -0.6191   -9.4653    6.1396 H   0  0  0  0  0  0  0  0  0  0  0  0
   -0.0396  -10.5941    4.1253 H   0  0  0  0  0  0  0  0  0  0  0  0
    1.6785  -10.1964    4.5103 H   0  0  0  0  0  0  0  0  0  0  0  0
    4.4344   -7.2130    4.2035 H   0  0  0  0  0  0  0  0  0  0  0  0
    6.8814   -6.6459    3.3918 H   0  0  0  0  0  0  0  0  0  0  0  0
    7.1023   -7.3523    0.8848 H   0  0  0  0  0  0  0  0  0  0  0  0
    5.5010   -9.2622    1.6400 H   0  0  0  0  0  0  0  0  0  0  0  0
    4.8608   -8.5964    0.1315 H   0  0  0  0  0  0  0  0  0  0  0  0
    2.5700   -2.3616    0.7891 H   0  0  0  0  0  0  0  0  0  0  0  0
    1.6024   -6.9366    2.8741 H   0  0  0  0  0  0  0  0  0  0  0  0
  1  2  1  0
  1 29  1  0
  1 30  1  0
  1 31  1  0
  2 28  2  0
  2  3  1  0
  3  4  2  0
  3 32  1  0
  4  5  1  0
  4 33  1  0
  5  6  2  0
  6 28  1  0
  6  7  1  0
  7 12  1  0
  7  8  1  0
  8  9  2  0
  8 10  1  0
 10 26  1  0
 10 34  1  6
 10 11  1  0
 11 14  1  0
 11 35  1  6
 11 12  1  0
 12 13  2  0
 14 27  1  0
 14 15  1  1
 14 24  1  0
 15 16  1  0
 15 36  1  0
 15 37  1  0
 17 16  1  6
 16 38  1  0
 16 56  1  0
 17 21  1  0
 17 23  1  0
 17 18  1  0
 18 19  1  0
 18 39  1  0
 18 40  1  0
 19 20  1  0
 19 41  1  0
 19 42  1  0
 20 21  1  0
 20 43  1  0
 20 44  1  0
 21 22  1  0
 21 45  1  1
 22 23  1  0
 22 46  1  0
 22 47  1  0
 23 48  1  0
 23 49  1  0
 24 25  2  0
 24 50  1  0
 25 26  1  0
 25 51  1  0
 26 27  1  0
 26 52  1  6
 27 53  1  0
 27 54  1  0
 28 55  1  0
M  CHG  1  16   1
M  END
>  <i_m_ct_stereo_status>  (409) 
1

>  <s_m_source_file>  (409) 
/var/tmp/pbs.5076255.sched01/tmpl4jv_xt6/1264eazgjw7.sdf

>  <i_m_source_file_index>  (409) 
34

>  <i_lp_mmshare_version>  (409) 
48012

>  <i_f3d_flags>  (409) 
0

>  <s_epik_input>  (409) 
W0NIM11jMVtjSF1bY0hdbmMoW2NIXTEpLW4oYzJbT0hdKWMoW09IXSljKFtDQEhdKFtDSDJdMylbQ0hdPVtDSF00KWMyW0NAQF0zNFtDSDJdW05IXVtDQEBdNTZbQ0BIXShbQ0gyXVtDSDJdNilbQ0gyXVtDSDJdW0NIMl01

>  <s_epik_cmdline>  (409) 
J2VwaWtfcHl0aG9uJywgJy1waHQnLCAnMi4wJywgJy1waCcsICc3LjAnLCAnLXRuJywgJzgnLCAnLW1hJywgJzIwMCcsICctaW1hZScsICc8aW5maWxlLm1hZT4nLCAnLW9tYWUnLCAnPG91dGZpbGUubWFlPic=

>  <r_lp_tautomer_probability>  (409) 
1

>  <r_epik_Ionization_Penalty>  (409) 
0.00736564

>  <r_epik_Ionization_Penalty_Charging>  (409) 
0.000243838

>  <r_epik_Ionization_Penalty_Neutral>  (409) 
0.00712181

>  <r_epik_State_Penalty>  (409) 
0.00530435

>  <r_epik_Charging_Adjusted_Penalty>  (409) 
0.00554819

>  <i_epik_Tot_Q>  (409) 
1

>  <i_epik_Tot_abs_Q>  (409) 
1

>  <s_lp_Force_Field>  (409) 
OPLS3e

>  <r_lp_Energy>  (409) 
64.9706

>  <b_lp_Chiralities_Consistent>  (409) 
1

>  <s_lp_Variant>  (409) 
116:0-2

>  <s_i_glide_gridfile>  (409) 
pfpi4k_grid

>  <i_i_glide_lignum>  (409) 
34

>  <i_i_glide_rotatable_bonds>  (409) 
4

>  <r_i_docking_score>  (409) 
-3.09907

>  <r_i_glide_ligand_efficiency>  (409) 
-0.110681

>  <r_i_glide_ligand_efficiency_sa>  (409) 
-0.336093

>  <r_i_glide_ligand_efficiency_ln>  (409) 
-0.715357

>  <r_i_glide_gscore>  (409) 
-3.09907

>  <r_i_glide_lipo>  (409) 
-0.470457

>  <r_i_glide_hbond>  (409) 
0

>  <r_i_glide_metal>  (409) 
-0

>  <r_i_glide_rewards>  (409) 
-1.44334

>  <r_i_glide_evdw>  (409) 
-25.5769

>  <r_i_glide_ecoul>  (409) 
-2.91924

>  <r_i_glide_erotb>  (409) 
0.541133

>  <r_i_glide_esite>  (409) 
-0.00967923

>  <r_i_glide_emodel>  (409) 
-40.2904

>  <r_i_glide_energy>  (409) 
-28.4962

>  <r_i_glide_einternal>  (409) 
0.210021

>  <r_i_glide_intrahb_reward>  (409) 
-0.5

>  <i_i_glide_confnum>  (409) 
1

>  <i_i_glide_posenum>  (409) 
4

>  <r_i_glide_eff_state_penalty>  (409) 
0

>  <ligand_id>  (409) 
116

>  <original_smiles>  (409) 
Cc1ccnc(-n2c(O)c3c(c2O)C2(CNC45CCCC4CC5)C=CC3C2)c1

>  <smiles>  (409) 
[H]C1=C([H])C2(C([H])([H])[N+]([H])([H])C34C([H])([H])C([H])([H])C([H])([H])C3([H])C([H])([H])C4([H])[H])C([H])([H])C1([H])C1([H])C(=O)N(c3nc([H])c([H])c(C([H])([H])[H])c3[H])C(=O)C12[H]

$$$$
116:1:2
     RDKit          3D

 56 61  0  0  1  0  0  0  0  0999 V2000
    3.4004    0.4264    1.2925 C   0  0  0  0  0  0  0  0  0  0  0  0
    3.8255   -0.7402    2.1519 C   0  0  0  0  0  0  0  0  0  0  0  0
    4.1131   -0.5730    3.5206 C   0  0  0  0  0  0  0  0  0  0  0  0
    4.5024   -1.7052    4.2601 C   0  0  0  0  0  0  0  0  0  0  0  0
    4.6110   -2.9376    3.7246 N   0  0  0  0  0  0  0  0  0  0  0  0
    4.3385   -3.1002    2.4095 C   0  0  0  0  0  0  0  0  0  0  0  0
    4.4430   -4.3711    1.8042 N   0  0  0  0  0  0  0  0  0  0  0  0
    5.5496   -4.7953    1.1703 C   0  0  0  0  0  0  0  0  0  0  0  0
    6.5795   -4.1534    0.9675 O   0  0  0  0  0  0  0  0  0  0  0  0
    5.3722   -6.2316    0.6925 C   0  0  2  0  0  0  0  0  0  0  0  0
    3.9663   -6.6005    1.2134 C   0  0  2  0  0  0  0  0  0  0  0  0
    3.5128   -5.3302    1.9144 C   0  0  0  0  0  0  0  0  0  0  0  0
    2.4227   -5.2707    2.4927 O   0  0  0  0  0  0  0  0  0  0  0  0
    4.2140   -7.8519    2.1167 C   0  0  2  0  0  0  0  0  0  0  0  0
    2.9766   -8.7303    2.4423 C   0  0  0  0  0  0  0  0  0  0  0  0
    2.0631   -8.0964    3.4358 N   0  0  0  0  0  0  0  0  0  0  0  0
    0.7370   -8.7513    3.6175 C   0  0  2  0  0  0  0  0  0  0  0  0
   -0.1301   -8.7088    2.3591 C   0  0  0  0  0  0  0  0  0  0  0  0
   -1.4061   -7.9344    2.7352 C   0  0  0  0  0  0  0  0  0  0  0  0
   -1.5408   -8.0798    4.2543 C   0  0  0  0  0  0  0  0  0  0  0  0
   -0.1034   -8.1467    4.7514 C   0  0  1  0  0  0  0  0  0  0  0  0
    0.3346   -9.2736    5.6876 C   0  0  0  0  0  0  0  0  0  0  0  0
    0.8113  -10.0458    4.4551 C   0  0  0  0  0  0  0  0  0  0  0  0
    5.0773   -7.4717    3.3116 C   0  0  0  0  0  0  0  0  0  0  0  0
    6.2920   -7.1635    2.8517 C   0  0  0  0  0  0  0  0  0  0  0  0
    6.2700   -7.3180    1.3445 C   0  0  1  0  0  0  0  0  0  0  0  0
    5.3018   -8.5070    1.2422 C   0  0  0  0  0  0  0  0  0  0  0  0
    3.9428   -2.0224    1.5896 C   0  0  0  0  0  0  0  0  0  0  0  0
    3.3766    1.3483    1.8687 H   0  0  0  0  0  0  0  0  0  0  0  0
    2.4049    0.2547    0.8799 H   0  0  0  0  0  0  0  0  0  0  0  0
    4.1083    0.5536    0.4747 H   0  0  0  0  0  0  0  0  0  0  0  0
    4.0368    0.3947    3.9932 H   0  0  0  0  0  0  0  0  0  0  0  0
    4.7308   -1.6231    5.3136 H   0  0  0  0  0  0  0  0  0  0  0  0
    5.4102   -6.2566   -0.3949 H   0  0  0  0  0  0  0  0  0  0  0  0
    3.2912   -6.8105    0.3870 H   0  0  0  0  0  0  0  0  0  0  0  0
    2.4512   -8.9437    1.5115 H   0  0  0  0  0  0  0  0  0  0  0  0
    3.2974   -9.6969    2.8309 H   0  0  0  0  0  0  0  0  0  0  0  0
    2.5273   -8.0782    4.3334 H   0  0  0  0  0  0  0  0  0  0  0  0
    0.3496   -8.2461    1.4955 H   0  0  0  0  0  0  0  0  0  0  0  0
   -0.4059   -9.7236    2.0694 H   0  0  0  0  0  0  0  0  0  0  0  0
   -1.2510   -6.8792    2.5044 H   0  0  0  0  0  0  0  0  0  0  0  0
   -2.2876   -8.2720    2.1872 H   0  0  0  0  0  0  0  0  0  0  0  0
   -2.1261   -7.2739    4.7023 H   0  0  0  0  0  0  0  0  0  0  0  0
   -2.0639   -9.0175    4.4618 H   0  0  0  0  0  0  0  0  0  0  0  0
    0.2720   -7.1800    5.0847 H   0  0  0  0  0  0  0  0  0  0  0  0
    1.1495   -8.9865    6.3547 H   0  0  0  0  0  0  0  0  0  0  0  0
   -0.4858   -9.7517    6.2320 H   0  0  0  0  0  0  0  0  0  0  0  0
    0.0686  -10.7843    4.1474 H   0  0  0  0  0  0  0  0  0  0  0  0
    1.7961  -10.4974    4.5749 H   0  0  0  0  0  0  0  0  0  0  0  0
    4.7507   -7.4592    4.3432 H   0  0  0  0  0  0  0  0  0  0  0  0
    7.1490   -6.8355    3.4212 H   0  0  0  0  0  0  0  0  0  0  0  0
    7.2451   -7.4734    0.8865 H   0  0  0  0  0  0  0  0  0  0  0  0
    5.7105   -9.4235    1.6733 H   0  0  0  0  0  0  0  0  0  0  0  0
    4.9826   -8.7232    0.2204 H   0  0  0  0  0  0  0  0  0  0  0  0
    3.7282   -2.1827    0.5408 H   0  0  0  0  0  0  0  0  0  0  0  0
    1.8965   -7.1412    3.1426 H   0  0  0  0  0  0  0  0  0  0  0  0
  1  2  1  0
  1 29  1  0
  1 30  1  0
  1 31  1  0
  2 28  2  0
  2  3  1  0
  3  4  2  0
  3 32  1  0
  4  5  1  0
  4 33  1  0
  5  6  2  0
  6 28  1  0
  6  7  1  0
  7 12  1  0
  7  8  1  0
  8  9  2  0
  8 10  1  0
 10 26  1  0
 10 34  1  6
 10 11  1  0
 11 14  1  0
 11 35  1  6
 11 12  1  0
 12 13  2  0
 14 27  1  0
 14 15  1  1
 14 24  1  0
 15 16  1  0
 15 36  1  0
 15 37  1  0
 17 16  1  6
 16 38  1  0
 16 56  1  0
 17 21  1  0
 17 23  1  0
 17 18  1  0
 18 19  1  0
 18 39  1  0
 18 40  1  0
 19 20  1  0
 19 41  1  0
 19 42  1  0
 20 21  1  0
 20 43  1  0
 20 44  1  0
 21 22  1  0
 21 45  1  1
 22 23  1  0
 22 46  1  0
 22 47  1  0
 23 48  1  0
 23 49  1  0
 24 25  2  0
 24 50  1  0
 25 26  1  0
 25 51  1  0
 26 27  1  0
 26 52  1  6
 27 53  1  0
 27 54  1  0
 28 55  1  0
M  CHG  1  16   1
M  END
>  <i_m_ct_stereo_status>  (410) 
1

>  <s_m_source_file>  (410) 
/var/tmp/pbs.5076255.sched01/tmpl4jv_xt6/1264eazgjw7.sdf

>  <i_m_source_file_index>  (410) 
34

>  <i_lp_mmshare_version>  (410) 
48012

>  <i_f3d_flags>  (410) 
0

>  <s_epik_input>  (410) 
W0NIM11jMVtjSF1bY0hdbmMoW2NIXTEpLW4oYzJbT0hdKWMoW09IXSljKFtDQEhdKFtDSDJdMylbQ0hdPVtDSF00KWMyW0NAQF0zNFtDSDJdW05IXVtDQEBdNTZbQ0BIXShbQ0gyXVtDSDJdNilbQ0gyXVtDSDJdW0NIMl01

>  <s_epik_cmdline>  (410) 
J2VwaWtfcHl0aG9uJywgJy1waHQnLCAnMi4wJywgJy1waCcsICc3LjAnLCAnLXRuJywgJzgnLCAnLW1hJywgJzIwMCcsICctaW1hZScsICc8aW5maWxlLm1hZT4nLCAnLW9tYWUnLCAnPG91dGZpbGUubWFlPic=

>  <r_lp_tautomer_probability>  (410) 
1

>  <r_epik_Ionization_Penalty>  (410) 
0.00736564

>  <r_epik_Ionization_Penalty_Charging>  (410) 
0.000243838

>  <r_epik_Ionization_Penalty_Neutral>  (410) 
0.00712181

>  <r_epik_State_Penalty>  (410) 
0.00530435

>  <r_epik_Charging_Adjusted_Penalty>  (410) 
0.00554819

>  <i_epik_Tot_Q>  (410) 
1

>  <i_epik_Tot_abs_Q>  (410) 
1

>  <s_lp_Force_Field>  (410) 
OPLS3e

>  <r_lp_Energy>  (410) 
64.9706

>  <b_lp_Chiralities_Consistent>  (410) 
1

>  <s_lp_Variant>  (410) 
116:0-2

>  <s_i_glide_gridfile>  (410) 
pfpi4k_grid

>  <i_i_glide_lignum>  (410) 
34

>  <i_i_glide_rotatable_bonds>  (410) 
4

>  <r_i_docking_score>  (410) 
-3.05024

>  <r_i_glide_ligand_efficiency>  (410) 
-0.108937

>  <r_i_glide_ligand_efficiency_sa>  (410) 
-0.330798

>  <r_i_glide_ligand_efficiency_ln>  (410) 
-0.704086

>  <r_i_glide_gscore>  (410) 
-3.05024

>  <r_i_glide_lipo>  (410) 
-0.495188

>  <r_i_glide_hbond>  (410) 
0

>  <r_i_glide_metal>  (410) 
-0

>  <r_i_glide_rewards>  (410) 
-1.44652

>  <r_i_glide_evdw>  (410) 
-25.0968

>  <r_i_glide_ecoul>  (410) 
-2.59351

>  <r_i_glide_erotb>  (410) 
0.541133

>  <r_i_glide_esite>  (410) 
-0.00580518

>  <r_i_glide_emodel>  (410) 
-39.2749

>  <r_i_glide_energy>  (410) 
-27.6903

>  <r_i_glide_einternal>  (410) 
0.732461

>  <r_i_glide_intrahb_reward>  (410) 
-0.5

>  <i_i_glide_confnum>  (410) 
4

>  <i_i_glide_posenum>  (410) 
28

>  <r_i_glide_eff_state_penalty>  (410) 
0

>  <ligand_id>  (410) 
116

>  <original_smiles>  (410) 
Cc1ccnc(-n2c(O)c3c(c2O)C2(CNC45CCCC4CC5)C=CC3C2)c1

>  <smiles>  (410) 
[H]C1=C([H])C2(C([H])([H])[N+]([H])([H])C34C([H])([H])C([H])([H])C([H])([H])C3([H])C([H])([H])C4([H])[H])C([H])([H])C1([H])C1([H])C(=O)N(c3nc([H])c([H])c(C([H])([H])[H])c3[H])C(=O)C12[H]

$$$$
117:0:0
     RDKit          3D

 69 75  0  0  1  0  0  0  0  0999 V2000
    0.5362    3.0783    4.0976 C   0  0  0  0  0  0  0  0  0  0  0  0
    0.2348    1.8528    4.9424 C   0  0  0  0  0  0  0  0  0  0  0  0
    0.6308    0.5926    4.8116 C   0  0  0  0  0  0  0  0  0  0  0  0
    0.0162   -0.2424    5.8727 C   0  0  2  0  0  0  0  0  0  0  0  0
   -0.2909   -1.5390    5.1320 C   0  0  0  0  0  0  0  0  0  0  0  0
    0.8806   -1.7067    4.1226 C   0  0  1  0  0  0  0  0  0  0  0  0
    1.3625   -0.2520    3.7763 C   0  0  1  0  0  0  0  0  0  0  0  0
    0.9318    0.1240    2.3344 C   0  0  0  0  0  0  0  0  0  0  0  0
    2.8811   -0.0625    3.9297 C   0  0  0  0  0  0  0  0  0  0  0  0
    3.3866    0.9175    4.4617 O   0  0  0  0  0  0  0  0  0  0  0  0
    3.7379   -1.1798    3.3288 C   0  0  0  0  0  0  0  0  0  0  0  0
    3.3006   -2.6062    3.7864 C   0  0  2  0  0  0  0  0  0  0  0  0
    3.1522   -3.7146    2.7023 C   0  0  1  0  0  0  0  0  0  0  0  0
    2.5014   -4.8303    3.5095 C   0  0  0  0  0  0  0  0  0  0  0  0
    1.5502   -4.1611    4.5129 C   0  0  0  0  0  0  0  0  0  0  0  0
    1.9975   -2.6867    4.6199 C   0  0  2  0  0  0  0  0  0  0  0  0
    2.3101   -2.4367    5.9810 O   0  0  0  0  0  0  0  0  0  0  0  0
    2.2952   -3.3660    1.6271 O   0  0  0  0  0  0  0  0  0  0  0  0
    2.9263   -2.2847    0.7957 O   0  0  0  0  0  0  0  0  0  0  0  0
    4.1997   -2.7539    0.3098 C   0  0  1  0  0  0  0  0  0  0  0  0
    4.0447   -3.8416   -0.7313 C   0  0  0  0  0  0  0  0  0  0  0  0
    4.1019   -3.0534   -2.0729 C   0  0  0  0  0  0  0  0  0  0  0  0
    4.2950   -1.5899   -1.6560 C   0  0  0  0  0  0  0  0  0  0  0  0
    4.8622   -1.6336   -0.3316 N   0  0  0  0  0  0  0  0  0  0  0  0
    5.0925   -3.1180    1.4148 O   0  0  0  0  0  0  0  0  0  0  0  0
    4.3816   -4.1953    2.2135 O   0  0  0  0  0  0  0  0  0  0  0  0
   -1.0839    0.5402    6.3209 O   0  0  0  0  0  0  0  0  0  0  0  0
   -0.7450    1.8956    6.1030 C   0  0  2  0  0  0  0  0  0  0  0  0
   -2.0355    2.6861    5.8241 C   0  0  0  0  0  0  0  0  0  0  0  0
   -2.9170    2.6822    7.0867 C   0  0  0  0  0  0  0  0  0  0  0  0
   -2.1331    3.1911    8.3036 C   0  0  1  0  0  0  0  0  0  0  0  0
   -2.9680    3.0939    9.5905 C   0  0  0  0  0  0  0  0  0  0  0  0
   -0.8265    2.3953    8.4338 C   0  0  0  0  0  0  0  0  0  0  0  0
   -0.0906    2.4585    7.2180 O   0  0  0  0  0  0  0  0  0  0  0  0
    0.8569    3.8847    4.7539 H   0  0  0  0  0  0  0  0  0  0  0  0
   -0.3484    3.4207    3.5598 H   0  0  0  0  0  0  0  0  0  0  0  0
    1.3361    2.9038    3.3770 H   0  0  0  0  0  0  0  0  0  0  0  0
    0.7553   -0.3709    6.6596 H   0  0  0  0  0  0  0  0  0  0  0  0
   -0.4227   -2.3811    5.8215 H   0  0  0  0  0  0  0  0  0  0  0  0
   -1.2289   -1.4173    4.5892 H   0  0  0  0  0  0  0  0  0  0  0  0
    0.4598   -2.1582    3.2166 H   0  0  0  0  0  0  0  0  0  0  0  0
    1.2705    1.1086    2.0222 H   0  0  0  0  0  0  0  0  0  0  0  0
   -0.1520    0.0947    2.2042 H   0  0  0  0  0  0  0  0  0  0  0  0
    1.3408   -0.5814    1.6137 H   0  0  0  0  0  0  0  0  0  0  0  0
    3.6032   -1.0319    2.2703 H   0  0  0  0  0  0  0  0  0  0  0  0
    4.8044   -1.0263    3.5513 H   0  0  0  0  0  0  0  0  0  0  0  0
    4.0961   -2.9649    4.4486 H   0  0  0  0  0  0  0  0  0  0  0  0
    2.0054   -5.5702    2.8856 H   0  0  0  0  0  0  0  0  0  0  0  0
    3.2663   -5.3543    4.0790 H   0  0  0  0  0  0  0  0  0  0  0  0
    0.5179   -4.2532    4.1734 H   0  0  0  0  0  0  0  0  0  0  0  0
    1.5857   -4.6789    5.4769 H   0  0  0  0  0  0  0  0  0  0  0  0
    2.6678   -1.5644    6.0598 H   0  0  0  0  0  0  0  0  0  0  0  0
    4.8463   -4.5701   -0.7156 H   0  0  0  0  0  0  0  0  0  0  0  0
    3.0903   -4.3269   -0.6591 H   0  0  0  0  0  0  0  0  0  0  0  0
    4.9415   -3.4240   -2.6593 H   0  0  0  0  0  0  0  0  0  0  0  0
    3.1800   -3.1646   -2.6527 H   0  0  0  0  0  0  0  0  0  0  0  0
    4.9639   -1.0705   -2.3509 H   0  0  0  0  0  0  0  0  0  0  0  0
    3.3464   -1.0480   -1.6358 H   0  0  0  0  0  0  0  0  0  0  0  0
    5.8161   -1.9106   -0.3909 H   0  0  0  0  0  0  0  0  0  0  0  0
   -1.7874    3.7095    5.5417 H   0  0  0  0  0  0  0  0  0  0  0  0
   -2.5602    2.2197    4.9872 H   0  0  0  0  0  0  0  0  0  0  0  0
   -3.7768    3.3102    6.9250 H   0  0  0  0  0  0  0  0  0  0  0  0
   -3.2942    1.6791    7.2783 H   0  0  0  0  0  0  0  0  0  0  0  0
   -1.8751    4.2369    8.1366 H   0  0  0  0  0  0  0  0  0  0  0  0
   -3.2324    2.0612    9.8143 H   0  0  0  0  0  0  0  0  0  0  0  0
   -3.9002    3.6549    9.5089 H   0  0  0  0  0  0  0  0  0  0  0  0
   -2.4207    3.4732   10.4550 H   0  0  0  0  0  0  0  0  0  0  0  0
   -0.2008    2.8081    9.2243 H   0  0  0  0  0  0  0  0  0  0  0  0
   -1.0158    1.3543    8.6918 H   0  0  0  0  0  0  0  0  0  0  0  0
  1  2  1  0
  1 35  1  0
  1 36  1  0
  1 37  1  0
  2 28  1  0
  2  3  2  0
  3  7  1  0
  3  4  1  0
  4  5  1  0
  4 27  1  0
  4 38  1  1
  5  6  1  0
  5 39  1  0
  5 40  1  0
  6 16  1  0
  6  7  1  0
  6 41  1  6
  7  8  1  6
  7  9  1  0
  8 42  1  0
  8 43  1  0
  8 44  1  0
  9 10  2  0
  9 11  1  0
 11 12  1  0
 11 45  1  0
 11 46  1  0
 12 16  1  0
 12 13  1  0
 12 47  1  1
 13 26  1  6
 13 14  1  0
 13 18  1  0
 14 15  1  0
 14 48  1  0
 14 49  1  0
 15 16  1  0
 15 50  1  0
 15 51  1  0
 16 17  1  1
 17 52  1  0
 18 19  1  0
 20 19  1  1
 20 24  1  0
 20 21  1  0
 20 25  1  0
 21 22  1  0
 21 53  1  0
 21 54  1  0
 22 23  1  0
 22 55  1  0
 22 56  1  0
 23 24  1  0
 23 57  1  0
 23 58  1  0
 24 59  1  0
 25 26  1  0
 28 27  1  1
 28 34  1  0
 28 29  1  0
 29 30  1  0
 29 60  1  0
 29 61  1  0
 30 31  1  0
 30 62  1  0
 30 63  1  0
 31 32  1  0
 31 33  1  0
 31 64  1  6
 32 65  1  0
 32 66  1  0
 32 67  1  0
 33 34  1  0
 33 68  1  0
 33 69  1  0
M  END
>  <i_m_ct_stereo_status>  (411) 
1

>  <s_m_source_file>  (411) 
/var/tmp/pbs.5076255.sched01/tmpl4jv_xt6/1264eazgjw7.sdf

>  <i_m_source_file_index>  (411) 
35

>  <i_lp_mmshare_version>  (411) 
48012

>  <i_f3d_flags>  (411) 
0

>  <s_epik_input>  (411) 
TzFbQ0gyXVtDQEhdKFtDSDNdKVtDSDJdW0NIMl1bQ0BdMShDPTJbQ0gzXSlPW0NAQEhdKFtDSDJdMylDMltDQEBdKFtDSDNdKShDKD1PKVtDSDJdNClbQ0BIXTNbQ0BAXShbT0hdKShbQ0gyXVtDSDJdNSlbQ0BIXTRbQ0BdNTZPT1tDQEBdNyhPTzYpW0NIMl1bQ0gyXVtDSDJdW05IXTc=

>  <s_epik_cmdline>  (411) 
J2VwaWtfcHl0aG9uJywgJy1waHQnLCAnMi4wJywgJy1waCcsICc3LjAnLCAnLXRuJywgJzgnLCAnLW1hJywgJzIwMCcsICctaW1hZScsICc8aW5maWxlLm1hZT4nLCAnLW9tYWUnLCAnPG91dGZpbGUubWFlPic=

>  <r_lp_tautomer_probability>  (411) 
1

>  <r_epik_Ionization_Penalty>  (411) 
0.00025676

>  <r_epik_Ionization_Penalty_Charging>  (411) 
0

>  <r_epik_Ionization_Penalty_Neutral>  (411) 
0.00025676

>  <r_epik_State_Penalty>  (411) 
-0

>  <r_epik_Charging_Adjusted_Penalty>  (411) 
0

>  <i_epik_Tot_Q>  (411) 
0

>  <i_epik_Tot_abs_Q>  (411) 
0

>  <s_lp_Force_Field>  (411) 
OPLS3e

>  <r_lp_Energy>  (411) 
19.6963

>  <b_lp_Chiralities_Consistent>  (411) 
1

>  <s_lp_Variant>  (411) 
117:0-1

>  <s_i_glide_gridfile>  (411) 
pfpi4k_grid

>  <i_i_glide_lignum>  (411) 
35

>  <i_i_glide_rotatable_bonds>  (411) 
1

>  <r_i_docking_score>  (411) 
-2.19789

>  <r_i_glide_ligand_efficiency>  (411) 
-0.0646437

>  <r_i_glide_ligand_efficiency_sa>  (411) 
-0.20942

>  <r_i_glide_ligand_efficiency_ln>  (411) 
-0.485574

>  <r_i_glide_gscore>  (411) 
-2.19789

>  <r_i_glide_lipo>  (411) 
-0.286908

>  <r_i_glide_hbond>  (411) 
-0.00611533

>  <r_i_glide_metal>  (411) 
-0

>  <r_i_glide_rewards>  (411) 
-0.153149

>  <r_i_glide_evdw>  (411) 
-31.9487

>  <r_i_glide_ecoul>  (411) 
-0.954559

>  <r_i_glide_erotb>  (411) 
0

>  <r_i_glide_esite>  (411) 
-0.0110919

>  <r_i_glide_emodel>  (411) 
-36.7057

>  <r_i_glide_energy>  (411) 
-32.9033

>  <r_i_glide_einternal>  (411) 
0.0135372

>  <r_i_glide_intrahb_reward>  (411) 
-0

>  <i_i_glide_confnum>  (411) 
4

>  <i_i_glide_posenum>  (411) 
33

>  <r_i_glide_eff_state_penalty>  (411) 
0

>  <ligand_id>  (411) 
117

>  <original_smiles>  (411) 
CC1=C2C(CC3C2(C)C(=O)CC2C4(CCC23O)OOC2(CCCN2)OO4)OC12CCC(C)CO2

>  <smiles>  (411) 
[H]OC12C([H])([H])C([H])([H])C3(OOC4(OO3)N([H])C([H])([H])C([H])([H])C4([H])[H])C1([H])C([H])([H])C(=O)C1(C([H])([H])[H])C3=C(C([H])([H])[H])C4(OC([H])([H])C([H])(C([H])([H])[H])C([H])([H])C4([H])[H])OC3([H])C([H])([H])C12[H]

$$$$
117:0:1
     RDKit          3D

 69 75  0  0  1  0  0  0  0  0999 V2000
    0.5202    3.0716    4.0894 C   0  0  0  0  0  0  0  0  0  0  0  0
    0.2283    1.8479    4.9408 C   0  0  0  0  0  0  0  0  0  0  0  0
    0.6260    0.5883    4.8134 C   0  0  0  0  0  0  0  0  0  0  0  0
    0.0207   -0.2442    5.8812 C   0  0  2  0  0  0  0  0  0  0  0  0
   -0.2902   -1.5440    5.1473 C   0  0  0  0  0  0  0  0  0  0  0  0
    0.8759   -1.7154    4.1317 C   0  0  1  0  0  0  0  0  0  0  0  0
    1.3530   -0.2602    3.7782 C   0  0  1  0  0  0  0  0  0  0  0  0
    0.9132    0.1107    2.3376 C   0  0  0  0  0  0  0  0  0  0  0  0
    2.8722   -0.0657    3.9232 C   0  0  0  0  0  0  0  0  0  0  0  0
    3.3795    0.9282    4.4261 O   0  0  0  0  0  0  0  0  0  0  0  0
    3.7254   -1.1837    3.3183 C   0  0  0  0  0  0  0  0  0  0  0  0
    3.2959   -2.6095    3.7842 C   0  0  2  0  0  0  0  0  0  0  0  0
    3.1418   -3.7211    2.7025 C   0  0  1  0  0  0  0  0  0  0  0  0
    2.4990   -4.8361    3.5180 C   0  0  0  0  0  0  0  0  0  0  0  0
    1.5537   -4.1674    4.5289 C   0  0  0  0  0  0  0  0  0  0  0  0
    1.9972   -2.6888    4.6270 C   0  0  2  0  0  0  0  0  0  0  0  0
    2.3106   -2.4072    5.9838 O   0  0  0  0  0  0  0  0  0  0  0  0
    2.2778   -3.3785    1.6308 O   0  0  0  0  0  0  0  0  0  0  0  0
    2.9010   -2.2988    0.7928 O   0  0  0  0  0  0  0  0  0  0  0  0
    4.1713   -2.7661    0.2986 C   0  0  1  0  0  0  0  0  0  0  0  0
    4.0117   -3.8574   -0.7370 C   0  0  0  0  0  0  0  0  0  0  0  0
    4.0582   -3.0722   -2.0829 C   0  0  0  0  0  0  0  0  0  0  0  0
    4.2509   -1.6091   -1.6725 C   0  0  0  0  0  0  0  0  0  0  0  0
    4.8272   -1.6467   -0.3518 N   0  0  0  0  0  0  0  0  0  0  0  0
    5.0716   -3.1237    1.3996 O   0  0  0  0  0  0  0  0  0  0  0  0
    4.3687   -4.2005    2.2059 O   0  0  0  0  0  0  0  0  0  0  0  0
   -1.0786    0.5382    6.3330 O   0  0  0  0  0  0  0  0  0  0  0  0
   -0.7443    1.8938    6.1071 C   0  0  2  0  0  0  0  0  0  0  0  0
   -2.0377    2.6818    5.8317 C   0  0  0  0  0  0  0  0  0  0  0  0
   -2.9120    2.6803    7.0980 C   0  0  0  0  0  0  0  0  0  0  0  0
   -2.1221    3.1924    8.3112 C   0  0  1  0  0  0  0  0  0  0  0  0
   -2.9475    3.0990    9.6046 C   0  0  0  0  0  0  0  0  0  0  0  0
   -0.8121    2.4014    8.4363 C   0  0  0  0  0  0  0  0  0  0  0  0
   -0.0845    2.4635    7.2155 O   0  0  0  0  0  0  0  0  0  0  0  0
    0.8435    3.8810    4.7404 H   0  0  0  0  0  0  0  0  0  0  0  0
   -0.3684    3.4111    3.5562 H   0  0  0  0  0  0  0  0  0  0  0  0
    1.3158    2.8968    3.3640 H   0  0  0  0  0  0  0  0  0  0  0  0
    0.7678   -0.3675    6.6611 H   0  0  0  0  0  0  0  0  0  0  0  0
   -0.4165   -2.3836    5.8414 H   0  0  0  0  0  0  0  0  0  0  0  0
   -1.2302   -1.4255    4.6086 H   0  0  0  0  0  0  0  0  0  0  0  0
    0.4510   -2.1717    3.2317 H   0  0  0  0  0  0  0  0  0  0  0  0
    1.2474    1.0950    2.0193 H   0  0  0  0  0  0  0  0  0  0  0  0
   -0.1711    0.0796    2.2138 H   0  0  0  0  0  0  0  0  0  0  0  0
    1.3183   -0.5958    1.6156 H   0  0  0  0  0  0  0  0  0  0  0  0
    3.5796   -1.0387    2.2612 H   0  0  0  0  0  0  0  0  0  0  0  0
    4.7933   -1.0263    3.5306 H   0  0  0  0  0  0  0  0  0  0  0  0
    4.1010   -2.9621    4.4373 H   0  0  0  0  0  0  0  0  0  0  0  0
    2.0011   -5.5790    2.8982 H   0  0  0  0  0  0  0  0  0  0  0  0
    3.2703   -5.3581    4.0808 H   0  0  0  0  0  0  0  0  0  0  0  0
    0.5208   -4.2604    4.1913 H   0  0  0  0  0  0  0  0  0  0  0  0
    1.5911   -4.6877    5.4906 H   0  0  0  0  0  0  0  0  0  0  0  0
    2.9806   -3.0078    6.2760 H   0  0  0  0  0  0  0  0  0  0  0  0
    4.8153   -4.5844   -0.7236 H   0  0  0  0  0  0  0  0  0  0  0  0
    3.0587   -4.3440   -0.6565 H   0  0  0  0  0  0  0  0  0  0  0  0
    4.8944   -3.4450   -2.6725 H   0  0  0  0  0  0  0  0  0  0  0  0
    3.1328   -3.1892   -2.6553 H   0  0  0  0  0  0  0  0  0  0  0  0
    4.9136   -1.0907   -2.3742 H   0  0  0  0  0  0  0  0  0  0  0  0
    3.3013   -1.0683   -1.6479 H   0  0  0  0  0  0  0  0  0  0  0  0
    5.7815   -1.9207   -0.4182 H   0  0  0  0  0  0  0  0  0  0  0  0
   -1.7936    3.7051    5.5450 H   0  0  0  0  0  0  0  0  0  0  0  0
   -2.5672    2.2107    5.0014 H   0  0  0  0  0  0  0  0  0  0  0  0
   -3.7861    3.3068    6.9422 H   0  0  0  0  0  0  0  0  0  0  0  0
   -3.2869    1.6747    7.2795 H   0  0  0  0  0  0  0  0  0  0  0  0
   -1.8667    4.2384    8.1405 H   0  0  0  0  0  0  0  0  0  0  0  0
   -3.2080    2.0668    9.8342 H   0  0  0  0  0  0  0  0  0  0  0  0
   -3.8810    3.6585    9.5277 H   0  0  0  0  0  0  0  0  0  0  0  0
   -2.3947    3.4830   10.4637 H   0  0  0  0  0  0  0  0  0  0  0  0
   -0.1825    2.8184    9.2214 H   0  0  0  0  0  0  0  0  0  0  0  0
   -0.9967    1.3609    8.6992 H   0  0  0  0  0  0  0  0  0  0  0  0
  1  2  1  0
  1 35  1  0
  1 36  1  0
  1 37  1  0
  2 28  1  0
  2  3  2  0
  3  7  1  0
  3  4  1  0
  4  5  1  0
  4 27  1  0
  4 38  1  1
  5  6  1  0
  5 39  1  0
  5 40  1  0
  6 16  1  0
  6  7  1  0
  6 41  1  6
  7  8  1  6
  7  9  1  0
  8 42  1  0
  8 43  1  0
  8 44  1  0
  9 10  2  0
  9 11  1  0
 11 12  1  0
 11 45  1  0
 11 46  1  0
 12 16  1  0
 12 13  1  0
 12 47  1  1
 13 26  1  6
 13 14  1  0
 13 18  1  0
 14 15  1  0
 14 48  1  0
 14 49  1  0
 15 16  1  0
 15 50  1  0
 15 51  1  0
 16 17  1  1
 17 52  1  0
 18 19  1  0
 20 19  1  1
 20 24  1  0
 20 21  1  0
 20 25  1  0
 21 22  1  0
 21 53  1  0
 21 54  1  0
 22 23  1  0
 22 55  1  0
 22 56  1  0
 23 24  1  0
 23 57  1  0
 23 58  1  0
 24 59  1  0
 25 26  1  0
 28 27  1  1
 28 34  1  0
 28 29  1  0
 29 30  1  0
 29 60  1  0
 29 61  1  0
 30 31  1  0
 30 62  1  0
 30 63  1  0
 31 32  1  0
 31 33  1  0
 31 64  1  6
 32 65  1  0
 32 66  1  0
 32 67  1  0
 33 34  1  0
 33 68  1  0
 33 69  1  0
M  END
>  <i_m_ct_stereo_status>  (412) 
1

>  <s_m_source_file>  (412) 
/var/tmp/pbs.5076255.sched01/tmpl4jv_xt6/1264eazgjw7.sdf

>  <i_m_source_file_index>  (412) 
35

>  <i_lp_mmshare_version>  (412) 
48012

>  <i_f3d_flags>  (412) 
0

>  <s_epik_input>  (412) 
TzFbQ0gyXVtDQEhdKFtDSDNdKVtDSDJdW0NIMl1bQ0BdMShDPTJbQ0gzXSlPW0NAQEhdKFtDSDJdMylDMltDQEBdKFtDSDNdKShDKD1PKVtDSDJdNClbQ0BIXTNbQ0BAXShbT0hdKShbQ0gyXVtDSDJdNSlbQ0BIXTRbQ0BdNTZPT1tDQEBdNyhPTzYpW0NIMl1bQ0gyXVtDSDJdW05IXTc=

>  <s_epik_cmdline>  (412) 
J2VwaWtfcHl0aG9uJywgJy1waHQnLCAnMi4wJywgJy1waCcsICc3LjAnLCAnLXRuJywgJzgnLCAnLW1hJywgJzIwMCcsICctaW1hZScsICc8aW5maWxlLm1hZT4nLCAnLW9tYWUnLCAnPG91dGZpbGUubWFlPic=

>  <r_lp_tautomer_probability>  (412) 
1

>  <r_epik_Ionization_Penalty>  (412) 
0.00025676

>  <r_epik_Ionization_Penalty_Charging>  (412) 
0

>  <r_epik_Ionization_Penalty_Neutral>  (412) 
0.00025676

>  <r_epik_State_Penalty>  (412) 
-0

>  <r_epik_Charging_Adjusted_Penalty>  (412) 
0

>  <i_epik_Tot_Q>  (412) 
0

>  <i_epik_Tot_abs_Q>  (412) 
0

>  <s_lp_Force_Field>  (412) 
OPLS3e

>  <r_lp_Energy>  (412) 
19.6963

>  <b_lp_Chiralities_Consistent>  (412) 
1

>  <s_lp_Variant>  (412) 
117:0-1

>  <s_i_glide_gridfile>  (412) 
pfpi4k_grid

>  <i_i_glide_lignum>  (412) 
35

>  <i_i_glide_rotatable_bonds>  (412) 
1

>  <r_i_docking_score>  (412) 
-2.17965

>  <r_i_glide_ligand_efficiency>  (412) 
-0.0641073

>  <r_i_glide_ligand_efficiency_sa>  (412) 
-0.207683

>  <r_i_glide_ligand_efficiency_ln>  (412) 
-0.481545

>  <r_i_glide_gscore>  (412) 
-2.17965

>  <r_i_glide_lipo>  (412) 
-0.286321

>  <r_i_glide_hbond>  (412) 
-0.00819967

>  <r_i_glide_metal>  (412) 
-0

>  <r_i_glide_rewards>  (412) 
-0.153131

>  <r_i_glide_evdw>  (412) 
-31.8333

>  <r_i_glide_ecoul>  (412) 
-0.860424

>  <r_i_glide_erotb>  (412) 
0

>  <r_i_glide_esite>  (412) 
-0.0112668

>  <r_i_glide_emodel>  (412) 
-36.4231

>  <r_i_glide_energy>  (412) 
-32.6937

>  <r_i_glide_einternal>  (412) 
0.0190904

>  <r_i_glide_intrahb_reward>  (412) 
-0

>  <i_i_glide_confnum>  (412) 
4

>  <i_i_glide_posenum>  (412) 
31

>  <r_i_glide_eff_state_penalty>  (412) 
0

>  <ligand_id>  (412) 
117

>  <original_smiles>  (412) 
CC1=C2C(CC3C2(C)C(=O)CC2C4(CCC23O)OOC2(CCCN2)OO4)OC12CCC(C)CO2

>  <smiles>  (412) 
[H]OC12C([H])([H])C([H])([H])C3(OOC4(OO3)N([H])C([H])([H])C([H])([H])C4([H])[H])C1([H])C([H])([H])C(=O)C1(C([H])([H])[H])C3=C(C([H])([H])[H])C4(OC([H])([H])C([H])(C([H])([H])[H])C([H])([H])C4([H])[H])OC3([H])C([H])([H])C12[H]

$$$$
117:0:2
     RDKit          3D

 69 75  0  0  1  0  0  0  0  0999 V2000
    1.1279    3.0597    3.9315 C   0  0  0  0  0  0  0  0  0  0  0  0
    0.6767    1.8386    4.7140 C   0  0  0  0  0  0  0  0  0  0  0  0
    0.9988    0.5555    4.5794 C   0  0  0  0  0  0  0  0  0  0  0  0
    0.2505   -0.2566    5.5679 C   0  0  2  0  0  0  0  0  0  0  0  0
   -0.0851   -1.5138    4.7721 C   0  0  0  0  0  0  0  0  0  0  0  0
    1.1493   -1.7421    3.8525 C   0  0  1  0  0  0  0  0  0  0  0  0
    1.7542   -0.3153    3.5858 C   0  0  1  0  0  0  0  0  0  0  0  0
    1.4703    0.1169    2.1223 C   0  0  0  0  0  0  0  0  0  0  0  0
    3.2666   -0.2332    3.8672 C   0  0  0  0  0  0  0  0  0  0  0  0
    3.7949    0.7101    4.4424 O   0  0  0  0  0  0  0  0  0  0  0  0
    4.0904   -1.3940    3.3063 C   0  0  0  0  0  0  0  0  0  0  0  0
    3.5225   -2.7951    3.6860 C   0  0  2  0  0  0  0  0  0  0  0  0
    3.3925   -3.8635    2.5623 C   0  0  1  0  0  0  0  0  0  0  0  0
    2.6084   -4.9538    3.2847 C   0  0  0  0  0  0  0  0  0  0  0  0
    1.6214   -4.2480    4.2269 C   0  0  0  0  0  0  0  0  0  0  0  0
    2.1530   -2.8076    4.4104 C   0  0  2  0  0  0  0  0  0  0  0  0
    2.3792   -2.5978    5.7949 O   0  0  0  0  0  0  0  0  0  0  0  0
    2.6482   -3.4358    1.4300 O   0  0  0  0  0  0  0  0  0  0  0  0
    3.4170   -2.3798    0.6808 O   0  0  0  0  0  0  0  0  0  0  0  0
    4.6964   -2.9212    0.2947 C   0  0  1  0  0  0  0  0  0  0  0  0
    4.5570   -3.9714   -0.7910 C   0  0  0  0  0  0  0  0  0  0  0  0
    4.7732   -3.1622   -2.0988 C   0  0  0  0  0  0  0  0  0  0  0  0
    5.0248   -1.7241   -1.6237 C   0  0  0  0  0  0  0  0  0  0  0  0
    5.4838   -1.8367   -0.2618 N   0  0  0  0  0  0  0  0  0  0  0  0
    5.4669   -3.3667    1.4524 O   0  0  0  0  0  0  0  0  0  0  0  0
    4.6287   -4.4126    2.1630 O   0  0  0  0  0  0  0  0  0  0  0  0
   -0.8271    0.5877    5.9522 O   0  0  0  0  0  0  0  0  0  0  0  0
   -0.3864    1.9220    5.7957 C   0  0  2  0  0  0  0  0  0  0  0  0
   -1.5996    2.8007    5.4349 C   0  0  0  0  0  0  0  0  0  0  0  0
   -2.5816    2.8328    6.6211 C   0  0  0  0  0  0  0  0  0  0  0  0
   -1.8654    3.2580    7.9112 C   0  0  1  0  0  0  0  0  0  0  0  0
   -2.8053    3.1793    9.1252 C   0  0  0  0  0  0  0  0  0  0  0  0
   -0.6268    2.3742    8.1225 C   0  0  0  0  0  0  0  0  0  0  0  0
    0.2080    2.4174    6.9724 O   0  0  0  0  0  0  0  0  0  0  0  0
    1.4454    3.8277    4.6349 H   0  0  0  0  0  0  0  0  0  0  0  0
    0.3138    3.4731    3.3353 H   0  0  0  0  0  0  0  0  0  0  0  0
    1.9706    2.8467    3.2736 H   0  0  0  0  0  0  0  0  0  0  0  0
    0.9170   -0.4507    6.4058 H   0  0  0  0  0  0  0  0  0  0  0  0
   -0.3363   -2.3587    5.4229 H   0  0  0  0  0  0  0  0  0  0  0  0
   -0.9639   -1.3136    4.1582 H   0  0  0  0  0  0  0  0  0  0  0  0
    0.7744   -2.1407    2.9023 H   0  0  0  0  0  0  0  0  0  0  0  0
    1.8944    1.0853    1.8687 H   0  0  0  0  0  0  0  0  0  0  0  0
    0.4015    0.1592    1.9026 H   0  0  0  0  0  0  0  0  0  0  0  0
    1.8884   -0.5948    1.4124 H   0  0  0  0  0  0  0  0  0  0  0  0
    4.0503   -1.2159    2.2444 H   0  0  0  0  0  0  0  0  0  0  0  0
    5.1428   -1.3169    3.6139 H   0  0  0  0  0  0  0  0  0  0  0  0
    4.2361   -3.2165    4.4027 H   0  0  0  0  0  0  0  0  0  0  0  0
    2.1202   -5.6464    2.6023 H   0  0  0  0  0  0  0  0  0  0  0  0
    3.2911   -5.5389    3.8991 H   0  0  0  0  0  0  0  0  0  0  0  0
    0.6170   -4.2621    3.8011 H   0  0  0  0  0  0  0  0  0  0  0  0
    1.5477   -4.7924    5.1731 H   0  0  0  0  0  0  0  0  0  0  0  0
    1.5571   -2.6869    6.2558 H   0  0  0  0  0  0  0  0  0  0  0  0
    5.3041   -4.7564   -0.7251 H   0  0  0  0  0  0  0  0  0  0  0  0
    3.5677   -4.3966   -0.8016 H   0  0  0  0  0  0  0  0  0  0  0  0
    5.6332   -3.5722   -2.6299 H   0  0  0  0  0  0  0  0  0  0  0  0
    3.8969   -3.2001   -2.7543 H   0  0  0  0  0  0  0  0  0  0  0  0
    5.7893   -1.2353   -2.2267 H   0  0  0  0  0  0  0  0  0  0  0  0
    4.1171   -1.1167   -1.6668 H   0  0  0  0  0  0  0  0  0  0  0  0
    6.4193   -2.1870   -0.2565 H   0  0  0  0  0  0  0  0  0  0  0  0
   -1.2627    3.8097    5.1983 H   0  0  0  0  0  0  0  0  0  0  0  0
   -2.0847    2.3865    4.5481 H   0  0  0  0  0  0  0  0  0  0  0  0
   -3.3828    3.5292    6.4002 H   0  0  0  0  0  0  0  0  0  0  0  0
   -3.0302    1.8518    6.7614 H   0  0  0  0  0  0  0  0  0  0  0  0
   -1.5269    4.2881    7.7980 H   0  0  0  0  0  0  0  0  0  0  0  0
   -3.1465    2.1580    9.2961 H   0  0  0  0  0  0  0  0  0  0  0  0
   -3.6893    3.8049    8.9881 H   0  0  0  0  0  0  0  0  0  0  0  0
   -2.3047    3.5064   10.0384 H   0  0  0  0  0  0  0  0  0  0  0  0
   -0.0429    2.7254    8.9729 H   0  0  0  0  0  0  0  0  0  0  0  0
   -0.9031    1.3425    8.3359 H   0  0  0  0  0  0  0  0  0  0  0  0
  1  2  1  0
  1 35  1  0
  1 36  1  0
  1 37  1  0
  2 28  1  0
  2  3  2  0
  3  7  1  0
  3  4  1  0
  4  5  1  0
  4 27  1  0
  4 38  1  1
  5  6  1  0
  5 39  1  0
  5 40  1  0
  6 16  1  0
  6  7  1  0
  6 41  1  6
  7  8  1  6
  7  9  1  0
  8 42  1  0
  8 43  1  0
  8 44  1  0
  9 10  2  0
  9 11  1  0
 11 12  1  0
 11 45  1  0
 11 46  1  0
 12 16  1  0
 12 13  1  0
 12 47  1  1
 13 26  1  6
 13 14  1  0
 13 18  1  0
 14 15  1  0
 14 48  1  0
 14 49  1  0
 15 16  1  0
 15 50  1  0
 15 51  1  0
 16 17  1  1
 17 52  1  0
 18 19  1  0
 20 19  1  1
 20 24  1  0
 20 21  1  0
 20 25  1  0
 21 22  1  0
 21 53  1  0
 21 54  1  0
 22 23  1  0
 22 55  1  0
 22 56  1  0
 23 24  1  0
 23 57  1  0
 23 58  1  0
 24 59  1  0
 25 26  1  0
 28 27  1  1
 28 34  1  0
 28 29  1  0
 29 30  1  0
 29 60  1  0
 29 61  1  0
 30 31  1  0
 30 62  1  0
 30 63  1  0
 31 32  1  0
 31 33  1  0
 31 64  1  6
 32 65  1  0
 32 66  1  0
 32 67  1  0
 33 34  1  0
 33 68  1  0
 33 69  1  0
M  END
>  <i_m_ct_stereo_status>  (413) 
1

>  <s_m_source_file>  (413) 
/var/tmp/pbs.5076255.sched01/tmpl4jv_xt6/1264eazgjw7.sdf

>  <i_m_source_file_index>  (413) 
35

>  <i_lp_mmshare_version>  (413) 
48012

>  <i_f3d_flags>  (413) 
0

>  <s_epik_input>  (413) 
TzFbQ0gyXVtDQEhdKFtDSDNdKVtDSDJdW0NIMl1bQ0BdMShDPTJbQ0gzXSlPW0NAQEhdKFtDSDJdMylDMltDQEBdKFtDSDNdKShDKD1PKVtDSDJdNClbQ0BIXTNbQ0BAXShbT0hdKShbQ0gyXVtDSDJdNSlbQ0BIXTRbQ0BdNTZPT1tDQEBdNyhPTzYpW0NIMl1bQ0gyXVtDSDJdW05IXTc=

>  <s_epik_cmdline>  (413) 
J2VwaWtfcHl0aG9uJywgJy1waHQnLCAnMi4wJywgJy1waCcsICc3LjAnLCAnLXRuJywgJzgnLCAnLW1hJywgJzIwMCcsICctaW1hZScsICc8aW5maWxlLm1hZT4nLCAnLW9tYWUnLCAnPG91dGZpbGUubWFlPic=

>  <r_lp_tautomer_probability>  (413) 
1

>  <r_epik_Ionization_Penalty>  (413) 
0.00025676

>  <r_epik_Ionization_Penalty_Charging>  (413) 
0

>  <r_epik_Ionization_Penalty_Neutral>  (413) 
0.00025676

>  <r_epik_State_Penalty>  (413) 
-0

>  <r_epik_Charging_Adjusted_Penalty>  (413) 
0

>  <i_epik_Tot_Q>  (413) 
0

>  <i_epik_Tot_abs_Q>  (413) 
0

>  <s_lp_Force_Field>  (413) 
OPLS3e

>  <r_lp_Energy>  (413) 
19.6963

>  <b_lp_Chiralities_Consistent>  (413) 
1

>  <s_lp_Variant>  (413) 
117:0-1

>  <s_i_glide_gridfile>  (413) 
pfpi4k_grid

>  <i_i_glide_lignum>  (413) 
35

>  <i_i_glide_rotatable_bonds>  (413) 
1

>  <r_i_docking_score>  (413) 
-2.15947

>  <r_i_glide_ligand_efficiency>  (413) 
-0.0635138

>  <r_i_glide_ligand_efficiency_sa>  (413) 
-0.20576

>  <r_i_glide_ligand_efficiency_ln>  (413) 
-0.477087

>  <r_i_glide_gscore>  (413) 
-2.15947

>  <r_i_glide_lipo>  (413) 
-0.250352

>  <r_i_glide_hbond>  (413) 
0

>  <r_i_glide_metal>  (413) 
-0

>  <r_i_glide_rewards>  (413) 
-0.176482

>  <r_i_glide_evdw>  (413) 
-32.5186

>  <r_i_glide_ecoul>  (413) 
-0.675057

>  <r_i_glide_erotb>  (413) 
0

>  <r_i_glide_esite>  (413) 
-0.0054468

>  <r_i_glide_emodel>  (413) 
-36.9051

>  <r_i_glide_energy>  (413) 
-33.1937

>  <r_i_glide_einternal>  (413) 
0.00375591

>  <r_i_glide_intrahb_reward>  (413) 
-0

>  <i_i_glide_confnum>  (413) 
4

>  <i_i_glide_posenum>  (413) 
27

>  <r_i_glide_eff_state_penalty>  (413) 
0

>  <ligand_id>  (413) 
117

>  <original_smiles>  (413) 
CC1=C2C(CC3C2(C)C(=O)CC2C4(CCC23O)OOC2(CCCN2)OO4)OC12CCC(C)CO2

>  <smiles>  (413) 
[H]OC12C([H])([H])C([H])([H])C3(OOC4(OO3)N([H])C([H])([H])C([H])([H])C4([H])[H])C1([H])C([H])([H])C(=O)C1(C([H])([H])[H])C3=C(C([H])([H])[H])C4(OC([H])([H])C([H])(C([H])([H])[H])C([H])([H])C4([H])[H])OC3([H])C([H])([H])C12[H]

$$$$
118:0:0
     RDKit          3D

 52 56  0  0  1  0  0  0  0  0999 V2000
    5.9771   -1.3822   -0.2213 C   0  0  0  0  0  0  0  0  0  0  0  0
    4.6878   -2.2268   -0.1539 C   0  0  1  0  0  0  0  0  0  0  0  0
    3.6553   -1.4715   -0.9897 C   0  0  0  0  0  0  0  0  0  0  0  0
    3.4138   -1.6725   -2.3027 C   0  0  0  0  0  0  0  0  0  0  0  0
    4.1882   -2.6627   -3.0793 C   0  0  0  0  0  0  0  0  0  0  0  0
    4.0278   -2.8422   -4.2892 O   0  0  0  0  0  0  0  0  0  0  0  0
    5.2672   -3.4650   -2.3397 C   0  0  0  0  0  0  0  0  0  0  0  0
    4.8754   -3.5683   -0.8710 C   0  0  0  0  0  0  0  0  0  0  0  0
    4.5136   -4.7469   -0.3279 C   0  0  0  0  0  0  0  0  0  0  0  0
    3.8397   -4.8993    1.0185 C   0  0  0  0  0  0  0  0  0  0  0  0
    3.2311   -3.5684    1.5233 C   0  0  2  0  0  0  0  0  0  0  0  0
    4.2130   -2.3905    1.3360 C   0  0  1  0  0  0  0  0  0  0  0  0
    5.3219   -2.5099    2.4139 C   0  0  0  0  0  0  0  0  0  0  0  0
    4.7217   -2.4730    3.8355 C   0  0  0  0  0  0  0  0  0  0  0  0
    3.6996   -3.6045    4.1480 C   0  0  2  0  0  0  0  0  0  0  0  0
    4.4487   -4.9402    4.3949 C   0  0  0  0  0  0  0  0  0  0  0  0
    2.6751   -3.6669    2.9687 C   0  0  1  0  0  0  0  0  0  0  0  0
    1.5992   -2.5989    3.2980 C   0  0  0  0  0  0  0  0  0  0  0  0
    1.5369   -2.5325    4.8047 C   0  0  1  0  0  0  0  0  0  0  0  0
    0.6114   -3.4790    5.5753 C   0  0  0  0  0  0  0  0  0  0  0  0
    1.8229   -4.3485    5.9072 C   0  0  0  0  0  0  0  0  0  0  0  0
    2.7762   -3.2576    5.3548 C   0  0  1  0  0  0  0  0  0  0  0  0
    3.4815   -2.5281    6.5370 C   0  0  0  0  0  0  0  0  0  0  0  0
    2.9546   -1.4961    7.0043 O   0  0  0  0  0  0  0  0  0  0  0  0
    4.5459   -3.0284    6.9689 O   0  0  0  0  0  0  0  0  0  0  0  0
    6.2037   -1.1098   -1.2504 H   0  0  0  0  0  0  0  0  0  0  0  0
    6.8431   -1.9128    0.1783 H   0  0  0  0  0  0  0  0  0  0  0  0
    5.8609   -0.4436    0.3249 H   0  0  0  0  0  0  0  0  0  0  0  0
    3.0538   -0.7435   -0.4598 H   0  0  0  0  0  0  0  0  0  0  0  0
    2.6428   -1.1173   -2.8138 H   0  0  0  0  0  0  0  0  0  0  0  0
    5.3437   -4.4573   -2.7804 H   0  0  0  0  0  0  0  0  0  0  0  0
    6.2343   -2.9792   -2.4525 H   0  0  0  0  0  0  0  0  0  0  0  0
    4.6137   -5.6571   -0.9052 H   0  0  0  0  0  0  0  0  0  0  0  0
    3.0421   -5.6386    0.9136 H   0  0  0  0  0  0  0  0  0  0  0  0
    4.5668   -5.3310    1.7021 H   0  0  0  0  0  0  0  0  0  0  0  0
    2.3784   -3.3716    0.8739 H   0  0  0  0  0  0  0  0  0  0  0  0
    3.6854   -1.4733    1.5853 H   0  0  0  0  0  0  0  0  0  0  0  0
    5.9192   -3.4108    2.2656 H   0  0  0  0  0  0  0  0  0  0  0  0
    6.0194   -1.6738    2.3472 H   0  0  0  0  0  0  0  0  0  0  0  0
    5.5410   -2.4976    4.5542 H   0  0  0  0  0  0  0  0  0  0  0  0
    4.2438   -1.5014    3.9676 H   0  0  0  0  0  0  0  0  0  0  0  0
    3.7950   -5.8011    4.2697 H   0  0  0  0  0  0  0  0  0  0  0  0
    4.8474   -4.9958    5.4063 H   0  0  0  0  0  0  0  0  0  0  0  0
    5.2975   -5.0704    3.7307 H   0  0  0  0  0  0  0  0  0  0  0  0
    2.1548   -4.6227    3.0469 H   0  0  0  0  0  0  0  0  0  0  0  0
    1.8890   -1.6269    2.9051 H   0  0  0  0  0  0  0  0  0  0  0  0
    0.6296   -2.8434    2.8719 H   0  0  0  0  0  0  0  0  0  0  0  0
    1.4003   -1.5119    5.1689 H   0  0  0  0  0  0  0  0  0  0  0  0
    0.1669   -3.0253    6.4611 H   0  0  0  0  0  0  0  0  0  0  0  0
   -0.1319   -3.9727    4.9476 H   0  0  0  0  0  0  0  0  0  0  0  0
    1.9169   -4.5694    6.9722 H   0  0  0  0  0  0  0  0  0  0  0  0
    1.8140   -5.2619    5.3155 H   0  0  0  0  0  0  0  0  0  0  0  0
  2  1  1  1
  1 26  1  0
  1 27  1  0
  1 28  1  0
  2  8  1  0
  2 12  1  0
  2  3  1  0
  3  4  2  0
  3 29  1  0
  4  5  1  0
  4 30  1  0
  5  6  2  0
  5  7  1  0
  7  8  1  0
  7 31  1  0
  7 32  1  0
  8  9  2  0
  9 10  1  0
  9 33  1  0
 10 11  1  0
 10 34  1  0
 10 35  1  0
 11 17  1  0
 11 12  1  0
 11 36  1  6
 12 13  1  0
 12 37  1  1
 13 14  1  0
 13 38  1  0
 13 39  1  0
 14 15  1  0
 14 40  1  0
 14 41  1  0
 15 22  1  0
 15 16  1  1
 15 17  1  0
 16 42  1  0
 16 43  1  0
 16 44  1  0
 17 18  1  0
 17 45  1  6
 18 19  1  0
 18 46  1  0
 18 47  1  0
 19 22  1  0
 19 20  1  0
 19 48  1  6
 20 21  1  0
 20 49  1  0
 20 50  1  0
 21 22  1  0
 21 51  1  0
 21 52  1  0
 22 23  1  1
 23 24  2  0
 23 25  1  0
M  CHG  1  25  -1
M  END
>  <i_m_ct_stereo_status>  (414) 
1

>  <s_m_source_file>  (414) 
/var/tmp/pbs.5076255.sched01/tmpl4jv_xt6/1264eazgjw7.sdf

>  <i_m_source_file_index>  (414) 
36

>  <i_lp_mmshare_version>  (414) 
48012

>  <i_f3d_flags>  (414) 
0

>  <s_epik_input>  (414) 
W0NIXTE9W0NIXUMoPU8pW0NIMl1DKFtDQEBdMTJbQ0gzXSk9W0NIXVtDSDJdW0NAQEhdM1tDQEhdMltDSDJdW0NIMl1bQ0BdNChbQ0gzXSlbQ0BIXTNbQ0gyXVtDQEBIXTVbQ0BdNChbQ0gyXVtDSDJdNSlDKD1PKVtPSF0=

>  <s_epik_cmdline>  (414) 
J2VwaWtfcHl0aG9uJywgJy1waHQnLCAnMi4wJywgJy1waCcsICc3LjAnLCAnLXRuJywgJzgnLCAnLW1hJywgJzIwMCcsICctaW1hZScsICc8aW5maWxlLm1hZT4nLCAnLW9tYWUnLCAnPG91dGZpbGUubWFlPic=

>  <r_epik_Ionization_Penalty>  (414) 
0.00783333

>  <r_epik_Ionization_Penalty_Charging>  (414) 
0.00783333

>  <r_epik_Ionization_Penalty_Neutral>  (414) 
0

>  <r_epik_State_Penalty>  (414) 
0.00587264

>  <r_epik_Charging_Adjusted_Penalty>  (414) 
0.013706

>  <i_epik_Tot_Q>  (414) 
-1

>  <i_epik_Tot_abs_Q>  (414) 
1

>  <s_lp_Force_Field>  (414) 
OPLS3e

>  <r_lp_Energy>  (414) 
63.3865

>  <b_lp_Chiralities_Consistent>  (414) 
1

>  <s_lp_Variant>  (414) 
118:0-1

>  <s_i_glide_gridfile>  (414) 
pfpi4k_grid

>  <i_i_glide_lignum>  (414) 
36

>  <i_i_glide_rotatable_bonds>  (414) 
1

>  <r_i_docking_score>  (414) 
-3.61045

>  <r_i_glide_ligand_efficiency>  (414) 
-0.144418

>  <r_i_glide_ligand_efficiency_sa>  (414) 
-0.422281

>  <r_i_glide_ligand_efficiency_ln>  (414) 
-0.855785

>  <r_i_glide_gscore>  (414) 
-3.61045

>  <r_i_glide_lipo>  (414) 
-0.332704

>  <r_i_glide_hbond>  (414) 
-0.272888

>  <r_i_glide_metal>  (414) 
-0

>  <r_i_glide_rewards>  (414) 
-1.2576

>  <r_i_glide_evdw>  (414) 
-24.0796

>  <r_i_glide_ecoul>  (414) 
-3.62182

>  <r_i_glide_erotb>  (414) 
0

>  <r_i_glide_esite>  (414) 
0

>  <r_i_glide_emodel>  (414) 
-34.285

>  <r_i_glide_energy>  (414) 
-27.7014

>  <r_i_glide_einternal>  (414) 
0.124688

>  <r_i_glide_intrahb_reward>  (414) 
-0

>  <i_i_glide_confnum>  (414) 
2

>  <i_i_glide_posenum>  (414) 
31

>  <r_i_glide_eff_state_penalty>  (414) 
0

>  <ligand_id>  (414) 
118

>  <original_smiles>  (414) 
CC12C=CC(=O)CC1=CCC1C2CCC2(C)C1CC1CCC12C(=O)O

>  <smiles>  (414) 
[H]C1=C([H])C2(C([H])([H])[H])C(=C([H])C([H])([H])C3([H])C2([H])C([H])([H])C([H])([H])C2(C([H])([H])[H])C3([H])C([H])([H])C3([H])C([H])([H])C([H])([H])C32C(=O)[O-])C([H])([H])C1=O

$$$$
118:0:1
     RDKit          3D

 52 56  0  0  1  0  0  0  0  0999 V2000
    6.4998   -1.5635    0.1167 C   0  0  0  0  0  0  0  0  0  0  0  0
    4.9825   -1.8226   -0.0231 C   0  0  1  0  0  0  0  0  0  0  0  0
    4.5385   -1.1191   -1.3116 C   0  0  0  0  0  0  0  0  0  0  0  0
    4.4883   -1.6940   -2.5329 C   0  0  0  0  0  0  0  0  0  0  0  0
    4.9045   -3.0974   -2.7288 C   0  0  0  0  0  0  0  0  0  0  0  0
    4.9085   -3.6430   -3.8322 O   0  0  0  0  0  0  0  0  0  0  0  0
    5.3772   -3.8838   -1.5010 C   0  0  0  0  0  0  0  0  0  0  0  0
    4.7046   -3.3120   -0.2685 C   0  0  0  0  0  0  0  0  0  0  0  0
    3.7753   -4.0162    0.4060 C   0  0  0  0  0  0  0  0  0  0  0  0
    2.8745   -3.4301    1.4662 C   0  0  0  0  0  0  0  0  0  0  0  0
    2.8097   -1.8851    1.3885 C   0  0  2  0  0  0  0  0  0  0  0  0
    4.2110   -1.2603    1.2260 C   0  0  1  0  0  0  0  0  0  0  0  0
    4.9319   -1.3456    2.5959 C   0  0  0  0  0  0  0  0  0  0  0  0
    4.1438   -0.5902    3.6872 C   0  0  0  0  0  0  0  0  0  0  0  0
    2.6933   -1.1087    3.9329 C   0  0  2  0  0  0  0  0  0  0  0  0
    2.7358   -2.4310    4.7427 C   0  0  0  0  0  0  0  0  0  0  0  0
    1.9899   -1.2491    2.5431 C   0  0  1  0  0  0  0  0  0  0  0  0
    1.4320    0.1580    2.2150 C   0  0  0  0  0  0  0  0  0  0  0  0
    1.1100    0.7958    3.5520 C   0  0  1  0  0  0  0  0  0  0  0  0
   -0.2576    0.5650    4.2027 C   0  0  0  0  0  0  0  0  0  0  0  0
    0.3781   -0.4758    5.1212 C   0  0  0  0  0  0  0  0  0  0  0  0
    1.7898   -0.0527    4.6429 C   0  0  1  0  0  0  0  0  0  0  0  0
    2.4933    0.7694    5.7628 C   0  0  0  0  0  0  0  0  0  0  0  0
    3.1495    0.1324    6.6165 O   0  0  0  0  0  0  0  0  0  0  0  0
    2.3467    2.0108    5.7802 O   0  0  0  0  0  0  0  0  0  0  0  0
    7.0367   -1.8025   -0.8010 H   0  0  0  0  0  0  0  0  0  0  0  0
    6.9503   -2.1647    0.9089 H   0  0  0  0  0  0  0  0  0  0  0  0
    6.6903   -0.5115    0.3375 H   0  0  0  0  0  0  0  0  0  0  0  0
    4.2302   -0.0902   -1.2117 H   0  0  0  0  0  0  0  0  0  0  0  0
    4.1515   -1.1431   -3.4007 H   0  0  0  0  0  0  0  0  0  0  0  0
    5.1062   -4.9331   -1.6232 H   0  0  0  0  0  0  0  0  0  0  0  0
    6.4617   -3.8348   -1.4180 H   0  0  0  0  0  0  0  0  0  0  0  0
    3.5903   -5.0497    0.1434 H   0  0  0  0  0  0  0  0  0  0  0  0
    1.8729   -3.8296    1.3118 H   0  0  0  0  0  0  0  0  0  0  0  0
    3.2085   -3.8003    2.4314 H   0  0  0  0  0  0  0  0  0  0  0  0
    2.2663   -1.6736    0.4760 H   0  0  0  0  0  0  0  0  0  0  0  0
    4.0860   -0.1953    1.0451 H   0  0  0  0  0  0  0  0  0  0  0  0
    5.0979   -2.3836    2.8865 H   0  0  0  0  0  0  0  0  0  0  0  0
    5.9190   -0.8879    2.5472 H   0  0  0  0  0  0  0  0  0  0  0  0
    4.7193   -0.6288    4.6127 H   0  0  0  0  0  0  0  0  0  0  0  0
    4.1092    0.4629    3.4037 H   0  0  0  0  0  0  0  0  0  0  0  0
    1.8142   -2.9991    4.6425 H   0  0  0  0  0  0  0  0  0  0  0  0
    2.8728   -2.2458    5.8071 H   0  0  0  0  0  0  0  0  0  0  0  0
    3.5555   -3.0771    4.4466 H   0  0  0  0  0  0  0  0  0  0  0  0
    1.1082   -1.8734    2.6896 H   0  0  0  0  0  0  0  0  0  0  0  0
    2.1797    0.7627    1.7047 H   0  0  0  0  0  0  0  0  0  0  0  0
    0.5671    0.1117    1.5538 H   0  0  0  0  0  0  0  0  0  0  0  0
    1.3587    1.8568    3.5764 H   0  0  0  0  0  0  0  0  0  0  0  0
   -0.6210    1.4400    4.7447 H   0  0  0  0  0  0  0  0  0  0  0  0
   -1.0075    0.1639    3.5175 H   0  0  0  0  0  0  0  0  0  0  0  0
    0.1652   -0.3057    6.1773 H   0  0  0  0  0  0  0  0  0  0  0  0
    0.0919   -1.4816    4.8136 H   0  0  0  0  0  0  0  0  0  0  0  0
  2  1  1  1
  1 26  1  0
  1 27  1  0
  1 28  1  0
  2  8  1  0
  2 12  1  0
  2  3  1  0
  3  4  2  0
  3 29  1  0
  4  5  1  0
  4 30  1  0
  5  6  2  0
  5  7  1  0
  7  8  1  0
  7 31  1  0
  7 32  1  0
  8  9  2  0
  9 10  1  0
  9 33  1  0
 10 11  1  0
 10 34  1  0
 10 35  1  0
 11 17  1  0
 11 12  1  0
 11 36  1  6
 12 13  1  0
 12 37  1  6
 13 14  1  0
 13 38  1  0
 13 39  1  0
 14 15  1  0
 14 40  1  0
 14 41  1  0
 15 22  1  0
 15 16  1  1
 15 17  1  0
 16 42  1  0
 16 43  1  0
 16 44  1  0
 17 18  1  0
 17 45  1  1
 18 19  1  0
 18 46  1  0
 18 47  1  0
 19 22  1  0
 19 20  1  0
 19 48  1  6
 20 21  1  0
 20 49  1  0
 20 50  1  0
 21 22  1  0
 21 51  1  0
 21 52  1  0
 22 23  1  1
 23 24  2  0
 23 25  1  0
M  CHG  1  25  -1
M  END
>  <i_m_ct_stereo_status>  (415) 
1

>  <s_m_source_file>  (415) 
/var/tmp/pbs.5076255.sched01/tmpl4jv_xt6/1264eazgjw7.sdf

>  <i_m_source_file_index>  (415) 
36

>  <i_lp_mmshare_version>  (415) 
48012

>  <i_f3d_flags>  (415) 
0

>  <s_epik_input>  (415) 
W0NIXTE9W0NIXUMoPU8pW0NIMl1DKFtDQEBdMTJbQ0gzXSk9W0NIXVtDSDJdW0NAQEhdM1tDQEhdMltDSDJdW0NIMl1bQ0BdNChbQ0gzXSlbQ0BIXTNbQ0gyXVtDQEBIXTVbQ0BdNChbQ0gyXVtDSDJdNSlDKD1PKVtPSF0=

>  <s_epik_cmdline>  (415) 
J2VwaWtfcHl0aG9uJywgJy1waHQnLCAnMi4wJywgJy1waCcsICc3LjAnLCAnLXRuJywgJzgnLCAnLW1hJywgJzIwMCcsICctaW1hZScsICc8aW5maWxlLm1hZT4nLCAnLW9tYWUnLCAnPG91dGZpbGUubWFlPic=

>  <r_epik_Ionization_Penalty>  (415) 
0.00783333

>  <r_epik_Ionization_Penalty_Charging>  (415) 
0.00783333

>  <r_epik_Ionization_Penalty_Neutral>  (415) 
0

>  <r_epik_State_Penalty>  (415) 
0.00587264

>  <r_epik_Charging_Adjusted_Penalty>  (415) 
0.013706

>  <i_epik_Tot_Q>  (415) 
-1

>  <i_epik_Tot_abs_Q>  (415) 
1

>  <s_lp_Force_Field>  (415) 
OPLS3e

>  <r_lp_Energy>  (415) 
63.3865

>  <b_lp_Chiralities_Consistent>  (415) 
1

>  <s_lp_Variant>  (415) 
118:0-1

>  <s_i_glide_gridfile>  (415) 
pfpi4k_grid

>  <i_i_glide_lignum>  (415) 
36

>  <i_i_glide_rotatable_bonds>  (415) 
1

>  <r_i_docking_score>  (415) 
-2.99382

>  <r_i_glide_ligand_efficiency>  (415) 
-0.119753

>  <r_i_glide_ligand_efficiency_sa>  (415) 
-0.35016

>  <r_i_glide_ligand_efficiency_ln>  (415) 
-0.709626

>  <r_i_glide_gscore>  (415) 
-2.99382

>  <r_i_glide_lipo>  (415) 
-0.155039

>  <r_i_glide_hbond>  (415) 
0

>  <r_i_glide_metal>  (415) 
-0

>  <r_i_glide_rewards>  (415) 
-1.30276

>  <r_i_glide_evdw>  (415) 
-27.0894

>  <r_i_glide_ecoul>  (415) 
-1.21036

>  <r_i_glide_erotb>  (415) 
0

>  <r_i_glide_esite>  (415) 
0

>  <r_i_glide_emodel>  (415) 
-33.7136

>  <r_i_glide_energy>  (415) 
-28.2997

>  <r_i_glide_einternal>  (415) 
0.163096

>  <r_i_glide_intrahb_reward>  (415) 
-0

>  <i_i_glide_confnum>  (415) 
1

>  <i_i_glide_posenum>  (415) 
33

>  <r_i_glide_eff_state_penalty>  (415) 
0

>  <ligand_id>  (415) 
118

>  <original_smiles>  (415) 
CC12C=CC(=O)CC1=CCC1C2CCC2(C)C1CC1CCC12C(=O)O

>  <smiles>  (415) 
[H]C1=C([H])C2(C([H])([H])[H])C(=C([H])C([H])([H])C3([H])C2([H])C([H])([H])C([H])([H])C2(C([H])([H])[H])C3([H])C([H])([H])C3([H])C([H])([H])C([H])([H])C32C(=O)[O-])C([H])([H])C1=O

$$$$
118:0:2
     RDKit          3D

 52 56  0  0  1  0  0  0  0  0999 V2000
    6.2726   -1.7932    0.3216 C   0  0  0  0  0  0  0  0  0  0  0  0
    4.7665   -2.1261    0.2003 C   0  0  1  0  0  0  0  0  0  0  0  0
    4.2194   -1.2300   -0.9167 C   0  0  0  0  0  0  0  0  0  0  0  0
    4.1375   -1.5751   -2.2229 C   0  0  0  0  0  0  0  0  0  0  0  0
    4.6171   -2.8928   -2.6959 C   0  0  0  0  0  0  0  0  0  0  0  0
    4.5983   -3.2251   -3.8822 O   0  0  0  0  0  0  0  0  0  0  0  0
    5.1992   -3.8532   -1.6524 C   0  0  0  0  0  0  0  0  0  0  0  0
    4.5597   -3.5627   -0.3080 C   0  0  0  0  0  0  0  0  0  0  0  0
    3.7053   -4.4326    0.2639 C   0  0  0  0  0  0  0  0  0  0  0  0
    2.8218   -4.1099    1.4474 C   0  0  0  0  0  0  0  0  0  0  0  0
    2.6681   -2.5827    1.6615 C   0  0  2  0  0  0  0  0  0  0  0  0
    4.0264   -1.8546    1.5635 C   0  0  1  0  0  0  0  0  0  0  0  0
    4.8195   -2.1427    2.8655 C   0  0  0  0  0  0  0  0  0  0  0  0
    4.0490   -1.6493    4.1101 C   0  0  0  0  0  0  0  0  0  0  0  0
    2.6418   -2.2916    4.3098 C   0  0  2  0  0  0  0  0  0  0  0  0
    2.8018   -3.7274    4.8673 C   0  0  0  0  0  0  0  0  0  0  0  0
    1.8772   -2.2203    2.9487 C   0  0  1  0  0  0  0  0  0  0  0  0
    1.2329   -0.8137    2.9113 C   0  0  0  0  0  0  0  0  0  0  0  0
    0.9391   -0.4536    4.3571 C   0  0  1  0  0  0  0  0  0  0  0  0
   -0.3817   -0.8890    5.0013 C   0  0  0  0  0  0  0  0  0  0  0  0
    0.3505   -2.0420    5.6822 C   0  0  0  0  0  0  0  0  0  0  0  0
    1.7126   -1.4489    5.2386 C   0  0  1  0  0  0  0  0  0  0  0  0
    2.4395   -0.7952    6.4446 C   0  0  0  0  0  0  0  0  0  0  0  0
    2.5538   -1.4828    7.4831 O   0  0  0  0  0  0  0  0  0  0  0  0
    2.8753    0.3699    6.3133 O   0  0  0  0  0  0  0  0  0  0  0  0
    6.7741   -1.8158   -0.6459 H   0  0  0  0  0  0  0  0  0  0  0  0
    6.7982   -2.4992    0.9674 H   0  0  0  0  0  0  0  0  0  0  0  0
    6.4190   -0.7888    0.7246 H   0  0  0  0  0  0  0  0  0  0  0  0
    3.8667   -0.2568   -0.6110 H   0  0  0  0  0  0  0  0  0  0  0  0
    3.7280   -0.8929   -2.9559 H   0  0  0  0  0  0  0  0  0  0  0  0
    4.9950   -4.8836   -1.9546 H   0  0  0  0  0  0  0  0  0  0  0  0
    6.2819   -3.7464   -1.6044 H   0  0  0  0  0  0  0  0  0  0  0  0
    3.5662   -5.4110   -0.1786 H   0  0  0  0  0  0  0  0  0  0  0  0
    1.8382   -4.5429    1.2606 H   0  0  0  0  0  0  0  0  0  0  0  0
    3.2237   -4.6258    2.3159 H   0  0  0  0  0  0  0  0  0  0  0  0
    2.0629   -2.2332    0.8259 H   0  0  0  0  0  0  0  0  0  0  0  0
    3.8351   -0.7842    1.5893 H   0  0  0  0  0  0  0  0  0  0  0  0
    5.0616   -3.2028    2.9507 H   0  0  0  0  0  0  0  0  0  0  0  0
    5.7748   -1.6191    2.8612 H   0  0  0  0  0  0  0  0  0  0  0  0
    4.6639   -1.8091    4.9972 H   0  0  0  0  0  0  0  0  0  0  0  0
    3.9448   -0.5672    4.0173 H   0  0  0  0  0  0  0  0  0  0  0  0
    1.9111   -4.3290    4.7012 H   0  0  0  0  0  0  0  0  0  0  0  0
    2.9838   -3.7164    5.9421 H   0  0  0  0  0  0  0  0  0  0  0  0
    3.6393   -4.2562    4.4233 H   0  0  0  0  0  0  0  0  0  0  0  0
    1.0402   -2.9154    3.0138 H   0  0  0  0  0  0  0  0  0  0  0  0
    1.9207   -0.0809    2.4932 H   0  0  0  0  0  0  0  0  0  0  0  0
    0.3399   -0.7905    2.2892 H   0  0  0  0  0  0  0  0  0  0  0  0
    1.1331    0.5961    4.5794 H   0  0  0  0  0  0  0  0  0  0  0  0
   -0.7683   -0.1528    5.7099 H   0  0  0  0  0  0  0  0  0  0  0  0
   -1.1402   -1.2009    4.2811 H   0  0  0  0  0  0  0  0  0  0  0  0
    0.1719   -2.0891    6.7578 H   0  0  0  0  0  0  0  0  0  0  0  0
    0.1115   -2.9921    5.2063 H   0  0  0  0  0  0  0  0  0  0  0  0
  2  1  1  1
  1 26  1  0
  1 27  1  0
  1 28  1  0
  2  8  1  0
  2 12  1  0
  2  3  1  0
  3  4  2  0
  3 29  1  0
  4  5  1  0
  4 30  1  0
  5  6  2  0
  5  7  1  0
  7  8  1  0
  7 31  1  0
  7 32  1  0
  8  9  2  0
  9 10  1  0
  9 33  1  0
 10 11  1  0
 10 34  1  0
 10 35  1  0
 11 17  1  0
 11 12  1  0
 11 36  1  6
 12 13  1  0
 12 37  1  6
 13 14  1  0
 13 38  1  0
 13 39  1  0
 14 15  1  0
 14 40  1  0
 14 41  1  0
 15 22  1  0
 15 16  1  1
 15 17  1  0
 16 42  1  0
 16 43  1  0
 16 44  1  0
 17 18  1  0
 17 45  1  1
 18 19  1  0
 18 46  1  0
 18 47  1  0
 19 22  1  0
 19 20  1  0
 19 48  1  1
 20 21  1  0
 20 49  1  0
 20 50  1  0
 21 22  1  0
 21 51  1  0
 21 52  1  0
 22 23  1  1
 23 24  2  0
 23 25  1  0
M  CHG  1  25  -1
M  END
>  <i_m_ct_stereo_status>  (416) 
1

>  <s_m_source_file>  (416) 
/var/tmp/pbs.5076255.sched01/tmpl4jv_xt6/1264eazgjw7.sdf

>  <i_m_source_file_index>  (416) 
36

>  <i_lp_mmshare_version>  (416) 
48012

>  <i_f3d_flags>  (416) 
0

>  <s_epik_input>  (416) 
W0NIXTE9W0NIXUMoPU8pW0NIMl1DKFtDQEBdMTJbQ0gzXSk9W0NIXVtDSDJdW0NAQEhdM1tDQEhdMltDSDJdW0NIMl1bQ0BdNChbQ0gzXSlbQ0BIXTNbQ0gyXVtDQEBIXTVbQ0BdNChbQ0gyXVtDSDJdNSlDKD1PKVtPSF0=

>  <s_epik_cmdline>  (416) 
J2VwaWtfcHl0aG9uJywgJy1waHQnLCAnMi4wJywgJy1waCcsICc3LjAnLCAnLXRuJywgJzgnLCAnLW1hJywgJzIwMCcsICctaW1hZScsICc8aW5maWxlLm1hZT4nLCAnLW9tYWUnLCAnPG91dGZpbGUubWFlPic=

>  <r_epik_Ionization_Penalty>  (416) 
0.00783333

>  <r_epik_Ionization_Penalty_Charging>  (416) 
0.00783333

>  <r_epik_Ionization_Penalty_Neutral>  (416) 
0

>  <r_epik_State_Penalty>  (416) 
0.00587264

>  <r_epik_Charging_Adjusted_Penalty>  (416) 
0.013706

>  <i_epik_Tot_Q>  (416) 
-1

>  <i_epik_Tot_abs_Q>  (416) 
1

>  <s_lp_Force_Field>  (416) 
OPLS3e

>  <r_lp_Energy>  (416) 
63.3865

>  <b_lp_Chiralities_Consistent>  (416) 
1

>  <s_lp_Variant>  (416) 
118:0-1

>  <s_i_glide_gridfile>  (416) 
pfpi4k_grid

>  <i_i_glide_lignum>  (416) 
36

>  <i_i_glide_rotatable_bonds>  (416) 
1

>  <r_i_docking_score>  (416) 
-2.96714

>  <r_i_glide_ligand_efficiency>  (416) 
-0.118685

>  <r_i_glide_ligand_efficiency_sa>  (416) 
-0.347038

>  <r_i_glide_ligand_efficiency_ln>  (416) 
-0.7033

>  <r_i_glide_gscore>  (416) 
-2.96714

>  <r_i_glide_lipo>  (416) 
-0.134715

>  <r_i_glide_hbond>  (416) 
-0.00897087

>  <r_i_glide_metal>  (416) 
-0

>  <r_i_glide_rewards>  (416) 
-1.22561

>  <r_i_glide_evdw>  (416) 
-26.096

>  <r_i_glide_ecoul>  (416) 
-1.95363

>  <r_i_glide_erotb>  (416) 
0

>  <r_i_glide_esite>  (416) 
0

>  <r_i_glide_emodel>  (416) 
-33.4282

>  <r_i_glide_energy>  (416) 
-28.0496

>  <r_i_glide_einternal>  (416) 
0.127477

>  <r_i_glide_intrahb_reward>  (416) 
-0

>  <i_i_glide_confnum>  (416) 
1

>  <i_i_glide_posenum>  (416) 
32

>  <r_i_glide_eff_state_penalty>  (416) 
0

>  <ligand_id>  (416) 
118

>  <original_smiles>  (416) 
CC12C=CC(=O)CC1=CCC1C2CCC2(C)C1CC1CCC12C(=O)O

>  <smiles>  (416) 
[H]C1=C([H])C2(C([H])([H])[H])C(=C([H])C([H])([H])C3([H])C2([H])C([H])([H])C([H])([H])C2(C([H])([H])[H])C3([H])C([H])([H])C3([H])C([H])([H])C([H])([H])C32C(=O)[O-])C([H])([H])C1=O

$$$$
119:0:0
     RDKit          3D

 28 30  0  0  1  0  0  0  0  0999 V2000
    5.1677   -7.4170    1.8317 C   0  0  0  0  0  0  0  0  0  0  0  0
    4.3794   -6.5250    1.0439 O   0  0  0  0  0  0  0  0  0  0  0  0
    5.0095   -5.4217    0.5067 C   0  0  0  0  0  0  0  0  0  0  0  0
    4.2073   -4.6153   -0.2344 N   0  0  0  0  0  0  0  0  0  0  0  0
    4.7561   -3.5132   -0.8068 C   0  0  0  0  0  0  0  0  0  0  0  0
    3.9130   -2.6843   -1.5902 N   0  0  0  0  0  0  0  0  0  0  0  0
    2.6794   -3.1720   -2.2146 C   0  0  0  0  0  0  0  0  0  0  0  0
    2.7146   -2.8578   -3.7258 C   0  0  0  0  0  0  0  0  0  0  0  0
    2.9447   -1.4656   -3.9362 O   0  0  0  0  0  0  0  0  0  0  0  0
    4.1744   -1.0205   -3.3788 C   0  0  0  0  0  0  0  0  0  0  0  0
    4.1886   -1.2752   -1.8623 C   0  0  0  0  0  0  0  0  0  0  0  0
    6.1447   -3.2385   -0.6076 C   0  0  0  0  0  0  0  0  0  0  0  0
    7.0291   -2.3263   -1.0038 N   0  0  0  0  0  0  0  0  0  0  0  0
    8.2188   -2.6887   -0.4083 N   0  0  0  0  0  0  0  0  0  0  0  0
    8.1268   -3.7726    0.2963 N   0  0  0  0  0  0  0  0  0  0  0  0
    6.8308   -4.1543    0.1965 N   0  0  0  0  0  0  0  0  0  0  0  0
    6.3319   -5.2447    0.7676 N   0  0  0  0  0  0  0  0  0  0  0  0
    4.5587   -8.2346    2.2181 H   0  0  0  0  0  0  0  0  0  0  0  0
    5.6106   -6.9031    2.6875 H   0  0  0  0  0  0  0  0  0  0  0  0
    5.9676   -7.8528    1.2309 H   0  0  0  0  0  0  0  0  0  0  0  0
    2.5208   -4.2362   -2.0536 H   0  0  0  0  0  0  0  0  0  0  0  0
    1.8250   -2.6711   -1.7586 H   0  0  0  0  0  0  0  0  0  0  0  0
    3.4933   -3.4337   -4.2275 H   0  0  0  0  0  0  0  0  0  0  0  0
    1.7687   -3.1287   -4.1944 H   0  0  0  0  0  0  0  0  0  0  0  0
    5.0022   -1.5326   -3.8705 H   0  0  0  0  0  0  0  0  0  0  0  0
    4.2801    0.0456   -3.5807 H   0  0  0  0  0  0  0  0  0  0  0  0
    3.4128   -0.6798   -1.3845 H   0  0  0  0  0  0  0  0  0  0  0  0
    5.1167   -0.9050   -1.4387 H   0  0  0  0  0  0  0  0  0  0  0  0
  1  2  1  0
  1 18  1  0
  1 19  1  0
  1 20  1  0
  2  3  1  0
  3 17  2  0
  3  4  1  0
  4  5  2  0
  5  6  1  0
  5 12  1  0
  6 11  1  0
  6  7  1  0
  7  8  1  0
  7 21  1  0
  7 22  1  0
  8  9  1  0
  8 23  1  0
  8 24  1  0
  9 10  1  0
 10 11  1  0
 10 25  1  0
 10 26  1  0
 11 27  1  0
 11 28  1  0
 12 16  1  0
 12 13  2  0
 13 14  1  0
 14 15  2  0
 15 16  1  0
 16 17  1  0
M  END
>  <i_m_ct_stereo_status>  (417) 
1

>  <s_m_source_file>  (417) 
/var/tmp/pbs.5076255.sched01/tmpl4jv_xt6/1264eazgjw7.sdf

>  <i_m_source_file_index>  (417) 
37

>  <i_lp_mmshare_version>  (417) 
48012

>  <i_f3d_flags>  (417) 
0

>  <s_epik_input>  (417) 
bjFubm4oYzEyKW5jKE9bQ0gzXSluYzJOM1tDSDJdW0NIMl1PW0NIMl1bQ0gyXTM=

>  <s_epik_cmdline>  (417) 
J2VwaWtfcHl0aG9uJywgJy1waHQnLCAnMi4wJywgJy1waCcsICc3LjAnLCAnLXRuJywgJzgnLCAnLW1hJywgJzIwMCcsICctaW1hZScsICc8aW5maWxlLm1hZT4nLCAnLW9tYWUnLCAnPG91dGZpbGUubWFlPic=

>  <r_lp_tautomer_probability>  (417) 
1

>  <r_epik_Ionization_Penalty>  (417) 
1.21168e-11

>  <r_epik_Ionization_Penalty_Charging>  (417) 
0

>  <r_epik_Ionization_Penalty_Neutral>  (417) 
1.21168e-11

>  <r_epik_State_Penalty>  (417) 
-0

>  <r_epik_Charging_Adjusted_Penalty>  (417) 
0

>  <i_epik_Tot_Q>  (417) 
0

>  <i_epik_Tot_abs_Q>  (417) 
0

>  <s_lp_Force_Field>  (417) 
OPLS3e

>  <r_lp_Energy>  (417) 
16.7277

>  <b_lp_Chiralities_Consistent>  (417) 
1

>  <s_lp_Variant>  (417) 
119:0-1

>  <s_i_glide_gridfile>  (417) 
pfpi4k_grid

>  <i_i_glide_lignum>  (417) 
37

>  <i_i_glide_rotatable_bonds>  (417) 
2

>  <r_i_docking_score>  (417) 
-4.03459

>  <r_i_glide_ligand_efficiency>  (417) 
-0.237329

>  <r_i_glide_ligand_efficiency_sa>  (417) 
-0.61024

>  <r_i_glide_ligand_efficiency_ln>  (417) 
-1.05254

>  <r_i_glide_gscore>  (417) 
-4.03459

>  <r_i_glide_lipo>  (417) 
-0.504919

>  <r_i_glide_hbond>  (417) 
0

>  <r_i_glide_metal>  (417) 
-0

>  <r_i_glide_rewards>  (417) 
-2.16786

>  <r_i_glide_evdw>  (417) 
-24.4242

>  <r_i_glide_ecoul>  (417) 
-2.3054

>  <r_i_glide_erotb>  (417) 
0.306271

>  <r_i_glide_esite>  (417) 
-0.10106

>  <r_i_glide_emodel>  (417) 
-32.4825

>  <r_i_glide_energy>  (417) 
-26.7296

>  <r_i_glide_einternal>  (417) 
2.01315

>  <r_i_glide_intrahb_reward>  (417) 
-0

>  <i_i_glide_confnum>  (417) 
4

>  <i_i_glide_posenum>  (417) 
7

>  <r_i_glide_eff_state_penalty>  (417) 
0

>  <ligand_id>  (417) 
119

>  <original_smiles>  (417) 
COc1nc(N2CCOCC2)c2nnnn2n1

>  <smiles>  (417) 
[H]C([H])([H])Oc1nc(N2C([H])([H])C([H])([H])OC([H])([H])C2([H])[H])c2nnnn2n1

$$$$
119:0:1
     RDKit          3D

 28 30  0  0  1  0  0  0  0  0999 V2000
    8.2335   -3.2582   -0.4190 C   0  0  0  0  0  0  0  0  0  0  0  0
    7.5496   -4.2201    0.3776 O   0  0  0  0  0  0  0  0  0  0  0  0
    6.1815   -4.3293    0.2561 C   0  0  0  0  0  0  0  0  0  0  0  0
    5.5278   -3.5032   -0.6039 N   0  0  0  0  0  0  0  0  0  0  0  0
    4.1838   -3.6527   -0.7145 C   0  0  0  0  0  0  0  0  0  0  0  0
    3.5039   -2.7840   -1.5924 N   0  0  0  0  0  0  0  0  0  0  0  0
    4.0171   -1.4570   -1.9177 C   0  0  0  0  0  0  0  0  0  0  0  0
    4.2253   -1.3382   -3.4351 C   0  0  0  0  0  0  0  0  0  0  0  0
    3.0262   -1.6672   -4.1225 O   0  0  0  0  0  0  0  0  0  0  0  0
    2.6073   -3.0079   -3.8690 C   0  0  0  0  0  0  0  0  0  0  0  0
    2.3454   -3.2171   -2.3676 C   0  0  0  0  0  0  0  0  0  0  0  0
    3.4949   -4.6351    0.0648 C   0  0  0  0  0  0  0  0  0  0  0  0
    2.2460   -5.0487    0.2602 N   0  0  0  0  0  0  0  0  0  0  0  0
    2.3338   -6.0690    1.1801 N   0  0  0  0  0  0  0  0  0  0  0  0
    3.5516   -6.2936    1.5728 N   0  0  0  0  0  0  0  0  0  0  0  0
    4.3169   -5.4028    0.8927 N   0  0  0  0  0  0  0  0  0  0  0  0
    5.6387   -5.2981    1.0292 N   0  0  0  0  0  0  0  0  0  0  0  0
    9.2988   -3.2981   -0.1970 H   0  0  0  0  0  0  0  0  0  0  0  0
    7.9002   -2.2435   -0.2017 H   0  0  0  0  0  0  0  0  0  0  0  0
    8.1191   -3.4554   -1.4856 H   0  0  0  0  0  0  0  0  0  0  0  0
    3.2834   -0.7236   -1.5838 H   0  0  0  0  0  0  0  0  0  0  0  0
    4.9455   -1.2293   -1.3932 H   0  0  0  0  0  0  0  0  0  0  0  0
    4.5126   -0.3213   -3.6939 H   0  0  0  0  0  0  0  0  0  0  0  0
    5.0192   -2.0024   -3.7740 H   0  0  0  0  0  0  0  0  0  0  0  0
    1.6985   -3.2090   -4.4347 H   0  0  0  0  0  0  0  0  0  0  0  0
    3.3658   -3.7032   -4.2332 H   0  0  0  0  0  0  0  0  0  0  0  0
    2.0857   -4.2514   -2.1973 H   0  0  0  0  0  0  0  0  0  0  0  0
    1.4703   -2.6554   -2.0555 H   0  0  0  0  0  0  0  0  0  0  0  0
  1  2  1  0
  1 18  1  0
  1 19  1  0
  1 20  1  0
  2  3  1  0
  3 17  2  0
  3  4  1  0
  4  5  2  0
  5  6  1  0
  5 12  1  0
  6 11  1  0
  6  7  1  0
  7  8  1  0
  7 21  1  0
  7 22  1  0
  8  9  1  0
  8 23  1  0
  8 24  1  0
  9 10  1  0
 10 11  1  0
 10 25  1  0
 10 26  1  0
 11 27  1  0
 11 28  1  0
 12 16  1  0
 12 13  2  0
 13 14  1  0
 14 15  2  0
 15 16  1  0
 16 17  1  0
M  END
>  <i_m_ct_stereo_status>  (418) 
1

>  <s_m_source_file>  (418) 
/var/tmp/pbs.5076255.sched01/tmpl4jv_xt6/1264eazgjw7.sdf

>  <i_m_source_file_index>  (418) 
37

>  <i_lp_mmshare_version>  (418) 
48012

>  <i_f3d_flags>  (418) 
0

>  <s_epik_input>  (418) 
bjFubm4oYzEyKW5jKE9bQ0gzXSluYzJOM1tDSDJdW0NIMl1PW0NIMl1bQ0gyXTM=

>  <s_epik_cmdline>  (418) 
J2VwaWtfcHl0aG9uJywgJy1waHQnLCAnMi4wJywgJy1waCcsICc3LjAnLCAnLXRuJywgJzgnLCAnLW1hJywgJzIwMCcsICctaW1hZScsICc8aW5maWxlLm1hZT4nLCAnLW9tYWUnLCAnPG91dGZpbGUubWFlPic=

>  <r_lp_tautomer_probability>  (418) 
1

>  <r_epik_Ionization_Penalty>  (418) 
1.21168e-11

>  <r_epik_Ionization_Penalty_Charging>  (418) 
0

>  <r_epik_Ionization_Penalty_Neutral>  (418) 
1.21168e-11

>  <r_epik_State_Penalty>  (418) 
-0

>  <r_epik_Charging_Adjusted_Penalty>  (418) 
0

>  <i_epik_Tot_Q>  (418) 
0

>  <i_epik_Tot_abs_Q>  (418) 
0

>  <s_lp_Force_Field>  (418) 
OPLS3e

>  <r_lp_Energy>  (418) 
16.7277

>  <b_lp_Chiralities_Consistent>  (418) 
1

>  <s_lp_Variant>  (418) 
119:0-1

>  <s_i_glide_gridfile>  (418) 
pfpi4k_grid

>  <i_i_glide_lignum>  (418) 
37

>  <i_i_glide_rotatable_bonds>  (418) 
2

>  <r_i_docking_score>  (418) 
-3.92001

>  <r_i_glide_ligand_efficiency>  (418) 
-0.230589

>  <r_i_glide_ligand_efficiency_sa>  (418) 
-0.592909

>  <r_i_glide_ligand_efficiency_ln>  (418) 
-1.02264

>  <r_i_glide_gscore>  (418) 
-3.92001

>  <r_i_glide_lipo>  (418) 
-0.583324

>  <r_i_glide_hbond>  (418) 
0

>  <r_i_glide_metal>  (418) 
-0

>  <r_i_glide_rewards>  (418) 
-1.97759

>  <r_i_glide_evdw>  (418) 
-23.6434

>  <r_i_glide_ecoul>  (418) 
-2.35731

>  <r_i_glide_erotb>  (418) 
0.306271

>  <r_i_glide_esite>  (418) 
-0.1296

>  <r_i_glide_emodel>  (418) 
-32.5523

>  <r_i_glide_energy>  (418) 
-26.0007

>  <r_i_glide_einternal>  (418) 
0.1987

>  <r_i_glide_intrahb_reward>  (418) 
-0

>  <i_i_glide_confnum>  (418) 
5

>  <i_i_glide_posenum>  (418) 
23

>  <r_i_glide_eff_state_penalty>  (418) 
0

>  <ligand_id>  (418) 
119

>  <original_smiles>  (418) 
COc1nc(N2CCOCC2)c2nnnn2n1

>  <smiles>  (418) 
[H]C([H])([H])Oc1nc(N2C([H])([H])C([H])([H])OC([H])([H])C2([H])[H])c2nnnn2n1

$$$$
119:0:2
     RDKit          3D

 28 30  0  0  1  0  0  0  0  0999 V2000
    2.3843    0.9192    1.6831 C   0  0  0  0  0  0  0  0  0  0  0  0
    2.5015   -0.3163    2.3803 O   0  0  0  0  0  0  0  0  0  0  0  0
    2.9502   -1.4213    1.6890 C   0  0  0  0  0  0  0  0  0  0  0  0
    3.4228   -1.2692    0.4263 N   0  0  0  0  0  0  0  0  0  0  0  0
    3.8465   -2.3729   -0.2440 C   0  0  0  0  0  0  0  0  0  0  0  0
    4.3453   -2.1836   -1.5587 N   0  0  0  0  0  0  0  0  0  0  0  0
    4.6157   -0.8514   -2.0972 C   0  0  0  0  0  0  0  0  0  0  0  0
    3.8460   -0.6453   -3.4098 C   0  0  0  0  0  0  0  0  0  0  0  0
    4.1646   -1.6970   -4.3208 O   0  0  0  0  0  0  0  0  0  0  0  0
    3.7774   -2.9733   -3.8170 C   0  0  0  0  0  0  0  0  0  0  0  0
    4.5418   -3.2712   -2.5190 C   0  0  0  0  0  0  0  0  0  0  0  0
    3.8050   -3.6473    0.4049 C   0  0  0  0  0  0  0  0  0  0  0  0
    4.1365   -4.9092    0.1359 N   0  0  0  0  0  0  0  0  0  0  0  0
    3.8036   -5.6301    1.2629 N   0  0  0  0  0  0  0  0  0  0  0  0
    3.3077   -4.8920    2.2081 N   0  0  0  0  0  0  0  0  0  0  0  0
    3.2954   -3.6304    1.7095 N   0  0  0  0  0  0  0  0  0  0  0  0
    2.8612   -2.5718    2.3920 N   0  0  0  0  0  0  0  0  0  0  0  0
    2.0298    1.6844    2.3710 H   0  0  0  0  0  0  0  0  0  0  0  0
    1.6536    0.8482    0.8799 H   0  0  0  0  0  0  0  0  0  0  0  0
    3.3360    1.2651    1.2803 H   0  0  0  0  0  0  0  0  0  0  0  0
    4.3698   -0.0462   -1.4102 H   0  0  0  0  0  0  0  0  0  0  0  0
    5.6877   -0.7764   -2.2726 H   0  0  0  0  0  0  0  0  0  0  0  0
    2.7712   -0.6113   -3.2290 H   0  0  0  0  0  0  0  0  0  0  0  0
    4.1267    0.3086   -3.8553 H   0  0  0  0  0  0  0  0  0  0  0  0
    2.6994   -3.0045   -3.6506 H   0  0  0  0  0  0  0  0  0  0  0  0
    4.0029   -3.7398   -4.5592 H   0  0  0  0  0  0  0  0  0  0  0  0
    5.6090   -3.3681   -2.7216 H   0  0  0  0  0  0  0  0  0  0  0  0
    4.2041   -4.2421   -2.1747 H   0  0  0  0  0  0  0  0  0  0  0  0
  1  2  1  0
  1 18  1  0
  1 19  1  0
  1 20  1  0
  2  3  1  0
  3 17  2  0
  3  4  1  0
  4  5  2  0
  5  6  1  0
  5 12  1  0
  6 11  1  0
  6  7  1  0
  7  8  1  0
  7 21  1  0
  7 22  1  0
  8  9  1  0
  8 23  1  0
  8 24  1  0
  9 10  1  0
 10 11  1  0
 10 25  1  0
 10 26  1  0
 11 27  1  0
 11 28  1  0
 12 16  1  0
 12 13  2  0
 13 14  1  0
 14 15  2  0
 15 16  1  0
 16 17  1  0
M  END
>  <i_m_ct_stereo_status>  (419) 
1

>  <s_m_source_file>  (419) 
/var/tmp/pbs.5076255.sched01/tmpl4jv_xt6/1264eazgjw7.sdf

>  <i_m_source_file_index>  (419) 
37

>  <i_lp_mmshare_version>  (419) 
48012

>  <i_f3d_flags>  (419) 
0

>  <s_epik_input>  (419) 
bjFubm4oYzEyKW5jKE9bQ0gzXSluYzJOM1tDSDJdW0NIMl1PW0NIMl1bQ0gyXTM=

>  <s_epik_cmdline>  (419) 
J2VwaWtfcHl0aG9uJywgJy1waHQnLCAnMi4wJywgJy1waCcsICc3LjAnLCAnLXRuJywgJzgnLCAnLW1hJywgJzIwMCcsICctaW1hZScsICc8aW5maWxlLm1hZT4nLCAnLW9tYWUnLCAnPG91dGZpbGUubWFlPic=

>  <r_lp_tautomer_probability>  (419) 
1

>  <r_epik_Ionization_Penalty>  (419) 
1.21168e-11

>  <r_epik_Ionization_Penalty_Charging>  (419) 
0

>  <r_epik_Ionization_Penalty_Neutral>  (419) 
1.21168e-11

>  <r_epik_State_Penalty>  (419) 
-0

>  <r_epik_Charging_Adjusted_Penalty>  (419) 
0

>  <i_epik_Tot_Q>  (419) 
0

>  <i_epik_Tot_abs_Q>  (419) 
0

>  <s_lp_Force_Field>  (419) 
OPLS3e

>  <r_lp_Energy>  (419) 
16.7277

>  <b_lp_Chiralities_Consistent>  (419) 
1

>  <s_lp_Variant>  (419) 
119:0-1

>  <s_i_glide_gridfile>  (419) 
pfpi4k_grid

>  <i_i_glide_lignum>  (419) 
37

>  <i_i_glide_rotatable_bonds>  (419) 
2

>  <r_i_docking_score>  (419) 
-3.82624

>  <r_i_glide_ligand_efficiency>  (419) 
-0.225073

>  <r_i_glide_ligand_efficiency_sa>  (419) 
-0.578726

>  <r_i_glide_ligand_efficiency_ln>  (419) 
-0.998181

>  <r_i_glide_gscore>  (419) 
-3.82624

>  <r_i_glide_lipo>  (419) 
-0.351697

>  <r_i_glide_hbond>  (419) 
-0.32

>  <r_i_glide_metal>  (419) 
-0

>  <r_i_glide_rewards>  (419) 
-1.80051

>  <r_i_glide_evdw>  (419) 
-22.7075

>  <r_i_glide_ecoul>  (419) 
-3.07373

>  <r_i_glide_erotb>  (419) 
0.306271

>  <r_i_glide_esite>  (419) 
-0.0638738

>  <r_i_glide_emodel>  (419) 
-32.0305

>  <r_i_glide_energy>  (419) 
-25.7812

>  <r_i_glide_einternal>  (419) 
0.346023

>  <r_i_glide_intrahb_reward>  (419) 
-0

>  <i_i_glide_confnum>  (419) 
1

>  <i_i_glide_posenum>  (419) 
2

>  <r_i_glide_eff_state_penalty>  (419) 
0

>  <ligand_id>  (419) 
119

>  <original_smiles>  (419) 
COc1nc(N2CCOCC2)c2nnnn2n1

>  <smiles>  (419) 
[H]C([H])([H])Oc1nc(N2C([H])([H])C([H])([H])OC([H])([H])C2([H])[H])c2nnnn2n1

$$$$
121:0:0
     RDKit          3D

 52 56  0  0  1  0  0  0  0  0999 V2000
    2.0678   -6.1323    7.0273 C   0  0  0  0  0  0  0  0  0  0  0  0
    1.2653   -5.1668    6.1334 C   0  0  1  0  0  0  0  0  0  0  0  0
    1.2140   -3.9789    6.9345 O   0  0  0  0  0  0  0  0  0  0  0  0
    1.2685   -2.7545    6.3110 C   0  0  0  0  0  0  0  0  0  0  0  0
    1.7469   -1.6960    6.9841 C   0  0  0  0  0  0  0  0  0  0  0  0
    1.8787   -0.3190    6.3729 C   0  0  0  0  0  0  0  0  0  0  0  0
    1.8350   -0.3493    4.8267 C   0  0  2  0  0  0  0  0  0  0  0  0
    1.7659    1.0669    4.2762 C   0  0  0  0  0  0  0  0  0  0  0  0
    2.9366    1.8555    4.2550 C   0  0  0  0  0  0  0  0  0  0  0  0
    2.8958    3.1823    3.7939 C   0  0  0  0  0  0  0  0  0  0  0  0
    1.6836    3.7262    3.3380 C   0  0  0  0  0  0  0  0  0  0  0  0
    1.6420    5.0076    2.8832 O   0  0  0  0  0  0  0  0  0  0  0  0
    0.5156    2.9405    3.3307 C   0  0  0  0  0  0  0  0  0  0  0  0
    0.5464    1.6118    3.7949 C   0  0  0  0  0  0  0  0  0  0  0  0
   -0.7263    0.7828    3.7207 C   0  0  0  0  0  0  0  0  0  0  0  0
   -0.6687   -0.5323    4.5158 C   0  0  0  0  0  0  0  0  0  0  0  0
    0.6840   -1.2484    4.3049 C   0  0  2  0  0  0  0  0  0  0  0  0
    0.7327   -2.6959    4.8862 C   0  0  1  0  0  0  0  0  0  0  0  0
    1.4944   -3.6909    3.9944 C   0  0  0  0  0  0  0  0  0  0  0  0
    1.9708   -4.9564    4.7567 C   0  0  2  0  0  0  0  0  0  0  0  0
    1.8702   -6.2129    3.8593 C   0  0  0  0  0  0  0  0  0  0  0  0
    0.4306   -6.6835    3.6723 C   0  0  0  0  0  0  0  0  0  0  0  0
   -0.0334   -6.8531    2.5026 N   0  0  0  0  0  0  0  0  0  0  0  0
   -1.3669   -7.3402    2.5647 O   0  0  0  0  0  0  0  0  0  0  0  0
   -0.3173   -6.9189    4.9929 C   0  0  0  0  0  0  0  0  0  0  0  0
   -0.1551   -5.7277    5.9419 C   0  0  0  0  0  0  0  0  0  0  0  0
   -1.1157   -5.2691    6.5502 O   0  0  0  0  0  0  0  0  0  0  0  0
    2.1591   -7.1295    6.5990 H   0  0  0  0  0  0  0  0  0  0  0  0
    1.5947   -6.2409    8.0040 H   0  0  0  0  0  0  0  0  0  0  0  0
    3.0739   -5.7525    7.2034 H   0  0  0  0  0  0  0  0  0  0  0  0
    2.0829   -1.8087    8.0054 H   0  0  0  0  0  0  0  0  0  0  0  0
    1.0733    0.2995    6.7699 H   0  0  0  0  0  0  0  0  0  0  0  0
    2.8118    0.1284    6.7105 H   0  0  0  0  0  0  0  0  0  0  0  0
    2.7692   -0.7867    4.4722 H   0  0  0  0  0  0  0  0  0  0  0  0
    3.8727    1.4422    4.5942 H   0  0  0  0  0  0  0  0  0  0  0  0
    3.7974    3.7756    3.7622 H   0  0  0  0  0  0  0  0  0  0  0  0
    1.0041    5.0754    2.1796 H   0  0  0  0  0  0  0  0  0  0  0  0
   -0.4060    3.3600    2.9498 H   0  0  0  0  0  0  0  0  0  0  0  0
   -1.5839    1.3775    4.0386 H   0  0  0  0  0  0  0  0  0  0  0  0
   -0.8882    0.5453    2.6679 H   0  0  0  0  0  0  0  0  0  0  0  0
   -0.8035   -0.3148    5.5760 H   0  0  0  0  0  0  0  0  0  0  0  0
   -1.5056   -1.1736    4.2297 H   0  0  0  0  0  0  0  0  0  0  0  0
    0.7972   -1.3375    3.2235 H   0  0  0  0  0  0  0  0  0  0  0  0
   -0.2966   -3.0543    4.9346 H   0  0  0  0  0  0  0  0  0  0  0  0
    0.8628   -3.9455    3.1375 H   0  0  0  0  0  0  0  0  0  0  0  0
    2.3706   -3.2024    3.5692 H   0  0  0  0  0  0  0  0  0  0  0  0
    3.0323   -4.7984    4.9689 H   0  0  0  0  0  0  0  0  0  0  0  0
    2.3229   -6.0184    2.8832 H   0  0  0  0  0  0  0  0  0  0  0  0
    2.4341   -7.0371    4.3012 H   0  0  0  0  0  0  0  0  0  0  0  0
   -1.3477   -8.0163    1.9035 H   0  0  0  0  0  0  0  0  0  0  0  0
   -1.3776   -7.1241    4.8313 H   0  0  0  0  0  0  0  0  0  0  0  0
    0.0970   -7.8001    5.4775 H   0  0  0  0  0  0  0  0  0  0  0  0
  2  1  1  1
  1 28  1  0
  1 29  1  0
  1 30  1  0
  2 20  1  0
  2 26  1  0
  2  3  1  0
  3  4  1  0
  4 18  1  0
  4  5  2  0
  5  6  1  0
  5 31  1  0
  6  7  1  0
  6 32  1  0
  6 33  1  0
  7 17  1  0
  7  8  1  0
  7 34  1  6
  8 14  2  0
  8  9  1  0
  9 10  2  0
  9 35  1  0
 10 11  1  0
 10 36  1  0
 11 12  1  0
 11 13  2  0
 12 37  1  0
 13 14  1  0
 13 38  1  0
 14 15  1  0
 15 16  1  0
 15 39  1  0
 15 40  1  0
 16 17  1  0
 16 41  1  0
 16 42  1  0
 17 18  1  0
 17 43  1  6
 18 19  1  0
 18 44  1  1
 19 20  1  0
 19 45  1  0
 19 46  1  0
 20 21  1  0
 20 47  1  1
 21 22  1  0
 21 48  1  0
 21 49  1  0
 22 23  2  3
 22 25  1  0
 23 24  1  0
 24 50  1  0
 25 26  1  0
 25 51  1  0
 25 52  1  0
 26 27  2  0
M  END
>  <i_m_ct_stereo_status>  (420) 
1

>  <s_m_source_file>  (420) 
/var/tmp/pbs.5076255.sched01/tmpl4jv_xt6/1264eazgjw7.sdf

>  <i_m_source_file_index>  (420) 
39

>  <i_lp_mmshare_version>  (420) 
48012

>  <i_f3d_flags>  (420) 
0

>  <s_epik_input>  (420) 
Tz1DMVtDSDJdQyg9Ti9bT0hdKVxbQ0gyXVtDQEhdKFtDQF0xMltDSDNdKVtDSDJdW0NASF0zQyhPMik9W0NIXVtDSDJdW0NAQEhdNGM1YyhbQ0gyXVtDSDJdW0NASF0zNClbY0hdYyhbT0hdKVtjSF1bY0hdNQ==

>  <s_epik_cmdline>  (420) 
J2VwaWtfcHl0aG9uJywgJy1waHQnLCAnMi4wJywgJy1waCcsICc3LjAnLCAnLXRuJywgJzgnLCAnLW1hJywgJzIwMCcsICctaW1hZScsICc8aW5maWxlLm1hZT4nLCAnLW9tYWUnLCAnPG91dGZpbGUubWFlPic=

>  <r_lp_tautomer_probability>  (420) 
1

>  <r_epik_Ionization_Penalty>  (420) 
0.000130704

>  <r_epik_Ionization_Penalty_Charging>  (420) 
0

>  <r_epik_Ionization_Penalty_Neutral>  (420) 
0.000130704

>  <r_epik_State_Penalty>  (420) 
-0

>  <r_epik_Charging_Adjusted_Penalty>  (420) 
0

>  <i_epik_Tot_Q>  (420) 
0

>  <i_epik_Tot_abs_Q>  (420) 
0

>  <s_epik_Chemistry_Notes>  (420) 
This compound has an imine and may undergo hydrolysis.

>  <s_lp_Force_Field>  (420) 
OPLS3e

>  <r_lp_Energy>  (420) 
31.2779

>  <b_lp_Chiralities_Consistent>  (420) 
1

>  <s_lp_Variant>  (420) 
121:0-1

>  <s_i_glide_gridfile>  (420) 
pfpi4k_grid

>  <i_i_glide_lignum>  (420) 
39

>  <i_i_glide_rotatable_bonds>  (420) 
2

>  <r_i_docking_score>  (420) 
-3.43678

>  <r_i_glide_ligand_efficiency>  (420) 
-0.127288

>  <r_i_glide_ligand_efficiency_sa>  (420) 
-0.381865

>  <r_i_glide_ligand_efficiency_ln>  (420) 
-0.800027

>  <r_i_glide_gscore>  (420) 
-3.43678

>  <r_i_glide_lipo>  (420) 
-0.0221199

>  <r_i_glide_hbond>  (420) 
-0.16

>  <r_i_glide_metal>  (420) 
-0

>  <r_i_glide_rewards>  (420) 
-0.90383

>  <r_i_glide_evdw>  (420) 
-22.521

>  <r_i_glide_ecoul>  (420) 
-7.6043

>  <r_i_glide_erotb>  (420) 
0.142645

>  <r_i_glide_esite>  (420) 
-0.226783

>  <r_i_glide_emodel>  (420) 
-35.5204

>  <r_i_glide_energy>  (420) 
-30.1253

>  <r_i_glide_einternal>  (420) 
2.13258

>  <r_i_glide_intrahb_reward>  (420) 
-0

>  <i_i_glide_confnum>  (420) 
4

>  <i_i_glide_posenum>  (420) 
14

>  <r_i_glide_eff_state_penalty>  (420) 
0

>  <ligand_id>  (420) 
121

>  <original_smiles>  (420) 
CC12OC3=CCC4c5ccc(O)cc5CCC4C3CC1CC(=NO)CC2=O

>  <smiles>  (420) 
[H]ON=C1C([H])([H])C(=O)C2(C([H])([H])[H])OC3=C([H])C([H])([H])C4([H])c5c([H])c([H])c(O[H])c([H])c5C([H])([H])C([H])([H])C4([H])C3([H])C([H])([H])C2([H])C1([H])[H]

$$$$
121:0:1
     RDKit          3D

 52 56  0  0  1  0  0  0  0  0999 V2000
    1.6040   -4.8092    8.0232 C   0  0  0  0  0  0  0  0  0  0  0  0
    0.8220   -4.0054    6.9662 C   0  0  1  0  0  0  0  0  0  0  0  0
    0.3672   -2.8698    7.7183 O   0  0  0  0  0  0  0  0  0  0  0  0
    0.3126   -1.6426    7.1002 C   0  0  0  0  0  0  0  0  0  0  0  0
    0.4198   -0.5244    7.8374 C   0  0  0  0  0  0  0  0  0  0  0  0
    0.3920    0.8642    7.2421 C   0  0  0  0  0  0  0  0  0  0  0  0
    0.6747    0.8603    5.7232 C   0  0  2  0  0  0  0  0  0  0  0  0
    0.4384    2.2503    5.1459 C   0  0  0  0  0  0  0  0  0  0  0  0
    1.4111    3.2550    5.3424 C   0  0  0  0  0  0  0  0  0  0  0  0
    1.2095    4.5558    4.8417 C   0  0  0  0  0  0  0  0  0  0  0  0
    0.0306    4.8664    4.1429 C   0  0  0  0  0  0  0  0  0  0  0  0
   -0.1861    6.1343    3.6789 O   0  0  0  0  0  0  0  0  0  0  0  0
   -0.9392    3.8689    3.9323 C   0  0  0  0  0  0  0  0  0  0  0  0
   -0.7372    2.5581    4.4174 C   0  0  0  0  0  0  0  0  0  0  0  0
   -1.7696    1.4903    4.0897 C   0  0  0  0  0  0  0  0  0  0  0  0
   -1.6191    0.1902    4.9023 C   0  0  0  0  0  0  0  0  0  0  0  0
   -0.1381   -0.2382    4.9894 C   0  0  2  0  0  0  0  0  0  0  0  0
    0.0757   -1.6599    5.5946 C   0  0  1  0  0  0  0  0  0  0  0  0
    1.1864   -2.4627    4.8932 C   0  0  0  0  0  0  0  0  0  0  0  0
    1.7402   -3.6264    5.7598 C   0  0  2  0  0  0  0  0  0  0  0  0
    2.0772   -4.8589    4.8844 C   0  0  0  0  0  0  0  0  0  0  0  0
    0.8317   -5.6188    4.4169 C   0  0  0  0  0  0  0  0  0  0  0  0
    0.6511   -5.8624    3.1770 N   0  0  0  0  0  0  0  0  0  0  0  0
   -0.5352   -6.6387    2.9556 O   0  0  0  0  0  0  0  0  0  0  0  0
   -0.1100   -6.0207    5.5631 C   0  0  0  0  0  0  0  0  0  0  0  0
   -0.3854   -4.8383    6.4984 C   0  0  0  0  0  0  0  0  0  0  0  0
   -1.5292   -4.5914    6.8760 O   0  0  0  0  0  0  0  0  0  0  0  0
    1.9813   -5.7568    7.6406 H   0  0  0  0  0  0  0  0  0  0  0  0
    0.9696   -5.0336    8.8820 H   0  0  0  0  0  0  0  0  0  0  0  0
    2.4546   -4.2381    8.3967 H   0  0  0  0  0  0  0  0  0  0  0  0
    0.5541   -0.5870    8.9101 H   0  0  0  0  0  0  0  0  0  0  0  0
   -0.5838    1.3033    7.4518 H   0  0  0  0  0  0  0  0  0  0  0  0
    1.1300    1.4768    7.7556 H   0  0  0  0  0  0  0  0  0  0  0  0
    1.7305    0.6313    5.5753 H   0  0  0  0  0  0  0  0  0  0  0  0
    2.3153    3.0251    5.8865 H   0  0  0  0  0  0  0  0  0  0  0  0
    1.9600    5.3122    5.0051 H   0  0  0  0  0  0  0  0  0  0  0  0
    0.5757    6.6386    3.4265 H   0  0  0  0  0  0  0  0  0  0  0  0
   -1.8316    4.0967    3.3684 H   0  0  0  0  0  0  0  0  0  0  0  0
   -2.7722    1.9041    4.2000 H   0  0  0  0  0  0  0  0  0  0  0  0
   -1.6544    1.2482    3.0307 H   0  0  0  0  0  0  0  0  0  0  0  0
   -2.0140    0.3531    5.9057 H   0  0  0  0  0  0  0  0  0  0  0  0
   -2.2340   -0.5976    4.4614 H   0  0  0  0  0  0  0  0  0  0  0  0
    0.2136   -0.2783    3.9568 H   0  0  0  0  0  0  0  0  0  0  0  0
   -0.8492   -2.2177    5.4402 H   0  0  0  0  0  0  0  0  0  0  0  0
    0.8157   -2.8179    3.9250 H   0  0  0  0  0  0  0  0  0  0  0  0
    2.0173   -1.7955    4.6531 H   0  0  0  0  0  0  0  0  0  0  0  0
    2.6780   -3.2586    6.1821 H   0  0  0  0  0  0  0  0  0  0  0  0
    2.6669   -4.5495    4.0189 H   0  0  0  0  0  0  0  0  0  0  0  0
    2.7011   -5.5533    5.4497 H   0  0  0  0  0  0  0  0  0  0  0  0
   -0.5517   -7.2109    3.7092 H   0  0  0  0  0  0  0  0  0  0  0  0
   -1.0540   -6.4176    5.1882 H   0  0  0  0  0  0  0  0  0  0  0  0
    0.3635   -6.8142    6.1378 H   0  0  0  0  0  0  0  0  0  0  0  0
  2  1  1  1
  1 28  1  0
  1 29  1  0
  1 30  1  0
  2 20  1  0
  2 26  1  0
  2  3  1  0
  3  4  1  0
  4 18  1  0
  4  5  2  0
  5  6  1  0
  5 31  1  0
  6  7  1  0
  6 32  1  0
  6 33  1  0
  7 17  1  0
  7  8  1  0
  7 34  1  1
  8 14  2  0
  8  9  1  0
  9 10  2  0
  9 35  1  0
 10 11  1  0
 10 36  1  0
 11 12  1  0
 11 13  2  0
 12 37  1  0
 13 14  1  0
 13 38  1  0
 14 15  1  0
 15 16  1  0
 15 39  1  0
 15 40  1  0
 16 17  1  0
 16 41  1  0
 16 42  1  0
 17 18  1  0
 17 43  1  6
 18 19  1  0
 18 44  1  1
 19 20  1  0
 19 45  1  0
 19 46  1  0
 20 21  1  0
 20 47  1  1
 21 22  1  0
 21 48  1  0
 21 49  1  0
 22 23  2  3
 22 25  1  0
 23 24  1  0
 24 50  1  0
 25 26  1  0
 25 51  1  0
 25 52  1  0
 26 27  2  0
M  END
>  <i_m_ct_stereo_status>  (421) 
1

>  <s_m_source_file>  (421) 
/var/tmp/pbs.5076255.sched01/tmpl4jv_xt6/1264eazgjw7.sdf

>  <i_m_source_file_index>  (421) 
39

>  <i_lp_mmshare_version>  (421) 
48012

>  <i_f3d_flags>  (421) 
0

>  <s_epik_input>  (421) 
Tz1DMVtDSDJdQyg9Ti9bT0hdKVxbQ0gyXVtDQEhdKFtDQF0xMltDSDNdKVtDSDJdW0NASF0zQyhPMik9W0NIXVtDSDJdW0NAQEhdNGM1YyhbQ0gyXVtDSDJdW0NASF0zNClbY0hdYyhbT0hdKVtjSF1bY0hdNQ==

>  <s_epik_cmdline>  (421) 
J2VwaWtfcHl0aG9uJywgJy1waHQnLCAnMi4wJywgJy1waCcsICc3LjAnLCAnLXRuJywgJzgnLCAnLW1hJywgJzIwMCcsICctaW1hZScsICc8aW5maWxlLm1hZT4nLCAnLW9tYWUnLCAnPG91dGZpbGUubWFlPic=

>  <r_lp_tautomer_probability>  (421) 
1

>  <r_epik_Ionization_Penalty>  (421) 
0.000130704

>  <r_epik_Ionization_Penalty_Charging>  (421) 
0

>  <r_epik_Ionization_Penalty_Neutral>  (421) 
0.000130704

>  <r_epik_State_Penalty>  (421) 
-0

>  <r_epik_Charging_Adjusted_Penalty>  (421) 
0

>  <i_epik_Tot_Q>  (421) 
0

>  <i_epik_Tot_abs_Q>  (421) 
0

>  <s_epik_Chemistry_Notes>  (421) 
This compound has an imine and may undergo hydrolysis.

>  <s_lp_Force_Field>  (421) 
OPLS3e

>  <r_lp_Energy>  (421) 
31.2779

>  <b_lp_Chiralities_Consistent>  (421) 
1

>  <s_lp_Variant>  (421) 
121:0-1

>  <s_i_glide_gridfile>  (421) 
pfpi4k_grid

>  <i_i_glide_lignum>  (421) 
39

>  <i_i_glide_rotatable_bonds>  (421) 
2

>  <r_i_docking_score>  (421) 
-2.98897

>  <r_i_glide_ligand_efficiency>  (421) 
-0.110703

>  <r_i_glide_ligand_efficiency_sa>  (421) 
-0.332108

>  <r_i_glide_ligand_efficiency_ln>  (421) 
-0.695783

>  <r_i_glide_gscore>  (421) 
-2.98897

>  <r_i_glide_lipo>  (421) 
-0.00122527

>  <r_i_glide_hbond>  (421) 
-0.0391685

>  <r_i_glide_metal>  (421) 
-0

>  <r_i_glide_rewards>  (421) 
-0.91446

>  <r_i_glide_evdw>  (421) 
-20.7844

>  <r_i_glide_ecoul>  (421) 
-6.51237

>  <r_i_glide_erotb>  (421) 
0.142645

>  <r_i_glide_esite>  (421) 
-0.160683

>  <r_i_glide_emodel>  (421) 
-32.4861

>  <r_i_glide_energy>  (421) 
-27.2968

>  <r_i_glide_einternal>  (421) 
1.58534

>  <r_i_glide_intrahb_reward>  (421) 
-0

>  <i_i_glide_confnum>  (421) 
3

>  <i_i_glide_posenum>  (421) 
24

>  <r_i_glide_eff_state_penalty>  (421) 
0

>  <ligand_id>  (421) 
121

>  <original_smiles>  (421) 
CC12OC3=CCC4c5ccc(O)cc5CCC4C3CC1CC(=NO)CC2=O

>  <smiles>  (421) 
[H]ON=C1C([H])([H])C(=O)C2(C([H])([H])[H])OC3=C([H])C([H])([H])C4([H])c5c([H])c([H])c(O[H])c([H])c5C([H])([H])C([H])([H])C4([H])C3([H])C([H])([H])C2([H])C1([H])[H]

$$$$
121:0:2
     RDKit          3D

 52 56  0  0  1  0  0  0  0  0999 V2000
    5.6684   -0.7772    9.9036 C   0  0  0  0  0  0  0  0  0  0  0  0
    4.3384   -0.9343    9.1392 C   0  0  1  0  0  0  0  0  0  0  0  0
    3.6611    0.2901    9.4540 O   0  0  0  0  0  0  0  0  0  0  0  0
    2.8679    0.8774    8.4965 C   0  0  0  0  0  0  0  0  0  0  0  0
    2.6580    2.2028    8.5363 C   0  0  0  0  0  0  0  0  0  0  0  0
    1.8304    2.9421    7.5093 C   0  0  0  0  0  0  0  0  0  0  0  0
    1.6311    2.1256    6.2116 C   0  0  2  0  0  0  0  0  0  0  0  0
    0.6275    2.8230    5.3025 C   0  0  0  0  0  0  0  0  0  0  0  0
    1.0448    3.9457    4.5579 C   0  0  0  0  0  0  0  0  0  0  0  0
    0.1351    4.6360    3.7401 C   0  0  0  0  0  0  0  0  0  0  0  0
   -1.2051    4.2153    3.6682 C   0  0  0  0  0  0  0  0  0  0  0  0
   -2.0757    4.9024    2.8791 O   0  0  0  0  0  0  0  0  0  0  0  0
   -1.6280    3.0767    4.3842 C   0  0  0  0  0  0  0  0  0  0  0  0
   -0.7138    2.3714    5.1962 C   0  0  0  0  0  0  0  0  0  0  0  0
   -1.1878    1.1123    5.9047 C   0  0  0  0  0  0  0  0  0  0  0  0
   -0.2271    0.6024    6.9927 C   0  0  0  0  0  0  0  0  0  0  0  0
    1.2394    0.6568    6.5121 C   0  0  2  0  0  0  0  0  0  0  0  0
    2.2451   -0.0581    7.4677 C   0  0  1  0  0  0  0  0  0  0  0  0
    3.3469   -0.8374    6.7274 C   0  0  0  0  0  0  0  0  0  0  0  0
    4.5932   -1.1227    7.6091 C   0  0  2  0  0  0  0  0  0  0  0  0
    5.1895   -2.5147    7.2949 C   0  0  0  0  0  0  0  0  0  0  0  0
    4.3444   -3.6553    7.8603 C   0  0  0  0  0  0  0  0  0  0  0  0
    3.9542   -4.5909    7.0896 N   0  0  0  0  0  0  0  0  0  0  0  0
    3.1962   -5.5728    7.7966 O   0  0  0  0  0  0  0  0  0  0  0  0
    4.0688   -3.5324    9.3685 C   0  0  0  0  0  0  0  0  0  0  0  0
    3.5653   -2.1320    9.7234 C   0  0  0  0  0  0  0  0  0  0  0  0
    2.6050   -1.9889   10.4776 O   0  0  0  0  0  0  0  0  0  0  0  0
    6.3075   -1.6559    9.8263 H   0  0  0  0  0  0  0  0  0  0  0  0
    5.4844   -0.6008   10.9647 H   0  0  0  0  0  0  0  0  0  0  0  0
    6.2325    0.0787    9.5321 H   0  0  0  0  0  0  0  0  0  0  0  0
    3.1064    2.7963    9.3220 H   0  0  0  0  0  0  0  0  0  0  0  0
    0.8711    3.1804    7.9684 H   0  0  0  0  0  0  0  0  0  0  0  0
    2.3169    3.8887    7.2847 H   0  0  0  0  0  0  0  0  0  0  0  0
    2.5832    2.1001    5.6807 H   0  0  0  0  0  0  0  0  0  0  0  0
    2.0665    4.2871    4.6155 H   0  0  0  0  0  0  0  0  0  0  0  0
    0.4668    5.4860    3.1590 H   0  0  0  0  0  0  0  0  0  0  0  0
   -1.6266    5.1669    2.0816 H   0  0  0  0  0  0  0  0  0  0  0  0
   -2.6487    2.7334    4.2858 H   0  0  0  0  0  0  0  0  0  0  0  0
   -2.1823    1.2765    6.3214 H   0  0  0  0  0  0  0  0  0  0  0  0
   -1.2877    0.3384    5.1413 H   0  0  0  0  0  0  0  0  0  0  0  0
   -0.3417    1.2177    7.8865 H   0  0  0  0  0  0  0  0  0  0  0  0
   -0.5054   -0.4114    7.2851 H   0  0  0  0  0  0  0  0  0  0  0  0
    1.2547    0.1096    5.5684 H   0  0  0  0  0  0  0  0  0  0  0  0
    1.6775   -0.7955    8.0370 H   0  0  0  0  0  0  0  0  0  0  0  0
    2.9147   -1.7605    6.3244 H   0  0  0  0  0  0  0  0  0  0  0  0
    3.6716   -0.2690    5.8541 H   0  0  0  0  0  0  0  0  0  0  0  0
    5.3386   -0.3791    7.3189 H   0  0  0  0  0  0  0  0  0  0  0  0
    5.2976   -2.6409    6.2151 H   0  0  0  0  0  0  0  0  0  0  0  0
    6.1925   -2.5993    7.7161 H   0  0  0  0  0  0  0  0  0  0  0  0
    3.0570   -5.1640    8.6359 H   0  0  0  0  0  0  0  0  0  0  0  0
    3.3545   -4.2755    9.7220 H   0  0  0  0  0  0  0  0  0  0  0  0
    4.9983   -3.7084    9.9070 H   0  0  0  0  0  0  0  0  0  0  0  0
  2  1  1  1
  1 28  1  0
  1 29  1  0
  1 30  1  0
  2 20  1  0
  2 26  1  0
  2  3  1  0
  3  4  1  0
  4 18  1  0
  4  5  2  0
  5  6  1  0
  5 31  1  0
  6  7  1  0
  6 32  1  0
  6 33  1  0
  7 17  1  0
  7  8  1  0
  7 34  1  6
  8 14  2  0
  8  9  1  0
  9 10  2  0
  9 35  1  0
 10 11  1  0
 10 36  1  0
 11 12  1  0
 11 13  2  0
 12 37  1  0
 13 14  1  0
 13 38  1  0
 14 15  1  0
 15 16  1  0
 15 39  1  0
 15 40  1  0
 16 17  1  0
 16 41  1  0
 16 42  1  0
 17 18  1  0
 17 43  1  6
 18 19  1  0
 18 44  1  1
 19 20  1  0
 19 45  1  0
 19 46  1  0
 20 21  1  0
 20 47  1  6
 21 22  1  0
 21 48  1  0
 21 49  1  0
 22 23  2  3
 22 25  1  0
 23 24  1  0
 24 50  1  0
 25 26  1  0
 25 51  1  0
 25 52  1  0
 26 27  2  0
M  END
>  <i_m_ct_stereo_status>  (422) 
1

>  <s_m_source_file>  (422) 
/var/tmp/pbs.5076255.sched01/tmpl4jv_xt6/1264eazgjw7.sdf

>  <i_m_source_file_index>  (422) 
39

>  <i_lp_mmshare_version>  (422) 
48012

>  <i_f3d_flags>  (422) 
0

>  <s_epik_input>  (422) 
Tz1DMVtDSDJdQyg9Ti9bT0hdKVxbQ0gyXVtDQEhdKFtDQF0xMltDSDNdKVtDSDJdW0NASF0zQyhPMik9W0NIXVtDSDJdW0NAQEhdNGM1YyhbQ0gyXVtDSDJdW0NASF0zNClbY0hdYyhbT0hdKVtjSF1bY0hdNQ==

>  <s_epik_cmdline>  (422) 
J2VwaWtfcHl0aG9uJywgJy1waHQnLCAnMi4wJywgJy1waCcsICc3LjAnLCAnLXRuJywgJzgnLCAnLW1hJywgJzIwMCcsICctaW1hZScsICc8aW5maWxlLm1hZT4nLCAnLW9tYWUnLCAnPG91dGZpbGUubWFlPic=

>  <r_lp_tautomer_probability>  (422) 
1

>  <r_epik_Ionization_Penalty>  (422) 
0.000130704

>  <r_epik_Ionization_Penalty_Charging>  (422) 
0

>  <r_epik_Ionization_Penalty_Neutral>  (422) 
0.000130704

>  <r_epik_State_Penalty>  (422) 
-0

>  <r_epik_Charging_Adjusted_Penalty>  (422) 
0

>  <i_epik_Tot_Q>  (422) 
0

>  <i_epik_Tot_abs_Q>  (422) 
0

>  <s_epik_Chemistry_Notes>  (422) 
This compound has an imine and may undergo hydrolysis.

>  <s_lp_Force_Field>  (422) 
OPLS3e

>  <r_lp_Energy>  (422) 
31.2779

>  <b_lp_Chiralities_Consistent>  (422) 
1

>  <s_lp_Variant>  (422) 
121:0-1

>  <s_i_glide_gridfile>  (422) 
pfpi4k_grid

>  <i_i_glide_lignum>  (422) 
39

>  <i_i_glide_rotatable_bonds>  (422) 
2

>  <r_i_docking_score>  (422) 
-2.11826

>  <r_i_glide_ligand_efficiency>  (422) 
-0.0784541

>  <r_i_glide_ligand_efficiency_sa>  (422) 
-0.235362

>  <r_i_glide_ligand_efficiency_ln>  (422) 
-0.493096

>  <r_i_glide_gscore>  (422) 
-2.11826

>  <r_i_glide_lipo>  (422) 
-0.000256129

>  <r_i_glide_hbond>  (422) 
-0.207958

>  <r_i_glide_metal>  (422) 
-0

>  <r_i_glide_rewards>  (422) 
-0.90383

>  <r_i_glide_evdw>  (422) 
-12.6415

>  <r_i_glide_ecoul>  (422) 
-3.44524

>  <r_i_glide_erotb>  (422) 
0.142645

>  <r_i_glide_esite>  (422) 
0

>  <r_i_glide_emodel>  (422) 
-19.4159

>  <r_i_glide_energy>  (422) 
-16.0868

>  <r_i_glide_einternal>  (422) 
1.19428

>  <r_i_glide_intrahb_reward>  (422) 
-0

>  <i_i_glide_confnum>  (422) 
4

>  <i_i_glide_posenum>  (422) 
1

>  <r_i_glide_eff_state_penalty>  (422) 
0

>  <ligand_id>  (422) 
121

>  <original_smiles>  (422) 
CC12OC3=CCC4c5ccc(O)cc5CCC4C3CC1CC(=NO)CC2=O

>  <smiles>  (422) 
[H]ON=C1C([H])([H])C(=O)C2(C([H])([H])[H])OC3=C([H])C([H])([H])C4([H])c5c([H])c([H])c(O[H])c([H])c5C([H])([H])C([H])([H])C4([H])C3([H])C([H])([H])C2([H])C1([H])[H]

$$$$
121:1:0
     RDKit          3D

 52 56  0  0  1  0  0  0  0  0999 V2000
    3.9930   -8.2957    4.5759 C   0  0  0  0  0  0  0  0  0  0  0  0
    3.6920   -7.1679    3.5726 C   0  0  1  0  0  0  0  0  0  0  0  0
    4.9524   -6.4947    3.4991 O   0  0  0  0  0  0  0  0  0  0  0  0
    5.2466   -5.6868    2.4227 C   0  0  0  0  0  0  0  0  0  0  0  0
    6.4805   -5.1630    2.3362 C   0  0  0  0  0  0  0  0  0  0  0  0
    6.9091   -4.2274    1.2314 C   0  0  0  0  0  0  0  0  0  0  0  0
    5.7154   -3.5688    0.5053 C   0  0  2  0  0  0  0  0  0  0  0  0
    5.0855   -2.3349    1.1846 C   0  0  0  0  0  0  0  0  0  0  0  0
    5.8416   -1.4785    2.0135 C   0  0  0  0  0  0  0  0  0  0  0  0
    5.2686   -0.3450    2.6143 C   0  0  0  0  0  0  0  0  0  0  0  0
    3.9299   -0.0096    2.3512 C   0  0  0  0  0  0  0  0  0  0  0  0
    3.3872    1.1320    2.8700 O   0  0  0  0  0  0  0  0  0  0  0  0
    3.1594   -0.8397    1.5163 C   0  0  0  0  0  0  0  0  0  0  0  0
    3.7300   -2.0018    0.9484 C   0  0  0  0  0  0  0  0  0  0  0  0
    2.8396   -2.8813    0.1003 C   0  0  0  0  0  0  0  0  0  0  0  0
    3.5647   -3.9661   -0.6825 C   0  0  0  0  0  0  0  0  0  0  0  0
    4.6677   -4.6470    0.1403 C   0  0  2  0  0  0  0  0  0  0  0  0
    4.1433   -5.4143    1.4022 C   0  0  1  0  0  0  0  0  0  0  0  0
    3.3838   -6.7025    1.0350 C   0  0  0  0  0  0  0  0  0  0  0  0
    3.2489   -7.7266    2.1917 C   0  0  2  0  0  0  0  0  0  0  0  0
    1.8152   -8.3146    2.2461 C   0  0  0  0  0  0  0  0  0  0  0  0
    0.7966   -7.3165    2.8375 C   0  0  0  0  0  0  0  0  0  0  0  0
   -0.2746   -6.8972    2.2963 N   0  0  0  0  0  0  0  0  0  0  0  0
   -0.4526   -7.4454    0.9978 O   0  0  0  0  0  0  0  0  0  0  0  0
    1.1805   -6.7842    4.2063 C   0  0  0  0  0  0  0  0  0  0  0  0
    2.6135   -6.2536    4.1917 C   0  0  0  0  0  0  0  0  0  0  0  0
    2.8828   -5.1615    4.6887 O   0  0  0  0  0  0  0  0  0  0  0  0
    3.1213   -8.9084    4.8025 H   0  0  0  0  0  0  0  0  0  0  0  0
    4.3476   -7.8779    5.5186 H   0  0  0  0  0  0  0  0  0  0  0  0
    4.7794   -8.9515    4.2036 H   0  0  0  0  0  0  0  0  0  0  0  0
    7.2271   -5.4216    3.0740 H   0  0  0  0  0  0  0  0  0  0  0  0
    7.6447   -3.5166    1.5938 H   0  0  0  0  0  0  0  0  0  0  0  0
    7.4423   -4.8529    0.5187 H   0  0  0  0  0  0  0  0  0  0  0  0
    6.1157   -3.1762   -0.4313 H   0  0  0  0  0  0  0  0  0  0  0  0
    6.8818   -1.6674    2.1852 H   0  0  0  0  0  0  0  0  0  0  0  0
    5.8781    0.2787    3.2529 H   0  0  0  0  0  0  0  0  0  0  0  0
    4.0063    1.8527    2.8444 H   0  0  0  0  0  0  0  0  0  0  0  0
    2.1337   -0.5743    1.2904 H   0  0  0  0  0  0  0  0  0  0  0  0
    2.1158   -3.3354    0.7765 H   0  0  0  0  0  0  0  0  0  0  0  0
    2.2966   -2.2575   -0.6021 H   0  0  0  0  0  0  0  0  0  0  0  0
    2.8338   -4.6606   -1.0772 H   0  0  0  0  0  0  0  0  0  0  0  0
    4.0330   -3.5035   -1.5503 H   0  0  0  0  0  0  0  0  0  0  0  0
    5.1688   -5.3710   -0.5107 H   0  0  0  0  0  0  0  0  0  0  0  0
    3.4582   -4.7555    1.9333 H   0  0  0  0  0  0  0  0  0  0  0  0
    2.4084   -6.4440    0.6090 H   0  0  0  0  0  0  0  0  0  0  0  0
    3.9260   -7.1979    0.2279 H   0  0  0  0  0  0  0  0  0  0  0  0
    3.9335   -8.5438    1.9532 H   0  0  0  0  0  0  0  0  0  0  0  0
    1.5200   -8.6664    1.2590 H   0  0  0  0  0  0  0  0  0  0  0  0
    1.8139   -9.1959    2.8869 H   0  0  0  0  0  0  0  0  0  0  0  0
   -0.1237   -8.3381    1.1013 H   0  0  0  0  0  0  0  0  0  0  0  0
    0.4935   -5.9844    4.4899 H   0  0  0  0  0  0  0  0  0  0  0  0
    1.0871   -7.5747    4.9492 H   0  0  0  0  0  0  0  0  0  0  0  0
  2  1  1  1
  1 28  1  0
  1 29  1  0
  1 30  1  0
  2 20  1  0
  2 26  1  0
  2  3  1  0
  3  4  1  0
  4 18  1  0
  4  5  2  0
  5  6  1  0
  5 31  1  0
  6  7  1  0
  6 32  1  0
  6 33  1  0
  7 17  1  0
  7  8  1  0
  7 34  1  6
  8 14  2  0
  8  9  1  0
  9 10  2  0
  9 35  1  0
 10 11  1  0
 10 36  1  0
 11 12  1  0
 11 13  2  0
 12 37  1  0
 13 14  1  0
 13 38  1  0
 14 15  1  0
 15 16  1  0
 15 39  1  0
 15 40  1  0
 16 17  1  0
 16 41  1  0
 16 42  1  0
 17 18  1  0
 17 43  1  6
 18 19  1  0
 18 44  1  1
 19 20  1  0
 19 45  1  0
 19 46  1  0
 20 21  1  0
 20 47  1  6
 21 22  1  0
 21 48  1  0
 21 49  1  0
 22 23  2  3
 22 25  1  0
 23 24  1  0
 24 50  1  0
 25 26  1  0
 25 51  1  0
 25 52  1  0
 26 27  2  0
M  END
>  <i_m_ct_stereo_status>  (423) 
1

>  <s_m_source_file>  (423) 
/var/tmp/pbs.5076255.sched01/tmpl4jv_xt6/1264eazgjw7.sdf

>  <i_m_source_file_index>  (423) 
40

>  <i_lp_mmshare_version>  (423) 
48012

>  <i_f3d_flags>  (423) 
0

>  <s_epik_input>  (423) 
Tz1DMVtDSDJdQyg9Ti9bT0hdKVxbQ0gyXVtDQEhdKFtDQF0xMltDSDNdKVtDSDJdW0NASF0zQyhPMik9W0NIXVtDSDJdW0NAQEhdNGM1YyhbQ0gyXVtDSDJdW0NASF0zNClbY0hdYyhbT0hdKVtjSF1bY0hdNQ==

>  <s_epik_cmdline>  (423) 
J2VwaWtfcHl0aG9uJywgJy1waHQnLCAnMi4wJywgJy1waCcsICc3LjAnLCAnLXRuJywgJzgnLCAnLW1hJywgJzIwMCcsICctaW1hZScsICc8aW5maWxlLm1hZT4nLCAnLW9tYWUnLCAnPG91dGZpbGUubWFlPic=

>  <r_lp_tautomer_probability>  (423) 
1

>  <r_epik_Ionization_Penalty>  (423) 
0.000130704

>  <r_epik_Ionization_Penalty_Charging>  (423) 
0

>  <r_epik_Ionization_Penalty_Neutral>  (423) 
0.000130704

>  <r_epik_State_Penalty>  (423) 
-0

>  <r_epik_Charging_Adjusted_Penalty>  (423) 
0

>  <i_epik_Tot_Q>  (423) 
0

>  <i_epik_Tot_abs_Q>  (423) 
0

>  <s_epik_Chemistry_Notes>  (423) 
This compound has an imine and may undergo hydrolysis.

>  <s_lp_Force_Field>  (423) 
OPLS3e

>  <r_lp_Energy>  (423) 
31.622

>  <b_lp_Chiralities_Consistent>  (423) 
1

>  <s_lp_Variant>  (423) 
121:0-2

>  <s_i_glide_gridfile>  (423) 
pfpi4k_grid

>  <i_i_glide_lignum>  (423) 
40

>  <i_i_glide_rotatable_bonds>  (423) 
2

>  <r_i_docking_score>  (423) 
-4.42834

>  <r_i_glide_ligand_efficiency>  (423) 
-0.164013

>  <r_i_glide_ligand_efficiency_sa>  (423) 
-0.492038

>  <r_i_glide_ligand_efficiency_ln>  (423) 
-1.03085

>  <r_i_glide_gscore>  (423) 
-4.42834

>  <r_i_glide_lipo>  (423) 
-0.634194

>  <r_i_glide_hbond>  (423) 
-0.475421

>  <r_i_glide_metal>  (423) 
-0

>  <r_i_glide_rewards>  (423) 
-0.90383

>  <r_i_glide_evdw>  (423) 
-18.9795

>  <r_i_glide_ecoul>  (423) 
-9.25327

>  <r_i_glide_erotb>  (423) 
0.142645

>  <r_i_glide_esite>  (423) 
-0.220577

>  <r_i_glide_emodel>  (423) 
-37.3499

>  <r_i_glide_energy>  (423) 
-28.2328

>  <r_i_glide_einternal>  (423) 
1.94538

>  <r_i_glide_intrahb_reward>  (423) 
-0

>  <i_i_glide_confnum>  (423) 
3

>  <i_i_glide_posenum>  (423) 
9

>  <r_i_glide_eff_state_penalty>  (423) 
0

>  <ligand_id>  (423) 
121

>  <original_smiles>  (423) 
CC12OC3=CCC4c5ccc(O)cc5CCC4C3CC1CC(=NO)CC2=O

>  <smiles>  (423) 
[H]ON=C1C([H])([H])C(=O)C2(C([H])([H])[H])OC3=C([H])C([H])([H])C4([H])c5c([H])c([H])c(O[H])c([H])c5C([H])([H])C([H])([H])C4([H])C3([H])C([H])([H])C2([H])C1([H])[H]

$$$$
121:1:1
     RDKit          3D

 52 56  0  0  1  0  0  0  0  0999 V2000
   -0.6681   -8.3741    4.7819 C   0  0  0  0  0  0  0  0  0  0  0  0
    0.5841   -7.5832    4.3740 C   0  0  1  0  0  0  0  0  0  0  0  0
    0.4093   -6.3520    5.0656 O   0  0  0  0  0  0  0  0  0  0  0  0
    1.4918   -5.5327    5.2863 C   0  0  0  0  0  0  0  0  0  0  0  0
    1.3056   -4.4391    6.0333 C   0  0  0  0  0  0  0  0  0  0  0  0
    2.3980   -3.4436    6.3312 C   0  0  0  0  0  0  0  0  0  0  0  0
    3.5704   -3.5272    5.3228 C   0  0  2  0  0  0  0  0  0  0  0  0
    3.3750   -2.8043    3.9824 C   0  0  0  0  0  0  0  0  0  0  0  0
    2.5236   -1.6710    3.8732 C   0  0  0  0  0  0  0  0  0  0  0  0
    2.3952   -0.9850    2.6470 C   0  0  0  0  0  0  0  0  0  0  0  0
    3.1212   -1.4124    1.5216 C   0  0  0  0  0  0  0  0  0  0  0  0
    3.0212   -0.7643    0.3334 O   0  0  0  0  0  0  0  0  0  0  0  0
    3.9699   -2.5276    1.6155 C   0  0  0  0  0  0  0  0  0  0  0  0
    4.0907   -3.2322    2.8289 C   0  0  0  0  0  0  0  0  0  0  0  0
    4.9765   -4.4717    2.8397 C   0  0  0  0  0  0  0  0  0  0  0  0
    5.2513   -5.0413    4.2377 C   0  0  0  0  0  0  0  0  0  0  0  0
    4.0063   -5.0039    5.1453 C   0  0  2  0  0  0  0  0  0  0  0  0
    2.8323   -5.9180    4.6533 C   0  0  1  0  0  0  0  0  0  0  0  0
    3.1363   -7.4193    4.8172 C   0  0  0  0  0  0  0  0  0  0  0  0
    1.8862   -8.3341    4.7922 C   0  0  2  0  0  0  0  0  0  0  0  0
    2.1479   -9.5892    3.9201 C   0  0  0  0  0  0  0  0  0  0  0  0
    2.1265   -9.2466    2.4275 C   0  0  0  0  0  0  0  0  0  0  0  0
    3.0135   -9.4836    1.5517 N   0  0  0  0  0  0  0  0  0  0  0  0
    4.0721  -10.2546    2.1103 O   0  0  0  0  0  0  0  0  0  0  0  0
    0.8519   -8.5613    1.9949 C   0  0  0  0  0  0  0  0  0  0  0  0
    0.5270   -7.3570    2.8556 C   0  0  0  0  0  0  0  0  0  0  0  0
    0.1689   -6.2947    2.3469 O   0  0  0  0  0  0  0  0  0  0  0  0
   -0.7359   -9.3499    4.3028 H   0  0  0  0  0  0  0  0  0  0  0  0
   -1.5808   -7.8298    4.5325 H   0  0  0  0  0  0  0  0  0  0  0  0
   -0.6741   -8.5489    5.8550 H   0  0  0  0  0  0  0  0  0  0  0  0
    0.3389   -4.2480    6.4824 H   0  0  0  0  0  0  0  0  0  0  0  0
    1.9876   -2.4436    6.4443 H   0  0  0  0  0  0  0  0  0  0  0  0
    2.7754   -3.7036    7.3191 H   0  0  0  0  0  0  0  0  0  0  0  0
    4.4046   -2.9961    5.7894 H   0  0  0  0  0  0  0  0  0  0  0  0
    1.9688   -1.3001    4.7179 H   0  0  0  0  0  0  0  0  0  0  0  0
    1.7506   -0.1244    2.5823 H   0  0  0  0  0  0  0  0  0  0  0  0
    2.1163   -0.7406   -0.0200 H   0  0  0  0  0  0  0  0  0  0  0  0
    4.5217   -2.8471    0.7462 H   0  0  0  0  0  0  0  0  0  0  0  0
    4.4757   -5.2356    2.2436 H   0  0  0  0  0  0  0  0  0  0  0  0
    5.9164   -4.2571    2.3267 H   0  0  0  0  0  0  0  0  0  0  0  0
    5.6928   -6.0372    4.1789 H   0  0  0  0  0  0  0  0  0  0  0  0
    6.0132   -4.4139    4.7007 H   0  0  0  0  0  0  0  0  0  0  0  0
    4.3113   -5.3617    6.1318 H   0  0  0  0  0  0  0  0  0  0  0  0
    2.6849   -5.7221    3.5928 H   0  0  0  0  0  0  0  0  0  0  0  0
    3.8693   -7.7203    4.0637 H   0  0  0  0  0  0  0  0  0  0  0  0
    3.6343   -7.5797    5.7727 H   0  0  0  0  0  0  0  0  0  0  0  0
    1.7299   -8.6747    5.8166 H   0  0  0  0  0  0  0  0  0  0  0  0
    3.0834  -10.0725    4.2168 H   0  0  0  0  0  0  0  0  0  0  0  0
    1.3690  -10.3301    4.1029 H   0  0  0  0  0  0  0  0  0  0  0  0
    4.1943  -10.9228    1.4397 H   0  0  0  0  0  0  0  0  0  0  0  0
    0.9516   -8.2458    0.9574 H   0  0  0  0  0  0  0  0  0  0  0  0
    0.0291   -9.2738    2.0466 H   0  0  0  0  0  0  0  0  0  0  0  0
  2  1  1  1
  1 28  1  0
  1 29  1  0
  1 30  1  0
  2 20  1  0
  2 26  1  0
  2  3  1  0
  3  4  1  0
  4 18  1  0
  4  5  2  0
  5  6  1  0
  5 31  1  0
  6  7  1  0
  6 32  1  0
  6 33  1  0
  7 17  1  0
  7  8  1  0
  7 34  1  1
  8 14  2  0
  8  9  1  0
  9 10  2  0
  9 35  1  0
 10 11  1  0
 10 36  1  0
 11 12  1  0
 11 13  2  0
 12 37  1  0
 13 14  1  0
 13 38  1  0
 14 15  1  0
 15 16  1  0
 15 39  1  0
 15 40  1  0
 16 17  1  0
 16 41  1  0
 16 42  1  0
 17 18  1  0
 17 43  1  1
 18 19  1  0
 18 44  1  6
 19 20  1  0
 19 45  1  0
 19 46  1  0
 20 21  1  0
 20 47  1  1
 21 22  1  0
 21 48  1  0
 21 49  1  0
 22 23  2  3
 22 25  1  0
 23 24  1  0
 24 50  1  0
 25 26  1  0
 25 51  1  0
 25 52  1  0
 26 27  2  0
M  END
>  <i_m_ct_stereo_status>  (424) 
1

>  <s_m_source_file>  (424) 
/var/tmp/pbs.5076255.sched01/tmpl4jv_xt6/1264eazgjw7.sdf

>  <i_m_source_file_index>  (424) 
40

>  <i_lp_mmshare_version>  (424) 
48012

>  <i_f3d_flags>  (424) 
0

>  <s_epik_input>  (424) 
Tz1DMVtDSDJdQyg9Ti9bT0hdKVxbQ0gyXVtDQEhdKFtDQF0xMltDSDNdKVtDSDJdW0NASF0zQyhPMik9W0NIXVtDSDJdW0NAQEhdNGM1YyhbQ0gyXVtDSDJdW0NASF0zNClbY0hdYyhbT0hdKVtjSF1bY0hdNQ==

>  <s_epik_cmdline>  (424) 
J2VwaWtfcHl0aG9uJywgJy1waHQnLCAnMi4wJywgJy1waCcsICc3LjAnLCAnLXRuJywgJzgnLCAnLW1hJywgJzIwMCcsICctaW1hZScsICc8aW5maWxlLm1hZT4nLCAnLW9tYWUnLCAnPG91dGZpbGUubWFlPic=

>  <r_lp_tautomer_probability>  (424) 
1

>  <r_epik_Ionization_Penalty>  (424) 
0.000130704

>  <r_epik_Ionization_Penalty_Charging>  (424) 
0

>  <r_epik_Ionization_Penalty_Neutral>  (424) 
0.000130704

>  <r_epik_State_Penalty>  (424) 
-0

>  <r_epik_Charging_Adjusted_Penalty>  (424) 
0

>  <i_epik_Tot_Q>  (424) 
0

>  <i_epik_Tot_abs_Q>  (424) 
0

>  <s_epik_Chemistry_Notes>  (424) 
This compound has an imine and may undergo hydrolysis.

>  <s_lp_Force_Field>  (424) 
OPLS3e

>  <r_lp_Energy>  (424) 
31.622

>  <b_lp_Chiralities_Consistent>  (424) 
1

>  <s_lp_Variant>  (424) 
121:0-2

>  <s_i_glide_gridfile>  (424) 
pfpi4k_grid

>  <i_i_glide_lignum>  (424) 
40

>  <i_i_glide_rotatable_bonds>  (424) 
2

>  <r_i_docking_score>  (424) 
-4.23836

>  <r_i_glide_ligand_efficiency>  (424) 
-0.156976

>  <r_i_glide_ligand_efficiency_sa>  (424) 
-0.470929

>  <r_i_glide_ligand_efficiency_ln>  (424) 
-0.98662

>  <r_i_glide_gscore>  (424) 
-4.23836

>  <r_i_glide_lipo>  (424) 
-0.0176956

>  <r_i_glide_hbond>  (424) 
-0.476573

>  <r_i_glide_metal>  (424) 
-0

>  <r_i_glide_rewards>  (424) 
-0.972105

>  <r_i_glide_evdw>  (424) 
-16.762

>  <r_i_glide_ecoul>  (424) 
-12.5695

>  <r_i_glide_erotb>  (424) 
0.142645

>  <r_i_glide_esite>  (424) 
-0.191111

>  <r_i_glide_emodel>  (424) 
-36.4939

>  <r_i_glide_energy>  (424) 
-29.3315

>  <r_i_glide_einternal>  (424) 
3.86817

>  <r_i_glide_intrahb_reward>  (424) 
-0

>  <i_i_glide_confnum>  (424) 
1

>  <i_i_glide_posenum>  (424) 
34

>  <r_i_glide_eff_state_penalty>  (424) 
0

>  <ligand_id>  (424) 
121

>  <original_smiles>  (424) 
CC12OC3=CCC4c5ccc(O)cc5CCC4C3CC1CC(=NO)CC2=O

>  <smiles>  (424) 
[H]ON=C1C([H])([H])C(=O)C2(C([H])([H])[H])OC3=C([H])C([H])([H])C4([H])c5c([H])c([H])c(O[H])c([H])c5C([H])([H])C([H])([H])C4([H])C3([H])C([H])([H])C2([H])C1([H])[H]

$$$$
121:1:2
     RDKit          3D

 52 56  0  0  1  0  0  0  0  0999 V2000
    3.7578   -6.1774    0.4981 C   0  0  0  0  0  0  0  0  0  0  0  0
    3.8244   -4.7560    1.0778 C   0  0  1  0  0  0  0  0  0  0  0  0
    2.8243   -4.8018    2.0993 O   0  0  0  0  0  0  0  0  0  0  0  0
    2.8341   -3.8820    3.1221 C   0  0  0  0  0  0  0  0  0  0  0  0
    1.9462   -4.0312    4.1168 C   0  0  0  0  0  0  0  0  0  0  0  0
    1.8397   -3.0806    5.2842 C   0  0  0  0  0  0  0  0  0  0  0  0
    2.4764   -1.7016    4.9852 C   0  0  2  0  0  0  0  0  0  0  0  0
    1.6128   -0.7076    4.1935 C   0  0  0  0  0  0  0  0  0  0  0  0
    0.1971   -0.7472    4.2524 C   0  0  0  0  0  0  0  0  0  0  0  0
   -0.5737    0.2098    3.5698 C   0  0  0  0  0  0  0  0  0  0  0  0
    0.0507    1.2198    2.8171 C   0  0  0  0  0  0  0  0  0  0  0  0
   -0.7063    2.1407    2.1663 O   0  0  0  0  0  0  0  0  0  0  0  0
    1.4497    1.2665    2.7381 C   0  0  0  0  0  0  0  0  0  0  0  0
    2.2315    0.3113    3.4134 C   0  0  0  0  0  0  0  0  0  0  0  0
    3.7395    0.3970    3.2552 C   0  0  0  0  0  0  0  0  0  0  0  0
    4.5374   -0.5068    4.2027 C   0  0  0  0  0  0  0  0  0  0  0  0
    3.8856   -1.8929    4.3701 C   0  0  2  0  0  0  0  0  0  0  0  0
    3.8502   -2.7408    3.0524 C   0  0  1  0  0  0  0  0  0  0  0  0
    5.2472   -3.2415    2.6328 C   0  0  0  0  0  0  0  0  0  0  0  0
    5.2328   -4.4301    1.6413 C   0  0  2  0  0  0  0  0  0  0  0  0
    6.2748   -4.2221    0.5150 C   0  0  0  0  0  0  0  0  0  0  0  0
    5.8169   -3.1803   -0.5269 C   0  0  0  0  0  0  0  0  0  0  0  0
    6.4542   -2.1500   -0.9210 N   0  0  0  0  0  0  0  0  0  0  0  0
    7.7281   -2.0279   -0.2770 O   0  0  0  0  0  0  0  0  0  0  0  0
    4.4507   -3.4831   -1.1262 C   0  0  0  0  0  0  0  0  0  0  0  0
    3.4186   -3.7776   -0.0373 C   0  0  0  0  0  0  0  0  0  0  0  0
    2.2910   -3.3062   -0.0920 O   0  0  0  0  0  0  0  0  0  0  0  0
    4.4242   -6.3277   -0.3500 H   0  0  0  0  0  0  0  0  0  0  0  0
    2.7449   -6.3793    0.1516 H   0  0  0  0  0  0  0  0  0  0  0  0
    3.9916   -6.9262    1.2534 H   0  0  0  0  0  0  0  0  0  0  0  0
    1.2786   -4.8807    4.1262 H   0  0  0  0  0  0  0  0  0  0  0  0
    0.8158   -3.0224    5.6431 H   0  0  0  0  0  0  0  0  0  0  0  0
    2.3965   -3.5434    6.0970 H   0  0  0  0  0  0  0  0  0  0  0  0
    2.6079   -1.2135    5.9542 H   0  0  0  0  0  0  0  0  0  0  0  0
   -0.3210   -1.5028    4.8205 H   0  0  0  0  0  0  0  0  0  0  0  0
   -1.6501    0.1674    3.6186 H   0  0  0  0  0  0  0  0  0  0  0  0
   -0.2270    2.8060    1.6744 H   0  0  0  0  0  0  0  0  0  0  0  0
    1.9263    2.0458    2.1627 H   0  0  0  0  0  0  0  0  0  0  0  0
    3.9769    0.1341    2.2235 H   0  0  0  0  0  0  0  0  0  0  0  0
    4.0485    1.4326    3.3917 H   0  0  0  0  0  0  0  0  0  0  0  0
    5.5834   -0.5725    3.8964 H   0  0  0  0  0  0  0  0  0  0  0  0
    4.5500   -0.0246    5.1807 H   0  0  0  0  0  0  0  0  0  0  0  0
    4.4759   -2.4434    5.1069 H   0  0  0  0  0  0  0  0  0  0  0  0
    3.4687   -2.1026    2.2553 H   0  0  0  0  0  0  0  0  0  0  0  0
    5.8234   -2.3982    2.2399 H   0  0  0  0  0  0  0  0  0  0  0  0
    5.7870   -3.5668    3.5230 H   0  0  0  0  0  0  0  0  0  0  0  0
    5.5390   -5.3069    2.2166 H   0  0  0  0  0  0  0  0  0  0  0  0
    7.2457   -3.9804    0.9501 H   0  0  0  0  0  0  0  0  0  0  0  0
    6.4135   -5.1645   -0.0121 H   0  0  0  0  0  0  0  0  0  0  0  0
    7.7435   -2.7855    0.2864 H   0  0  0  0  0  0  0  0  0  0  0  0
    4.1160   -2.6444   -1.7407 H   0  0  0  0  0  0  0  0  0  0  0  0
    4.5260   -4.3546   -1.7745 H   0  0  0  0  0  0  0  0  0  0  0  0
  2  1  1  6
  1 28  1  0
  1 29  1  0
  1 30  1  0
  2 20  1  0
  2 26  1  0
  2  3  1  0
  3  4  1  0
  4 18  1  0
  4  5  2  0
  5  6  1  0
  5 31  1  0
  6  7  1  0
  6 32  1  0
  6 33  1  0
  7 17  1  0
  7  8  1  0
  7 34  1  1
  8 14  2  0
  8  9  1  0
  9 10  2  0
  9 35  1  0
 10 11  1  0
 10 36  1  0
 11 12  1  0
 11 13  2  0
 12 37  1  0
 13 14  1  0
 13 38  1  0
 14 15  1  0
 15 16  1  0
 15 39  1  0
 15 40  1  0
 16 17  1  0
 16 41  1  0
 16 42  1  0
 17 18  1  0
 17 43  1  1
 18 19  1  0
 18 44  1  6
 19 20  1  0
 19 45  1  0
 19 46  1  0
 20 21  1  0
 20 47  1  1
 21 22  1  0
 21 48  1  0
 21 49  1  0
 22 23  2  3
 22 25  1  0
 23 24  1  0
 24 50  1  0
 25 26  1  0
 25 51  1  0
 25 52  1  0
 26 27  2  0
M  END
>  <i_m_ct_stereo_status>  (425) 
1

>  <s_m_source_file>  (425) 
/var/tmp/pbs.5076255.sched01/tmpl4jv_xt6/1264eazgjw7.sdf

>  <i_m_source_file_index>  (425) 
40

>  <i_lp_mmshare_version>  (425) 
48012

>  <i_f3d_flags>  (425) 
0

>  <s_epik_input>  (425) 
Tz1DMVtDSDJdQyg9Ti9bT0hdKVxbQ0gyXVtDQEhdKFtDQF0xMltDSDNdKVtDSDJdW0NASF0zQyhPMik9W0NIXVtDSDJdW0NAQEhdNGM1YyhbQ0gyXVtDSDJdW0NASF0zNClbY0hdYyhbT0hdKVtjSF1bY0hdNQ==

>  <s_epik_cmdline>  (425) 
J2VwaWtfcHl0aG9uJywgJy1waHQnLCAnMi4wJywgJy1waCcsICc3LjAnLCAnLXRuJywgJzgnLCAnLW1hJywgJzIwMCcsICctaW1hZScsICc8aW5maWxlLm1hZT4nLCAnLW9tYWUnLCAnPG91dGZpbGUubWFlPic=

>  <r_lp_tautomer_probability>  (425) 
1

>  <r_epik_Ionization_Penalty>  (425) 
0.000130704

>  <r_epik_Ionization_Penalty_Charging>  (425) 
0

>  <r_epik_Ionization_Penalty_Neutral>  (425) 
0.000130704

>  <r_epik_State_Penalty>  (425) 
-0

>  <r_epik_Charging_Adjusted_Penalty>  (425) 
0

>  <i_epik_Tot_Q>  (425) 
0

>  <i_epik_Tot_abs_Q>  (425) 
0

>  <s_epik_Chemistry_Notes>  (425) 
This compound has an imine and may undergo hydrolysis.

>  <s_lp_Force_Field>  (425) 
OPLS3e

>  <r_lp_Energy>  (425) 
31.622

>  <b_lp_Chiralities_Consistent>  (425) 
1

>  <s_lp_Variant>  (425) 
121:0-2

>  <s_i_glide_gridfile>  (425) 
pfpi4k_grid

>  <i_i_glide_lignum>  (425) 
40

>  <i_i_glide_rotatable_bonds>  (425) 
2

>  <r_i_docking_score>  (425) 
-3.29245

>  <r_i_glide_ligand_efficiency>  (425) 
-0.121942

>  <r_i_glide_ligand_efficiency_sa>  (425) 
-0.365827

>  <r_i_glide_ligand_efficiency_ln>  (425) 
-0.766427

>  <r_i_glide_gscore>  (425) 
-3.29245

>  <r_i_glide_lipo>  (425) 
-0.297891

>  <r_i_glide_hbond>  (425) 
-0.170306

>  <r_i_glide_metal>  (425) 
-0

>  <r_i_glide_rewards>  (425) 
-0.976897

>  <r_i_glide_evdw>  (425) 
-23.372

>  <r_i_glide_ecoul>  (425) 
-4.7852

>  <r_i_glide_erotb>  (425) 
0.142645

>  <r_i_glide_esite>  (425) 
-0.103618

>  <r_i_glide_emodel>  (425) 
-36.096

>  <r_i_glide_energy>  (425) 
-28.1572

>  <r_i_glide_einternal>  (425) 
7.6446e-05

>  <r_i_glide_intrahb_reward>  (425) 
-0

>  <i_i_glide_confnum>  (425) 
1

>  <i_i_glide_posenum>  (425) 
15

>  <r_i_glide_eff_state_penalty>  (425) 
0

>  <ligand_id>  (425) 
121

>  <original_smiles>  (425) 
CC12OC3=CCC4c5ccc(O)cc5CCC4C3CC1CC(=NO)CC2=O

>  <smiles>  (425) 
[H]ON=C1C([H])([H])C(=O)C2(C([H])([H])[H])OC3=C([H])C([H])([H])C4([H])c5c([H])c([H])c(O[H])c([H])c5C([H])([H])C([H])([H])C4([H])C3([H])C([H])([H])C2([H])C1([H])[H]

$$$$
122:0:0
     RDKit          3D

 55 59  0  0  1  0  0  0  0  0999 V2000
    4.1542   -6.9483    2.3924 C   0  0  0  0  0  0  0  0  0  0  0  0
    3.3841   -5.7746    2.0707 O   0  0  0  0  0  0  0  0  0  0  0  0
    4.0606   -4.5100    1.9748 C   0  0  2  0  0  0  0  0  0  0  0  0
    3.1078   -3.3994    2.7161 C   0  0  1  0  0  0  0  0  0  0  0  0
    2.9990   -3.6462    4.2895 C   0  0  0  0  0  0  0  0  0  0  0  0
    1.6208   -3.2001    4.8451 C   0  0  0  0  0  0  0  0  0  0  0  0
    3.1310   -5.0978    4.7837 C   0  0  0  0  0  0  0  0  0  0  0  0
    4.1605   -2.9089    4.9855 C   0  0  0  0  0  0  0  0  0  0  0  0
    4.0144   -1.3970    4.9556 C   0  0  0  0  0  0  0  0  0  0  0  0
    3.4742   -0.8624    3.6323 C   0  0  0  0  0  0  0  0  0  0  0  0
    3.1863    0.3289    3.5630 O   0  0  0  0  0  0  0  0  0  0  0  0
    3.3230   -1.7996    2.3928 C   0  0  2  0  0  0  0  0  0  0  0  0
    2.0655   -1.2592    1.6762 C   0  0  0  0  0  0  0  0  0  0  0  0
    4.5747   -1.6687    1.4797 C   0  0  2  0  0  0  0  0  0  0  0  0
    5.8128   -0.7441    1.5515 C   0  0  1  0  0  0  0  0  0  0  0  0
    6.2129   -0.3746    2.8512 O   0  0  0  0  0  0  0  0  0  0  0  0
    6.8950   -1.4069    0.8827 O   0  0  0  0  0  0  0  0  0  0  0  0
    6.8818   -2.8700    0.7181 C   0  0  0  0  0  0  0  0  0  0  0  0
    5.5970   -3.2662   -0.0450 C   0  0  1  0  0  0  0  0  0  0  0  0
    4.5222   -4.3526    0.4473 C   0  0  1  0  0  0  0  0  0  0  0  0
    4.6911   -5.6487   -0.3317 C   0  0  0  0  0  0  0  0  0  0  0  0
    3.6543   -3.3296   -0.2359 C   0  0  0  0  0  0  0  0  0  0  0  0
    2.9767   -3.2285   -1.3807 C   0  0  0  0  0  0  0  0  0  0  0  0
    3.4162   -1.9290   -1.9262 C   0  0  0  0  0  0  0  0  0  0  0  0
    3.0705   -1.4658   -3.0161 O   0  0  0  0  0  0  0  0  0  0  0  0
    4.2792   -1.3485   -1.0375 O   0  0  0  0  0  0  0  0  0  0  0  0
    4.5153   -2.2110    0.0736 C   0  0  1  0  0  0  0  0  0  0  0  0
    3.4776   -7.7221    2.7676 H   0  0  0  0  0  0  0  0  0  0  0  0
    4.9098   -6.7660    3.1523 H   0  0  0  0  0  0  0  0  0  0  0  0
    4.6748   -7.4017    1.5519 H   0  0  0  0  0  0  0  0  0  0  0  0
    4.9580   -4.5753    2.5819 H   0  0  0  0  0  0  0  0  0  0  0  0
    2.1180   -3.6464    2.3227 H   0  0  0  0  0  0  0  0  0  0  0  0
    1.6253   -3.2510    5.9370 H   0  0  0  0  0  0  0  0  0  0  0  0
    0.8268   -3.8610    4.4898 H   0  0  0  0  0  0  0  0  0  0  0  0
    1.3413   -2.1826    4.5702 H   0  0  0  0  0  0  0  0  0  0  0  0
    2.9860   -5.1713    5.8655 H   0  0  0  0  0  0  0  0  0  0  0  0
    4.1437   -5.4412    4.6107 H   0  0  0  0  0  0  0  0  0  0  0  0
    2.3981   -5.7600    4.3200 H   0  0  0  0  0  0  0  0  0  0  0  0
    4.2686   -3.2353    6.0225 H   0  0  0  0  0  0  0  0  0  0  0  0
    5.1008   -3.1630    4.4974 H   0  0  0  0  0  0  0  0  0  0  0  0
    3.3014   -1.1096    5.7302 H   0  0  0  0  0  0  0  0  0  0  0  0
    4.9569   -0.9041    5.2104 H   0  0  0  0  0  0  0  0  0  0  0  0
    1.7457   -1.9293    0.8812 H   0  0  0  0  0  0  0  0  0  0  0  0
    2.2128   -0.2673    1.2389 H   0  0  0  0  0  0  0  0  0  0  0  0
    1.2168   -1.1726    2.3524 H   0  0  0  0  0  0  0  0  0  0  0  0
    5.0666   -2.3755    2.1170 H   0  0  0  0  0  0  0  0  0  0  0  0
    5.6097    0.1828    1.0123 H   0  0  0  0  0  0  0  0  0  0  0  0
    6.9837    0.1809    2.7246 H   0  0  0  0  0  0  0  0  0  0  0  0
    7.7624   -3.2004    0.1559 H   0  0  0  0  0  0  0  0  0  0  0  0
    6.9311   -3.3737    1.6941 H   0  0  0  0  0  0  0  0  0  0  0  0
    5.8396   -3.4206   -1.1143 H   0  0  0  0  0  0  0  0  0  0  0  0
    5.5445   -6.2227    0.0375 H   0  0  0  0  0  0  0  0  0  0  0  0
    4.9371   -5.4745   -1.3823 H   0  0  0  0  0  0  0  0  0  0  0  0
    3.7892   -6.2569   -0.3046 H   0  0  0  0  0  0  0  0  0  0  0  0
    2.5288   -3.9826   -1.9976 H   0  0  0  0  0  0  0  0  0  0  0  0
  1  2  1  0
  1 28  1  0
  1 29  1  0
  1 30  1  0
  2  3  1  0
  3 20  1  0
  3  4  1  0
  3 31  1  1
  4 12  1  0
  4  5  1  0
  4 32  1  6
  5  6  1  0
  5  7  1  0
  5  8  1  0
  6 33  1  0
  6 34  1  0
  6 35  1  0
  7 36  1  0
  7 37  1  0
  7 38  1  0
  8  9  1  0
  8 39  1  0
  8 40  1  0
  9 10  1  0
  9 41  1  0
  9 42  1  0
 10 11  2  0
 10 12  1  0
 12 13  1  6
 12 14  1  0
 13 43  1  0
 13 44  1  0
 13 45  1  0
 14 27  1  0
 14 15  1  0
 14 46  1  1
 15 16  1  0
 15 17  1  0
 15 47  1  6
 16 48  1  0
 17 18  1  0
 18 19  1  0
 18 49  1  0
 18 50  1  0
 19 27  1  0
 19 20  1  0
 19 51  1  6
 20 21  1  6
 20 22  1  0
 21 52  1  0
 21 53  1  0
 21 54  1  0
 22 27  1  0
 22 23  2  0
 23 24  1  0
 23 55  1  0
 24 25  2  0
 24 26  1  0
 27 26  1  6
M  END
>  <i_m_ct_stereo_status>  (426) 
1

>  <s_m_source_file>  (426) 
/var/tmp/pbs.5076255.sched01/tmpl4jv_xt6/1264eazgjw7.sdf

>  <i_m_source_file_index>  (426) 
41

>  <i_lp_mmshare_version>  (426) 
48012

>  <i_f3d_flags>  (426) 
0

>  <s_epik_input>  (426) 
W09IXVtDQEhdMU9bQ0gyXVtDSF0yW0NAXShbQ0gzXSkoQzM9W0NIXUMoPU8pTzQpW0NASF0oT1tDSDNdKVtDQEhdKFtDQF01KFtDSDNdKVtDQEhdMVtDQEBdMjM0KUMoW0NIM10pKFtDSDNdKVtDSDJdW0NIMl1DNT1P

>  <s_epik_cmdline>  (426) 
J2VwaWtfcHl0aG9uJywgJy1waHQnLCAnMi4wJywgJy1waCcsICc3LjAnLCAnLXRuJywgJzgnLCAnLW1hJywgJzIwMCcsICctaW1hZScsICc8aW5maWxlLm1hZT4nLCAnLW9tYWUnLCAnPG91dGZpbGUubWFlPic=

>  <r_lp_tautomer_probability>  (426) 
1

>  <r_epik_Ionization_Penalty>  (426) 
1.65344e-06

>  <r_epik_Ionization_Penalty_Charging>  (426) 
0

>  <r_epik_Ionization_Penalty_Neutral>  (426) 
1.65344e-06

>  <r_epik_State_Penalty>  (426) 
-0

>  <r_epik_Charging_Adjusted_Penalty>  (426) 
0

>  <i_epik_Tot_Q>  (426) 
0

>  <i_epik_Tot_abs_Q>  (426) 
0

>  <s_epik_Chemistry_Notes>  (426) 
This compound has an ester and may undergo hydrolysis at high or low pH. This compound contains an acetal/aminal-like group ( X-CH(R)-Y where X, Y are N, S, or O) that may be acid/base labile, releasing an aldehyde.

>  <s_lp_Force_Field>  (426) 
OPLS3e

>  <r_lp_Energy>  (426) 
149.952

>  <b_lp_Chiralities_Consistent>  (426) 
1

>  <s_lp_Variant>  (426) 
122:0-1

>  <s_i_glide_gridfile>  (426) 
pfpi4k_grid

>  <i_i_glide_lignum>  (426) 
41

>  <i_i_glide_rotatable_bonds>  (426) 
2

>  <r_i_docking_score>  (426) 
-2.99357

>  <r_i_glide_ligand_efficiency>  (426) 
-0.110873

>  <r_i_glide_ligand_efficiency_sa>  (426) 
-0.332619

>  <r_i_glide_ligand_efficiency_ln>  (426) 
-0.696854

>  <r_i_glide_gscore>  (426) 
-2.99357

>  <r_i_glide_lipo>  (426) 
-0.322767

>  <r_i_glide_hbond>  (426) 
0

>  <r_i_glide_metal>  (426) 
-0

>  <r_i_glide_rewards>  (426) 
-0.963764

>  <r_i_glide_evdw>  (426) 
-20.1664

>  <r_i_glide_ecoul>  (426) 
-4.22804

>  <r_i_glide_erotb>  (426) 
0

>  <r_i_glide_esite>  (426) 
-0.0645156

>  <r_i_glide_emodel>  (426) 
-26.388

>  <r_i_glide_energy>  (426) 
-24.3944

>  <r_i_glide_einternal>  (426) 
2.17041

>  <r_i_glide_intrahb_reward>  (426) 
-0

>  <i_i_glide_confnum>  (426) 
1

>  <i_i_glide_posenum>  (426) 
5

>  <r_i_glide_eff_state_penalty>  (426) 
0

>  <ligand_id>  (426) 
122

>  <original_smiles>  (426) 
COC1C2C(C)(C)CCC(=O)C2(C)C2C(O)OCC3C1(C)C1=CC(=O)OC132

>  <smiles>  (426) 
[H]OC1([H])OC([H])([H])C2([H])C34OC(=O)C([H])=C3C2(C([H])([H])[H])C([H])(OC([H])([H])[H])C2([H])C(C([H])([H])[H])(C(=O)C([H])([H])C([H])([H])C2(C([H])([H])[H])C([H])([H])[H])C14[H]

$$$$
122:0:1
     RDKit          3D

 55 59  0  0  1  0  0  0  0  0999 V2000
    3.9137   -7.0237    2.4186 C   0  0  0  0  0  0  0  0  0  0  0  0
    3.1436   -5.8571    2.0698 O   0  0  0  0  0  0  0  0  0  0  0  0
    3.8093   -4.5804    2.0640 C   0  0  2  0  0  0  0  0  0  0  0  0
    2.7847   -3.5031    2.7696 C   0  0  1  0  0  0  0  0  0  0  0  0
    2.5628   -3.8028    4.3221 C   0  0  0  0  0  0  0  0  0  0  0  0
    1.1346   -3.3982    4.7807 C   0  0  0  0  0  0  0  0  0  0  0  0
    2.6886   -5.2658    4.7785 C   0  0  0  0  0  0  0  0  0  0  0  0
    3.6521   -3.0619    5.1222 C   0  0  0  0  0  0  0  0  0  0  0  0
    3.4703   -1.5564    5.1324 C   0  0  0  0  0  0  0  0  0  0  0  0
    3.0320   -0.9894    3.7835 C   0  0  0  0  0  0  0  0  0  0  0  0
    2.7825    0.2046    3.7215 O   0  0  0  0  0  0  0  0  0  0  0  0
    2.9933   -1.8924    2.5156 C   0  0  2  0  0  0  0  0  0  0  0  0
    1.7684   -1.3643    1.7215 C   0  0  0  0  0  0  0  0  0  0  0  0
    4.3026   -1.7081    1.6972 C   0  0  2  0  0  0  0  0  0  0  0  0
    5.5247   -0.7624    1.8768 C   0  0  1  0  0  0  0  0  0  0  0  0
    5.8055   -0.4111    3.2124 O   0  0  0  0  0  0  0  0  0  0  0  0
    6.6540   -1.3982    1.2686 O   0  0  0  0  0  0  0  0  0  0  0  0
    6.6760   -2.8543    1.0750 C   0  0  0  0  0  0  0  0  0  0  0  0
    5.4653   -3.2425    0.2093 C   0  0  1  0  0  0  0  0  0  0  0  0
    4.3845   -4.3636    0.5794 C   0  0  1  0  0  0  0  0  0  0  0  0
    4.6335   -5.6327   -0.2327 C   0  0  0  0  0  0  0  0  0  0  0  0
    3.5397   -3.3432   -0.1289 C   0  0  0  0  0  0  0  0  0  0  0  0
    2.9681   -3.2165   -1.3307 C   0  0  0  0  0  0  0  0  0  0  0  0
    3.4160   -1.8984   -1.8038 C   0  0  0  0  0  0  0  0  0  0  0  0
    3.1702   -1.3976   -2.9084 O   0  0  0  0  0  0  0  0  0  0  0  0
    4.2139   -1.3309   -0.8333 O   0  0  0  0  0  0  0  0  0  0  0  0
    4.3588   -2.2161    0.2719 C   0  0  1  0  0  0  0  0  0  0  0  0
    3.2268   -7.8173    2.7176 H   0  0  0  0  0  0  0  0  0  0  0  0
    4.6039   -6.8557    3.2421 H   0  0  0  0  0  0  0  0  0  0  0  0
    4.5031   -7.4392    1.6077 H   0  0  0  0  0  0  0  0  0  0  0  0
    4.6640   -4.6506    2.7329 H   0  0  0  0  0  0  0  0  0  0  0  0
    1.8345   -3.7582    2.2999 H   0  0  0  0  0  0  0  0  0  0  0  0
    1.0535   -3.4781    5.8698 H   0  0  0  0  0  0  0  0  0  0  0  0
    0.3825   -4.0599    4.3501 H   0  0  0  0  0  0  0  0  0  0  0  0
    0.8557   -2.3801    4.5155 H   0  0  0  0  0  0  0  0  0  0  0  0
    2.4736   -5.3767    5.8460 H   0  0  0  0  0  0  0  0  0  0  0  0
    3.7131   -5.5957    4.6660 H   0  0  0  0  0  0  0  0  0  0  0  0
    2.0006   -5.9290    4.2503 H   0  0  0  0  0  0  0  0  0  0  0  0
    3.6865   -3.4162    6.1575 H   0  0  0  0  0  0  0  0  0  0  0  0
    4.6315   -3.2878    4.7016 H   0  0  0  0  0  0  0  0  0  0  0  0
    2.6933   -1.3037    5.8559 H   0  0  0  0  0  0  0  0  0  0  0  0
    4.3784   -1.0554    5.4694 H   0  0  0  0  0  0  0  0  0  0  0  0
    1.5130   -2.0326    0.9127 H   0  0  0  0  0  0  0  0  0  0  0  0
    1.9318   -0.3654    1.3062 H   0  0  0  0  0  0  0  0  0  0  0  0
    0.8856   -1.2860    2.3544 H   0  0  0  0  0  0  0  0  0  0  0  0
    4.7652   -2.4260    2.3520 H   0  0  0  0  0  0  0  0  0  0  0  0
    5.3441    0.1698    1.3363 H   0  0  0  0  0  0  0  0  0  0  0  0
    5.0578    0.0655    3.5477 H   0  0  0  0  0  0  0  0  0  0  0  0
    7.6048   -3.1483    0.5889 H   0  0  0  0  0  0  0  0  0  0  0  0
    6.6565   -3.3694    2.0424 H   0  0  0  0  0  0  0  0  0  0  0  0
    5.8006   -3.3635   -0.8390 H   0  0  0  0  0  0  0  0  0  0  0  0
    5.4583   -6.2043    0.1954 H   0  0  0  0  0  0  0  0  0  0  0  0
    4.9601   -5.4245   -1.2509 H   0  0  0  0  0  0  0  0  0  0  0  0
    3.7480   -6.2609   -0.3102 H   0  0  0  0  0  0  0  0  0  0  0  0
    2.5791   -3.9636   -1.9919 H   0  0  0  0  0  0  0  0  0  0  0  0
  1  2  1  0
  1 28  1  0
  1 29  1  0
  1 30  1  0
  2  3  1  0
  3 20  1  0
  3  4  1  0
  3 31  1  1
  4 12  1  0
  4  5  1  0
  4 32  1  6
  5  6  1  0
  5  7  1  0
  5  8  1  0
  6 33  1  0
  6 34  1  0
  6 35  1  0
  7 36  1  0
  7 37  1  0
  7 38  1  0
  8  9  1  0
  8 39  1  0
  8 40  1  0
  9 10  1  0
  9 41  1  0
  9 42  1  0
 10 11  2  0
 10 12  1  0
 12 13  1  6
 12 14  1  0
 13 43  1  0
 13 44  1  0
 13 45  1  0
 14 27  1  0
 14 15  1  0
 14 46  1  1
 15 16  1  0
 15 17  1  0
 15 47  1  6
 16 48  1  0
 17 18  1  0
 18 19  1  0
 18 49  1  0
 18 50  1  0
 19 27  1  0
 19 20  1  0
 19 51  1  6
 20 21  1  6
 20 22  1  0
 21 52  1  0
 21 53  1  0
 21 54  1  0
 22 27  1  0
 22 23  2  0
 23 24  1  0
 23 55  1  0
 24 25  2  0
 24 26  1  0
 27 26  1  6
M  END
>  <i_m_ct_stereo_status>  (427) 
1

>  <s_m_source_file>  (427) 
/var/tmp/pbs.5076255.sched01/tmpl4jv_xt6/1264eazgjw7.sdf

>  <i_m_source_file_index>  (427) 
41

>  <i_lp_mmshare_version>  (427) 
48012

>  <i_f3d_flags>  (427) 
0

>  <s_epik_input>  (427) 
W09IXVtDQEhdMU9bQ0gyXVtDSF0yW0NAXShbQ0gzXSkoQzM9W0NIXUMoPU8pTzQpW0NASF0oT1tDSDNdKVtDQEhdKFtDQF01KFtDSDNdKVtDQEhdMVtDQEBdMjM0KUMoW0NIM10pKFtDSDNdKVtDSDJdW0NIMl1DNT1P

>  <s_epik_cmdline>  (427) 
J2VwaWtfcHl0aG9uJywgJy1waHQnLCAnMi4wJywgJy1waCcsICc3LjAnLCAnLXRuJywgJzgnLCAnLW1hJywgJzIwMCcsICctaW1hZScsICc8aW5maWxlLm1hZT4nLCAnLW9tYWUnLCAnPG91dGZpbGUubWFlPic=

>  <r_lp_tautomer_probability>  (427) 
1

>  <r_epik_Ionization_Penalty>  (427) 
1.65344e-06

>  <r_epik_Ionization_Penalty_Charging>  (427) 
0

>  <r_epik_Ionization_Penalty_Neutral>  (427) 
1.65344e-06

>  <r_epik_State_Penalty>  (427) 
-0

>  <r_epik_Charging_Adjusted_Penalty>  (427) 
0

>  <i_epik_Tot_Q>  (427) 
0

>  <i_epik_Tot_abs_Q>  (427) 
0

>  <s_epik_Chemistry_Notes>  (427) 
This compound has an ester and may undergo hydrolysis at high or low pH. This compound contains an acetal/aminal-like group ( X-CH(R)-Y where X, Y are N, S, or O) that may be acid/base labile, releasing an aldehyde.

>  <s_lp_Force_Field>  (427) 
OPLS3e

>  <r_lp_Energy>  (427) 
149.952

>  <b_lp_Chiralities_Consistent>  (427) 
1

>  <s_lp_Variant>  (427) 
122:0-1

>  <s_i_glide_gridfile>  (427) 
pfpi4k_grid

>  <i_i_glide_lignum>  (427) 
41

>  <i_i_glide_rotatable_bonds>  (427) 
2

>  <r_i_docking_score>  (427) 
-2.56937

>  <r_i_glide_ligand_efficiency>  (427) 
-0.0951619

>  <r_i_glide_ligand_efficiency_sa>  (427) 
-0.285486

>  <r_i_glide_ligand_efficiency_ln>  (427) 
-0.598107

>  <r_i_glide_gscore>  (427) 
-2.56937

>  <r_i_glide_lipo>  (427) 
-0.259342

>  <r_i_glide_hbond>  (427) 
0

>  <r_i_glide_metal>  (427) 
-0

>  <r_i_glide_rewards>  (427) 
-0.982722

>  <r_i_glide_evdw>  (427) 
-21.3834

>  <r_i_glide_ecoul>  (427) 
-1.2479

>  <r_i_glide_erotb>  (427) 
0

>  <r_i_glide_esite>  (427) 
-0.0709497

>  <r_i_glide_emodel>  (427) 
-23.2598

>  <r_i_glide_energy>  (427) 
-22.6313

>  <r_i_glide_einternal>  (427) 
3.6559

>  <r_i_glide_intrahb_reward>  (427) 
-0

>  <i_i_glide_confnum>  (427) 
2

>  <i_i_glide_posenum>  (427) 
15

>  <r_i_glide_eff_state_penalty>  (427) 
0

>  <ligand_id>  (427) 
122

>  <original_smiles>  (427) 
COC1C2C(C)(C)CCC(=O)C2(C)C2C(O)OCC3C1(C)C1=CC(=O)OC132

>  <smiles>  (427) 
[H]OC1([H])OC([H])([H])C2([H])C34OC(=O)C([H])=C3C2(C([H])([H])[H])C([H])(OC([H])([H])[H])C2([H])C(C([H])([H])[H])(C(=O)C([H])([H])C([H])([H])C2(C([H])([H])[H])C([H])([H])[H])C14[H]

$$$$
122:0:2
     RDKit          3D

 55 59  0  0  1  0  0  0  0  0999 V2000
    4.0834   -7.0067    2.3808 C   0  0  0  0  0  0  0  0  0  0  0  0
    3.3122   -5.8350    2.0515 O   0  0  0  0  0  0  0  0  0  0  0  0
    3.9912   -4.5689    1.9793 C   0  0  2  0  0  0  0  0  0  0  0  0
    3.0248   -3.4599    2.7175 C   0  0  1  0  0  0  0  0  0  0  0  0
    2.8867   -3.7289    4.2865 C   0  0  0  0  0  0  0  0  0  0  0  0
    1.4966   -3.2903    4.8204 C   0  0  0  0  0  0  0  0  0  0  0  0
    3.0127   -5.1866    4.7639 C   0  0  0  0  0  0  0  0  0  0  0  0
    4.0347   -2.9959    5.0091 C   0  0  0  0  0  0  0  0  0  0  0  0
    3.8831   -1.4855    4.9979 C   0  0  0  0  0  0  0  0  0  0  0  0
    3.3670   -0.9326    3.6697 C   0  0  0  0  0  0  0  0  0  0  0  0
    3.0809    0.2561    3.6130 O   0  0  0  0  0  0  0  0  0  0  0  0
    3.2469   -1.8581    2.4189 C   0  0  2  0  0  0  0  0  0  0  0  0
    1.9941   -1.3167    1.6804 C   0  0  0  0  0  0  0  0  0  0  0  0
    4.5113   -1.7150    1.5204 C   0  0  2  0  0  0  0  0  0  0  0  0
    5.7541   -0.7903    1.6211 C   0  0  1  0  0  0  0  0  0  0  0  0
    6.1143   -0.4543    2.9341 O   0  0  0  0  0  0  0  0  0  0  0  0
    6.8423   -1.4524    0.9508 O   0  0  0  0  0  0  0  0  0  0  0  0
    6.8341   -2.9085    0.7930 C   0  0  0  0  0  0  0  0  0  0  0  0
    5.5667   -3.2959    0.0062 C   0  0  1  0  0  0  0  0  0  0  0  0
    4.4883   -4.3901    0.4626 C   0  0  1  0  0  0  0  0  0  0  0  0
    4.6713   -5.6799   -0.3240 C   0  0  0  0  0  0  0  0  0  0  0  0
    3.6237   -3.3658   -0.2221 C   0  0  0  0  0  0  0  0  0  0  0  0
    2.9703   -3.2491   -1.3836 C   0  0  0  0  0  0  0  0  0  0  0  0
    3.4077   -1.9478   -1.9076 C   0  0  0  0  0  0  0  0  0  0  0  0
    3.1039   -1.4622   -2.9986 O   0  0  0  0  0  0  0  0  0  0  0  0
    4.2703   -1.3731   -0.9959 O   0  0  0  0  0  0  0  0  0  0  0  0
    4.4790   -2.2480    0.1083 C   0  0  1  0  0  0  0  0  0  0  0  0
    3.4032   -7.7859    2.7310 H   0  0  0  0  0  0  0  0  0  0  0  0
    4.8206   -6.8342    3.1601 H   0  0  0  0  0  0  0  0  0  0  0  0
    4.6260   -7.4466    1.5486 H   0  0  0  0  0  0  0  0  0  0  0  0
    4.8812   -4.6401    2.6003 H   0  0  0  0  0  0  0  0  0  0  0  0
    2.0436   -3.7046    2.3080 H   0  0  0  0  0  0  0  0  0  0  0  0
    1.4765   -3.3513    5.9117 H   0  0  0  0  0  0  0  0  0  0  0  0
    0.7093   -3.9455    4.4438 H   0  0  0  0  0  0  0  0  0  0  0  0
    1.2206   -2.2725    4.5516 H   0  0  0  0  0  0  0  0  0  0  0  0
    2.8515   -5.2770    5.8439 H   0  0  0  0  0  0  0  0  0  0  0  0
    4.0238   -5.5330    4.6069 H   0  0  0  0  0  0  0  0  0  0  0  0
    2.2883   -5.8482    4.2841 H   0  0  0  0  0  0  0  0  0  0  0  0
    4.1184   -3.3323    6.0472 H   0  0  0  0  0  0  0  0  0  0  0  0
    4.9843   -3.2534    4.5424 H   0  0  0  0  0  0  0  0  0  0  0  0
    3.1542   -1.2105    5.7617 H   0  0  0  0  0  0  0  0  0  0  0  0
    4.8159   -0.9930    5.2798 H   0  0  0  0  0  0  0  0  0  0  0  0
    1.6891   -1.9770    0.8809 H   0  0  0  0  0  0  0  0  0  0  0  0
    2.1516   -0.3186    1.2596 H   0  0  0  0  0  0  0  0  0  0  0  0
    1.1372   -1.2333    2.3487 H   0  0  0  0  0  0  0  0  0  0  0  0
    4.9919   -2.4338    2.1575 H   0  0  0  0  0  0  0  0  0  0  0  0
    5.5703    0.1518    1.1008 H   0  0  0  0  0  0  0  0  0  0  0  0
    6.2393   -1.2575    3.4225 H   0  0  0  0  0  0  0  0  0  0  0  0
    7.7290   -3.2312    0.2566 H   0  0  0  0  0  0  0  0  0  0  0  0
    6.8681   -3.4103    1.7673 H   0  0  0  0  0  0  0  0  0  0  0  0
    5.8369   -3.4416   -1.0561 H   0  0  0  0  0  0  0  0  0  0  0  0
    5.5150   -6.2524    0.0619 H   0  0  0  0  0  0  0  0  0  0  0  0
    4.9406   -5.4964   -1.3659 H   0  0  0  0  0  0  0  0  0  0  0  0
    3.7749   -6.2963   -0.3162 H   0  0  0  0  0  0  0  0  0  0  0  0
    2.5341   -3.9992   -2.0080 H   0  0  0  0  0  0  0  0  0  0  0  0
  1  2  1  0
  1 28  1  0
  1 29  1  0
  1 30  1  0
  2  3  1  0
  3 20  1  0
  3  4  1  0
  3 31  1  1
  4 12  1  0
  4  5  1  0
  4 32  1  6
  5  6  1  0
  5  7  1  0
  5  8  1  0
  6 33  1  0
  6 34  1  0
  6 35  1  0
  7 36  1  0
  7 37  1  0
  7 38  1  0
  8  9  1  0
  8 39  1  0
  8 40  1  0
  9 10  1  0
  9 41  1  0
  9 42  1  0
 10 11  2  0
 10 12  1  0
 12 13  1  6
 12 14  1  0
 13 43  1  0
 13 44  1  0
 13 45  1  0
 14 27  1  0
 14 15  1  0
 14 46  1  1
 15 16  1  0
 15 17  1  0
 15 47  1  6
 16 48  1  0
 17 18  1  0
 18 19  1  0
 18 49  1  0
 18 50  1  0
 19 27  1  0
 19 20  1  0
 19 51  1  6
 20 21  1  6
 20 22  1  0
 21 52  1  0
 21 53  1  0
 21 54  1  0
 22 27  1  0
 22 23  2  0
 23 24  1  0
 23 55  1  0
 24 25  2  0
 24 26  1  0
 27 26  1  6
M  END
>  <i_m_ct_stereo_status>  (428) 
1

>  <s_m_source_file>  (428) 
/var/tmp/pbs.5076255.sched01/tmpl4jv_xt6/1264eazgjw7.sdf

>  <i_m_source_file_index>  (428) 
41

>  <i_lp_mmshare_version>  (428) 
48012

>  <i_f3d_flags>  (428) 
0

>  <s_epik_input>  (428) 
W09IXVtDQEhdMU9bQ0gyXVtDSF0yW0NAXShbQ0gzXSkoQzM9W0NIXUMoPU8pTzQpW0NASF0oT1tDSDNdKVtDQEhdKFtDQF01KFtDSDNdKVtDQEhdMVtDQEBdMjM0KUMoW0NIM10pKFtDSDNdKVtDSDJdW0NIMl1DNT1P

>  <s_epik_cmdline>  (428) 
J2VwaWtfcHl0aG9uJywgJy1waHQnLCAnMi4wJywgJy1waCcsICc3LjAnLCAnLXRuJywgJzgnLCAnLW1hJywgJzIwMCcsICctaW1hZScsICc8aW5maWxlLm1hZT4nLCAnLW9tYWUnLCAnPG91dGZpbGUubWFlPic=

>  <r_lp_tautomer_probability>  (428) 
1

>  <r_epik_Ionization_Penalty>  (428) 
1.65344e-06

>  <r_epik_Ionization_Penalty_Charging>  (428) 
0

>  <r_epik_Ionization_Penalty_Neutral>  (428) 
1.65344e-06

>  <r_epik_State_Penalty>  (428) 
-0

>  <r_epik_Charging_Adjusted_Penalty>  (428) 
0

>  <i_epik_Tot_Q>  (428) 
0

>  <i_epik_Tot_abs_Q>  (428) 
0

>  <s_epik_Chemistry_Notes>  (428) 
This compound has an ester and may undergo hydrolysis at high or low pH. This compound contains an acetal/aminal-like group ( X-CH(R)-Y where X, Y are N, S, or O) that may be acid/base labile, releasing an aldehyde.

>  <s_lp_Force_Field>  (428) 
OPLS3e

>  <r_lp_Energy>  (428) 
149.952

>  <b_lp_Chiralities_Consistent>  (428) 
1

>  <s_lp_Variant>  (428) 
122:0-1

>  <s_i_glide_gridfile>  (428) 
pfpi4k_grid

>  <i_i_glide_lignum>  (428) 
41

>  <i_i_glide_rotatable_bonds>  (428) 
2

>  <r_i_docking_score>  (428) 
-2.51234

>  <r_i_glide_ligand_efficiency>  (428) 
-0.0930496

>  <r_i_glide_ligand_efficiency_sa>  (428) 
-0.279149

>  <r_i_glide_ligand_efficiency_ln>  (428) 
-0.584831

>  <r_i_glide_gscore>  (428) 
-2.51234

>  <r_i_glide_lipo>  (428) 
-0.322444

>  <r_i_glide_hbond>  (428) 
0

>  <r_i_glide_metal>  (428) 
-0

>  <r_i_glide_rewards>  (428) 
-0.973632

>  <r_i_glide_evdw>  (428) 
-20.4779

>  <r_i_glide_ecoul>  (428) 
-0.85036

>  <r_i_glide_erotb>  (428) 
0

>  <r_i_glide_esite>  (428) 
-0.064814

>  <r_i_glide_emodel>  (428) 
-22.7729

>  <r_i_glide_energy>  (428) 
-21.3282

>  <r_i_glide_einternal>  (428) 
1.77681

>  <r_i_glide_intrahb_reward>  (428) 
-0

>  <i_i_glide_confnum>  (428) 
1

>  <i_i_glide_posenum>  (428) 
13

>  <r_i_glide_eff_state_penalty>  (428) 
0

>  <ligand_id>  (428) 
122

>  <original_smiles>  (428) 
COC1C2C(C)(C)CCC(=O)C2(C)C2C(O)OCC3C1(C)C1=CC(=O)OC132

>  <smiles>  (428) 
[H]OC1([H])OC([H])([H])C2([H])C34OC(=O)C([H])=C3C2(C([H])([H])[H])C([H])(OC([H])([H])[H])C2([H])C(C([H])([H])[H])(C(=O)C([H])([H])C([H])([H])C2(C([H])([H])[H])C([H])([H])[H])C14[H]

$$$$
122:1:0
     RDKit          3D

 55 59  0  0  1  0  0  0  0  0999 V2000
    2.7618   -7.1007    2.0593 C   0  0  0  0  0  0  0  0  0  0  0  0
    2.3862   -5.7253    1.8310 O   0  0  0  0  0  0  0  0  0  0  0  0
    3.3623   -4.6982    2.0693 C   0  0  2  0  0  0  0  0  0  0  0  0
    2.6015   -3.4718    2.8909 C   0  0  1  0  0  0  0  0  0  0  0  0
    2.5435   -3.8246    4.4343 C   0  0  0  0  0  0  0  0  0  0  0  0
    1.9134   -5.1970    4.7226 C   0  0  0  0  0  0  0  0  0  0  0  0
    3.9476   -3.8092    5.0979 C   0  0  0  0  0  0  0  0  0  0  0  0
    1.6109   -2.8268    5.1431 C   0  0  0  0  0  0  0  0  0  0  0  0
    2.1869   -1.4184    5.2123 C   0  0  0  0  0  0  0  0  0  0  0  0
    2.7803   -0.9252    3.8903 C   0  0  0  0  0  0  0  0  0  0  0  0
    3.1664    0.2406    3.8213 O   0  0  0  0  0  0  0  0  0  0  0  0
    2.8583   -1.8528    2.6468 C   0  0  2  0  0  0  0  0  0  0  0  0
    1.7412   -1.2920    1.7280 C   0  0  0  0  0  0  0  0  0  0  0  0
    4.2478   -1.7641    1.9888 C   0  0  2  0  0  0  0  0  0  0  0  0
    5.4644   -0.7618    1.9375 C   0  0  1  0  0  0  0  0  0  0  0  0
    5.7908   -0.2703    3.2152 O   0  0  0  0  0  0  0  0  0  0  0  0
    6.6288   -1.4553    1.3342 O   0  0  0  0  0  0  0  0  0  0  0  0
    6.5874   -2.6435    0.3993 C   0  0  0  0  0  0  0  0  0  0  0  0
    5.3363   -3.3565    0.8688 C   0  0  2  0  0  0  0  0  0  0  0  0
    4.2118   -4.4623    0.7304 C   0  0  1  0  0  0  0  0  0  0  0  0
    4.5521   -5.6858   -0.0925 C   0  0  0  0  0  0  0  0  0  0  0  0
    3.5267   -3.3787    0.0258 C   0  0  0  0  0  0  0  0  0  0  0  0
    3.1166   -3.1698   -1.2311 C   0  0  0  0  0  0  0  0  0  0  0  0
    3.6825   -1.8611   -1.5698 C   0  0  0  0  0  0  0  0  0  0  0  0
    3.6425   -1.3030   -2.6726 O   0  0  0  0  0  0  0  0  0  0  0  0
    4.3119   -1.3730   -0.4581 O   0  0  0  0  0  0  0  0  0  0  0  0
    4.2886   -2.3052    0.6359 C   0  0  1  0  0  0  0  0  0  0  0  0
    1.8933   -7.7550    1.9337 H   0  0  0  0  0  0  0  0  0  0  0  0
    3.1697   -7.3007    3.0447 H   0  0  0  0  0  0  0  0  0  0  0  0
    3.5176   -7.4735    1.3741 H   0  0  0  0  0  0  0  0  0  0  0  0
    4.0549   -5.1341    2.7759 H   0  0  0  0  0  0  0  0  0  0  0  0
    1.5699   -3.5926    2.5580 H   0  0  0  0  0  0  0  0  0  0  0  0
    1.6840   -5.3314    5.7846 H   0  0  0  0  0  0  0  0  0  0  0  0
    2.6150   -5.9791    4.4916 H   0  0  0  0  0  0  0  0  0  0  0  0
    0.9879   -5.3462    4.1675 H   0  0  0  0  0  0  0  0  0  0  0  0
    3.8697   -3.9661    6.1760 H   0  0  0  0  0  0  0  0  0  0  0  0
    4.4869   -2.8739    4.9520 H   0  0  0  0  0  0  0  0  0  0  0  0
    4.6039   -4.5971    4.7233 H   0  0  0  0  0  0  0  0  0  0  0  0
    0.6484   -2.8013    4.6373 H   0  0  0  0  0  0  0  0  0  0  0  0
    1.4078   -3.1633    6.1651 H   0  0  0  0  0  0  0  0  0  0  0  0
    1.4206   -0.7234    5.5616 H   0  0  0  0  0  0  0  0  0  0  0  0
    2.9855   -1.3986    5.9557 H   0  0  0  0  0  0  0  0  0  0  0  0
    1.5526   -1.9405    0.8984 H   0  0  0  0  0  0  0  0  0  0  0  0
    1.9763   -0.2949    1.3452 H   0  0  0  0  0  0  0  0  0  0  0  0
    0.7955   -1.1965    2.2639 H   0  0  0  0  0  0  0  0  0  0  0  0
    4.6756   -2.3745    2.7697 H   0  0  0  0  0  0  0  0  0  0  0  0
    5.2116    0.1129    1.3306 H   0  0  0  0  0  0  0  0  0  0  0  0
    5.0244    0.1903    3.5578 H   0  0  0  0  0  0  0  0  0  0  0  0
    6.5476   -2.3622   -0.6553 H   0  0  0  0  0  0  0  0  0  0  0  0
    7.4823   -3.2570    0.5319 H   0  0  0  0  0  0  0  0  0  0  0  0
    5.6583   -3.7130    1.8431 H   0  0  0  0  0  0  0  0  0  0  0  0
    5.1877   -6.3715    0.4675 H   0  0  0  0  0  0  0  0  0  0  0  0
    5.0877   -5.4289   -1.0077 H   0  0  0  0  0  0  0  0  0  0  0  0
    3.6472   -6.2096   -0.3792 H   0  0  0  0  0  0  0  0  0  0  0  0
    2.8313   -3.8767   -1.9878 H   0  0  0  0  0  0  0  0  0  0  0  0
  1  2  1  0
  1 28  1  0
  1 29  1  0
  1 30  1  0
  2  3  1  0
  3 20  1  0
  3  4  1  0
  3 31  1  1
  4 12  1  0
  4  5  1  0
  4 32  1  6
  5  6  1  0
  5  7  1  0
  5  8  1  0
  6 33  1  0
  6 34  1  0
  6 35  1  0
  7 36  1  0
  7 37  1  0
  7 38  1  0
  8  9  1  0
  8 39  1  0
  8 40  1  0
  9 10  1  0
  9 41  1  0
  9 42  1  0
 10 11  2  0
 10 12  1  0
 12 13  1  6
 12 14  1  0
 13 43  1  0
 13 44  1  0
 13 45  1  0
 14 27  1  0
 14 15  1  0
 14 46  1  1
 15 16  1  0
 15 17  1  0
 15 47  1  6
 16 48  1  0
 17 18  1  0
 18 19  1  0
 18 49  1  0
 18 50  1  0
 19 27  1  0
 19 20  1  0
 19 51  1  1
 20 21  1  6
 20 22  1  0
 21 52  1  0
 21 53  1  0
 21 54  1  0
 22 27  1  0
 22 23  2  0
 23 24  1  0
 23 55  1  0
 24 25  2  0
 24 26  1  0
 27 26  1  6
M  END
>  <i_m_ct_stereo_status>  (429) 
1

>  <s_m_source_file>  (429) 
/var/tmp/pbs.5076255.sched01/tmpl4jv_xt6/1264eazgjw7.sdf

>  <i_m_source_file_index>  (429) 
42

>  <i_lp_mmshare_version>  (429) 
48012

>  <i_f3d_flags>  (429) 
0

>  <s_epik_input>  (429) 
W09IXVtDQEhdMU9bQ0gyXVtDSF0yW0NAXShbQ0gzXSkoQzM9W0NIXUMoPU8pTzQpW0NASF0oT1tDSDNdKVtDQEhdKFtDQF01KFtDSDNdKVtDQEhdMVtDQEBdMjM0KUMoW0NIM10pKFtDSDNdKVtDSDJdW0NIMl1DNT1P

>  <s_epik_cmdline>  (429) 
J2VwaWtfcHl0aG9uJywgJy1waHQnLCAnMi4wJywgJy1waCcsICc3LjAnLCAnLXRuJywgJzgnLCAnLW1hJywgJzIwMCcsICctaW1hZScsICc8aW5maWxlLm1hZT4nLCAnLW9tYWUnLCAnPG91dGZpbGUubWFlPic=

>  <r_lp_tautomer_probability>  (429) 
1

>  <r_epik_Ionization_Penalty>  (429) 
1.65344e-06

>  <r_epik_Ionization_Penalty_Charging>  (429) 
0

>  <r_epik_Ionization_Penalty_Neutral>  (429) 
1.65344e-06

>  <r_epik_State_Penalty>  (429) 
-0

>  <r_epik_Charging_Adjusted_Penalty>  (429) 
0

>  <i_epik_Tot_Q>  (429) 
0

>  <i_epik_Tot_abs_Q>  (429) 
0

>  <s_epik_Chemistry_Notes>  (429) 
This compound has an ester and may undergo hydrolysis at high or low pH. This compound contains an acetal/aminal-like group ( X-CH(R)-Y where X, Y are N, S, or O) that may be acid/base labile, releasing an aldehyde.

>  <s_lp_Force_Field>  (429) 
OPLS3e

>  <r_lp_Energy>  (429) 
201.278

>  <b_lp_Chiralities_Consistent>  (429) 
1

>  <s_lp_Variant>  (429) 
122:0-2

>  <s_i_glide_gridfile>  (429) 
pfpi4k_grid

>  <i_i_glide_lignum>  (429) 
42

>  <i_i_glide_rotatable_bonds>  (429) 
2

>  <r_i_docking_score>  (429) 
-3.13451

>  <r_i_glide_ligand_efficiency>  (429) 
-0.116093

>  <r_i_glide_ligand_efficiency_sa>  (429) 
-0.348279

>  <r_i_glide_ligand_efficiency_ln>  (429) 
-0.729663

>  <r_i_glide_gscore>  (429) 
-3.13451

>  <r_i_glide_lipo>  (429) 
-0.240068

>  <r_i_glide_hbond>  (429) 
0

>  <r_i_glide_metal>  (429) 
-0

>  <r_i_glide_rewards>  (429) 
-1.48772

>  <r_i_glide_evdw>  (429) 
-21.7722

>  <r_i_glide_ecoul>  (429) 
-1.69489

>  <r_i_glide_erotb>  (429) 
0

>  <r_i_glide_esite>  (429) 
-0.0638849

>  <r_i_glide_emodel>  (429) 
-30.312

>  <r_i_glide_energy>  (429) 
-23.4671

>  <r_i_glide_einternal>  (429) 
3.50838

>  <r_i_glide_intrahb_reward>  (429) 
-0.5

>  <i_i_glide_confnum>  (429) 
2

>  <i_i_glide_posenum>  (429) 
20

>  <r_i_glide_eff_state_penalty>  (429) 
0

>  <ligand_id>  (429) 
122

>  <original_smiles>  (429) 
COC1C2C(C)(C)CCC(=O)C2(C)C2C(O)OCC3C1(C)C1=CC(=O)OC132

>  <smiles>  (429) 
[H]OC1([H])OC([H])([H])C2([H])C34OC(=O)C([H])=C3C2(C([H])([H])[H])C([H])(OC([H])([H])[H])C2([H])C(C([H])([H])[H])(C(=O)C([H])([H])C([H])([H])C2(C([H])([H])[H])C([H])([H])[H])C14[H]

$$$$
122:1:1
     RDKit          3D

 55 59  0  0  1  0  0  0  0  0999 V2000
    3.2687   -7.1080    1.9224 C   0  0  0  0  0  0  0  0  0  0  0  0
    2.8392   -5.7432    1.7330 O   0  0  0  0  0  0  0  0  0  0  0  0
    3.7995   -4.6879    1.9129 C   0  0  2  0  0  0  0  0  0  0  0  0
    3.0648   -3.4844    2.7915 C   0  0  1  0  0  0  0  0  0  0  0  0
    3.1228   -3.8498    4.3310 C   0  0  0  0  0  0  0  0  0  0  0  0
    2.5422   -5.2350    4.6533 C   0  0  0  0  0  0  0  0  0  0  0  0
    4.5680   -3.8033    4.8972 C   0  0  0  0  0  0  0  0  0  0  0  0
    2.2170   -2.8803    5.1089 C   0  0  0  0  0  0  0  0  0  0  0  0
    2.7642   -1.4625    5.1532 C   0  0  0  0  0  0  0  0  0  0  0  0
    3.2362   -0.9310    3.7975 C   0  0  0  0  0  0  0  0  0  0  0  0
    3.5080    0.2549    3.7027 O   0  0  0  0  0  0  0  0  0  0  0  0
    3.2607   -1.8609    2.5408 C   0  0  2  0  0  0  0  0  0  0  0  0
    2.0706   -1.3206    1.7051 C   0  0  0  0  0  0  0  0  0  0  0  0
    4.5967   -1.7391    1.7866 C   0  0  2  0  0  0  0  0  0  0  0  0
    5.7860   -0.7285    1.6663 C   0  0  1  0  0  0  0  0  0  0  0  0
    6.1998   -0.2746    2.9190 O   0  0  0  0  0  0  0  0  0  0  0  0
    6.9233   -1.3849    0.9663 O   0  0  0  0  0  0  0  0  0  0  0  0
    6.8467   -2.5620    0.0312 C   0  0  0  0  0  0  0  0  0  0  0  0
    5.6517   -3.2968    0.5872 C   0  0  2  0  0  0  0  0  0  0  0  0
    4.5477   -4.4284    0.5191 C   0  0  1  0  0  0  0  0  0  0  0  0
    4.8602   -5.6337   -0.3273 C   0  0  0  0  0  0  0  0  0  0  0  0
    3.7915   -3.3564   -0.1313 C   0  0  0  0  0  0  0  0  0  0  0  0
    3.2942   -3.1519   -1.3544 C   0  0  0  0  0  0  0  0  0  0  0  0
    3.7961   -1.8282   -1.7190 C   0  0  0  0  0  0  0  0  0  0  0  0
    3.6685   -1.2645   -2.8127 O   0  0  0  0  0  0  0  0  0  0  0  0
    4.4929   -1.3295   -0.6571 O   0  0  0  0  0  0  0  0  0  0  0  0
    4.5609   -2.2737    0.4282 C   0  0  1  0  0  0  0  0  0  0  0  0
    2.4140   -7.7874    1.8604 H   0  0  0  0  0  0  0  0  0  0  0  0
    3.7593   -7.3041    2.8724 H   0  0  0  0  0  0  0  0  0  0  0  0
    3.9864   -7.4566    1.1879 H   0  0  0  0  0  0  0  0  0  0  0  0
    4.5519   -5.1065    2.5664 H   0  0  0  0  0  0  0  0  0  0  0  0
    2.0169   -3.6312    2.5263 H   0  0  0  0  0  0  0  0  0  0  0  0
    2.3971   -5.3892    5.7253 H   0  0  0  0  0  0  0  0  0  0  0  0
    3.2490   -6.0015    4.3696 H   0  0  0  0  0  0  0  0  0  0  0  0
    1.5880   -5.4096    4.1576 H   0  0  0  0  0  0  0  0  0  0  0  0
    4.5689   -3.9679    5.9767 H   0  0  0  0  0  0  0  0  0  0  0  0
    5.0697   -2.8525    4.7234 H   0  0  0  0  0  0  0  0  0  0  0  0
    5.2187   -4.5699    4.4729 H   0  0  0  0  0  0  0  0  0  0  0  0
    1.2232   -2.8752    4.6669 H   0  0  0  0  0  0  0  0  0  0  0  0
    2.0898   -3.2299    6.1383 H   0  0  0  0  0  0  0  0  0  0  0  0
    2.0045   -0.7897    5.5578 H   0  0  0  0  0  0  0  0  0  0  0  0
    3.6111   -1.4252    5.8388 H   0  0  0  0  0  0  0  0  0  0  0  0
    1.8318   -1.9676    0.8659 H   0  0  0  0  0  0  0  0  0  0  0  0
    2.2594   -0.3160    1.3152 H   0  0  0  0  0  0  0  0  0  0  0  0
    1.1643   -1.2480    2.3090 H   0  0  0  0  0  0  0  0  0  0  0  0
    5.0885   -2.3457    2.5292 H   0  0  0  0  0  0  0  0  0  0  0  0
    5.4794    0.1589    1.1043 H   0  0  0  0  0  0  0  0  0  0  0  0
    6.9739    0.2690    2.7527 H   0  0  0  0  0  0  0  0  0  0  0  0
    6.7308   -2.2614   -1.0080 H   0  0  0  0  0  0  0  0  0  0  0  0
    7.7720   -3.1399    0.1084 H   0  0  0  0  0  0  0  0  0  0  0  0
    6.0442   -3.6480    1.5331 H   0  0  0  0  0  0  0  0  0  0  0  0
    5.5504   -6.3024    0.1801 H   0  0  0  0  0  0  0  0  0  0  0  0
    5.3330   -5.3419   -1.2682 H   0  0  0  0  0  0  0  0  0  0  0  0
    3.9582   -6.1825   -0.5882 H   0  0  0  0  0  0  0  0  0  0  0  0
    2.9765   -3.8673   -2.0907 H   0  0  0  0  0  0  0  0  0  0  0  0
  1  2  1  0
  1 28  1  0
  1 29  1  0
  1 30  1  0
  2  3  1  0
  3 20  1  0
  3  4  1  0
  3 31  1  1
  4 12  1  0
  4  5  1  0
  4 32  1  6
  5  6  1  0
  5  7  1  0
  5  8  1  0
  6 33  1  0
  6 34  1  0
  6 35  1  0
  7 36  1  0
  7 37  1  0
  7 38  1  0
  8  9  1  0
  8 39  1  0
  8 40  1  0
  9 10  1  0
  9 41  1  0
  9 42  1  0
 10 11  2  0
 10 12  1  0
 12 13  1  6
 12 14  1  0
 13 43  1  0
 13 44  1  0
 13 45  1  0
 14 27  1  0
 14 15  1  0
 14 46  1  1
 15 16  1  0
 15 17  1  0
 15 47  1  6
 16 48  1  0
 17 18  1  0
 18 19  1  0
 18 49  1  0
 18 50  1  0
 19 27  1  0
 19 20  1  0
 19 51  1  1
 20 21  1  6
 20 22  1  0
 21 52  1  0
 21 53  1  0
 21 54  1  0
 22 27  1  0
 22 23  2  0
 23 24  1  0
 23 55  1  0
 24 25  2  0
 24 26  1  0
 27 26  1  6
M  END
>  <i_m_ct_stereo_status>  (430) 
1

>  <s_m_source_file>  (430) 
/var/tmp/pbs.5076255.sched01/tmpl4jv_xt6/1264eazgjw7.sdf

>  <i_m_source_file_index>  (430) 
42

>  <i_lp_mmshare_version>  (430) 
48012

>  <i_f3d_flags>  (430) 
0

>  <s_epik_input>  (430) 
W09IXVtDQEhdMU9bQ0gyXVtDSF0yW0NAXShbQ0gzXSkoQzM9W0NIXUMoPU8pTzQpW0NASF0oT1tDSDNdKVtDQEhdKFtDQF01KFtDSDNdKVtDQEhdMVtDQEBdMjM0KUMoW0NIM10pKFtDSDNdKVtDSDJdW0NIMl1DNT1P

>  <s_epik_cmdline>  (430) 
J2VwaWtfcHl0aG9uJywgJy1waHQnLCAnMi4wJywgJy1waCcsICc3LjAnLCAnLXRuJywgJzgnLCAnLW1hJywgJzIwMCcsICctaW1hZScsICc8aW5maWxlLm1hZT4nLCAnLW9tYWUnLCAnPG91dGZpbGUubWFlPic=

>  <r_lp_tautomer_probability>  (430) 
1

>  <r_epik_Ionization_Penalty>  (430) 
1.65344e-06

>  <r_epik_Ionization_Penalty_Charging>  (430) 
0

>  <r_epik_Ionization_Penalty_Neutral>  (430) 
1.65344e-06

>  <r_epik_State_Penalty>  (430) 
-0

>  <r_epik_Charging_Adjusted_Penalty>  (430) 
0

>  <i_epik_Tot_Q>  (430) 
0

>  <i_epik_Tot_abs_Q>  (430) 
0

>  <s_epik_Chemistry_Notes>  (430) 
This compound has an ester and may undergo hydrolysis at high or low pH. This compound contains an acetal/aminal-like group ( X-CH(R)-Y where X, Y are N, S, or O) that may be acid/base labile, releasing an aldehyde.

>  <s_lp_Force_Field>  (430) 
OPLS3e

>  <r_lp_Energy>  (430) 
201.278

>  <b_lp_Chiralities_Consistent>  (430) 
1

>  <s_lp_Variant>  (430) 
122:0-2

>  <s_i_glide_gridfile>  (430) 
pfpi4k_grid

>  <i_i_glide_lignum>  (430) 
42

>  <i_i_glide_rotatable_bonds>  (430) 
2

>  <r_i_docking_score>  (430) 
-2.94778

>  <r_i_glide_ligand_efficiency>  (430) 
-0.109177

>  <r_i_glide_ligand_efficiency_sa>  (430) 
-0.327531

>  <r_i_glide_ligand_efficiency_ln>  (430) 
-0.686195

>  <r_i_glide_gscore>  (430) 
-2.94778

>  <r_i_glide_lipo>  (430) 
-0.280299

>  <r_i_glide_hbond>  (430) 
0

>  <r_i_glide_metal>  (430) 
-0

>  <r_i_glide_rewards>  (430) 
-0.955609

>  <r_i_glide_evdw>  (430) 
-20.2749

>  <r_i_glide_ecoul>  (430) 
-4.29449

>  <r_i_glide_erotb>  (430) 
0

>  <r_i_glide_esite>  (430) 
-0.0539538

>  <r_i_glide_emodel>  (430) 
-26.9683

>  <r_i_glide_energy>  (430) 
-24.5694

>  <r_i_glide_einternal>  (430) 
2.20353

>  <r_i_glide_intrahb_reward>  (430) 
-0

>  <i_i_glide_confnum>  (430) 
1

>  <i_i_glide_posenum>  (430) 
21

>  <r_i_glide_eff_state_penalty>  (430) 
0

>  <ligand_id>  (430) 
122

>  <original_smiles>  (430) 
COC1C2C(C)(C)CCC(=O)C2(C)C2C(O)OCC3C1(C)C1=CC(=O)OC132

>  <smiles>  (430) 
[H]OC1([H])OC([H])([H])C2([H])C34OC(=O)C([H])=C3C2(C([H])([H])[H])C([H])(OC([H])([H])[H])C2([H])C(C([H])([H])[H])(C(=O)C([H])([H])C([H])([H])C2(C([H])([H])[H])C([H])([H])[H])C14[H]

$$$$
122:1:2
     RDKit          3D

 55 59  0  0  1  0  0  0  0  0999 V2000
    2.6620   -7.0692    2.1685 C   0  0  0  0  0  0  0  0  0  0  0  0
    2.3078   -5.6938    1.9081 O   0  0  0  0  0  0  0  0  0  0  0  0
    3.2999   -4.6780    2.1270 C   0  0  2  0  0  0  0  0  0  0  0  0
    2.5571   -3.4200    2.9239 C   0  0  1  0  0  0  0  0  0  0  0  0
    2.4891   -3.7440    4.4731 C   0  0  0  0  0  0  0  0  0  0  0  0
    1.8343   -5.0972    4.7881 C   0  0  0  0  0  0  0  0  0  0  0  0
    3.8915   -3.7377    5.1385 C   0  0  0  0  0  0  0  0  0  0  0  0
    1.5677   -2.7200    5.1601 C   0  0  0  0  0  0  0  0  0  0  0  0
    2.1677   -1.3229    5.2087 C   0  0  0  0  0  0  0  0  0  0  0  0
    2.7574   -0.8528    3.8756 C   0  0  0  0  0  0  0  0  0  0  0  0
    3.0875    0.3238    3.7793 O   0  0  0  0  0  0  0  0  0  0  0  0
    2.8366   -1.8101    2.6531 C   0  0  2  0  0  0  0  0  0  0  0  0
    1.7255   -1.2571    1.7303 C   0  0  0  0  0  0  0  0  0  0  0  0
    4.2249   -1.7562    1.9845 C   0  0  2  0  0  0  0  0  0  0  0  0
    5.4627   -0.7787    1.9251 C   0  0  1  0  0  0  0  0  0  0  0  0
    5.8113   -0.2970    3.1954 O   0  0  0  0  0  0  0  0  0  0  0  0
    6.6172   -1.5000    1.3231 O   0  0  0  0  0  0  0  0  0  0  0  0
    6.5583   -2.7068    0.4211 C   0  0  0  0  0  0  0  0  0  0  0  0
    5.2947   -3.3890    0.9001 C   0  0  2  0  0  0  0  0  0  0  0  0
    4.1567   -4.4777    0.7864 C   0  0  1  0  0  0  0  0  0  0  0  0
    4.4747   -5.7264   -0.0180 C   0  0  0  0  0  0  0  0  0  0  0  0
    3.4885   -3.3994    0.0536 C   0  0  0  0  0  0  0  0  0  0  0  0
    3.0821   -3.2043   -1.1990 C   0  0  0  0  0  0  0  0  0  0  0  0
    3.6677   -1.9104   -1.5683 C   0  0  0  0  0  0  0  0  0  0  0  0
    3.6451   -1.3787   -2.6783 O   0  0  0  0  0  0  0  0  0  0  0  0
    4.3081   -1.4142   -0.4653 O   0  0  0  0  0  0  0  0  0  0  0  0
    4.2656   -2.3229    0.6466 C   0  0  1  0  0  0  0  0  0  0  0  0
    1.7858   -7.7136    2.0505 H   0  0  0  0  0  0  0  0  0  0  0  0
    3.0567   -7.2619    3.1633 H   0  0  0  0  0  0  0  0  0  0  0  0
    3.4219   -7.4660    1.5009 H   0  0  0  0  0  0  0  0  0  0  0  0
    3.9866   -5.1089    2.8428 H   0  0  0  0  0  0  0  0  0  0  0  0
    1.5253   -3.5341    2.5909 H   0  0  0  0  0  0  0  0  0  0  0  0
    1.5971   -5.2085    5.8502 H   0  0  0  0  0  0  0  0  0  0  0  0
    2.5320   -5.8953    4.5820 H   0  0  0  0  0  0  0  0  0  0  0  0
    0.9121   -5.2502    4.2278 H   0  0  0  0  0  0  0  0  0  0  0  0
    3.8082   -3.8731    6.2184 H   0  0  0  0  0  0  0  0  0  0  0  0
    4.4425   -2.8144    4.9762 H   0  0  0  0  0  0  0  0  0  0  0  0
    4.5360   -4.5421    4.7801 H   0  0  0  0  0  0  0  0  0  0  0  0
    0.6094   -2.6899    4.6477 H   0  0  0  0  0  0  0  0  0  0  0  0
    1.3563   -3.0354    6.1858 H   0  0  0  0  0  0  0  0  0  0  0  0
    1.4090   -0.6098    5.5395 H   0  0  0  0  0  0  0  0  0  0  0  0
    2.9662   -1.2992    5.9520 H   0  0  0  0  0  0  0  0  0  0  0  0
    1.5187   -1.9397    0.9238 H   0  0  0  0  0  0  0  0  0  0  0  0
    1.9801   -0.2825    1.3091 H   0  0  0  0  0  0  0  0  0  0  0  0
    0.7903   -1.1164    2.2726 H   0  0  0  0  0  0  0  0  0  0  0  0
    4.6389   -2.3624    2.7754 H   0  0  0  0  0  0  0  0  0  0  0  0
    5.2263    0.0997    1.3219 H   0  0  0  0  0  0  0  0  0  0  0  0
    5.9797   -1.0362    3.7531 H   0  0  0  0  0  0  0  0  0  0  0  0
    6.5266   -2.4420   -0.6387 H   0  0  0  0  0  0  0  0  0  0  0  0
    7.4483   -3.3254    0.5725 H   0  0  0  0  0  0  0  0  0  0  0  0
    5.6088   -3.7295    1.8823 H   0  0  0  0  0  0  0  0  0  0  0  0
    5.0908   -6.4129    0.5594 H   0  0  0  0  0  0  0  0  0  0  0  0
    5.0263   -5.4921   -0.9284 H   0  0  0  0  0  0  0  0  0  0  0  0
    3.5624   -6.2338   -0.3233 H   0  0  0  0  0  0  0  0  0  0  0  0
    2.7867   -3.9230   -1.9478 H   0  0  0  0  0  0  0  0  0  0  0  0
  1  2  1  0
  1 28  1  0
  1 29  1  0
  1 30  1  0
  2  3  1  0
  3 20  1  0
  3  4  1  0
  3 31  1  1
  4 12  1  0
  4  5  1  0
  4 32  1  6
  5  6  1  0
  5  7  1  0
  5  8  1  0
  6 33  1  0
  6 34  1  0
  6 35  1  0
  7 36  1  0
  7 37  1  0
  7 38  1  0
  8  9  1  0
  8 39  1  0
  8 40  1  0
  9 10  1  0
  9 41  1  0
  9 42  1  0
 10 11  2  0
 10 12  1  0
 12 13  1  6
 12 14  1  0
 13 43  1  0
 13 44  1  0
 13 45  1  0
 14 27  1  0
 14 15  1  0
 14 46  1  1
 15 16  1  0
 15 17  1  0
 15 47  1  6
 16 48  1  0
 17 18  1  0
 18 19  1  0
 18 49  1  0
 18 50  1  0
 19 27  1  0
 19 20  1  0
 19 51  1  1
 20 21  1  6
 20 22  1  0
 21 52  1  0
 21 53  1  0
 21 54  1  0
 22 27  1  0
 22 23  2  0
 23 24  1  0
 23 55  1  0
 24 25  2  0
 24 26  1  0
 27 26  1  6
M  END
>  <i_m_ct_stereo_status>  (431) 
1

>  <s_m_source_file>  (431) 
/var/tmp/pbs.5076255.sched01/tmpl4jv_xt6/1264eazgjw7.sdf

>  <i_m_source_file_index>  (431) 
42

>  <i_lp_mmshare_version>  (431) 
48012

>  <i_f3d_flags>  (431) 
0

>  <s_epik_input>  (431) 
W09IXVtDQEhdMU9bQ0gyXVtDSF0yW0NAXShbQ0gzXSkoQzM9W0NIXUMoPU8pTzQpW0NASF0oT1tDSDNdKVtDQEhdKFtDQF01KFtDSDNdKVtDQEhdMVtDQEBdMjM0KUMoW0NIM10pKFtDSDNdKVtDSDJdW0NIMl1DNT1P

>  <s_epik_cmdline>  (431) 
J2VwaWtfcHl0aG9uJywgJy1waHQnLCAnMi4wJywgJy1waCcsICc3LjAnLCAnLXRuJywgJzgnLCAnLW1hJywgJzIwMCcsICctaW1hZScsICc8aW5maWxlLm1hZT4nLCAnLW9tYWUnLCAnPG91dGZpbGUubWFlPic=

>  <r_lp_tautomer_probability>  (431) 
1

>  <r_epik_Ionization_Penalty>  (431) 
1.65344e-06

>  <r_epik_Ionization_Penalty_Charging>  (431) 
0

>  <r_epik_Ionization_Penalty_Neutral>  (431) 
1.65344e-06

>  <r_epik_State_Penalty>  (431) 
-0

>  <r_epik_Charging_Adjusted_Penalty>  (431) 
0

>  <i_epik_Tot_Q>  (431) 
0

>  <i_epik_Tot_abs_Q>  (431) 
0

>  <s_epik_Chemistry_Notes>  (431) 
This compound has an ester and may undergo hydrolysis at high or low pH. This compound contains an acetal/aminal-like group ( X-CH(R)-Y where X, Y are N, S, or O) that may be acid/base labile, releasing an aldehyde.

>  <s_lp_Force_Field>  (431) 
OPLS3e

>  <r_lp_Energy>  (431) 
201.278

>  <b_lp_Chiralities_Consistent>  (431) 
1

>  <s_lp_Variant>  (431) 
122:0-2

>  <s_i_glide_gridfile>  (431) 
pfpi4k_grid

>  <i_i_glide_lignum>  (431) 
42

>  <i_i_glide_rotatable_bonds>  (431) 
2

>  <r_i_docking_score>  (431) 
-2.57776

>  <r_i_glide_ligand_efficiency>  (431) 
-0.0954725

>  <r_i_glide_ligand_efficiency_sa>  (431) 
-0.286417

>  <r_i_glide_ligand_efficiency_ln>  (431) 
-0.600059

>  <r_i_glide_gscore>  (431) 
-2.57776

>  <r_i_glide_lipo>  (431) 
-0.234561

>  <r_i_glide_hbond>  (431) 
0

>  <r_i_glide_metal>  (431) 
-0

>  <r_i_glide_rewards>  (431) 
-0.989065

>  <r_i_glide_evdw>  (431) 
-21.6848

>  <r_i_glide_ecoul>  (431) 
-1.38063

>  <r_i_glide_erotb>  (431) 
0

>  <r_i_glide_esite>  (431) 
-0.0627936

>  <r_i_glide_emodel>  (431) 
-25.0388

>  <r_i_glide_energy>  (431) 
-23.0655

>  <r_i_glide_einternal>  (431) 
1.57851

>  <r_i_glide_intrahb_reward>  (431) 
-0

>  <i_i_glide_confnum>  (431) 
2

>  <i_i_glide_posenum>  (431) 
15

>  <r_i_glide_eff_state_penalty>  (431) 
0

>  <ligand_id>  (431) 
122

>  <original_smiles>  (431) 
COC1C2C(C)(C)CCC(=O)C2(C)C2C(O)OCC3C1(C)C1=CC(=O)OC132

>  <smiles>  (431) 
[H]OC1([H])OC([H])([H])C2([H])C34OC(=O)C([H])=C3C2(C([H])([H])[H])C([H])(OC([H])([H])[H])C2([H])C(C([H])([H])[H])(C(=O)C([H])([H])C([H])([H])C2(C([H])([H])[H])C([H])([H])[H])C14[H]

$$$$
